
  -OEChem-03222214023D

 24 23  0     1  0  0  0  0  0999 V2000
   -2.8304   -3.6955    0.5691 H   0  0  0  0  0  0  0  0  0  0  0  0
   -2.7543   -2.6886    0.1492 C   0  0  0  0  0  0  0  0  0  0  0  0
   -3.3632   -2.0090    0.7504 H   0  0  0  0  0  0  0  0  0  0  0  0
   -3.1385   -2.7029   -0.8736 H   0  0  0  0  0  0  0  0  0  0  0  0
   -1.3079   -2.2261    0.1507 C   0  0  0  0  0  0  0  0  0  0  0  0
   -0.4392   -2.9766    0.5654 O   0  0  0  0  0  0  0  0  0  0  0  0
   -1.0149   -0.9564   -0.2928 N   0  0  0  0  0  0  0  0  0  0  0  0
   -1.7988   -0.3366   -0.4834 H   0  0  0  0  0  0  0  0  0  0  0  0
    0.2996   -0.3049   -0.2353 C   0  0  1  0  0  0  0  0  0  0  0  0
    0.9502   -0.8276    0.4746 H   0  0  0  0  0  0  0  0  0  0  0  0
    0.9573   -0.3358   -1.6264 C   0  0  0  0  0  0  0  0  0  0  0  0
    1.0623   -1.3746   -1.9501 H   0  0  0  0  0  0  0  0  0  0  0  0
    0.3127    0.1764   -2.3455 H   0  0  0  0  0  0  0  0  0  0  0  0
    2.3409    0.3184   -1.6710 C   0  0  0  0  0  0  0  0  0  0  0  0
    2.9173    0.3199   -2.7841 O   0  5  0  0  0  0  0  0  0  0  0  0
    2.8574    0.7404   -0.6023 O   0  0  0  0  0  0  0  0  0  0  0  0
    0.0902    1.1421    0.2825 C   0  0  0  0  0  0  0  0  0  0  0  0
   -0.9765    1.7173    0.0522 O   0  0  0  0  0  0  0  0  0  0  0  0
    0.9346    1.6525    1.2473 N   0  0  0  0  0  0  0  0  0  0  0  0
    1.8945    1.3149    1.1096 H   0  0  0  0  0  0  0  0  0  0  0  0
    0.7797    2.9998    1.7733 C   0  0  0  0  0  0  0  0  0  0  0  0
   -0.1987    3.1166    2.2501 H   0  0  0  0  0  0  0  0  0  0  0  0
    1.5526    3.1997    2.5211 H   0  0  0  0  0  0  0  0  0  0  0  0
    0.8732    3.7365    0.9689 H   0  0  0  0  0  0  0  0  0  0  0  0
  1  2  1  0  0  0  0
  2  3  1  0  0  0  0
  2  4  1  0  0  0  0
  2  5  1  0  0  0  0
  5  6  2  0  0  0  0
  5  7  1  0  0  0  0
  7  8  1  0  0  0  0
  7  9  1  0  0  0  0
  9 10  1  0  0  0  0
  9 11  1  0  0  0  0
  9 17  1  0  0  0  0
 11 12  1  0  0  0  0
 11 13  1  0  0  0  0
 11 14  1  0  0  0  0
 14 15  1  0  0  0  0
 14 16  2  0  0  0  0
 17 18  2  0  0  0  0
 17 19  1  0  0  0  0
 19 20  1  0  0  0  0
 19 21  1  0  0  0  0
 21 22  1  0  0  0  0
 21 23  1  0  0  0  0
 21 24  1  0  0  0  0
M  CHG  1  15  -1
M  END
$$$$

  -OEChem-03222214023D

 24 23  0     1  0  0  0  0  0999 V2000
   -2.8264   -3.7198    0.5578 H   0  0  0  0  0  0  0  0  0  0  0  0
   -2.7590   -2.7084    0.1473 C   0  0  0  0  0  0  0  0  0  0  0  0
   -3.3697   -2.0389    0.7581 H   0  0  0  0  0  0  0  0  0  0  0  0
   -3.1480   -2.7156   -0.8739 H   0  0  0  0  0  0  0  0  0  0  0  0
   -1.3155   -2.2364    0.1466 C   0  0  0  0  0  0  0  0  0  0  0  0
   -0.4412   -2.9847    0.5535 O   0  0  0  0  0  0  0  0  0  0  0  0
   -1.0311   -0.9645   -0.2967 N   0  0  0  0  0  0  0  0  0  0  0  0
   -1.8197   -0.3523   -0.4913 H   0  0  0  0  0  0  0  0  0  0  0  0
    0.2778   -0.3022   -0.2400 C   0  0  1  0  0  0  0  0  0  0  0  0
    0.9224   -0.8241    0.4762 H   0  0  0  0  0  0  0  0  0  0  0  0
    0.9542   -0.3367   -1.6202 C   0  0  0  0  0  0  0  0  0  0  0  0
    1.0788   -1.3743   -1.9398 H   0  0  0  0  0  0  0  0  0  0  0  0
    0.3154    0.1669   -2.3506 H   0  0  0  0  0  0  0  0  0  0  0  0
    2.3282    0.3379   -1.6285 C   0  0  0  0  0  0  0  0  0  0  0  0
    2.8126    0.6102   -2.7520 O   0  5  0  0  0  0  0  0  0  0  0  0
    2.8977    0.5758   -0.5296 O   0  0  0  0  0  0  0  0  0  0  0  0
    0.0842    1.1461    0.2747 C   0  0  0  0  0  0  0  0  0  0  0  0
   -0.9770    1.7315    0.0480 O   0  0  0  0  0  0  0  0  0  0  0  0
    0.9418    1.6470    1.2327 N   0  0  0  0  0  0  0  0  0  0  0  0
    1.8924    1.2775    1.1113 H   0  0  0  0  0  0  0  0  0  0  0  0
    0.8177    3.0008    1.7496 C   0  0  0  0  0  0  0  0  0  0  0  0
   -0.1507    3.1374    2.2414 H   0  0  0  0  0  0  0  0  0  0  0  0
    1.6062    3.1937    2.4828 H   0  0  0  0  0  0  0  0  0  0  0  0
    0.9101    3.7294    0.9378 H   0  0  0  0  0  0  0  0  0  0  0  0
  1  2  1  0  0  0  0
  2  3  1  0  0  0  0
  2  4  1  0  0  0  0
  2  5  1  0  0  0  0
  5  6  2  0  0  0  0
  5  7  1  0  0  0  0
  7  8  1  0  0  0  0
  7  9  1  0  0  0  0
  9 10  1  0  0  0  0
  9 11  1  0  0  0  0
  9 17  1  0  0  0  0
 11 12  1  0  0  0  0
 11 13  1  0  0  0  0
 11 14  1  0  0  0  0
 14 15  1  0  0  0  0
 14 16  2  0  0  0  0
 17 18  2  0  0  0  0
 17 19  1  0  0  0  0
 19 20  1  0  0  0  0
 19 21  1  0  0  0  0
 21 22  1  0  0  0  0
 21 23  1  0  0  0  0
 21 24  1  0  0  0  0
M  CHG  1  15  -1
M  END
$$$$

  -OEChem-03222214023D

 24 23  0     1  0  0  0  0  0999 V2000
   -2.8196   -3.7420    0.5496 H   0  0  0  0  0  0  0  0  0  0  0  0
   -2.7606   -2.7287    0.1428 C   0  0  0  0  0  0  0  0  0  0  0  0
   -3.3769   -2.0665    0.7559 H   0  0  0  0  0  0  0  0  0  0  0  0
   -3.1494   -2.7354   -0.8784 H   0  0  0  0  0  0  0  0  0  0  0  0
   -1.3210   -2.2449    0.1441 C   0  0  0  0  0  0  0  0  0  0  0  0
   -0.4416   -2.9871    0.5508 O   0  0  0  0  0  0  0  0  0  0  0  0
   -1.0469   -0.9707   -0.2999 N   0  0  0  0  0  0  0  0  0  0  0  0
   -1.8408   -0.3673   -0.4990 H   0  0  0  0  0  0  0  0  0  0  0  0
    0.2559   -0.2961   -0.2474 C   0  0  1  0  0  0  0  0  0  0  0  0
    0.8948   -0.8164    0.4752 H   0  0  0  0  0  0  0  0  0  0  0  0
    0.9489   -0.3395   -1.6176 C   0  0  0  0  0  0  0  0  0  0  0  0
    1.0950   -1.3775   -1.9261 H   0  0  0  0  0  0  0  0  0  0  0  0
    0.3145    0.1489   -2.3624 H   0  0  0  0  0  0  0  0  0  0  0  0
    2.3112    0.3572   -1.5934 C   0  0  0  0  0  0  0  0  0  0  0  0
    2.6940    0.8896   -2.6615 O   0  5  0  0  0  0  0  0  0  0  0  0
    2.9316    0.4276   -0.4988 O   0  0  0  0  0  0  0  0  0  0  0  0
    0.0795    1.1530    0.2641 C   0  0  0  0  0  0  0  0  0  0  0  0
   -0.9799    1.7453    0.0508 O   0  0  0  0  0  0  0  0  0  0  0  0
    0.9539    1.6426    1.2127 N   0  0  0  0  0  0  0  0  0  0  0  0
    1.8949    1.2459    1.1027 H   0  0  0  0  0  0  0  0  0  0  0  0
    0.8576    2.9990    1.7283 C   0  0  0  0  0  0  0  0  0  0  0  0
   -0.1083    3.1564    2.2186 H   0  0  0  0  0  0  0  0  0  0  0  0
    1.6489    3.1763    2.4626 H   0  0  0  0  0  0  0  0  0  0  0  0
    0.9662    3.7246    0.9159 H   0  0  0  0  0  0  0  0  0  0  0  0
  1  2  1  0  0  0  0
  2  3  1  0  0  0  0
  2  4  1  0  0  0  0
  2  5  1  0  0  0  0
  5  6  2  0  0  0  0
  5  7  1  0  0  0  0
  7  8  1  0  0  0  0
  7  9  1  0  0  0  0
  9 10  1  0  0  0  0
  9 11  1  0  0  0  0
  9 17  1  0  0  0  0
 11 12  1  0  0  0  0
 11 13  1  0  0  0  0
 11 14  1  0  0  0  0
 14 15  1  0  0  0  0
 14 16  2  0  0  0  0
 17 18  2  0  0  0  0
 17 19  1  0  0  0  0
 19 20  1  0  0  0  0
 19 21  1  0  0  0  0
 21 22  1  0  0  0  0
 21 23  1  0  0  0  0
 21 24  1  0  0  0  0
M  CHG  1  15  -1
M  END
$$$$

  -OEChem-03222214023D

 24 23  0     1  0  0  0  0  0999 V2000
   -2.8105   -3.7599    0.5437 H   0  0  0  0  0  0  0  0  0  0  0  0
   -2.7597   -2.7452    0.1390 C   0  0  0  0  0  0  0  0  0  0  0  0
   -3.3799   -2.0889    0.7544 H   0  0  0  0  0  0  0  0  0  0  0  0
   -3.1501   -2.7528   -0.8817 H   0  0  0  0  0  0  0  0  0  0  0  0
   -1.3237   -2.2511    0.1392 C   0  0  0  0  0  0  0  0  0  0  0  0
   -0.4387   -2.9881    0.5429 O   0  0  0  0  0  0  0  0  0  0  0  0
   -1.0603   -0.9747   -0.3047 N   0  0  0  0  0  0  0  0  0  0  0  0
   -1.8593   -0.3778   -0.5026 H   0  0  0  0  0  0  0  0  0  0  0  0
    0.2370   -0.2898   -0.2585 C   0  0  1  0  0  0  0  0  0  0  0  0
    0.8722   -0.8080    0.4692 H   0  0  0  0  0  0  0  0  0  0  0  0
    0.9441   -0.3420   -1.6198 C   0  0  0  0  0  0  0  0  0  0  0  0
    1.1092   -1.3805   -1.9168 H   0  0  0  0  0  0  0  0  0  0  0  0
    0.3152    0.1326   -2.3784 H   0  0  0  0  0  0  0  0  0  0  0  0
    2.2935    0.3758   -1.5619 C   0  0  0  0  0  0  0  0  0  0  0  0
    2.5689    1.1468   -2.5105 O   0  5  0  0  0  0  0  0  0  0  0  0
    2.9662    0.2848   -0.5011 O   0  0  0  0  0  0  0  0  0  0  0  0
    0.0745    1.1594    0.2523 C   0  0  0  0  0  0  0  0  0  0  0  0
   -0.9864    1.7553    0.0585 O   0  0  0  0  0  0  0  0  0  0  0  0
    0.9660    1.6373    1.1914 N   0  0  0  0  0  0  0  0  0  0  0  0
    1.8986    1.2209    1.0858 H   0  0  0  0  0  0  0  0  0  0  0  0
    0.8932    2.9945    1.7078 C   0  0  0  0  0  0  0  0  0  0  0  0
   -0.0703    3.1695    2.1969 H   0  0  0  0  0  0  0  0  0  0  0  0
    1.6864    3.1572    2.4434 H   0  0  0  0  0  0  0  0  0  0  0  0
    1.0161    3.7178    0.8953 H   0  0  0  0  0  0  0  0  0  0  0  0
  1  2  1  0  0  0  0
  2  3  1  0  0  0  0
  2  4  1  0  0  0  0
  2  5  1  0  0  0  0
  5  6  2  0  0  0  0
  5  7  1  0  0  0  0
  7  8  1  0  0  0  0
  7  9  1  0  0  0  0
  9 10  1  0  0  0  0
  9 11  1  0  0  0  0
  9 17  1  0  0  0  0
 11 12  1  0  0  0  0
 11 13  1  0  0  0  0
 11 14  1  0  0  0  0
 14 15  1  0  0  0  0
 14 16  2  0  0  0  0
 17 18  2  0  0  0  0
 17 19  1  0  0  0  0
 19 20  1  0  0  0  0
 19 21  1  0  0  0  0
 21 22  1  0  0  0  0
 21 23  1  0  0  0  0
 21 24  1  0  0  0  0
M  CHG  1  15  -1
M  END
$$$$

  -OEChem-03222214023D

 24 23  0     1  0  0  0  0  0999 V2000
   -2.8072   -3.7672    0.5400 H   0  0  0  0  0  0  0  0  0  0  0  0
   -2.7607   -2.7506    0.1400 C   0  0  0  0  0  0  0  0  0  0  0  0
   -3.3724   -2.0970    0.7668 H   0  0  0  0  0  0  0  0  0  0  0  0
   -3.1642   -2.7524   -0.8755 H   0  0  0  0  0  0  0  0  0  0  0  0
   -1.3245   -2.2572    0.1245 C   0  0  0  0  0  0  0  0  0  0  0  0
   -0.4354   -2.9964    0.5149 O   0  0  0  0  0  0  0  0  0  0  0  0
   -1.0674   -0.9784   -0.3166 N   0  0  0  0  0  0  0  0  0  0  0  0
   -1.8704   -0.3833   -0.5033 H   0  0  0  0  0  0  0  0  0  0  0  0
    0.2264   -0.2861   -0.2734 C   0  0  1  0  0  0  0  0  0  0  0  0
    0.8589   -0.8027    0.4575 H   0  0  0  0  0  0  0  0  0  0  0  0
    0.9461   -0.3425   -1.6264 C   0  0  0  0  0  0  0  0  0  0  0  0
    1.1281   -1.3806   -1.9144 H   0  0  0  0  0  0  0  0  0  0  0  0
    0.3252    0.1217   -2.3976 H   0  0  0  0  0  0  0  0  0  0  0  0
    2.2830    0.3919   -1.5344 C   0  0  0  0  0  0  0  0  0  0  0  0
    2.4496    1.3671   -2.3034 O   0  5  0  0  0  0  0  0  0  0  0  0
    3.0200    0.1337   -0.5484 O   0  0  0  0  0  0  0  0  0  0  0  0
    0.0713    1.1621    0.2398 C   0  0  0  0  0  0  0  0  0  0  0  0
   -0.9941    1.7560    0.0655 O   0  0  0  0  0  0  0  0  0  0  0  0
    0.9730    1.6320    1.1738 N   0  0  0  0  0  0  0  0  0  0  0  0
    1.8996    1.2033    1.0768 H   0  0  0  0  0  0  0  0  0  0  0  0
    0.9132    2.9898    1.6901 C   0  0  0  0  0  0  0  0  0  0  0  0
   -0.0329    3.1607    2.2131 H   0  0  0  0  0  0  0  0  0  0  0  0
    1.7321    3.1569    2.3958 H   0  0  0  0  0  0  0  0  0  0  0  0
    1.0039    3.7126    0.8729 H   0  0  0  0  0  0  0  0  0  0  0  0
  1  2  1  0  0  0  0
  2  3  1  0  0  0  0
  2  4  1  0  0  0  0
  2  5  1  0  0  0  0
  5  6  2  0  0  0  0
  5  7  1  0  0  0  0
  7  8  1  0  0  0  0
  7  9  1  0  0  0  0
  9 10  1  0  0  0  0
  9 11  1  0  0  0  0
  9 17  1  0  0  0  0
 11 12  1  0  0  0  0
 11 13  1  0  0  0  0
 11 14  1  0  0  0  0
 14 15  1  0  0  0  0
 14 16  2  0  0  0  0
 17 18  2  0  0  0  0
 17 19  1  0  0  0  0
 19 20  1  0  0  0  0
 19 21  1  0  0  0  0
 21 22  1  0  0  0  0
 21 23  1  0  0  0  0
 21 24  1  0  0  0  0
M  CHG  1  15  -1
M  END
$$$$

  -OEChem-03222214023D

 24 23  0     1  0  0  0  0  0999 V2000
   -2.8028   -3.7635    0.5390 H   0  0  0  0  0  0  0  0  0  0  0  0
   -2.7559   -2.7474    0.1375 C   0  0  0  0  0  0  0  0  0  0  0  0
   -3.3687   -2.0931    0.7625 H   0  0  0  0  0  0  0  0  0  0  0  0
   -3.1576   -2.7506   -0.8788 H   0  0  0  0  0  0  0  0  0  0  0  0
   -1.3197   -2.2539    0.1230 C   0  0  0  0  0  0  0  0  0  0  0  0
   -0.4312   -2.9929    0.5146 O   0  0  0  0  0  0  0  0  0  0  0  0
   -1.0618   -0.9749   -0.3169 N   0  0  0  0  0  0  0  0  0  0  0  0
   -1.8637   -0.3770   -0.4992 H   0  0  0  0  0  0  0  0  0  0  0  0
    0.2338   -0.2860   -0.2790 C   0  0  1  0  0  0  0  0  0  0  0  0
    0.8756   -0.8034    0.4435 H   0  0  0  0  0  0  0  0  0  0  0  0
    0.9366   -0.3413   -1.6401 C   0  0  0  0  0  0  0  0  0  0  0  0
    1.1142   -1.3789   -1.9337 H   0  0  0  0  0  0  0  0  0  0  0  0
    0.3141    0.1292   -2.4062 H   0  0  0  0  0  0  0  0  0  0  0  0
    2.2712    0.3901   -1.5416 C   0  0  0  0  0  0  0  0  0  0  0  0
    2.3401    1.5231   -2.0722 O   0  5  0  0  0  0  0  0  0  0  0  0
    3.1110   -0.0595   -0.7239 O   0  0  0  0  0  0  0  0  0  0  0  0
    0.0757    1.1608    0.2391 C   0  0  0  0  0  0  0  0  0  0  0  0
   -0.9967    1.7462    0.0782 O   0  0  0  0  0  0  0  0  0  0  0  0
    0.9777    1.6336    1.1724 N   0  0  0  0  0  0  0  0  0  0  0  0
    1.9041    1.2086    1.0860 H   0  0  0  0  0  0  0  0  0  0  0  0
    0.9112    2.9911    1.6892 C   0  0  0  0  0  0  0  0  0  0  0  0
   -0.0390    3.1611    2.2053 H   0  0  0  0  0  0  0  0  0  0  0  0
    1.7245    3.1596    2.4011 H   0  0  0  0  0  0  0  0  0  0  0  0
    1.0070    3.7141    0.8727 H   0  0  0  0  0  0  0  0  0  0  0  0
  1  2  1  0  0  0  0
  2  3  1  0  0  0  0
  2  4  1  0  0  0  0
  2  5  1  0  0  0  0
  5  6  2  0  0  0  0
  5  7  1  0  0  0  0
  7  8  1  0  0  0  0
  7  9  1  0  0  0  0
  9 10  1  0  0  0  0
  9 11  1  0  0  0  0
  9 17  1  0  0  0  0
 11 12  1  0  0  0  0
 11 13  1  0  0  0  0
 11 14  1  0  0  0  0
 14 15  1  0  0  0  0
 14 16  2  0  0  0  0
 17 18  2  0  0  0  0
 17 19  1  0  0  0  0
 19 20  1  0  0  0  0
 19 21  1  0  0  0  0
 21 22  1  0  0  0  0
 21 23  1  0  0  0  0
 21 24  1  0  0  0  0
M  CHG  1  15  -1
M  END
$$$$

  -OEChem-03222214023D

 24 23  0     1  0  0  0  0  0999 V2000
   -2.8107   -3.7395    0.5405 H   0  0  0  0  0  0  0  0  0  0  0  0
   -2.7533   -2.7238    0.1393 C   0  0  0  0  0  0  0  0  0  0  0  0
   -3.3633   -2.0639    0.7612 H   0  0  0  0  0  0  0  0  0  0  0  0
   -3.1505   -2.7239   -0.8786 H   0  0  0  0  0  0  0  0  0  0  0  0
   -1.3131   -2.2423    0.1313 C   0  0  0  0  0  0  0  0  0  0  0  0
   -0.4330   -2.9845    0.5357 O   0  0  0  0  0  0  0  0  0  0  0  0
   -1.0411   -0.9667   -0.3097 N   0  0  0  0  0  0  0  0  0  0  0  0
   -1.8358   -0.3582   -0.4907 H   0  0  0  0  0  0  0  0  0  0  0  0
    0.2633   -0.2942   -0.2737 C   0  0  1  0  0  0  0  0  0  0  0  0
    0.9174   -0.8151    0.4351 H   0  0  0  0  0  0  0  0  0  0  0  0
    0.9333   -0.3420   -1.6523 C   0  0  0  0  0  0  0  0  0  0  0  0
    1.0819   -1.3792   -1.9638 H   0  0  0  0  0  0  0  0  0  0  0  0
    0.3032    0.1511   -2.3976 H   0  0  0  0  0  0  0  0  0  0  0  0
    2.2826    0.3626   -1.5832 C   0  0  0  0  0  0  0  0  0  0  0  0
    2.3066    1.5914   -1.8297 O   0  5  0  0  0  0  0  0  0  0  0  0
    3.2400   -0.2796   -1.0914 O   0  0  0  0  0  0  0  0  0  0  0  0
    0.0882    1.1520    0.2491 C   0  0  0  0  0  0  0  0  0  0  0  0
   -0.9938    1.7212    0.0884 O   0  0  0  0  0  0  0  0  0  0  0  0
    0.9736    1.6420    1.1905 N   0  0  0  0  0  0  0  0  0  0  0  0
    1.9113    1.2488    1.1078 H   0  0  0  0  0  0  0  0  0  0  0  0
    0.8662    2.9958    1.7113 C   0  0  0  0  0  0  0  0  0  0  0  0
   -0.0881    3.1350    2.2292 H   0  0  0  0  0  0  0  0  0  0  0  0
    1.6747    3.1880    2.4227 H   0  0  0  0  0  0  0  0  0  0  0  0
    0.9383    3.7233    0.8962 H   0  0  0  0  0  0  0  0  0  0  0  0
  1  2  1  0  0  0  0
  2  3  1  0  0  0  0
  2  4  1  0  0  0  0
  2  5  1  0  0  0  0
  5  6  2  0  0  0  0
  5  7  1  0  0  0  0
  7  8  1  0  0  0  0
  7  9  1  0  0  0  0
  9 10  1  0  0  0  0
  9 11  1  0  0  0  0
  9 17  1  0  0  0  0
 11 12  1  0  0  0  0
 11 13  1  0  0  0  0
 11 14  1  0  0  0  0
 14 15  1  0  0  0  0
 14 16  2  0  0  0  0
 17 18  2  0  0  0  0
 17 19  1  0  0  0  0
 19 20  1  0  0  0  0
 19 21  1  0  0  0  0
 21 22  1  0  0  0  0
 21 23  1  0  0  0  0
 21 24  1  0  0  0  0
M  CHG  1  15  -1
M  END
$$$$

  -OEChem-03222214023D

 24 23  0     1  0  0  0  0  0999 V2000
   -2.8185   -3.7090    0.5506 H   0  0  0  0  0  0  0  0  0  0  0  0
   -2.7516   -2.6960    0.1443 C   0  0  0  0  0  0  0  0  0  0  0  0
   -3.3582   -2.0279    0.7606 H   0  0  0  0  0  0  0  0  0  0  0  0
   -3.1456   -2.6980   -0.8750 H   0  0  0  0  0  0  0  0  0  0  0  0
   -1.3074   -2.2269    0.1387 C   0  0  0  0  0  0  0  0  0  0  0  0
   -0.4346   -2.9718    0.5541 O   0  0  0  0  0  0  0  0  0  0  0  0
   -1.0225   -0.9554   -0.3046 N   0  0  0  0  0  0  0  0  0  0  0  0
   -1.8103   -0.3365   -0.4820 H   0  0  0  0  0  0  0  0  0  0  0  0
    0.2896   -0.2984   -0.2652 C   0  0  1  0  0  0  0  0  0  0  0  0
    0.9455   -0.8200    0.4407 H   0  0  0  0  0  0  0  0  0  0  0  0
    0.9426   -0.3493   -1.6543 C   0  0  0  0  0  0  0  0  0  0  0  0
    1.0590   -1.3896   -1.9709 H   0  0  0  0  0  0  0  0  0  0  0  0
    0.3080    0.1583   -2.3854 H   0  0  0  0  0  0  0  0  0  0  0  0
    2.3099    0.3268   -1.6317 C   0  0  0  0  0  0  0  0  0  0  0  0
    2.3463    1.5798   -1.5946 O   0  5  0  0  0  0  0  0  0  0  0  0
    3.3167   -0.4135   -1.5425 O   0  0  0  0  0  0  0  0  0  0  0  0
    0.0949    1.1481    0.2586 C   0  0  0  0  0  0  0  0  0  0  0  0
   -0.9952    1.7024    0.0945 O   0  0  0  0  0  0  0  0  0  0  0  0
    0.9629    1.6498    1.2106 N   0  0  0  0  0  0  0  0  0  0  0  0
    1.9151    1.3032    1.1017 H   0  0  0  0  0  0  0  0  0  0  0  0
    0.8137    2.9938    1.7471 C   0  0  0  0  0  0  0  0  0  0  0  0
   -0.1468    3.0990    2.2615 H   0  0  0  0  0  0  0  0  0  0  0  0
    1.6129    3.1997    2.4650 H   0  0  0  0  0  0  0  0  0  0  0  0
    0.8692    3.7336    0.9420 H   0  0  0  0  0  0  0  0  0  0  0  0
  1  2  1  0  0  0  0
  2  3  1  0  0  0  0
  2  4  1  0  0  0  0
  2  5  1  0  0  0  0
  5  6  2  0  0  0  0
  5  7  1  0  0  0  0
  7  8  1  0  0  0  0
  7  9  1  0  0  0  0
  9 10  1  0  0  0  0
  9 11  1  0  0  0  0
  9 17  1  0  0  0  0
 11 12  1  0  0  0  0
 11 13  1  0  0  0  0
 11 14  1  0  0  0  0
 14 15  1  0  0  0  0
 14 16  2  0  0  0  0
 17 18  2  0  0  0  0
 17 19  1  0  0  0  0
 19 20  1  0  0  0  0
 19 21  1  0  0  0  0
 21 22  1  0  0  0  0
 21 23  1  0  0  0  0
 21 24  1  0  0  0  0
M  CHG  1  15  -1
M  END
$$$$

  -OEChem-03222214023D

 24 23  0     1  0  0  0  0  0999 V2000
   -2.8284   -3.6789    0.5668 H   0  0  0  0  0  0  0  0  0  0  0  0
   -2.7520   -2.6701    0.1518 C   0  0  0  0  0  0  0  0  0  0  0  0
   -3.3555   -1.9918    0.7599 H   0  0  0  0  0  0  0  0  0  0  0  0
   -3.1425   -2.6782   -0.8687 H   0  0  0  0  0  0  0  0  0  0  0  0
   -1.3041   -2.2125    0.1468 C   0  0  0  0  0  0  0  0  0  0  0  0
   -0.4370   -2.9641    0.5624 O   0  0  0  0  0  0  0  0  0  0  0  0
   -1.0070   -0.9449   -0.2997 N   0  0  0  0  0  0  0  0  0  0  0  0
   -1.7885   -0.3156   -0.4705 H   0  0  0  0  0  0  0  0  0  0  0  0
    0.3126   -0.3023   -0.2572 C   0  0  1  0  0  0  0  0  0  0  0  0
    0.9665   -0.8237    0.4503 H   0  0  0  0  0  0  0  0  0  0  0  0
    0.9587   -0.3589   -1.6524 C   0  0  0  0  0  0  0  0  0  0  0  0
    1.0468   -1.4021   -1.9689 H   0  0  0  0  0  0  0  0  0  0  0  0
    0.3219    0.1598   -2.3736 H   0  0  0  0  0  0  0  0  0  0  0  0
    2.3424    0.2902   -1.6754 C   0  0  0  0  0  0  0  0  0  0  0  0
    2.4448    1.5019   -1.3662 O   0  5  0  0  0  0  0  0  0  0  0  0
    3.3114   -0.4464   -1.9733 O   0  0  0  0  0  0  0  0  0  0  0  0
    0.1023    1.1454    0.2653 C   0  0  0  0  0  0  0  0  0  0  0  0
   -0.9929    1.6892    0.0952 O   0  0  0  0  0  0  0  0  0  0  0  0
    0.9557    1.6560    1.2255 N   0  0  0  0  0  0  0  0  0  0  0  0
    1.9214    1.3691    1.0654 H   0  0  0  0  0  0  0  0  0  0  0  0
    0.7639    2.9861    1.7834 C   0  0  0  0  0  0  0  0  0  0  0  0
   -0.2029    3.0555    2.2921 H   0  0  0  0  0  0  0  0  0  0  0  0
    1.5515    3.2026    2.5110 H   0  0  0  0  0  0  0  0  0  0  0  0
    0.8038    3.7409    0.9912 H   0  0  0  0  0  0  0  0  0  0  0  0
  1  2  1  0  0  0  0
  2  3  1  0  0  0  0
  2  4  1  0  0  0  0
  2  5  1  0  0  0  0
  5  6  2  0  0  0  0
  5  7  1  0  0  0  0
  7  8  1  0  0  0  0
  7  9  1  0  0  0  0
  9 10  1  0  0  0  0
  9 11  1  0  0  0  0
  9 17  1  0  0  0  0
 11 12  1  0  0  0  0
 11 13  1  0  0  0  0
 11 14  1  0  0  0  0
 14 15  1  0  0  0  0
 14 16  2  0  0  0  0
 17 18  2  0  0  0  0
 17 19  1  0  0  0  0
 19 20  1  0  0  0  0
 19 21  1  0  0  0  0
 21 22  1  0  0  0  0
 21 23  1  0  0  0  0
 21 24  1  0  0  0  0
M  CHG  1  15  -1
M  END
$$$$

  -OEChem-03222214023D

 24 23  0     1  0  0  0  0  0999 V2000
   -2.8352   -3.6558    0.5792 H   0  0  0  0  0  0  0  0  0  0  0  0
   -2.7531   -2.6483    0.1620 C   0  0  0  0  0  0  0  0  0  0  0  0
   -3.3478   -1.9643    0.7724 H   0  0  0  0  0  0  0  0  0  0  0  0
   -3.1491   -2.6551   -0.8565 H   0  0  0  0  0  0  0  0  0  0  0  0
   -1.3016   -2.2019    0.1485 C   0  0  0  0  0  0  0  0  0  0  0  0
   -0.4379   -2.9591    0.5616 O   0  0  0  0  0  0  0  0  0  0  0  0
   -0.9961   -0.9378   -0.3022 N   0  0  0  0  0  0  0  0  0  0  0  0
   -1.7730   -0.3022   -0.4710 H   0  0  0  0  0  0  0  0  0  0  0  0
    0.3279   -0.3046   -0.2534 C   0  0  1  0  0  0  0  0  0  0  0  0
    0.9772   -0.8238    0.4596 H   0  0  0  0  0  0  0  0  0  0  0  0
    0.9756   -0.3672   -1.6497 C   0  0  0  0  0  0  0  0  0  0  0  0
    1.0489   -1.4133   -1.9608 H   0  0  0  0  0  0  0  0  0  0  0  0
    0.3389    0.1548   -2.3680 H   0  0  0  0  0  0  0  0  0  0  0  0
    2.3702    0.2624   -1.7054 C   0  0  0  0  0  0  0  0  0  0  0  0
    2.5672    1.3717   -1.1509 O   0  5  0  0  0  0  0  0  0  0  0  0
    3.2494   -0.3803   -2.3260 O   0  0  0  0  0  0  0  0  0  0  0  0
    0.1061    1.1451    0.2636 C   0  0  0  0  0  0  0  0  0  0  0  0
   -0.9890    1.6863    0.0808 O   0  0  0  0  0  0  0  0  0  0  0  0
    0.9476    1.6604    1.2309 N   0  0  0  0  0  0  0  0  0  0  0  0
    1.9199    1.4120    1.0369 H   0  0  0  0  0  0  0  0  0  0  0  0
    0.7266    2.9761    1.8115 C   0  0  0  0  0  0  0  0  0  0  0  0
   -0.2384    3.0127    2.3270 H   0  0  0  0  0  0  0  0  0  0  0  0
    1.5130    3.1998    2.5383 H   0  0  0  0  0  0  0  0  0  0  0  0
    0.7427    3.7449    1.0322 H   0  0  0  0  0  0  0  0  0  0  0  0
  1  2  1  0  0  0  0
  2  3  1  0  0  0  0
  2  4  1  0  0  0  0
  2  5  1  0  0  0  0
  5  6  2  0  0  0  0
  5  7  1  0  0  0  0
  7  8  1  0  0  0  0
  7  9  1  0  0  0  0
  9 10  1  0  0  0  0
  9 11  1  0  0  0  0
  9 17  1  0  0  0  0
 11 12  1  0  0  0  0
 11 13  1  0  0  0  0
 11 14  1  0  0  0  0
 14 15  1  0  0  0  0
 14 16  2  0  0  0  0
 17 18  2  0  0  0  0
 17 19  1  0  0  0  0
 19 20  1  0  0  0  0
 19 21  1  0  0  0  0
 21 22  1  0  0  0  0
 21 23  1  0  0  0  0
 21 24  1  0  0  0  0
M  CHG  1  15  -1
M  END
$$$$

  -OEChem-03222214023D

 24 23  0     1  0  0  0  0  0999 V2000
   -2.8391   -3.6491    0.5830 H   0  0  0  0  0  0  0  0  0  0  0  0
   -2.7538   -2.6424    0.1643 C   0  0  0  0  0  0  0  0  0  0  0  0
   -3.3458   -1.9554    0.7741 H   0  0  0  0  0  0  0  0  0  0  0  0
   -3.1508   -2.6490   -0.8538 H   0  0  0  0  0  0  0  0  0  0  0  0
   -1.3008   -2.2009    0.1491 C   0  0  0  0  0  0  0  0  0  0  0  0
   -0.4391   -2.9601    0.5631 O   0  0  0  0  0  0  0  0  0  0  0  0
   -0.9915   -0.9378   -0.3018 N   0  0  0  0  0  0  0  0  0  0  0  0
   -1.7664   -0.2995   -0.4701 H   0  0  0  0  0  0  0  0  0  0  0  0
    0.3339   -0.3081   -0.2478 C   0  0  1  0  0  0  0  0  0  0  0  0
    0.9829   -0.8275    0.4654 H   0  0  0  0  0  0  0  0  0  0  0  0
    0.9811   -0.3662   -1.6450 C   0  0  0  0  0  0  0  0  0  0  0  0
    1.0509   -1.4123   -1.9560 H   0  0  0  0  0  0  0  0  0  0  0  0
    0.3419    0.1580   -2.3597 H   0  0  0  0  0  0  0  0  0  0  0  0
    2.3796    0.2548   -1.7189 C   0  0  0  0  0  0  0  0  0  0  0  0
    2.6827    1.2019   -0.9501 O   0  5  0  0  0  0  0  0  0  0  0  0
    3.1477   -0.2193   -2.5887 O   0  0  0  0  0  0  0  0  0  0  0  0
    0.1061    1.1417    0.2676 C   0  0  0  0  0  0  0  0  0  0  0  0
   -0.9838    1.6871    0.0680 O   0  0  0  0  0  0  0  0  0  0  0  0
    0.9398    1.6597    1.2393 N   0  0  0  0  0  0  0  0  0  0  0  0
    1.9139    1.4126    1.0414 H   0  0  0  0  0  0  0  0  0  0  0  0
    0.7157    2.9753    1.8188 C   0  0  0  0  0  0  0  0  0  0  0  0
   -0.2526    3.0114    2.3281 H   0  0  0  0  0  0  0  0  0  0  0  0
    1.4977    3.1980    2.5505 H   0  0  0  0  0  0  0  0  0  0  0  0
    0.7371    3.7447    1.0403 H   0  0  0  0  0  0  0  0  0  0  0  0
  1  2  1  0  0  0  0
  2  3  1  0  0  0  0
  2  4  1  0  0  0  0
  2  5  1  0  0  0  0
  5  6  2  0  0  0  0
  5  7  1  0  0  0  0
  7  8  1  0  0  0  0
  7  9  1  0  0  0  0
  9 10  1  0  0  0  0
  9 11  1  0  0  0  0
  9 17  1  0  0  0  0
 11 12  1  0  0  0  0
 11 13  1  0  0  0  0
 11 14  1  0  0  0  0
 14 15  1  0  0  0  0
 14 16  2  0  0  0  0
 17 18  2  0  0  0  0
 17 19  1  0  0  0  0
 19 20  1  0  0  0  0
 19 21  1  0  0  0  0
 21 22  1  0  0  0  0
 21 23  1  0  0  0  0
 21 24  1  0  0  0  0
M  CHG  1  15  -1
M  END
$$$$

  -OEChem-03222214023D

 24 23  0     1  0  0  0  0  0999 V2000
   -2.8378   -3.6647    0.5741 H   0  0  0  0  0  0  0  0  0  0  0  0
   -2.7547   -2.6568    0.1582 C   0  0  0  0  0  0  0  0  0  0  0  0
   -3.3511   -1.9733    0.7675 H   0  0  0  0  0  0  0  0  0  0  0  0
   -3.1477   -2.6623   -0.8615 H   0  0  0  0  0  0  0  0  0  0  0  0
   -1.3034   -2.2104    0.1502 C   0  0  0  0  0  0  0  0  0  0  0  0
   -0.4403   -2.9696    0.5612 O   0  0  0  0  0  0  0  0  0  0  0  0
   -0.9970   -0.9452   -0.2968 N   0  0  0  0  0  0  0  0  0  0  0  0
   -1.7736   -0.3113   -0.4729 H   0  0  0  0  0  0  0  0  0  0  0  0
    0.3260   -0.3109   -0.2391 C   0  0  1  0  0  0  0  0  0  0  0  0
    0.9757   -0.8327    0.4720 H   0  0  0  0  0  0  0  0  0  0  0  0
    0.9733   -0.3559   -1.6364 C   0  0  0  0  0  0  0  0  0  0  0  0
    1.0527   -1.3994   -1.9534 H   0  0  0  0  0  0  0  0  0  0  0  0
    0.3295    0.1676   -2.3477 H   0  0  0  0  0  0  0  0  0  0  0  0
    2.3689    0.2711   -1.7096 C   0  0  0  0  0  0  0  0  0  0  0  0
    2.7739    1.0055   -0.7718 O   0  5  0  0  0  0  0  0  0  0  0  0
    3.0268    0.0262   -2.7480 O   0  0  0  0  0  0  0  0  0  0  0  0
    0.1018    1.1376    0.2784 C   0  0  0  0  0  0  0  0  0  0  0  0
   -0.9788    1.6942    0.0623 O   0  0  0  0  0  0  0  0  0  0  0  0
    0.9348    1.6547    1.2505 N   0  0  0  0  0  0  0  0  0  0  0  0
    1.9054    1.3729    1.0754 H   0  0  0  0  0  0  0  0  0  0  0  0
    0.7363    2.9861    1.8024 C   0  0  0  0  0  0  0  0  0  0  0  0
   -0.2392    3.0579    2.2939 H   0  0  0  0  0  0  0  0  0  0  0  0
    1.5114    3.2015    2.5435 H   0  0  0  0  0  0  0  0  0  0  0  0
    0.7916    3.7401    1.0106 H   0  0  0  0  0  0  0  0  0  0  0  0
  1  2  1  0  0  0  0
  2  3  1  0  0  0  0
  2  4  1  0  0  0  0
  2  5  1  0  0  0  0
  5  6  2  0  0  0  0
  5  7  1  0  0  0  0
  7  8  1  0  0  0  0
  7  9  1  0  0  0  0
  9 10  1  0  0  0  0
  9 11  1  0  0  0  0
  9 17  1  0  0  0  0
 11 12  1  0  0  0  0
 11 13  1  0  0  0  0
 11 14  1  0  0  0  0
 14 15  1  0  0  0  0
 14 16  2  0  0  0  0
 17 18  2  0  0  0  0
 17 19  1  0  0  0  0
 19 20  1  0  0  0  0
 19 21  1  0  0  0  0
 21 22  1  0  0  0  0
 21 23  1  0  0  0  0
 21 24  1  0  0  0  0
M  CHG  1  15  -1
M  END
$$$$

  -OEChem-03222214023D

 24 23  0     1  0  0  0  0  0999 V2000
   -2.8331   -3.6868    0.5737 H   0  0  0  0  0  0  0  0  0  0  0  0
   -2.7560   -2.6798    0.1542 C   0  0  0  0  0  0  0  0  0  0  0  0
   -3.3618   -1.9991    0.7575 H   0  0  0  0  0  0  0  0  0  0  0  0
   -3.1434   -2.6927   -0.8675 H   0  0  0  0  0  0  0  0  0  0  0  0
   -1.3083   -2.2213    0.1519 C   0  0  0  0  0  0  0  0  0  0  0  0
   -0.4410   -2.9745    0.5647 O   0  0  0  0  0  0  0  0  0  0  0  0
   -1.0107   -0.9536   -0.2944 N   0  0  0  0  0  0  0  0  0  0  0  0
   -1.7919   -0.3285   -0.4791 H   0  0  0  0  0  0  0  0  0  0  0  0
    0.3071   -0.3086   -0.2380 C   0  0  1  0  0  0  0  0  0  0  0  0
    0.9570   -0.8309    0.4728 H   0  0  0  0  0  0  0  0  0  0  0  0
    0.9619   -0.3442   -1.6307 C   0  0  0  0  0  0  0  0  0  0  0  0
    1.0595   -1.3851   -1.9497 H   0  0  0  0  0  0  0  0  0  0  0  0
    0.3171    0.1729   -2.3462 H   0  0  0  0  0  0  0  0  0  0  0  0
    2.3500    0.3009   -1.6825 C   0  0  0  0  0  0  0  0  0  0  0  0
    2.8444    0.7932   -0.6338 O   0  5  0  0  0  0  0  0  0  0  0  0
    2.9107    0.3157   -2.8035 O   0  0  0  0  0  0  0  0  0  0  0  0
    0.0947    1.1397    0.2783 C   0  0  0  0  0  0  0  0  0  0  0  0
   -0.9764    1.7096    0.0540 O   0  0  0  0  0  0  0  0  0  0  0  0
    0.9372    1.6510    1.2444 N   0  0  0  0  0  0  0  0  0  0  0  0
    1.9002    1.3284    1.0941 H   0  0  0  0  0  0  0  0  0  0  0  0
    0.7715    2.9931    1.7797 C   0  0  0  0  0  0  0  0  0  0  0  0
   -0.2090    3.0993    2.2546 H   0  0  0  0  0  0  0  0  0  0  0  0
    1.5410    3.1923    2.5313 H   0  0  0  0  0  0  0  0  0  0  0  0
    0.8622    3.7363    0.9809 H   0  0  0  0  0  0  0  0  0  0  0  0
  1  2  1  0  0  0  0
  2  3  1  0  0  0  0
  2  4  1  0  0  0  0
  2  5  1  0  0  0  0
  5  6  2  0  0  0  0
  5  7  1  0  0  0  0
  7  8  1  0  0  0  0
  7  9  1  0  0  0  0
  9 10  1  0  0  0  0
  9 11  1  0  0  0  0
  9 17  1  0  0  0  0
 11 12  1  0  0  0  0
 11 13  1  0  0  0  0
 11 14  1  0  0  0  0
 14 15  1  0  0  0  0
 14 16  2  0  0  0  0
 17 18  2  0  0  0  0
 17 19  1  0  0  0  0
 19 20  1  0  0  0  0
 19 21  1  0  0  0  0
 21 22  1  0  0  0  0
 21 23  1  0  0  0  0
 21 24  1  0  0  0  0
M  CHG  1  15  -1
M  END
$$$$

  -OEChem-03222214023D

 24 23  0     1  0  0  0  0  0999 V2000
   -2.8262   -3.7180    0.5630 H   0  0  0  0  0  0  0  0  0  0  0  0
   -2.7584   -2.7075    0.1505 C   0  0  0  0  0  0  0  0  0  0  0  0
   -3.3684   -2.0364    0.7603 H   0  0  0  0  0  0  0  0  0  0  0  0
   -3.1484   -2.7163   -0.8702 H   0  0  0  0  0  0  0  0  0  0  0  0
   -1.3147   -2.2366    0.1475 C   0  0  0  0  0  0  0  0  0  0  0  0
   -0.4405   -2.9846    0.5549 O   0  0  0  0  0  0  0  0  0  0  0  0
   -1.0303   -0.9649   -0.2964 N   0  0  0  0  0  0  0  0  0  0  0  0
   -1.8190   -0.3524   -0.4899 H   0  0  0  0  0  0  0  0  0  0  0  0
    0.2789   -0.3025   -0.2422 C   0  0  1  0  0  0  0  0  0  0  0  0
    0.9256   -0.8243    0.4724 H   0  0  0  0  0  0  0  0  0  0  0  0
    0.9518   -0.3333   -1.6244 C   0  0  0  0  0  0  0  0  0  0  0  0
    1.0792   -1.3722   -1.9381 H   0  0  0  0  0  0  0  0  0  0  0  0
    0.3101    0.1694   -2.3532 H   0  0  0  0  0  0  0  0  0  0  0  0
    2.3259    0.3417   -1.6336 C   0  0  0  0  0  0  0  0  0  0  0  0
    2.8953    0.5824   -0.5354 O   0  5  0  0  0  0  0  0  0  0  0  0
    2.8005    0.6313   -2.7569 O   0  0  0  0  0  0  0  0  0  0  0  0
    0.0838    1.1453    0.2728 C   0  0  0  0  0  0  0  0  0  0  0  0
   -0.9794    1.7283    0.0495 O   0  0  0  0  0  0  0  0  0  0  0  0
    0.9421    1.6467    1.2295 N   0  0  0  0  0  0  0  0  0  0  0  0
    1.8932    1.2796    1.1042 H   0  0  0  0  0  0  0  0  0  0  0  0
    0.8171    2.9995    1.7482 C   0  0  0  0  0  0  0  0  0  0  0  0
   -0.1524    3.1358    2.2374 H   0  0  0  0  0  0  0  0  0  0  0  0
    1.6037    3.1906    2.4839 H   0  0  0  0  0  0  0  0  0  0  0  0
    0.9120    3.7293    0.9378 H   0  0  0  0  0  0  0  0  0  0  0  0
  1  2  1  0  0  0  0
  2  3  1  0  0  0  0
  2  4  1  0  0  0  0
  2  5  1  0  0  0  0
  5  6  2  0  0  0  0
  5  7  1  0  0  0  0
  7  8  1  0  0  0  0
  7  9  1  0  0  0  0
  9 10  1  0  0  0  0
  9 11  1  0  0  0  0
  9 17  1  0  0  0  0
 11 12  1  0  0  0  0
 11 13  1  0  0  0  0
 11 14  1  0  0  0  0
 14 15  1  0  0  0  0
 14 16  2  0  0  0  0
 17 18  2  0  0  0  0
 17 19  1  0  0  0  0
 19 20  1  0  0  0  0
 19 21  1  0  0  0  0
 21 22  1  0  0  0  0
 21 23  1  0  0  0  0
 21 24  1  0  0  0  0
M  CHG  1  15  -1
M  END
$$$$

  -OEChem-03222214023D

 24 23  0     1  0  0  0  0  0999 V2000
   -2.8096   -3.7533    0.5473 H   0  0  0  0  0  0  0  0  0  0  0  0
   -2.7569   -2.7390    0.1419 C   0  0  0  0  0  0  0  0  0  0  0  0
   -3.3769   -2.0813    0.7558 H   0  0  0  0  0  0  0  0  0  0  0  0
   -3.1461   -2.7466   -0.8791 H   0  0  0  0  0  0  0  0  0  0  0  0
   -1.3204   -2.2468    0.1436 C   0  0  0  0  0  0  0  0  0  0  0  0
   -0.4369   -2.9834    0.5509 O   0  0  0  0  0  0  0  0  0  0  0  0
   -1.0546   -0.9705   -0.2992 N   0  0  0  0  0  0  0  0  0  0  0  0
   -1.8524   -0.3730   -0.4999 H   0  0  0  0  0  0  0  0  0  0  0  0
    0.2445   -0.2884   -0.2507 C   0  0  1  0  0  0  0  0  0  0  0  0
    0.8851   -0.8073    0.4716 H   0  0  0  0  0  0  0  0  0  0  0  0
    0.9408   -0.3296   -1.6189 C   0  0  0  0  0  0  0  0  0  0  0  0
    1.1011   -1.3694   -1.9144 H   0  0  0  0  0  0  0  0  0  0  0  0
    0.3065    0.1486   -2.3703 H   0  0  0  0  0  0  0  0  0  0  0  0
    2.2959    0.3796   -1.5800 C   0  0  0  0  0  0  0  0  0  0  0  0
    2.9397    0.3848   -0.4970 O   0  5  0  0  0  0  0  0  0  0  0  0
    2.6783    0.9350   -2.6363 O   0  0  0  0  0  0  0  0  0  0  0  0
    0.0717    1.1596    0.2626 C   0  0  0  0  0  0  0  0  0  0  0  0
   -0.9864    1.7552    0.0530 O   0  0  0  0  0  0  0  0  0  0  0  0
    0.9533    1.6457    1.2063 N   0  0  0  0  0  0  0  0  0  0  0  0
    1.8903    1.2383    1.1014 H   0  0  0  0  0  0  0  0  0  0  0  0
    0.8678    3.0035    1.7197 C   0  0  0  0  0  0  0  0  0  0  0  0
   -0.0932    3.1660    2.2176 H   0  0  0  0  0  0  0  0  0  0  0  0
    1.6664    3.1781    2.4464 H   0  0  0  0  0  0  0  0  0  0  0  0
    0.9729    3.7272    0.9051 H   0  0  0  0  0  0  0  0  0  0  0  0
  1  2  1  0  0  0  0
  2  3  1  0  0  0  0
  2  4  1  0  0  0  0
  2  5  1  0  0  0  0
  5  6  2  0  0  0  0
  5  7  1  0  0  0  0
  7  8  1  0  0  0  0
  7  9  1  0  0  0  0
  9 10  1  0  0  0  0
  9 11  1  0  0  0  0
  9 17  1  0  0  0  0
 11 12  1  0  0  0  0
 11 13  1  0  0  0  0
 11 14  1  0  0  0  0
 14 15  1  0  0  0  0
 14 16  2  0  0  0  0
 17 18  2  0  0  0  0
 17 19  1  0  0  0  0
 19 20  1  0  0  0  0
 19 21  1  0  0  0  0
 21 22  1  0  0  0  0
 21 23  1  0  0  0  0
 21 24  1  0  0  0  0
M  CHG  1  15  -1
M  END
$$$$

  -OEChem-03222214023D

 24 23  0     1  0  0  0  0  0999 V2000
   -2.7975   -3.7775    0.5335 H   0  0  0  0  0  0  0  0  0  0  0  0
   -2.7552   -2.7601    0.1344 C   0  0  0  0  0  0  0  0  0  0  0  0
   -3.3828   -2.1130    0.7522 H   0  0  0  0  0  0  0  0  0  0  0  0
   -3.1432   -2.7658   -0.8871 H   0  0  0  0  0  0  0  0  0  0  0  0
   -1.3240   -2.2523    0.1402 C   0  0  0  0  0  0  0  0  0  0  0  0
   -0.4349   -2.9801    0.5507 O   0  0  0  0  0  0  0  0  0  0  0  0
   -1.0708   -0.9731   -0.3023 N   0  0  0  0  0  0  0  0  0  0  0  0
   -1.8747   -0.3873   -0.5118 H   0  0  0  0  0  0  0  0  0  0  0  0
    0.2209   -0.2769   -0.2607 C   0  0  1  0  0  0  0  0  0  0  0  0
    0.8577   -0.7921    0.4678 H   0  0  0  0  0  0  0  0  0  0  0  0
    0.9343   -0.3311   -1.6176 C   0  0  0  0  0  0  0  0  0  0  0  0
    1.1195   -1.3710   -1.8978 H   0  0  0  0  0  0  0  0  0  0  0  0
    0.3091    0.1282   -2.3883 H   0  0  0  0  0  0  0  0  0  0  0  0
    2.2702    0.4058   -1.5346 C   0  0  0  0  0  0  0  0  0  0  0  0
    3.0007    0.1915   -0.5328 O   0  5  0  0  0  0  0  0  0  0  0  0
    2.5452    1.2083   -2.4567 O   0  0  0  0  0  0  0  0  0  0  0  0
    0.0641    1.1713    0.2510 C   0  0  0  0  0  0  0  0  0  0  0  0
   -0.9930    1.7731    0.0582 O   0  0  0  0  0  0  0  0  0  0  0  0
    0.9646    1.6458    1.1836 N   0  0  0  0  0  0  0  0  0  0  0  0
    1.8899    1.2114    1.0973 H   0  0  0  0  0  0  0  0  0  0  0  0
    0.9044    3.0044    1.6984 C   0  0  0  0  0  0  0  0  0  0  0  0
   -0.0466    3.1791    2.2115 H   0  0  0  0  0  0  0  0  0  0  0  0
    1.7165    3.1692    2.4127 H   0  0  0  0  0  0  0  0  0  0  0  0
    1.0062    3.7261    0.8815 H   0  0  0  0  0  0  0  0  0  0  0  0
  1  2  1  0  0  0  0
  2  3  1  0  0  0  0
  2  4  1  0  0  0  0
  2  5  1  0  0  0  0
  5  6  2  0  0  0  0
  5  7  1  0  0  0  0
  7  8  1  0  0  0  0
  7  9  1  0  0  0  0
  9 10  1  0  0  0  0
  9 11  1  0  0  0  0
  9 17  1  0  0  0  0
 11 12  1  0  0  0  0
 11 13  1  0  0  0  0
 11 14  1  0  0  0  0
 14 15  1  0  0  0  0
 14 16  2  0  0  0  0
 17 18  2  0  0  0  0
 17 19  1  0  0  0  0
 19 20  1  0  0  0  0
 19 21  1  0  0  0  0
 21 22  1  0  0  0  0
 21 23  1  0  0  0  0
 21 24  1  0  0  0  0
M  CHG  1  15  -1
M  END
$$$$

  -OEChem-03222214023D

 24 23  0     1  0  0  0  0  0999 V2000
   -2.7937   -3.7776    0.5301 H   0  0  0  0  0  0  0  0  0  0  0  0
   -2.7519   -2.7608    0.1299 C   0  0  0  0  0  0  0  0  0  0  0  0
   -3.3821   -2.1137    0.7448 H   0  0  0  0  0  0  0  0  0  0  0  0
   -3.1368   -2.7682   -0.8927 H   0  0  0  0  0  0  0  0  0  0  0  0
   -1.3216   -2.2513    0.1398 C   0  0  0  0  0  0  0  0  0  0  0  0
   -0.4334   -2.9764    0.5570 O   0  0  0  0  0  0  0  0  0  0  0  0
   -1.0682   -0.9723   -0.3030 N   0  0  0  0  0  0  0  0  0  0  0  0
   -1.8714   -0.3870   -0.5169 H   0  0  0  0  0  0  0  0  0  0  0  0
    0.2242   -0.2773   -0.2646 C   0  0  1  0  0  0  0  0  0  0  0  0
    0.8666   -0.7916    0.4594 H   0  0  0  0  0  0  0  0  0  0  0  0
    0.9285   -0.3345   -1.6248 C   0  0  0  0  0  0  0  0  0  0  0  0
    1.1136   -1.3735   -1.9087 H   0  0  0  0  0  0  0  0  0  0  0  0
    0.3047    0.1279   -2.3948 H   0  0  0  0  0  0  0  0  0  0  0  0
    2.2594    0.4039   -1.5255 C   0  0  0  0  0  0  0  0  0  0  0  0
    3.0981   -0.0173   -0.6913 O   0  5  0  0  0  0  0  0  0  0  0  0
    2.4138    1.4228   -2.2379 O   0  0  0  0  0  0  0  0  0  0  0  0
    0.0678    1.1708    0.2483 C   0  0  0  0  0  0  0  0  0  0  0  0
   -0.9937    1.7681    0.0658 O   0  0  0  0  0  0  0  0  0  0  0  0
    0.9696    1.6470    1.1801 N   0  0  0  0  0  0  0  0  0  0  0  0
    1.8900    1.2045    1.1195 H   0  0  0  0  0  0  0  0  0  0  0  0
    0.9089    3.0068    1.6917 C   0  0  0  0  0  0  0  0  0  0  0  0
   -0.0441    3.1844    2.1999 H   0  0  0  0  0  0  0  0  0  0  0  0
    1.7178    3.1723    2.4092 H   0  0  0  0  0  0  0  0  0  0  0  0
    1.0155    3.7267    0.8737 H   0  0  0  0  0  0  0  0  0  0  0  0
  1  2  1  0  0  0  0
  2  3  1  0  0  0  0
  2  4  1  0  0  0  0
  2  5  1  0  0  0  0
  5  6  2  0  0  0  0
  5  7  1  0  0  0  0
  7  8  1  0  0  0  0
  7  9  1  0  0  0  0
  9 10  1  0  0  0  0
  9 11  1  0  0  0  0
  9 17  1  0  0  0  0
 11 12  1  0  0  0  0
 11 13  1  0  0  0  0
 11 14  1  0  0  0  0
 14 15  1  0  0  0  0
 14 16  2  0  0  0  0
 17 18  2  0  0  0  0
 17 19  1  0  0  0  0
 19 20  1  0  0  0  0
 19 21  1  0  0  0  0
 21 22  1  0  0  0  0
 21 23  1  0  0  0  0
 21 24  1  0  0  0  0
M  CHG  1  15  -1
M  END
$$$$

  -OEChem-03222214023D

 24 23  0     1  0  0  0  0  0999 V2000
   -2.8054   -3.7557    0.5342 H   0  0  0  0  0  0  0  0  0  0  0  0
   -2.7517   -2.7405    0.1311 C   0  0  0  0  0  0  0  0  0  0  0  0
   -3.3766   -2.0847    0.7425 H   0  0  0  0  0  0  0  0  0  0  0  0
   -3.1348   -2.7470   -0.8924 H   0  0  0  0  0  0  0  0  0  0  0  0
   -1.3158   -2.2463    0.1427 C   0  0  0  0  0  0  0  0  0  0  0  0
   -0.4356   -2.9783    0.5648 O   0  0  0  0  0  0  0  0  0  0  0  0
   -1.0483   -0.9706   -0.3006 N   0  0  0  0  0  0  0  0  0  0  0  0
   -1.8449   -0.3737   -0.5082 H   0  0  0  0  0  0  0  0  0  0  0  0
    0.2515   -0.2896   -0.2628 C   0  0  1  0  0  0  0  0  0  0  0  0
    0.9041   -0.8071    0.4498 H   0  0  0  0  0  0  0  0  0  0  0  0
    0.9283   -0.3386   -1.6367 C   0  0  0  0  0  0  0  0  0  0  0  0
    1.0907   -1.3762   -1.9405 H   0  0  0  0  0  0  0  0  0  0  0  0
    0.2991    0.1447   -2.3892 H   0  0  0  0  0  0  0  0  0  0  0  0
    2.2695    0.3789   -1.5512 C   0  0  0  0  0  0  0  0  0  0  0  0
    3.2091   -0.2145   -0.9709 O   0  5  0  0  0  0  0  0  0  0  0  0
    2.3288    1.5534   -1.9839 O   0  0  0  0  0  0  0  0  0  0  0  0
    0.0819    1.1587    0.2533 C   0  0  0  0  0  0  0  0  0  0  0  0
   -0.9909    1.7389    0.0767 O   0  0  0  0  0  0  0  0  0  0  0  0
    0.9698    1.6493    1.1922 N   0  0  0  0  0  0  0  0  0  0  0  0
    1.8985    1.2298    1.1386 H   0  0  0  0  0  0  0  0  0  0  0  0
    0.8791    3.0093    1.7002 C   0  0  0  0  0  0  0  0  0  0  0  0
   -0.0801    3.1696    2.2027 H   0  0  0  0  0  0  0  0  0  0  0  0
    1.6806    3.1931    2.4216 H   0  0  0  0  0  0  0  0  0  0  0  0
    0.9759    3.7288    0.8806 H   0  0  0  0  0  0  0  0  0  0  0  0
  1  2  1  0  0  0  0
  2  3  1  0  0  0  0
  2  4  1  0  0  0  0
  2  5  1  0  0  0  0
  5  6  2  0  0  0  0
  5  7  1  0  0  0  0
  7  8  1  0  0  0  0
  7  9  1  0  0  0  0
  9 10  1  0  0  0  0
  9 11  1  0  0  0  0
  9 17  1  0  0  0  0
 11 12  1  0  0  0  0
 11 13  1  0  0  0  0
 11 14  1  0  0  0  0
 14 15  1  0  0  0  0
 14 16  2  0  0  0  0
 17 18  2  0  0  0  0
 17 19  1  0  0  0  0
 19 20  1  0  0  0  0
 19 21  1  0  0  0  0
 21 22  1  0  0  0  0
 21 23  1  0  0  0  0
 21 24  1  0  0  0  0
M  CHG  1  15  -1
M  END
$$$$

  -OEChem-03222214023D

 24 23  0     1  0  0  0  0  0999 V2000
   -2.8146   -3.7279    0.5445 H   0  0  0  0  0  0  0  0  0  0  0  0
   -2.7524   -2.7139    0.1395 C   0  0  0  0  0  0  0  0  0  0  0  0
   -3.3649   -2.0498    0.7544 H   0  0  0  0  0  0  0  0  0  0  0  0
   -3.1428   -2.7172   -0.8812 H   0  0  0  0  0  0  0  0  0  0  0  0
   -1.3110   -2.2358    0.1393 C   0  0  0  0  0  0  0  0  0  0  0  0
   -0.4355   -2.9759    0.5574 O   0  0  0  0  0  0  0  0  0  0  0  0
   -1.0326   -0.9628   -0.3044 N   0  0  0  0  0  0  0  0  0  0  0  0
   -1.8240   -0.3521   -0.4927 H   0  0  0  0  0  0  0  0  0  0  0  0
    0.2745   -0.2960   -0.2639 C   0  0  1  0  0  0  0  0  0  0  0  0
    0.9281   -0.8157    0.4457 H   0  0  0  0  0  0  0  0  0  0  0  0
    0.9399   -0.3446   -1.6451 C   0  0  0  0  0  0  0  0  0  0  0  0
    1.0783   -1.3835   -1.9569 H   0  0  0  0  0  0  0  0  0  0  0  0
    0.3109    0.1526   -2.3884 H   0  0  0  0  0  0  0  0  0  0  0  0
    2.2953    0.3497   -1.5870 C   0  0  0  0  0  0  0  0  0  0  0  0
    3.2929   -0.3508   -1.2974 O   0  5  0  0  0  0  0  0  0  0  0  0
    2.3208    1.5939   -1.7395 O   0  0  0  0  0  0  0  0  0  0  0  0
    0.0884    1.1516    0.2556 C   0  0  0  0  0  0  0  0  0  0  0  0
   -0.9961    1.7141    0.0872 O   0  0  0  0  0  0  0  0  0  0  0  0
    0.9623    1.6503    1.2037 N   0  0  0  0  0  0  0  0  0  0  0  0
    1.9049    1.2707    1.1246 H   0  0  0  0  0  0  0  0  0  0  0  0
    0.8374    3.0035    1.7228 C   0  0  0  0  0  0  0  0  0  0  0  0
   -0.1184    3.1302    2.2411 H   0  0  0  0  0  0  0  0  0  0  0  0
    1.6441    3.2072    2.4329 H   0  0  0  0  0  0  0  0  0  0  0  0
    0.8994    3.7314    0.9073 H   0  0  0  0  0  0  0  0  0  0  0  0
  1  2  1  0  0  0  0
  2  3  1  0  0  0  0
  2  4  1  0  0  0  0
  2  5  1  0  0  0  0
  5  6  2  0  0  0  0
  5  7  1  0  0  0  0
  7  8  1  0  0  0  0
  7  9  1  0  0  0  0
  9 10  1  0  0  0  0
  9 11  1  0  0  0  0
  9 17  1  0  0  0  0
 11 12  1  0  0  0  0
 11 13  1  0  0  0  0
 11 14  1  0  0  0  0
 14 15  1  0  0  0  0
 14 16  2  0  0  0  0
 17 18  2  0  0  0  0
 17 19  1  0  0  0  0
 19 20  1  0  0  0  0
 19 21  1  0  0  0  0
 21 22  1  0  0  0  0
 21 23  1  0  0  0  0
 21 24  1  0  0  0  0
M  CHG  1  15  -1
M  END
$$$$

  -OEChem-03222214023D

 24 23  0     1  0  0  0  0  0999 V2000
   -2.8227   -3.6981    0.5598 H   0  0  0  0  0  0  0  0  0  0  0  0
   -2.7519   -2.6877    0.1474 C   0  0  0  0  0  0  0  0  0  0  0  0
   -3.3581   -2.0144    0.7585 H   0  0  0  0  0  0  0  0  0  0  0  0
   -3.1438   -2.6950   -0.8727 H   0  0  0  0  0  0  0  0  0  0  0  0
   -1.3062   -2.2229    0.1420 C   0  0  0  0  0  0  0  0  0  0  0  0
   -0.4355   -2.9711    0.5561 O   0  0  0  0  0  0  0  0  0  0  0  0
   -1.0169   -0.9527   -0.3024 N   0  0  0  0  0  0  0  0  0  0  0  0
   -1.8026   -0.3304   -0.4777 H   0  0  0  0  0  0  0  0  0  0  0  0
    0.2973   -0.2997   -0.2604 C   0  0  1  0  0  0  0  0  0  0  0  0
    0.9517   -0.8206    0.4472 H   0  0  0  0  0  0  0  0  0  0  0  0
    0.9514   -0.3523   -1.6499 C   0  0  0  0  0  0  0  0  0  0  0  0
    1.0612   -1.3939   -1.9645 H   0  0  0  0  0  0  0  0  0  0  0  0
    0.3189    0.1555   -2.3827 H   0  0  0  0  0  0  0  0  0  0  0  0
    2.3235    0.3163   -1.6374 C   0  0  0  0  0  0  0  0  0  0  0  0
    3.3274   -0.4329   -1.6624 O   0  5  0  0  0  0  0  0  0  0  0  0
    2.3738    1.5637   -1.5158 O   0  0  0  0  0  0  0  0  0  0  0  0
    0.0959    1.1474    0.2621 C   0  0  0  0  0  0  0  0  0  0  0  0
   -0.9964    1.6968    0.0940 O   0  0  0  0  0  0  0  0  0  0  0  0
    0.9568    1.6543    1.2178 N   0  0  0  0  0  0  0  0  0  0  0  0
    1.9147    1.3289    1.0927 H   0  0  0  0  0  0  0  0  0  0  0  0
    0.7917    2.9961    1.7557 C   0  0  0  0  0  0  0  0  0  0  0  0
   -0.1697    3.0892    2.2706 H   0  0  0  0  0  0  0  0  0  0  0  0
    1.5883    3.2110    2.4739 H   0  0  0  0  0  0  0  0  0  0  0  0
    0.8384    3.7374    0.9512 H   0  0  0  0  0  0  0  0  0  0  0  0
  1  2  1  0  0  0  0
  2  3  1  0  0  0  0
  2  4  1  0  0  0  0
  2  5  1  0  0  0  0
  5  6  2  0  0  0  0
  5  7  1  0  0  0  0
  7  8  1  0  0  0  0
  7  9  1  0  0  0  0
  9 10  1  0  0  0  0
  9 11  1  0  0  0  0
  9 17  1  0  0  0  0
 11 12  1  0  0  0  0
 11 13  1  0  0  0  0
 11 14  1  0  0  0  0
 14 15  1  0  0  0  0
 14 16  2  0  0  0  0
 17 18  2  0  0  0  0
 17 19  1  0  0  0  0
 19 20  1  0  0  0  0
 19 21  1  0  0  0  0
 21 22  1  0  0  0  0
 21 23  1  0  0  0  0
 21 24  1  0  0  0  0
M  CHG  1  15  -1
M  END
$$$$

  -OEChem-03222214023D

 24 23  0     1  0  0  0  0  0999 V2000
   -2.8280   -3.6689    0.5736 H   0  0  0  0  0  0  0  0  0  0  0  0
   -2.7490   -2.6615    0.1557 C   0  0  0  0  0  0  0  0  0  0  0  0
   -3.3502   -1.9797    0.7622 H   0  0  0  0  0  0  0  0  0  0  0  0
   -3.1399   -2.6715   -0.8648 H   0  0  0  0  0  0  0  0  0  0  0  0
   -1.3001   -2.2073    0.1494 C   0  0  0  0  0  0  0  0  0  0  0  0
   -0.4345   -2.9592    0.5680 O   0  0  0  0  0  0  0  0  0  0  0  0
   -1.0011   -0.9411   -0.2996 N   0  0  0  0  0  0  0  0  0  0  0  0
   -1.7816   -0.3099   -0.4685 H   0  0  0  0  0  0  0  0  0  0  0  0
    0.3197   -0.3008   -0.2569 C   0  0  1  0  0  0  0  0  0  0  0  0
    0.9741   -0.8202    0.4515 H   0  0  0  0  0  0  0  0  0  0  0  0
    0.9632   -0.3597   -1.6540 C   0  0  0  0  0  0  0  0  0  0  0  0
    1.0469   -1.4053   -1.9640 H   0  0  0  0  0  0  0  0  0  0  0  0
    0.3258    0.1530   -2.3787 H   0  0  0  0  0  0  0  0  0  0  0  0
    2.3508    0.2826   -1.6951 C   0  0  0  0  0  0  0  0  0  0  0  0
    3.3044   -0.4560   -2.0351 O   0  5  0  0  0  0  0  0  0  0  0  0
    2.4827    1.4652   -1.2961 O   0  0  0  0  0  0  0  0  0  0  0  0
    0.1029    1.1471    0.2634 C   0  0  0  0  0  0  0  0  0  0  0  0
   -0.9937    1.6877    0.0891 O   0  0  0  0  0  0  0  0  0  0  0  0
    0.9516    1.6616    1.2253 N   0  0  0  0  0  0  0  0  0  0  0  0
    1.9205    1.3903    1.0533 H   0  0  0  0  0  0  0  0  0  0  0  0
    0.7444    2.9849    1.7936 C   0  0  0  0  0  0  0  0  0  0  0  0
   -0.2237    3.0377    2.3015 H   0  0  0  0  0  0  0  0  0  0  0  0
    1.5285    3.2045    2.5239 H   0  0  0  0  0  0  0  0  0  0  0  0
    0.7761    3.7468    1.0080 H   0  0  0  0  0  0  0  0  0  0  0  0
  1  2  1  0  0  0  0
  2  3  1  0  0  0  0
  2  4  1  0  0  0  0
  2  5  1  0  0  0  0
  5  6  2  0  0  0  0
  5  7  1  0  0  0  0
  7  8  1  0  0  0  0
  7  9  1  0  0  0  0
  9 10  1  0  0  0  0
  9 11  1  0  0  0  0
  9 17  1  0  0  0  0
 11 12  1  0  0  0  0
 11 13  1  0  0  0  0
 11 14  1  0  0  0  0
 14 15  1  0  0  0  0
 14 16  2  0  0  0  0
 17 18  2  0  0  0  0
 17 19  1  0  0  0  0
 19 20  1  0  0  0  0
 19 21  1  0  0  0  0
 21 22  1  0  0  0  0
 21 23  1  0  0  0  0
 21 24  1  0  0  0  0
M  CHG  1  15  -1
M  END
$$$$

  -OEChem-03222214023D

 24 23  0     1  0  0  0  0  0999 V2000
   -2.8296   -3.6577    0.5783 H   0  0  0  0  0  0  0  0  0  0  0  0
   -2.7487   -2.6499    0.1616 C   0  0  0  0  0  0  0  0  0  0  0  0
   -3.3438   -1.9667    0.7725 H   0  0  0  0  0  0  0  0  0  0  0  0
   -3.1451   -2.6564   -0.8568 H   0  0  0  0  0  0  0  0  0  0  0  0
   -1.2976   -2.2024    0.1485 C   0  0  0  0  0  0  0  0  0  0  0  0
   -0.4336   -2.9587    0.5628 O   0  0  0  0  0  0  0  0  0  0  0  0
   -0.9940   -0.9371   -0.3005 N   0  0  0  0  0  0  0  0  0  0  0  0
   -1.7722   -0.3024   -0.4669 H   0  0  0  0  0  0  0  0  0  0  0  0
    0.3292   -0.3014   -0.2523 C   0  0  1  0  0  0  0  0  0  0  0  0
    0.9824   -0.8202    0.4576 H   0  0  0  0  0  0  0  0  0  0  0  0
    0.9718   -0.3573   -1.6516 C   0  0  0  0  0  0  0  0  0  0  0  0
    1.0465   -1.4045   -1.9588 H   0  0  0  0  0  0  0  0  0  0  0  0
    0.3304    0.1558   -2.3724 H   0  0  0  0  0  0  0  0  0  0  0  0
    2.3670    0.2719   -1.7247 C   0  0  0  0  0  0  0  0  0  0  0  0
    3.2365   -0.3798   -2.3493 O   0  5  0  0  0  0  0  0  0  0  0  0
    2.6080    1.3147   -1.0672 O   0  0  0  0  0  0  0  0  0  0  0  0
    0.1016    1.1462    0.2674 C   0  0  0  0  0  0  0  0  0  0  0  0
   -0.9918    1.6883    0.0774 O   0  0  0  0  0  0  0  0  0  0  0  0
    0.9408    1.6635    1.2351 N   0  0  0  0  0  0  0  0  0  0  0  0
    1.9134    1.4143    1.0386 H   0  0  0  0  0  0  0  0  0  0  0  0
    0.7208    2.9811    1.8118 C   0  0  0  0  0  0  0  0  0  0  0  0
   -0.2483    3.0220    2.3192 H   0  0  0  0  0  0  0  0  0  0  0  0
    1.5023    3.2026    2.5445 H   0  0  0  0  0  0  0  0  0  0  0  0
    0.7468    3.7489    1.0318 H   0  0  0  0  0  0  0  0  0  0  0  0
  1  2  1  0  0  0  0
  2  3  1  0  0  0  0
  2  4  1  0  0  0  0
  2  5  1  0  0  0  0
  5  6  2  0  0  0  0
  5  7  1  0  0  0  0
  7  8  1  0  0  0  0
  7  9  1  0  0  0  0
  9 10  1  0  0  0  0
  9 11  1  0  0  0  0
  9 17  1  0  0  0  0
 11 12  1  0  0  0  0
 11 13  1  0  0  0  0
 11 14  1  0  0  0  0
 14 15  1  0  0  0  0
 14 16  2  0  0  0  0
 17 18  2  0  0  0  0
 17 19  1  0  0  0  0
 19 20  1  0  0  0  0
 19 21  1  0  0  0  0
 21 22  1  0  0  0  0
 21 23  1  0  0  0  0
 21 24  1  0  0  0  0
M  CHG  1  15  -1
M  END
$$$$

  -OEChem-03222214023D

 24 23  0     1  0  0  0  0  0999 V2000
   -2.8280   -3.6662    0.5728 H   0  0  0  0  0  0  0  0  0  0  0  0
   -2.7482   -2.6578    0.1571 C   0  0  0  0  0  0  0  0  0  0  0  0
   -3.3476   -1.9768    0.7664 H   0  0  0  0  0  0  0  0  0  0  0  0
   -3.1409   -2.6647   -0.8627 H   0  0  0  0  0  0  0  0  0  0  0  0
   -1.2983   -2.2063    0.1496 C   0  0  0  0  0  0  0  0  0  0  0  0
   -0.4337   -2.9623    0.5632 O   0  0  0  0  0  0  0  0  0  0  0  0
   -0.9954   -0.9397   -0.2962 N   0  0  0  0  0  0  0  0  0  0  0  0
   -1.7739   -0.3073   -0.4694 H   0  0  0  0  0  0  0  0  0  0  0  0
    0.3269   -0.3029   -0.2426 C   0  0  1  0  0  0  0  0  0  0  0  0
    0.9815   -0.8233    0.4648 H   0  0  0  0  0  0  0  0  0  0  0  0
    0.9681   -0.3472   -1.6434 C   0  0  0  0  0  0  0  0  0  0  0  0
    1.0454   -1.3923   -1.9564 H   0  0  0  0  0  0  0  0  0  0  0  0
    0.3223    0.1679   -2.3587 H   0  0  0  0  0  0  0  0  0  0  0  0
    2.3638    0.2811   -1.7271 C   0  0  0  0  0  0  0  0  0  0  0  0
    3.1329   -0.2056   -2.5891 O   0  5  0  0  0  0  0  0  0  0  0  0
    2.7179    1.1236   -0.8634 O   0  0  0  0  0  0  0  0  0  0  0  0
    0.0977    1.1436    0.2789 C   0  0  0  0  0  0  0  0  0  0  0  0
   -0.9863    1.6959    0.0678 O   0  0  0  0  0  0  0  0  0  0  0  0
    0.9318    1.6618    1.2497 N   0  0  0  0  0  0  0  0  0  0  0  0
    1.9032    1.3925    1.0647 H   0  0  0  0  0  0  0  0  0  0  0  0
    0.7265    2.9893    1.8084 C   0  0  0  0  0  0  0  0  0  0  0  0
   -0.2488    3.0532    2.3013 H   0  0  0  0  0  0  0  0  0  0  0  0
    1.5014    3.2053    2.5498 H   0  0  0  0  0  0  0  0  0  0  0  0
    0.7772    3.7475    1.0202 H   0  0  0  0  0  0  0  0  0  0  0  0
  1  2  1  0  0  0  0
  2  3  1  0  0  0  0
  2  4  1  0  0  0  0
  2  5  1  0  0  0  0
  5  6  2  0  0  0  0
  5  7  1  0  0  0  0
  7  8  1  0  0  0  0
  7  9  1  0  0  0  0
  9 10  1  0  0  0  0
  9 11  1  0  0  0  0
  9 17  1  0  0  0  0
 11 12  1  0  0  0  0
 11 13  1  0  0  0  0
 11 14  1  0  0  0  0
 14 15  1  0  0  0  0
 14 16  2  0  0  0  0
 17 18  2  0  0  0  0
 17 19  1  0  0  0  0
 19 20  1  0  0  0  0
 19 21  1  0  0  0  0
 21 22  1  0  0  0  0
 21 23  1  0  0  0  0
 21 24  1  0  0  0  0
M  CHG  1  15  -1
M  END
$$$$

  -OEChem-03222214023D

 24 23  0     1  0  0  0  0  0999 V2000
   -2.8288   -3.6806    0.5661 H   0  0  0  0  0  0  0  0  0  0  0  0
   -2.7505   -2.6715    0.1522 C   0  0  0  0  0  0  0  0  0  0  0  0
   -3.3548   -1.9934    0.7599 H   0  0  0  0  0  0  0  0  0  0  0  0
   -3.1381   -2.6779   -0.8695 H   0  0  0  0  0  0  0  0  0  0  0  0
   -1.3022   -2.2152    0.1516 C   0  0  0  0  0  0  0  0  0  0  0  0
   -0.4363   -2.9692    0.5660 O   0  0  0  0  0  0  0  0  0  0  0  0
   -1.0032   -0.9472   -0.2930 N   0  0  0  0  0  0  0  0  0  0  0  0
   -1.7840   -0.3212   -0.4771 H   0  0  0  0  0  0  0  0  0  0  0  0
    0.3157   -0.3042   -0.2362 C   0  0  1  0  0  0  0  0  0  0  0  0
    0.9693   -0.8254    0.4718 H   0  0  0  0  0  0  0  0  0  0  0  0
    0.9629   -0.3395   -1.6334 C   0  0  0  0  0  0  0  0  0  0  0  0
    1.0518   -1.3815   -1.9528 H   0  0  0  0  0  0  0  0  0  0  0  0
    0.3164    0.1754   -2.3485 H   0  0  0  0  0  0  0  0  0  0  0  0
    2.3539    0.2989   -1.7047 C   0  0  0  0  0  0  0  0  0  0  0  0
    3.0251    0.0382   -2.7308 O   0  5  0  0  0  0  0  0  0  0  0  0
    2.7998    0.9258   -0.7083 O   0  0  0  0  0  0  0  0  0  0  0  0
    0.0930    1.1425    0.2833 C   0  0  0  0  0  0  0  0  0  0  0  0
   -0.9812    1.7066    0.0576 O   0  0  0  0  0  0  0  0  0  0  0  0
    0.9295    1.6580    1.2528 N   0  0  0  0  0  0  0  0  0  0  0  0
    1.8965    1.3551    1.0910 H   0  0  0  0  0  0  0  0  0  0  0  0
    0.7486    2.9961    1.7934 C   0  0  0  0  0  0  0  0  0  0  0  0
   -0.2285    3.0866    2.2785 H   0  0  0  0  0  0  0  0  0  0  0  0
    1.5228    3.2050    2.5376 H   0  0  0  0  0  0  0  0  0  0  0  0
    0.8202    3.7431    0.9963 H   0  0  0  0  0  0  0  0  0  0  0  0
  1  2  1  0  0  0  0
  2  3  1  0  0  0  0
  2  4  1  0  0  0  0
  2  5  1  0  0  0  0
  5  6  2  0  0  0  0
  5  7  1  0  0  0  0
  7  8  1  0  0  0  0
  7  9  1  0  0  0  0
  9 10  1  0  0  0  0
  9 11  1  0  0  0  0
  9 17  1  0  0  0  0
 11 12  1  0  0  0  0
 11 13  1  0  0  0  0
 11 14  1  0  0  0  0
 14 15  1  0  0  0  0
 14 16  2  0  0  0  0
 17 18  2  0  0  0  0
 17 19  1  0  0  0  0
 19 20  1  0  0  0  0
 19 21  1  0  0  0  0
 21 22  1  0  0  0  0
 21 23  1  0  0  0  0
 21 24  1  0  0  0  0
M  CHG  1  15  -1
M  END
$$$$

  -OEChem-03222214023D

 24 23  0     1  0  0  0  0  0999 V2000
   -2.8193   -3.7602    0.5251 H   0  0  0  0  0  0  0  0  0  0  0  0
   -2.7621   -2.7448    0.1230 C   0  0  0  0  0  0  0  0  0  0  0  0
   -3.3938   -2.0899    0.7281 H   0  0  0  0  0  0  0  0  0  0  0  0
   -3.1343   -2.7512   -0.9044 H   0  0  0  0  0  0  0  0  0  0  0  0
   -1.3268   -2.2493    0.1498 C   0  0  0  0  0  0  0  0  0  0  0  0
   -0.4498   -2.9832    0.5753 O   0  0  0  0  0  0  0  0  0  0  0  0
   -1.0564   -0.9722   -0.2891 N   0  0  0  0  0  0  0  0  0  0  0  0
   -1.8520   -0.3792   -0.5090 H   0  0  0  0  0  0  0  0  0  0  0  0
    0.2423   -0.2891   -0.2331 C   0  0  1  0  0  0  0  0  0  0  0  0
    0.8742   -0.8180    0.4895 H   0  0  0  0  0  0  0  0  0  0  0  0
    0.9390   -0.3248   -1.6030 C   0  0  0  0  0  0  0  0  0  0  0  0
    0.8681   -1.3341   -2.0165 H   0  0  0  0  0  0  0  0  0  0  0  0
    0.4390    0.3583   -2.2947 H   0  0  0  0  0  0  0  0  0  0  0  0
    2.4238    0.0406   -1.5233 C   0  0  0  0  0  0  0  0  0  0  0  0
    3.0565    0.0320   -2.6053 O   0  5  0  0  0  0  0  0  0  0  0  0
    2.9176    0.3714   -0.4117 O   0  0  0  0  0  0  0  0  0  0  0  0
    0.0768    1.1589    0.2801 C   0  0  0  0  0  0  0  0  0  0  0  0
   -0.9685    1.7686    0.0477 O   0  0  0  0  0  0  0  0  0  0  0  0
    0.9548    1.6452    1.2264 N   0  0  0  0  0  0  0  0  0  0  0  0
    1.8889    1.2287    1.1254 H   0  0  0  0  0  0  0  0  0  0  0  0
    0.8784    3.0067    1.7313 C   0  0  0  0  0  0  0  0  0  0  0  0
   -0.0810    3.1785    2.2298 H   0  0  0  0  0  0  0  0  0  0  0  0
    1.6793    3.1812    2.4558 H   0  0  0  0  0  0  0  0  0  0  0  0
    0.9867    3.7243    0.9117 H   0  0  0  0  0  0  0  0  0  0  0  0
  1  2  1  0  0  0  0
  2  3  1  0  0  0  0
  2  4  1  0  0  0  0
  2  5  1  0  0  0  0
  5  6  2  0  0  0  0
  5  7  1  0  0  0  0
  7  8  1  0  0  0  0
  7  9  1  0  0  0  0
  9 10  1  0  0  0  0
  9 11  1  0  0  0  0
  9 17  1  0  0  0  0
 11 12  1  0  0  0  0
 11 13  1  0  0  0  0
 11 14  1  0  0  0  0
 14 15  1  0  0  0  0
 14 16  2  0  0  0  0
 17 18  2  0  0  0  0
 17 19  1  0  0  0  0
 19 20  1  0  0  0  0
 19 21  1  0  0  0  0
 21 22  1  0  0  0  0
 21 23  1  0  0  0  0
 21 24  1  0  0  0  0
M  CHG  1  15  -1
M  END
$$$$

  -OEChem-03222214023D

 24 23  0     1  0  0  0  0  0999 V2000
   -2.8139   -3.7828    0.5145 H   0  0  0  0  0  0  0  0  0  0  0  0
   -2.7644   -2.7653    0.1165 C   0  0  0  0  0  0  0  0  0  0  0  0
   -3.4024   -2.1182    0.7234 H   0  0  0  0  0  0  0  0  0  0  0  0
   -3.1353   -2.7709   -0.9115 H   0  0  0  0  0  0  0  0  0  0  0  0
   -1.3331   -2.2582    0.1476 C   0  0  0  0  0  0  0  0  0  0  0  0
   -0.4518   -2.9875    0.5717 O   0  0  0  0  0  0  0  0  0  0  0  0
   -1.0723   -0.9785   -0.2900 N   0  0  0  0  0  0  0  0  0  0  0  0
   -1.8726   -0.3955   -0.5186 H   0  0  0  0  0  0  0  0  0  0  0  0
    0.2196   -0.2823   -0.2362 C   0  0  1  0  0  0  0  0  0  0  0  0
    0.8426   -0.8104    0.4950 H   0  0  0  0  0  0  0  0  0  0  0  0
    0.9329   -0.3274   -1.5962 C   0  0  0  0  0  0  0  0  0  0  0  0
    0.8804   -1.3407   -2.0021 H   0  0  0  0  0  0  0  0  0  0  0  0
    0.4320    0.3437   -2.2992 H   0  0  0  0  0  0  0  0  0  0  0  0
    2.4114    0.0593   -1.4957 C   0  0  0  0  0  0  0  0  0  0  0  0
    2.9865    0.3280   -2.5765 O   0  5  0  0  0  0  0  0  0  0  0  0
    2.9319    0.2073   -0.3572 O   0  0  0  0  0  0  0  0  0  0  0  0
    0.0711    1.1661    0.2744 C   0  0  0  0  0  0  0  0  0  0  0  0
   -0.9685    1.7869    0.0484 O   0  0  0  0  0  0  0  0  0  0  0  0
    0.9644    1.6409    1.2123 N   0  0  0  0  0  0  0  0  0  0  0  0
    1.8869    1.1958    1.1267 H   0  0  0  0  0  0  0  0  0  0  0  0
    0.9162    3.0047    1.7139 C   0  0  0  0  0  0  0  0  0  0  0  0
   -0.0397    3.1976    2.2111 H   0  0  0  0  0  0  0  0  0  0  0  0
    1.7199    3.1645    2.4388 H   0  0  0  0  0  0  0  0  0  0  0  0
    1.0399    3.7181    0.8928 H   0  0  0  0  0  0  0  0  0  0  0  0
  1  2  1  0  0  0  0
  2  3  1  0  0  0  0
  2  4  1  0  0  0  0
  2  5  1  0  0  0  0
  5  6  2  0  0  0  0
  5  7  1  0  0  0  0
  7  8  1  0  0  0  0
  7  9  1  0  0  0  0
  9 10  1  0  0  0  0
  9 11  1  0  0  0  0
  9 17  1  0  0  0  0
 11 12  1  0  0  0  0
 11 13  1  0  0  0  0
 11 14  1  0  0  0  0
 14 15  1  0  0  0  0
 14 16  2  0  0  0  0
 17 18  2  0  0  0  0
 17 19  1  0  0  0  0
 19 20  1  0  0  0  0
 19 21  1  0  0  0  0
 21 22  1  0  0  0  0
 21 23  1  0  0  0  0
 21 24  1  0  0  0  0
M  CHG  1  15  -1
M  END
$$$$

  -OEChem-03222214023D

 24 23  0     1  0  0  0  0  0999 V2000
   -2.8056   -3.8057    0.5039 H   0  0  0  0  0  0  0  0  0  0  0  0
   -2.7655   -2.7858    0.1113 C   0  0  0  0  0  0  0  0  0  0  0  0
   -3.4069   -2.1469    0.7233 H   0  0  0  0  0  0  0  0  0  0  0  0
   -3.1394   -2.7890   -0.9155 H   0  0  0  0  0  0  0  0  0  0  0  0
   -1.3384   -2.2669    0.1403 C   0  0  0  0  0  0  0  0  0  0  0  0
   -0.4504   -2.9912    0.5586 O   0  0  0  0  0  0  0  0  0  0  0  0
   -1.0901   -0.9837   -0.2951 N   0  0  0  0  0  0  0  0  0  0  0  0
   -1.8968   -0.4096   -0.5229 H   0  0  0  0  0  0  0  0  0  0  0  0
    0.1949   -0.2736   -0.2451 C   0  0  1  0  0  0  0  0  0  0  0  0
    0.8087   -0.8002    0.4943 H   0  0  0  0  0  0  0  0  0  0  0  0
    0.9283   -0.3279   -1.5934 C   0  0  0  0  0  0  0  0  0  0  0  0
    0.8987   -1.3463   -1.9885 H   0  0  0  0  0  0  0  0  0  0  0  0
    0.4281    0.3281   -2.3112 H   0  0  0  0  0  0  0  0  0  0  0  0
    2.3982    0.0833   -1.4629 C   0  0  0  0  0  0  0  0  0  0  0  0
    2.9105    0.6219   -2.4722 O   0  5  0  0  0  0  0  0  0  0  0  0
    2.9443    0.0426   -0.3284 O   0  0  0  0  0  0  0  0  0  0  0  0
    0.0624    1.1744    0.2652 C   0  0  0  0  0  0  0  0  0  0  0  0
   -0.9739    1.8042    0.0518 O   0  0  0  0  0  0  0  0  0  0  0  0
    0.9731    1.6352    1.1935 N   0  0  0  0  0  0  0  0  0  0  0  0
    1.8826    1.1631    1.1194 H   0  0  0  0  0  0  0  0  0  0  0  0
    0.9558    3.0002    1.6932 C   0  0  0  0  0  0  0  0  0  0  0  0
    0.0108    3.2103    2.2038 H   0  0  0  0  0  0  0  0  0  0  0  0
    1.7728    3.1470    2.4055 H   0  0  0  0  0  0  0  0  0  0  0  0
    1.0801    3.7099    0.8691 H   0  0  0  0  0  0  0  0  0  0  0  0
  1  2  1  0  0  0  0
  2  3  1  0  0  0  0
  2  4  1  0  0  0  0
  2  5  1  0  0  0  0
  5  6  2  0  0  0  0
  5  7  1  0  0  0  0
  7  8  1  0  0  0  0
  7  9  1  0  0  0  0
  9 10  1  0  0  0  0
  9 11  1  0  0  0  0
  9 17  1  0  0  0  0
 11 12  1  0  0  0  0
 11 13  1  0  0  0  0
 11 14  1  0  0  0  0
 14 15  1  0  0  0  0
 14 16  2  0  0  0  0
 17 18  2  0  0  0  0
 17 19  1  0  0  0  0
 19 20  1  0  0  0  0
 19 21  1  0  0  0  0
 21 22  1  0  0  0  0
 21 23  1  0  0  0  0
 21 24  1  0  0  0  0
M  CHG  1  15  -1
M  END
$$$$

  -OEChem-03222214023D

 24 23  0     1  0  0  0  0  0999 V2000
   -2.7976   -3.8175    0.5022 H   0  0  0  0  0  0  0  0  0  0  0  0
   -2.7621   -2.7989    0.1060 C   0  0  0  0  0  0  0  0  0  0  0  0
   -3.4088   -2.1618    0.7143 H   0  0  0  0  0  0  0  0  0  0  0  0
   -3.1323   -2.8078   -0.9221 H   0  0  0  0  0  0  0  0  0  0  0  0
   -1.3383   -2.2717    0.1378 C   0  0  0  0  0  0  0  0  0  0  0  0
   -0.4476   -2.9920    0.5569 O   0  0  0  0  0  0  0  0  0  0  0  0
   -1.0979   -0.9865   -0.2965 N   0  0  0  0  0  0  0  0  0  0  0  0
   -1.9084   -0.4184   -0.5254 H   0  0  0  0  0  0  0  0  0  0  0  0
    0.1825   -0.2678   -0.2529 C   0  0  1  0  0  0  0  0  0  0  0  0
    0.7955   -0.7932    0.4878 H   0  0  0  0  0  0  0  0  0  0  0  0
    0.9180   -0.3261   -1.5989 C   0  0  0  0  0  0  0  0  0  0  0  0
    0.9013   -1.3470   -1.9877 H   0  0  0  0  0  0  0  0  0  0  0  0
    0.4151    0.3204   -2.3237 H   0  0  0  0  0  0  0  0  0  0  0  0
    2.3807    0.1012   -1.4484 C   0  0  0  0  0  0  0  0  0  0  0  0
    2.8154    0.8890   -2.3209 O   0  5  0  0  0  0  0  0  0  0  0  0
    2.9749   -0.1514   -0.3686 O   0  0  0  0  0  0  0  0  0  0  0  0
    0.0609    1.1794    0.2576 C   0  0  0  0  0  0  0  0  0  0  0  0
   -0.9749    1.8136    0.0567 O   0  0  0  0  0  0  0  0  0  0  0  0
    0.9847    1.6327    1.1775 N   0  0  0  0  0  0  0  0  0  0  0  0
    1.8846    1.1434    1.1192 H   0  0  0  0  0  0  0  0  0  0  0  0
    0.9822    2.9969    1.6800 C   0  0  0  0  0  0  0  0  0  0  0  0
    0.0326    3.2224    2.1756 H   0  0  0  0  0  0  0  0  0  0  0  0
    1.7893    3.1286    2.4067 H   0  0  0  0  0  0  0  0  0  0  0  0
    1.1321    3.7055    0.8591 H   0  0  0  0  0  0  0  0  0  0  0  0
  1  2  1  0  0  0  0
  2  3  1  0  0  0  0
  2  4  1  0  0  0  0
  2  5  1  0  0  0  0
  5  6  2  0  0  0  0
  5  7  1  0  0  0  0
  7  8  1  0  0  0  0
  7  9  1  0  0  0  0
  9 10  1  0  0  0  0
  9 11  1  0  0  0  0
  9 17  1  0  0  0  0
 11 12  1  0  0  0  0
 11 13  1  0  0  0  0
 11 14  1  0  0  0  0
 14 15  1  0  0  0  0
 14 16  2  0  0  0  0
 17 18  2  0  0  0  0
 17 19  1  0  0  0  0
 19 20  1  0  0  0  0
 19 21  1  0  0  0  0
 21 22  1  0  0  0  0
 21 23  1  0  0  0  0
 21 24  1  0  0  0  0
M  CHG  1  15  -1
M  END
$$$$

  -OEChem-03222214023D

 24 23  0     1  0  0  0  0  0999 V2000
   -2.7960   -3.8156    0.4947 H   0  0  0  0  0  0  0  0  0  0  0  0
   -2.7581   -2.7959    0.1012 C   0  0  0  0  0  0  0  0  0  0  0  0
   -3.4071   -2.1602    0.7085 H   0  0  0  0  0  0  0  0  0  0  0  0
   -3.1240   -2.8020   -0.9284 H   0  0  0  0  0  0  0  0  0  0  0  0
   -1.3336   -2.2704    0.1405 C   0  0  0  0  0  0  0  0  0  0  0  0
   -0.4479   -2.9888    0.5724 O   0  0  0  0  0  0  0  0  0  0  0  0
   -1.0883   -0.9861   -0.2937 N   0  0  0  0  0  0  0  0  0  0  0  0
   -1.8957   -0.4172   -0.5314 H   0  0  0  0  0  0  0  0  0  0  0  0
    0.1952   -0.2725   -0.2540 C   0  0  1  0  0  0  0  0  0  0  0  0
    0.8215   -0.7983    0.4755 H   0  0  0  0  0  0  0  0  0  0  0  0
    0.9070   -0.3194   -1.6120 C   0  0  0  0  0  0  0  0  0  0  0  0
    0.8844   -1.3359   -2.0121 H   0  0  0  0  0  0  0  0  0  0  0  0
    0.4007    0.3371   -2.3254 H   0  0  0  0  0  0  0  0  0  0  0  0
    2.3679    0.1004   -1.4548 C   0  0  0  0  0  0  0  0  0  0  0  0
    2.7306    1.1033   -2.1133 O   0  5  0  0  0  0  0  0  0  0  0  0
    3.0401   -0.4145   -0.5277 O   0  0  0  0  0  0  0  0  0  0  0  0
    0.0691    1.1737    0.2594 C   0  0  0  0  0  0  0  0  0  0  0  0
   -0.9691    1.8040    0.0576 O   0  0  0  0  0  0  0  0  0  0  0  0
    0.9892    1.6347    1.1803 N   0  0  0  0  0  0  0  0  0  0  0  0
    1.8865    1.1443    1.1488 H   0  0  0  0  0  0  0  0  0  0  0  0
    0.9773    3.0014    1.6762 C   0  0  0  0  0  0  0  0  0  0  0  0
    0.0314    3.2184    2.1826 H   0  0  0  0  0  0  0  0  0  0  0  0
    1.7922    3.1466    2.3915 H   0  0  0  0  0  0  0  0  0  0  0  0
    1.1085    3.7072    0.8496 H   0  0  0  0  0  0  0  0  0  0  0  0
  1  2  1  0  0  0  0
  2  3  1  0  0  0  0
  2  4  1  0  0  0  0
  2  5  1  0  0  0  0
  5  6  2  0  0  0  0
  5  7  1  0  0  0  0
  7  8  1  0  0  0  0
  7  9  1  0  0  0  0
  9 10  1  0  0  0  0
  9 11  1  0  0  0  0
  9 17  1  0  0  0  0
 11 12  1  0  0  0  0
 11 13  1  0  0  0  0
 11 14  1  0  0  0  0
 14 15  1  0  0  0  0
 14 16  2  0  0  0  0
 17 18  2  0  0  0  0
 17 19  1  0  0  0  0
 19 20  1  0  0  0  0
 19 21  1  0  0  0  0
 21 22  1  0  0  0  0
 21 23  1  0  0  0  0
 21 24  1  0  0  0  0
M  CHG  1  15  -1
M  END
$$$$

  -OEChem-03222214023D

 24 23  0     1  0  0  0  0  0999 V2000
   -2.8018   -3.7969    0.4947 H   0  0  0  0  0  0  0  0  0  0  0  0
   -2.7542   -2.7776    0.1014 C   0  0  0  0  0  0  0  0  0  0  0  0
   -3.4030   -2.1369    0.7036 H   0  0  0  0  0  0  0  0  0  0  0  0
   -3.1129   -2.7813   -0.9308 H   0  0  0  0  0  0  0  0  0  0  0  0
   -1.3265   -2.2621    0.1500 C   0  0  0  0  0  0  0  0  0  0  0  0
   -0.4499   -2.9815    0.5985 O   0  0  0  0  0  0  0  0  0  0  0  0
   -1.0690   -0.9818   -0.2875 N   0  0  0  0  0  0  0  0  0  0  0  0
   -1.8705   -0.4046   -0.5260 H   0  0  0  0  0  0  0  0  0  0  0  0
    0.2225   -0.2834   -0.2544 C   0  0  1  0  0  0  0  0  0  0  0  0
    0.8684   -0.8115    0.4568 H   0  0  0  0  0  0  0  0  0  0  0  0
    0.9010   -0.3144   -1.6286 C   0  0  0  0  0  0  0  0  0  0  0  0
    0.8596   -1.3233   -2.0467 H   0  0  0  0  0  0  0  0  0  0  0  0
    0.3955    0.3627   -2.3230 H   0  0  0  0  0  0  0  0  0  0  0  0
    2.3642    0.0834   -1.4712 C   0  0  0  0  0  0  0  0  0  0  0  0
    2.6777    1.2351   -1.8541 O   0  5  0  0  0  0  0  0  0  0  0  0
    3.1155   -0.6723   -0.8109 O   0  0  0  0  0  0  0  0  0  0  0  0
    0.0819    1.1630    0.2622 C   0  0  0  0  0  0  0  0  0  0  0  0
   -0.9677    1.7770    0.0658 O   0  0  0  0  0  0  0  0  0  0  0  0
    0.9905    1.6396    1.1872 N   0  0  0  0  0  0  0  0  0  0  0  0
    1.8998    1.1774    1.1526 H   0  0  0  0  0  0  0  0  0  0  0  0
    0.9461    3.0048    1.6859 C   0  0  0  0  0  0  0  0  0  0  0  0
   -0.0015    3.1958    2.1995 H   0  0  0  0  0  0  0  0  0  0  0  0
    1.7620    3.1698    2.3956 H   0  0  0  0  0  0  0  0  0  0  0  0
    1.0530    3.7156    0.8602 H   0  0  0  0  0  0  0  0  0  0  0  0
  1  2  1  0  0  0  0
  2  3  1  0  0  0  0
  2  4  1  0  0  0  0
  2  5  1  0  0  0  0
  5  6  2  0  0  0  0
  5  7  1  0  0  0  0
  7  8  1  0  0  0  0
  7  9  1  0  0  0  0
  9 10  1  0  0  0  0
  9 11  1  0  0  0  0
  9 17  1  0  0  0  0
 11 12  1  0  0  0  0
 11 13  1  0  0  0  0
 11 14  1  0  0  0  0
 14 15  1  0  0  0  0
 14 16  2  0  0  0  0
 17 18  2  0  0  0  0
 17 19  1  0  0  0  0
 19 20  1  0  0  0  0
 19 21  1  0  0  0  0
 21 22  1  0  0  0  0
 21 23  1  0  0  0  0
 21 24  1  0  0  0  0
M  CHG  1  15  -1
M  END
$$$$

  -OEChem-03222214023D

 24 23  0     1  0  0  0  0  0999 V2000
   -2.8137   -3.7683    0.5124 H   0  0  0  0  0  0  0  0  0  0  0  0
   -2.7558   -2.7521    0.1121 C   0  0  0  0  0  0  0  0  0  0  0  0
   -3.3954   -2.0998    0.7118 H   0  0  0  0  0  0  0  0  0  0  0  0
   -3.1179   -2.7586   -0.9190 H   0  0  0  0  0  0  0  0  0  0  0  0
   -1.3222   -2.2525    0.1525 C   0  0  0  0  0  0  0  0  0  0  0  0
   -0.4515   -2.9780    0.6030 O   0  0  0  0  0  0  0  0  0  0  0  0
   -1.0517   -0.9761   -0.2876 N   0  0  0  0  0  0  0  0  0  0  0  0
   -1.8470   -0.3856   -0.5153 H   0  0  0  0  0  0  0  0  0  0  0  0
    0.2492   -0.2953   -0.2571 C   0  0  1  0  0  0  0  0  0  0  0  0
    0.9042   -0.8271    0.4431 H   0  0  0  0  0  0  0  0  0  0  0  0
    0.9084   -0.3139   -1.6404 C   0  0  0  0  0  0  0  0  0  0  0  0
    0.8439   -1.3146   -2.0758 H   0  0  0  0  0  0  0  0  0  0  0  0
    0.4103    0.3851   -2.3178 H   0  0  0  0  0  0  0  0  0  0  0  0
    2.3770    0.0588   -1.4852 C   0  0  0  0  0  0  0  0  0  0  0  0
    2.6657    1.2767   -1.5647 O   0  5  0  0  0  0  0  0  0  0  0  0
    3.1856   -0.8432   -1.1671 O   0  0  0  0  0  0  0  0  0  0  0  0
    0.0949    1.1522    0.2631 C   0  0  0  0  0  0  0  0  0  0  0  0
   -0.9684    1.7469    0.0761 O   0  0  0  0  0  0  0  0  0  0  0  0
    0.9905    1.6421    1.1944 N   0  0  0  0  0  0  0  0  0  0  0  0
    1.9226    1.2355    1.1135 H   0  0  0  0  0  0  0  0  0  0  0  0
    0.9024    3.0014    1.7045 C   0  0  0  0  0  0  0  0  0  0  0  0
   -0.0504    3.1582    2.2203 H   0  0  0  0  0  0  0  0  0  0  0  0
    1.7133    3.1870    2.4149 H   0  0  0  0  0  0  0  0  0  0  0  0
    0.9856    3.7219    0.8844 H   0  0  0  0  0  0  0  0  0  0  0  0
  1  2  1  0  0  0  0
  2  3  1  0  0  0  0
  2  4  1  0  0  0  0
  2  5  1  0  0  0  0
  5  6  2  0  0  0  0
  5  7  1  0  0  0  0
  7  8  1  0  0  0  0
  7  9  1  0  0  0  0
  9 10  1  0  0  0  0
  9 11  1  0  0  0  0
  9 17  1  0  0  0  0
 11 12  1  0  0  0  0
 11 13  1  0  0  0  0
 11 14  1  0  0  0  0
 14 15  1  0  0  0  0
 14 16  2  0  0  0  0
 17 18  2  0  0  0  0
 17 19  1  0  0  0  0
 19 20  1  0  0  0  0
 19 21  1  0  0  0  0
 21 22  1  0  0  0  0
 21 23  1  0  0  0  0
 21 24  1  0  0  0  0
M  CHG  1  15  -1
M  END
$$$$

  -OEChem-03222214023D

 24 23  0     1  0  0  0  0  0999 V2000
   -2.8245   -3.7353    0.5335 H   0  0  0  0  0  0  0  0  0  0  0  0
   -2.7591   -2.7216    0.1286 C   0  0  0  0  0  0  0  0  0  0  0  0
   -3.3872   -2.0599    0.7301 H   0  0  0  0  0  0  0  0  0  0  0  0
   -3.1286   -2.7288   -0.8998 H   0  0  0  0  0  0  0  0  0  0  0  0
   -1.3202   -2.2369    0.1568 C   0  0  0  0  0  0  0  0  0  0  0  0
   -0.4530   -2.9682    0.6054 O   0  0  0  0  0  0  0  0  0  0  0  0
   -1.0385   -0.9658   -0.2911 N   0  0  0  0  0  0  0  0  0  0  0  0
   -1.8287   -0.3609   -0.4997 H   0  0  0  0  0  0  0  0  0  0  0  0
    0.2706   -0.3013   -0.2616 C   0  0  1  0  0  0  0  0  0  0  0  0
    0.9234   -0.8319    0.4410 H   0  0  0  0  0  0  0  0  0  0  0  0
    0.9283   -0.3255   -1.6469 C   0  0  0  0  0  0  0  0  0  0  0  0
    0.8415   -1.3240   -2.0841 H   0  0  0  0  0  0  0  0  0  0  0  0
    0.4401    0.3842   -2.3201 H   0  0  0  0  0  0  0  0  0  0  0  0
    2.4053    0.0248   -1.5048 C   0  0  0  0  0  0  0  0  0  0  0  0
    2.6937    1.2282   -1.2938 O   0  5  0  0  0  0  0  0  0  0  0  0
    3.2410   -0.9065   -1.5606 O   0  0  0  0  0  0  0  0  0  0  0  0
    0.1031    1.1489    0.2546 C   0  0  0  0  0  0  0  0  0  0  0  0
   -0.9729    1.7252    0.0781 O   0  0  0  0  0  0  0  0  0  0  0  0
    0.9881    1.6467    1.1914 N   0  0  0  0  0  0  0  0  0  0  0  0
    1.9400    1.3085    1.0411 H   0  0  0  0  0  0  0  0  0  0  0  0
    0.8527    2.9890    1.7353 C   0  0  0  0  0  0  0  0  0  0  0  0
   -0.1053    3.1005    2.2530 H   0  0  0  0  0  0  0  0  0  0  0  0
    1.6557    3.1836    2.4523 H   0  0  0  0  0  0  0  0  0  0  0  0
    0.9127    3.7327    0.9342 H   0  0  0  0  0  0  0  0  0  0  0  0
  1  2  1  0  0  0  0
  2  3  1  0  0  0  0
  2  4  1  0  0  0  0
  2  5  1  0  0  0  0
  5  6  2  0  0  0  0
  5  7  1  0  0  0  0
  7  8  1  0  0  0  0
  7  9  1  0  0  0  0
  9 10  1  0  0  0  0
  9 11  1  0  0  0  0
  9 17  1  0  0  0  0
 11 12  1  0  0  0  0
 11 13  1  0  0  0  0
 11 14  1  0  0  0  0
 14 15  1  0  0  0  0
 14 16  2  0  0  0  0
 17 18  2  0  0  0  0
 17 19  1  0  0  0  0
 19 20  1  0  0  0  0
 19 21  1  0  0  0  0
 21 22  1  0  0  0  0
 21 23  1  0  0  0  0
 21 24  1  0  0  0  0
M  CHG  1  15  -1
M  END
$$$$

  -OEChem-03222214023D

 24 23  0     1  0  0  0  0  0999 V2000
   -2.8340   -3.7091    0.5585 H   0  0  0  0  0  0  0  0  0  0  0  0
   -2.7616   -2.7007    0.1412 C   0  0  0  0  0  0  0  0  0  0  0  0
   -3.3813   -2.0269    0.7380 H   0  0  0  0  0  0  0  0  0  0  0  0
   -3.1363   -2.7163   -0.8852 H   0  0  0  0  0  0  0  0  0  0  0  0
   -1.3187   -2.2280    0.1565 C   0  0  0  0  0  0  0  0  0  0  0  0
   -0.4525   -2.9668    0.5951 O   0  0  0  0  0  0  0  0  0  0  0  0
   -1.0289   -0.9594   -0.2931 N   0  0  0  0  0  0  0  0  0  0  0  0
   -1.8148   -0.3456   -0.4926 H   0  0  0  0  0  0  0  0  0  0  0  0
    0.2856   -0.3055   -0.2579 C   0  0  1  0  0  0  0  0  0  0  0  0
    0.9352   -0.8350    0.4483 H   0  0  0  0  0  0  0  0  0  0  0  0
    0.9454   -0.3345   -1.6446 C   0  0  0  0  0  0  0  0  0  0  0  0
    0.8397   -1.3318   -2.0808 H   0  0  0  0  0  0  0  0  0  0  0  0
    0.4606    0.3817   -2.3128 H   0  0  0  0  0  0  0  0  0  0  0  0
    2.4320   -0.0020   -1.5322 C   0  0  0  0  0  0  0  0  0  0  0  0
    2.7493    1.1151   -1.0519 O   0  5  0  0  0  0  0  0  0  0  0  0
    3.2521   -0.8571   -1.9394 O   0  0  0  0  0  0  0  0  0  0  0  0
    0.1054    1.1454    0.2578 C   0  0  0  0  0  0  0  0  0  0  0  0
   -0.9730    1.7159    0.0729 O   0  0  0  0  0  0  0  0  0  0  0  0
    0.9780    1.6482    1.2028 N   0  0  0  0  0  0  0  0  0  0  0  0
    1.9381    1.3457    1.0173 H   0  0  0  0  0  0  0  0  0  0  0  0
    0.8178    2.9834    1.7577 C   0  0  0  0  0  0  0  0  0  0  0  0
   -0.1443    3.0743    2.2720 H   0  0  0  0  0  0  0  0  0  0  0  0
    1.6141    3.1848    2.4802 H   0  0  0  0  0  0  0  0  0  0  0  0
    0.8689    3.7352    0.9635 H   0  0  0  0  0  0  0  0  0  0  0  0
  1  2  1  0  0  0  0
  2  3  1  0  0  0  0
  2  4  1  0  0  0  0
  2  5  1  0  0  0  0
  5  6  2  0  0  0  0
  5  7  1  0  0  0  0
  7  8  1  0  0  0  0
  7  9  1  0  0  0  0
  9 10  1  0  0  0  0
  9 11  1  0  0  0  0
  9 17  1  0  0  0  0
 11 12  1  0  0  0  0
 11 13  1  0  0  0  0
 11 14  1  0  0  0  0
 14 15  1  0  0  0  0
 14 16  2  0  0  0  0
 17 18  2  0  0  0  0
 17 19  1  0  0  0  0
 19 20  1  0  0  0  0
 19 21  1  0  0  0  0
 21 22  1  0  0  0  0
 21 23  1  0  0  0  0
 21 24  1  0  0  0  0
M  CHG  1  15  -1
M  END
$$$$

  -OEChem-03222214023D

 24 23  0     1  0  0  0  0  0999 V2000
   -2.8346   -3.7027    0.5613 H   0  0  0  0  0  0  0  0  0  0  0  0
   -2.7602   -2.6949    0.1432 C   0  0  0  0  0  0  0  0  0  0  0  0
   -3.3782   -2.0192    0.7396 H   0  0  0  0  0  0  0  0  0  0  0  0
   -3.1352   -2.7104   -0.8831 H   0  0  0  0  0  0  0  0  0  0  0  0
   -1.3163   -2.2247    0.1582 C   0  0  0  0  0  0  0  0  0  0  0  0
   -0.4507   -2.9653    0.5956 O   0  0  0  0  0  0  0  0  0  0  0  0
   -1.0238   -0.9567   -0.2916 N   0  0  0  0  0  0  0  0  0  0  0  0
   -1.8078   -0.3404   -0.4914 H   0  0  0  0  0  0  0  0  0  0  0  0
    0.2919   -0.3062   -0.2487 C   0  0  1  0  0  0  0  0  0  0  0  0
    0.9391   -0.8344    0.4603 H   0  0  0  0  0  0  0  0  0  0  0  0
    0.9515   -0.3390   -1.6371 C   0  0  0  0  0  0  0  0  0  0  0  0
    0.8357   -1.3370   -2.0691 H   0  0  0  0  0  0  0  0  0  0  0  0
    0.4630    0.3777   -2.3021 H   0  0  0  0  0  0  0  0  0  0  0  0
    2.4444   -0.0158   -1.5575 C   0  0  0  0  0  0  0  0  0  0  0  0
    2.8104    0.9526   -0.8430 O   0  5  0  0  0  0  0  0  0  0  0  0
    3.2184   -0.7140   -2.2533 O   0  0  0  0  0  0  0  0  0  0  0  0
    0.1033    1.1445    0.2655 C   0  0  0  0  0  0  0  0  0  0  0  0
   -0.9699    1.7184    0.0621 O   0  0  0  0  0  0  0  0  0  0  0  0
    0.9661    1.6499    1.2173 N   0  0  0  0  0  0  0  0  0  0  0  0
    1.9276    1.3425    1.0367 H   0  0  0  0  0  0  0  0  0  0  0  0
    0.8043    2.9868    1.7672 C   0  0  0  0  0  0  0  0  0  0  0  0
   -0.1655    3.0833    2.2656 H   0  0  0  0  0  0  0  0  0  0  0  0
    1.5898    3.1849    2.5024 H   0  0  0  0  0  0  0  0  0  0  0  0
    0.8720    3.7370    0.9729 H   0  0  0  0  0  0  0  0  0  0  0  0
  1  2  1  0  0  0  0
  2  3  1  0  0  0  0
  2  4  1  0  0  0  0
  2  5  1  0  0  0  0
  5  6  2  0  0  0  0
  5  7  1  0  0  0  0
  7  8  1  0  0  0  0
  7  9  1  0  0  0  0
  9 10  1  0  0  0  0
  9 11  1  0  0  0  0
  9 17  1  0  0  0  0
 11 12  1  0  0  0  0
 11 13  1  0  0  0  0
 11 14  1  0  0  0  0
 14 15  1  0  0  0  0
 14 16  2  0  0  0  0
 17 18  2  0  0  0  0
 17 19  1  0  0  0  0
 19 20  1  0  0  0  0
 19 21  1  0  0  0  0
 21 22  1  0  0  0  0
 21 23  1  0  0  0  0
 21 24  1  0  0  0  0
M  CHG  1  15  -1
M  END
$$$$

  -OEChem-03222214023D

 24 23  0     1  0  0  0  0  0999 V2000
   -2.8320   -3.7091    0.5624 H   0  0  0  0  0  0  0  0  0  0  0  0
   -2.7611   -2.7016    0.1429 C   0  0  0  0  0  0  0  0  0  0  0  0
   -3.3785   -2.0266    0.7408 H   0  0  0  0  0  0  0  0  0  0  0  0
   -3.1395   -2.7191   -0.8821 H   0  0  0  0  0  0  0  0  0  0  0  0
   -1.3175   -2.2296    0.1525 C   0  0  0  0  0  0  0  0  0  0  0  0
   -0.4487   -2.9726    0.5795 O   0  0  0  0  0  0  0  0  0  0  0  0
   -1.0277   -0.9594   -0.2930 N   0  0  0  0  0  0  0  0  0  0  0  0
   -1.8133   -0.3446   -0.4913 H   0  0  0  0  0  0  0  0  0  0  0  0
    0.2857   -0.3045   -0.2425 C   0  0  1  0  0  0  0  0  0  0  0  0
    0.9301   -0.8334    0.4689 H   0  0  0  0  0  0  0  0  0  0  0  0
    0.9532   -0.3351   -1.6281 C   0  0  0  0  0  0  0  0  0  0  0  0
    0.8428   -1.3351   -2.0566 H   0  0  0  0  0  0  0  0  0  0  0  0
    0.4613    0.3778   -2.2946 H   0  0  0  0  0  0  0  0  0  0  0  0
    2.4471   -0.0087   -1.5630 C   0  0  0  0  0  0  0  0  0  0  0  0
    2.8631    0.7592   -0.6562 O   0  5  0  0  0  0  0  0  0  0  0  0
    3.1685   -0.4916   -2.4672 O   0  0  0  0  0  0  0  0  0  0  0  0
    0.0954    1.1446    0.2735 C   0  0  0  0  0  0  0  0  0  0  0  0
   -0.9696    1.7271    0.0537 O   0  0  0  0  0  0  0  0  0  0  0  0
    0.9545    1.6477    1.2291 N   0  0  0  0  0  0  0  0  0  0  0  0
    1.9115    1.3097    1.0741 H   0  0  0  0  0  0  0  0  0  0  0  0
    0.8124    2.9938    1.7611 C   0  0  0  0  0  0  0  0  0  0  0  0
   -0.1563    3.1115    2.2572 H   0  0  0  0  0  0  0  0  0  0  0  0
    1.6003    3.1900    2.4941 H   0  0  0  0  0  0  0  0  0  0  0  0
    0.8921    3.7321    0.9568 H   0  0  0  0  0  0  0  0  0  0  0  0
  1  2  1  0  0  0  0
  2  3  1  0  0  0  0
  2  4  1  0  0  0  0
  2  5  1  0  0  0  0
  5  6  2  0  0  0  0
  5  7  1  0  0  0  0
  7  8  1  0  0  0  0
  7  9  1  0  0  0  0
  9 10  1  0  0  0  0
  9 11  1  0  0  0  0
  9 17  1  0  0  0  0
 11 12  1  0  0  0  0
 11 13  1  0  0  0  0
 11 14  1  0  0  0  0
 14 15  1  0  0  0  0
 14 16  2  0  0  0  0
 17 18  2  0  0  0  0
 17 19  1  0  0  0  0
 19 20  1  0  0  0  0
 19 21  1  0  0  0  0
 21 22  1  0  0  0  0
 21 23  1  0  0  0  0
 21 24  1  0  0  0  0
M  CHG  1  15  -1
M  END
$$$$

  -OEChem-03222214023D

 24 23  0     1  0  0  0  0  0999 V2000
   -2.8272   -3.7346    0.5412 H   0  0  0  0  0  0  0  0  0  0  0  0
   -2.7602   -2.7222    0.1330 C   0  0  0  0  0  0  0  0  0  0  0  0
   -3.3856   -2.0577    0.7343 H   0  0  0  0  0  0  0  0  0  0  0  0
   -3.1326   -2.7310   -0.8943 H   0  0  0  0  0  0  0  0  0  0  0  0
   -1.3204   -2.2399    0.1552 C   0  0  0  0  0  0  0  0  0  0  0  0
   -0.4484   -2.9781    0.5840 O   0  0  0  0  0  0  0  0  0  0  0  0
   -1.0390   -0.9667   -0.2872 N   0  0  0  0  0  0  0  0  0  0  0  0
   -1.8289   -0.3627   -0.4994 H   0  0  0  0  0  0  0  0  0  0  0  0
    0.2674   -0.2984   -0.2351 C   0  0  1  0  0  0  0  0  0  0  0  0
    0.9092   -0.8266    0.4791 H   0  0  0  0  0  0  0  0  0  0  0  0
    0.9439   -0.3286   -1.6162 C   0  0  0  0  0  0  0  0  0  0  0  0
    0.8506   -1.3333   -2.0371 H   0  0  0  0  0  0  0  0  0  0  0  0
    0.4442    0.3721   -2.2901 H   0  0  0  0  0  0  0  0  0  0  0  0
    2.4345    0.0154   -1.5533 C   0  0  0  0  0  0  0  0  0  0  0  0
    2.8975    0.5509   -0.5109 O   0  5  0  0  0  0  0  0  0  0  0  0
    3.1039   -0.2166   -2.5874 O   0  0  0  0  0  0  0  0  0  0  0  0
    0.0862    1.1499    0.2799 C   0  0  0  0  0  0  0  0  0  0  0  0
   -0.9691    1.7448    0.0506 O   0  0  0  0  0  0  0  0  0  0  0  0
    0.9527    1.6477    1.2311 N   0  0  0  0  0  0  0  0  0  0  0  0
    1.8997    1.2700    1.1039 H   0  0  0  0  0  0  0  0  0  0  0  0
    0.8427    3.0035    1.7456 C   0  0  0  0  0  0  0  0  0  0  0  0
   -0.1265    3.1530    2.2322 H   0  0  0  0  0  0  0  0  0  0  0  0
    1.6299    3.1875    2.4826 H   0  0  0  0  0  0  0  0  0  0  0  0
    0.9485    3.7296    0.9332 H   0  0  0  0  0  0  0  0  0  0  0  0
  1  2  1  0  0  0  0
  2  3  1  0  0  0  0
  2  4  1  0  0  0  0
  2  5  1  0  0  0  0
  5  6  2  0  0  0  0
  5  7  1  0  0  0  0
  7  8  1  0  0  0  0
  7  9  1  0  0  0  0
  9 10  1  0  0  0  0
  9 11  1  0  0  0  0
  9 17  1  0  0  0  0
 11 12  1  0  0  0  0
 11 13  1  0  0  0  0
 11 14  1  0  0  0  0
 14 15  1  0  0  0  0
 14 16  2  0  0  0  0
 17 18  2  0  0  0  0
 17 19  1  0  0  0  0
 19 20  1  0  0  0  0
 19 21  1  0  0  0  0
 21 22  1  0  0  0  0
 21 23  1  0  0  0  0
 21 24  1  0  0  0  0
M  CHG  1  15  -1
M  END
$$$$

  -OEChem-03222214023D

 24 23  0     1  0  0  0  0  0999 V2000
   -2.8110   -3.7688    0.5233 H   0  0  0  0  0  0  0  0  0  0  0  0
   -2.7587   -2.7524    0.1229 C   0  0  0  0  0  0  0  0  0  0  0  0
   -3.3956   -2.1023    0.7276 H   0  0  0  0  0  0  0  0  0  0  0  0
   -3.1284   -2.7595   -0.9054 H   0  0  0  0  0  0  0  0  0  0  0  0
   -1.3262   -2.2489    0.1534 C   0  0  0  0  0  0  0  0  0  0  0  0
   -0.4471   -2.9775    0.5834 O   0  0  0  0  0  0  0  0  0  0  0  0
   -1.0608   -0.9712   -0.2868 N   0  0  0  0  0  0  0  0  0  0  0  0
   -1.8583   -0.3826   -0.5118 H   0  0  0  0  0  0  0  0  0  0  0  0
    0.2360   -0.2839   -0.2350 C   0  0  1  0  0  0  0  0  0  0  0  0
    0.8689   -0.8117    0.4875 H   0  0  0  0  0  0  0  0  0  0  0  0
    0.9323   -0.3209   -1.6052 C   0  0  0  0  0  0  0  0  0  0  0  0
    0.8654   -1.3328   -2.0131 H   0  0  0  0  0  0  0  0  0  0  0  0
    0.4283    0.3608   -2.2953 H   0  0  0  0  0  0  0  0  0  0  0  0
    2.4157    0.0508   -1.5244 C   0  0  0  0  0  0  0  0  0  0  0  0
    2.9184    0.3410   -0.4054 O   0  5  0  0  0  0  0  0  0  0  0  0
    3.0401    0.0812   -2.6109 O   0  0  0  0  0  0  0  0  0  0  0  0
    0.0737    1.1640    0.2774 C   0  0  0  0  0  0  0  0  0  0  0  0
   -0.9703    1.7763    0.0461 O   0  0  0  0  0  0  0  0  0  0  0  0
    0.9574    1.6479    1.2195 N   0  0  0  0  0  0  0  0  0  0  0  0
    1.8889    1.2251    1.1203 H   0  0  0  0  0  0  0  0  0  0  0  0
    0.8872    3.0087    1.7264 C   0  0  0  0  0  0  0  0  0  0  0  0
   -0.0761    3.1876    2.2146 H   0  0  0  0  0  0  0  0  0  0  0  0
    1.6814    3.1745    2.4600 H   0  0  0  0  0  0  0  0  0  0  0  0
    1.0105    3.7271    0.9097 H   0  0  0  0  0  0  0  0  0  0  0  0
  1  2  1  0  0  0  0
  2  3  1  0  0  0  0
  2  4  1  0  0  0  0
  2  5  1  0  0  0  0
  5  6  2  0  0  0  0
  5  7  1  0  0  0  0
  7  8  1  0  0  0  0
  7  9  1  0  0  0  0
  9 10  1  0  0  0  0
  9 11  1  0  0  0  0
  9 17  1  0  0  0  0
 11 12  1  0  0  0  0
 11 13  1  0  0  0  0
 11 14  1  0  0  0  0
 14 15  1  0  0  0  0
 14 16  2  0  0  0  0
 17 18  2  0  0  0  0
 17 19  1  0  0  0  0
 19 20  1  0  0  0  0
 19 21  1  0  0  0  0
 21 22  1  0  0  0  0
 21 23  1  0  0  0  0
 21 24  1  0  0  0  0
M  CHG  1  15  -1
M  END
$$$$

  -OEChem-03222214023D

 24 23  0     1  0  0  0  0  0999 V2000
   -2.7986   -3.8024    0.5052 H   0  0  0  0  0  0  0  0  0  0  0  0
   -2.7585   -2.7829    0.1114 C   0  0  0  0  0  0  0  0  0  0  0  0
   -3.4043   -2.1446    0.7195 H   0  0  0  0  0  0  0  0  0  0  0  0
   -3.1267   -2.7877   -0.9175 H   0  0  0  0  0  0  0  0  0  0  0  0
   -1.3324   -2.2617    0.1473 C   0  0  0  0  0  0  0  0  0  0  0  0
   -0.4459   -2.9822    0.5753 O   0  0  0  0  0  0  0  0  0  0  0  0
   -1.0840   -0.9786   -0.2879 N   0  0  0  0  0  0  0  0  0  0  0  0
   -1.8897   -0.4067   -0.5244 H   0  0  0  0  0  0  0  0  0  0  0  0
    0.2014   -0.2696   -0.2381 C   0  0  1  0  0  0  0  0  0  0  0  0
    0.8237   -0.7966    0.4941 H   0  0  0  0  0  0  0  0  0  0  0  0
    0.9218   -0.3136   -1.5943 C   0  0  0  0  0  0  0  0  0  0  0  0
    0.8870   -1.3328   -1.9871 H   0  0  0  0  0  0  0  0  0  0  0  0
    0.4164    0.3457   -2.3051 H   0  0  0  0  0  0  0  0  0  0  0  0
    2.3941    0.0926   -1.4797 C   0  0  0  0  0  0  0  0  0  0  0  0
    2.9350    0.1336   -0.3421 O   0  5  0  0  0  0  0  0  0  0  0  0
    2.9707    0.3983   -2.5499 O   0  0  0  0  0  0  0  0  0  0  0  0
    0.0593    1.1773    0.2743 C   0  0  0  0  0  0  0  0  0  0  0  0
   -0.9751    1.8062    0.0492 O   0  0  0  0  0  0  0  0  0  0  0  0
    0.9637    1.6453    1.2051 N   0  0  0  0  0  0  0  0  0  0  0  0
    1.8770    1.1804    1.1315 H   0  0  0  0  0  0  0  0  0  0  0  0
    0.9369    3.0119    1.7004 C   0  0  0  0  0  0  0  0  0  0  0  0
   -0.0085    3.2158    2.2129 H   0  0  0  0  0  0  0  0  0  0  0  0
    1.7547    3.1676    2.4102 H   0  0  0  0  0  0  0  0  0  0  0  0
    1.0532    3.7201    0.8736 H   0  0  0  0  0  0  0  0  0  0  0  0
  1  2  1  0  0  0  0
  2  3  1  0  0  0  0
  2  4  1  0  0  0  0
  2  5  1  0  0  0  0
  5  6  2  0  0  0  0
  5  7  1  0  0  0  0
  7  8  1  0  0  0  0
  7  9  1  0  0  0  0
  9 10  1  0  0  0  0
  9 11  1  0  0  0  0
  9 17  1  0  0  0  0
 11 12  1  0  0  0  0
 11 13  1  0  0  0  0
 11 14  1  0  0  0  0
 14 15  1  0  0  0  0
 14 16  2  0  0  0  0
 17 18  2  0  0  0  0
 17 19  1  0  0  0  0
 19 20  1  0  0  0  0
 19 21  1  0  0  0  0
 21 22  1  0  0  0  0
 21 23  1  0  0  0  0
 21 24  1  0  0  0  0
M  CHG  1  15  -1
M  END
$$$$

  -OEChem-03222214023D

 24 23  0     1  0  0  0  0  0999 V2000
   -2.7839   -3.8282    0.4920 H   0  0  0  0  0  0  0  0  0  0  0  0
   -2.7547   -2.8075    0.1005 C   0  0  0  0  0  0  0  0  0  0  0  0
   -3.4130   -2.1792    0.7055 H   0  0  0  0  0  0  0  0  0  0  0  0
   -3.1159   -2.8156   -0.9308 H   0  0  0  0  0  0  0  0  0  0  0  0
   -1.3358   -2.2676    0.1475 C   0  0  0  0  0  0  0  0  0  0  0  0
   -0.4442   -2.9781    0.5810 O   0  0  0  0  0  0  0  0  0  0  0  0
   -1.1010   -0.9809   -0.2859 N   0  0  0  0  0  0  0  0  0  0  0  0
   -1.9122   -0.4234   -0.5365 H   0  0  0  0  0  0  0  0  0  0  0  0
    0.1763   -0.2563   -0.2428 C   0  0  1  0  0  0  0  0  0  0  0  0
    0.7938   -0.7796    0.4957 H   0  0  0  0  0  0  0  0  0  0  0  0
    0.9092   -0.3110   -1.5907 C   0  0  0  0  0  0  0  0  0  0  0  0
    0.8980   -1.3361   -1.9694 H   0  0  0  0  0  0  0  0  0  0  0  0
    0.4032    0.3302   -2.3178 H   0  0  0  0  0  0  0  0  0  0  0  0
    2.3701    0.1219   -1.4454 C   0  0  0  0  0  0  0  0  0  0  0  0
    2.9635   -0.0825   -0.3544 O   0  5  0  0  0  0  0  0  0  0  0  0
    2.8835    0.6964   -2.4341 O   0  0  0  0  0  0  0  0  0  0  0  0
    0.0508    1.1901    0.2686 C   0  0  0  0  0  0  0  0  0  0  0  0
   -0.9779    1.8304    0.0528 O   0  0  0  0  0  0  0  0  0  0  0  0
    0.9741    1.6460    1.1877 N   0  0  0  0  0  0  0  0  0  0  0  0
    1.8714    1.1504    1.1382 H   0  0  0  0  0  0  0  0  0  0  0  0
    0.9760    3.0127    1.6831 C   0  0  0  0  0  0  0  0  0  0  0  0
    0.0341    3.2374    2.1933 H   0  0  0  0  0  0  0  0  0  0  0  0
    1.7952    3.1503    2.3950 H   0  0  0  0  0  0  0  0  0  0  0  0
    1.1100    3.7178    0.8565 H   0  0  0  0  0  0  0  0  0  0  0  0
  1  2  1  0  0  0  0
  2  3  1  0  0  0  0
  2  4  1  0  0  0  0
  2  5  1  0  0  0  0
  5  6  2  0  0  0  0
  5  7  1  0  0  0  0
  7  8  1  0  0  0  0
  7  9  1  0  0  0  0
  9 10  1  0  0  0  0
  9 11  1  0  0  0  0
  9 17  1  0  0  0  0
 11 12  1  0  0  0  0
 11 13  1  0  0  0  0
 11 14  1  0  0  0  0
 14 15  1  0  0  0  0
 14 16  2  0  0  0  0
 17 18  2  0  0  0  0
 17 19  1  0  0  0  0
 19 20  1  0  0  0  0
 19 21  1  0  0  0  0
 21 22  1  0  0  0  0
 21 23  1  0  0  0  0
 21 24  1  0  0  0  0
M  CHG  1  15  -1
M  END
$$$$

  -OEChem-03222214023D

 24 23  0     1  0  0  0  0  0999 V2000
   -2.7850   -3.8267    0.4830 H   0  0  0  0  0  0  0  0  0  0  0  0
   -2.7508   -2.8053    0.0937 C   0  0  0  0  0  0  0  0  0  0  0  0
   -3.4158   -2.1776    0.6919 H   0  0  0  0  0  0  0  0  0  0  0  0
   -3.0995   -2.8111   -0.9419 H   0  0  0  0  0  0  0  0  0  0  0  0
   -1.3328   -2.2656    0.1580 C   0  0  0  0  0  0  0  0  0  0  0  0
   -0.4482   -2.9713    0.6126 O   0  0  0  0  0  0  0  0  0  0  0  0
   -1.0931   -0.9814   -0.2795 N   0  0  0  0  0  0  0  0  0  0  0  0
   -1.9012   -0.4256   -0.5435 H   0  0  0  0  0  0  0  0  0  0  0  0
    0.1861   -0.2605   -0.2424 C   0  0  1  0  0  0  0  0  0  0  0  0
    0.8130   -0.7817    0.4897 H   0  0  0  0  0  0  0  0  0  0  0  0
    0.9003   -0.3137   -1.5994 C   0  0  0  0  0  0  0  0  0  0  0  0
    0.8852   -1.3369   -1.9830 H   0  0  0  0  0  0  0  0  0  0  0  0
    0.3909    0.3313   -2.3208 H   0  0  0  0  0  0  0  0  0  0  0  0
    2.3591    0.1154   -1.4476 C   0  0  0  0  0  0  0  0  0  0  0  0
    3.0277   -0.3421   -0.4878 O   0  5  0  0  0  0  0  0  0  0  0  0
    2.7884    0.9536   -2.2746 O   0  0  0  0  0  0  0  0  0  0  0  0
    0.0594    1.1869    0.2657 C   0  0  0  0  0  0  0  0  0  0  0  0
   -0.9718    1.8236    0.0512 O   0  0  0  0  0  0  0  0  0  0  0  0
    0.9818    1.6497    1.1831 N   0  0  0  0  0  0  0  0  0  0  0  0
    1.8732    1.1473    1.1666 H   0  0  0  0  0  0  0  0  0  0  0  0
    0.9749    3.0156    1.6808 C   0  0  0  0  0  0  0  0  0  0  0  0
    0.0306    3.2342    2.1892 H   0  0  0  0  0  0  0  0  0  0  0  0
    1.7915    3.1567    2.3948 H   0  0  0  0  0  0  0  0  0  0  0  0
    1.1068    3.7228    0.8557 H   0  0  0  0  0  0  0  0  0  0  0  0
  1  2  1  0  0  0  0
  2  3  1  0  0  0  0
  2  4  1  0  0  0  0
  2  5  1  0  0  0  0
  5  6  2  0  0  0  0
  5  7  1  0  0  0  0
  7  8  1  0  0  0  0
  7  9  1  0  0  0  0
  9 10  1  0  0  0  0
  9 11  1  0  0  0  0
  9 17  1  0  0  0  0
 11 12  1  0  0  0  0
 11 13  1  0  0  0  0
 11 14  1  0  0  0  0
 14 15  1  0  0  0  0
 14 16  2  0  0  0  0
 17 18  2  0  0  0  0
 17 19  1  0  0  0  0
 19 20  1  0  0  0  0
 19 21  1  0  0  0  0
 21 22  1  0  0  0  0
 21 23  1  0  0  0  0
 21 24  1  0  0  0  0
M  CHG  1  15  -1
M  END
$$$$

  -OEChem-03222214023D

 24 23  0     1  0  0  0  0  0999 V2000
   -2.7947   -3.8085    0.4904 H   0  0  0  0  0  0  0  0  0  0  0  0
   -2.7502   -2.7893    0.0962 C   0  0  0  0  0  0  0  0  0  0  0  0
   -3.4107   -2.1525    0.6899 H   0  0  0  0  0  0  0  0  0  0  0  0
   -3.0970   -2.7970   -0.9401 H   0  0  0  0  0  0  0  0  0  0  0  0
   -1.3273   -2.2626    0.1608 C   0  0  0  0  0  0  0  0  0  0  0  0
   -0.4513   -2.9732    0.6242 O   0  0  0  0  0  0  0  0  0  0  0  0
   -1.0746   -0.9818   -0.2785 N   0  0  0  0  0  0  0  0  0  0  0  0
   -1.8768   -0.4151   -0.5384 H   0  0  0  0  0  0  0  0  0  0  0  0
    0.2129   -0.2761   -0.2430 C   0  0  1  0  0  0  0  0  0  0  0  0
    0.8551   -0.8010    0.4737 H   0  0  0  0  0  0  0  0  0  0  0  0
    0.8977   -0.3127   -1.6142 C   0  0  0  0  0  0  0  0  0  0  0  0
    0.8634   -1.3268   -2.0203 H   0  0  0  0  0  0  0  0  0  0  0  0
    0.3890    0.3546   -2.3157 H   0  0  0  0  0  0  0  0  0  0  0  0
    2.3597    0.0940   -1.4609 C   0  0  0  0  0  0  0  0  0  0  0  0
    3.0957   -0.5938   -0.7139 O   0  5  0  0  0  0  0  0  0  0  0  0
    2.7144    1.1559   -2.0244 O   0  0  0  0  0  0  0  0  0  0  0  0
    0.0747    1.1714    0.2681 C   0  0  0  0  0  0  0  0  0  0  0  0
   -0.9660    1.7944    0.0566 O   0  0  0  0  0  0  0  0  0  0  0  0
    0.9840    1.6487    1.1920 N   0  0  0  0  0  0  0  0  0  0  0  0
    1.8838    1.1661    1.1837 H   0  0  0  0  0  0  0  0  0  0  0  0
    0.9514    3.0178    1.6813 C   0  0  0  0  0  0  0  0  0  0  0  0
    0.0016    3.2235    2.1850 H   0  0  0  0  0  0  0  0  0  0  0  0
    1.7626    3.1784    2.3974 H   0  0  0  0  0  0  0  0  0  0  0  0
    1.0740    3.7218    0.8519 H   0  0  0  0  0  0  0  0  0  0  0  0
  1  2  1  0  0  0  0
  2  3  1  0  0  0  0
  2  4  1  0  0  0  0
  2  5  1  0  0  0  0
  5  6  2  0  0  0  0
  5  7  1  0  0  0  0
  7  8  1  0  0  0  0
  7  9  1  0  0  0  0
  9 10  1  0  0  0  0
  9 11  1  0  0  0  0
  9 17  1  0  0  0  0
 11 12  1  0  0  0  0
 11 13  1  0  0  0  0
 11 14  1  0  0  0  0
 14 15  1  0  0  0  0
 14 16  2  0  0  0  0
 17 18  2  0  0  0  0
 17 19  1  0  0  0  0
 19 20  1  0  0  0  0
 19 21  1  0  0  0  0
 21 22  1  0  0  0  0
 21 23  1  0  0  0  0
 21 24  1  0  0  0  0
M  CHG  1  15  -1
M  END
$$$$

  -OEChem-03222214023D

 24 23  0     1  0  0  0  0  0999 V2000
   -2.8062   -3.7822    0.5061 H   0  0  0  0  0  0  0  0  0  0  0  0
   -2.7522   -2.7652    0.1075 C   0  0  0  0  0  0  0  0  0  0  0  0
   -3.3984   -2.1173    0.7050 H   0  0  0  0  0  0  0  0  0  0  0  0
   -3.1090   -2.7723   -0.9253 H   0  0  0  0  0  0  0  0  0  0  0  0
   -1.3221   -2.2569    0.1568 C   0  0  0  0  0  0  0  0  0  0  0  0
   -0.4503   -2.9761    0.6149 O   0  0  0  0  0  0  0  0  0  0  0  0
   -1.0579   -0.9796   -0.2846 N   0  0  0  0  0  0  0  0  0  0  0  0
   -1.8557   -0.3983   -0.5258 H   0  0  0  0  0  0  0  0  0  0  0  0
    0.2375   -0.2891   -0.2522 C   0  0  1  0  0  0  0  0  0  0  0  0
    0.8893   -0.8170    0.4540 H   0  0  0  0  0  0  0  0  0  0  0  0
    0.9051   -0.3151   -1.6313 C   0  0  0  0  0  0  0  0  0  0  0  0
    0.8537   -1.3215   -2.0548 H   0  0  0  0  0  0  0  0  0  0  0  0
    0.4034    0.3708   -2.3197 H   0  0  0  0  0  0  0  0  0  0  0  0
    2.3698    0.0712   -1.4717 C   0  0  0  0  0  0  0  0  0  0  0  0
    3.1557   -0.7747   -0.9853 O   0  5  0  0  0  0  0  0  0  0  0  0
    2.6685    1.2663   -1.7048 O   0  0  0  0  0  0  0  0  0  0  0  0
    0.0868    1.1589    0.2627 C   0  0  0  0  0  0  0  0  0  0  0  0
   -0.9698    1.7615    0.0665 O   0  0  0  0  0  0  0  0  0  0  0  0
    0.9859    1.6467    1.1916 N   0  0  0  0  0  0  0  0  0  0  0  0
    1.9067    1.2105    1.1423 H   0  0  0  0  0  0  0  0  0  0  0  0
    0.9184    3.0116    1.6896 C   0  0  0  0  0  0  0  0  0  0  0  0
   -0.0333    3.1883    2.2007 H   0  0  0  0  0  0  0  0  0  0  0  0
    1.7299    3.1899    2.4012 H   0  0  0  0  0  0  0  0  0  0  0  0
    1.0165    3.7236    0.8637 H   0  0  0  0  0  0  0  0  0  0  0  0
  1  2  1  0  0  0  0
  2  3  1  0  0  0  0
  2  4  1  0  0  0  0
  2  5  1  0  0  0  0
  5  6  2  0  0  0  0
  5  7  1  0  0  0  0
  7  8  1  0  0  0  0
  7  9  1  0  0  0  0
  9 10  1  0  0  0  0
  9 11  1  0  0  0  0
  9 17  1  0  0  0  0
 11 12  1  0  0  0  0
 11 13  1  0  0  0  0
 11 14  1  0  0  0  0
 14 15  1  0  0  0  0
 14 16  2  0  0  0  0
 17 18  2  0  0  0  0
 17 19  1  0  0  0  0
 19 20  1  0  0  0  0
 19 21  1  0  0  0  0
 21 22  1  0  0  0  0
 21 23  1  0  0  0  0
 21 24  1  0  0  0  0
M  CHG  1  15  -1
M  END
$$$$

  -OEChem-03222214023D

 24 23  0     1  0  0  0  0  0999 V2000
   -2.8178   -3.7496    0.5298 H   0  0  0  0  0  0  0  0  0  0  0  0
   -2.7556   -2.7362    0.1237 C   0  0  0  0  0  0  0  0  0  0  0  0
   -3.3868   -2.0763    0.7238 H   0  0  0  0  0  0  0  0  0  0  0  0
   -3.1240   -2.7453   -0.9051 H   0  0  0  0  0  0  0  0  0  0  0  0
   -1.3187   -2.2462    0.1530 C   0  0  0  0  0  0  0  0  0  0  0  0
   -0.4491   -2.9753    0.5999 O   0  0  0  0  0  0  0  0  0  0  0  0
   -1.0436   -0.9723   -0.2911 N   0  0  0  0  0  0  0  0  0  0  0  0
   -1.8374   -0.3744   -0.5053 H   0  0  0  0  0  0  0  0  0  0  0  0
    0.2605   -0.2980   -0.2615 C   0  0  1  0  0  0  0  0  0  0  0  0
    0.9147   -0.8281    0.4407 H   0  0  0  0  0  0  0  0  0  0  0  0
    0.9209   -0.3197   -1.6448 C   0  0  0  0  0  0  0  0  0  0  0  0
    0.8484   -1.3206   -2.0791 H   0  0  0  0  0  0  0  0  0  0  0  0
    0.4277    0.3817   -2.3231 H   0  0  0  0  0  0  0  0  0  0  0  0
    2.3930    0.0443   -1.4938 C   0  0  0  0  0  0  0  0  0  0  0  0
    3.2116   -0.8836   -1.3004 O   0  5  0  0  0  0  0  0  0  0  0  0
    2.6711    1.2650   -1.4107 O   0  0  0  0  0  0  0  0  0  0  0  0
    0.0973    1.1505    0.2565 C   0  0  0  0  0  0  0  0  0  0  0  0
   -0.9748    1.7326    0.0765 O   0  0  0  0  0  0  0  0  0  0  0  0
    0.9866    1.6466    1.1902 N   0  0  0  0  0  0  0  0  0  0  0  0
    1.9306    1.2772    1.0707 H   0  0  0  0  0  0  0  0  0  0  0  0
    0.8739    2.9999    1.7116 C   0  0  0  0  0  0  0  0  0  0  0  0
   -0.0811    3.1352    2.2291 H   0  0  0  0  0  0  0  0  0  0  0  0
    1.6816    3.1939    2.4234 H   0  0  0  0  0  0  0  0  0  0  0  0
    0.9441    3.7286    0.8976 H   0  0  0  0  0  0  0  0  0  0  0  0
  1  2  1  0  0  0  0
  2  3  1  0  0  0  0
  2  4  1  0  0  0  0
  2  5  1  0  0  0  0
  5  6  2  0  0  0  0
  5  7  1  0  0  0  0
  7  8  1  0  0  0  0
  7  9  1  0  0  0  0
  9 10  1  0  0  0  0
  9 11  1  0  0  0  0
  9 17  1  0  0  0  0
 11 12  1  0  0  0  0
 11 13  1  0  0  0  0
 11 14  1  0  0  0  0
 14 15  1  0  0  0  0
 14 16  2  0  0  0  0
 17 18  2  0  0  0  0
 17 19  1  0  0  0  0
 19 20  1  0  0  0  0
 19 21  1  0  0  0  0
 21 22  1  0  0  0  0
 21 23  1  0  0  0  0
 21 24  1  0  0  0  0
M  CHG  1  15  -1
M  END
$$$$

  -OEChem-03222214023D

 24 23  0     1  0  0  0  0  0999 V2000
   -2.8247   -3.7227    0.5458 H   0  0  0  0  0  0  0  0  0  0  0  0
   -2.7563   -2.7109    0.1364 C   0  0  0  0  0  0  0  0  0  0  0  0
   -3.3784   -2.0439    0.7384 H   0  0  0  0  0  0  0  0  0  0  0  0
   -3.1312   -2.7198   -0.8900 H   0  0  0  0  0  0  0  0  0  0  0  0
   -1.3151   -2.2330    0.1555 C   0  0  0  0  0  0  0  0  0  0  0  0
   -0.4484   -2.9683    0.5982 O   0  0  0  0  0  0  0  0  0  0  0  0
   -1.0306   -0.9629   -0.2932 N   0  0  0  0  0  0  0  0  0  0  0  0
   -1.8196   -0.3539   -0.4943 H   0  0  0  0  0  0  0  0  0  0  0  0
    0.2798   -0.3010   -0.2627 C   0  0  1  0  0  0  0  0  0  0  0  0
    0.9340   -0.8298    0.4403 H   0  0  0  0  0  0  0  0  0  0  0  0
    0.9359   -0.3270   -1.6502 C   0  0  0  0  0  0  0  0  0  0  0  0
    0.8417   -1.3266   -2.0838 H   0  0  0  0  0  0  0  0  0  0  0  0
    0.4458    0.3809   -2.3238 H   0  0  0  0  0  0  0  0  0  0  0  0
    2.4177    0.0174   -1.5291 C   0  0  0  0  0  0  0  0  0  0  0  0
    3.2446   -0.9169   -1.6400 O   0  5  0  0  0  0  0  0  0  0  0  0
    2.7119    1.1870   -1.1782 O   0  0  0  0  0  0  0  0  0  0  0  0
    0.1027    1.1487    0.2534 C   0  0  0  0  0  0  0  0  0  0  0  0
   -0.9758    1.7199    0.0727 O   0  0  0  0  0  0  0  0  0  0  0  0
    0.9815    1.6508    1.1932 N   0  0  0  0  0  0  0  0  0  0  0  0
    1.9380    1.3315    1.0243 H   0  0  0  0  0  0  0  0  0  0  0  0
    0.8319    2.9897    1.7413 C   0  0  0  0  0  0  0  0  0  0  0  0
   -0.1276    3.0891    2.2587 H   0  0  0  0  0  0  0  0  0  0  0  0
    1.6323    3.1901    2.4593 H   0  0  0  0  0  0  0  0  0  0  0  0
    0.8846    3.7367    0.9428 H   0  0  0  0  0  0  0  0  0  0  0  0
  1  2  1  0  0  0  0
  2  3  1  0  0  0  0
  2  4  1  0  0  0  0
  2  5  1  0  0  0  0
  5  6  2  0  0  0  0
  5  7  1  0  0  0  0
  7  8  1  0  0  0  0
  7  9  1  0  0  0  0
  9 10  1  0  0  0  0
  9 11  1  0  0  0  0
  9 17  1  0  0  0  0
 11 12  1  0  0  0  0
 11 13  1  0  0  0  0
 11 14  1  0  0  0  0
 14 15  1  0  0  0  0
 14 16  2  0  0  0  0
 17 18  2  0  0  0  0
 17 19  1  0  0  0  0
 19 20  1  0  0  0  0
 19 21  1  0  0  0  0
 21 22  1  0  0  0  0
 21 23  1  0  0  0  0
 21 24  1  0  0  0  0
M  CHG  1  15  -1
M  END
$$$$

  -OEChem-03222214023D

 24 23  0     1  0  0  0  0  0999 V2000
   -2.8263   -3.7060    0.5623 H   0  0  0  0  0  0  0  0  0  0  0  0
   -2.7563   -2.6983    0.1434 C   0  0  0  0  0  0  0  0  0  0  0  0
   -3.3745   -2.0243    0.7416 H   0  0  0  0  0  0  0  0  0  0  0  0
   -3.1349   -2.7159   -0.8815 H   0  0  0  0  0  0  0  0  0  0  0  0
   -1.3134   -2.2249    0.1536 C   0  0  0  0  0  0  0  0  0  0  0  0
   -0.4462   -2.9645    0.5887 O   0  0  0  0  0  0  0  0  0  0  0  0
   -1.0254   -0.9556   -0.2952 N   0  0  0  0  0  0  0  0  0  0  0  0
   -1.8122   -0.3406   -0.4883 H   0  0  0  0  0  0  0  0  0  0  0  0
    0.2888   -0.3010   -0.2590 C   0  0  1  0  0  0  0  0  0  0  0  0
    0.9405   -0.8290    0.4465 H   0  0  0  0  0  0  0  0  0  0  0  0
    0.9469   -0.3290   -1.6477 C   0  0  0  0  0  0  0  0  0  0  0  0
    0.8378   -1.3282   -2.0788 H   0  0  0  0  0  0  0  0  0  0  0  0
    0.4580    0.3812   -2.3192 H   0  0  0  0  0  0  0  0  0  0  0  0
    2.4367    0.0018   -1.5561 C   0  0  0  0  0  0  0  0  0  0  0  0
    3.2455   -0.8653   -1.9611 O   0  5  0  0  0  0  0  0  0  0  0  0
    2.7700    1.0607   -0.9663 O   0  0  0  0  0  0  0  0  0  0  0  0
    0.1016    1.1482    0.2583 C   0  0  0  0  0  0  0  0  0  0  0  0
   -0.9758    1.7186    0.0667 O   0  0  0  0  0  0  0  0  0  0  0  0
    0.9706    1.6524    1.2052 N   0  0  0  0  0  0  0  0  0  0  0  0
    1.9315    1.3502    1.0179 H   0  0  0  0  0  0  0  0  0  0  0  0
    0.8076    2.9866    1.7607 C   0  0  0  0  0  0  0  0  0  0  0  0
   -0.1532    3.0730    2.2779 H   0  0  0  0  0  0  0  0  0  0  0  0
    1.6056    3.1907    2.4805 H   0  0  0  0  0  0  0  0  0  0  0  0
    0.8531    3.7386    0.9665 H   0  0  0  0  0  0  0  0  0  0  0  0
  1  2  1  0  0  0  0
  2  3  1  0  0  0  0
  2  4  1  0  0  0  0
  2  5  1  0  0  0  0
  5  6  2  0  0  0  0
  5  7  1  0  0  0  0
  7  8  1  0  0  0  0
  7  9  1  0  0  0  0
  9 10  1  0  0  0  0
  9 11  1  0  0  0  0
  9 17  1  0  0  0  0
 11 12  1  0  0  0  0
 11 13  1  0  0  0  0
 11 14  1  0  0  0  0
 14 15  1  0  0  0  0
 14 16  2  0  0  0  0
 17 18  2  0  0  0  0
 17 19  1  0  0  0  0
 19 20  1  0  0  0  0
 19 21  1  0  0  0  0
 21 22  1  0  0  0  0
 21 23  1  0  0  0  0
 21 24  1  0  0  0  0
M  CHG  1  15  -1
M  END
$$$$

  -OEChem-03222214023D

 24 23  0     1  0  0  0  0  0999 V2000
   -2.8255   -3.7079    0.5588 H   0  0  0  0  0  0  0  0  0  0  0  0
   -2.7552   -2.6996    0.1410 C   0  0  0  0  0  0  0  0  0  0  0  0
   -3.3755   -2.0267    0.7380 H   0  0  0  0  0  0  0  0  0  0  0  0
   -3.1305   -2.7165   -0.8852 H   0  0  0  0  0  0  0  0  0  0  0  0
   -1.3128   -2.2248    0.1560 C   0  0  0  0  0  0  0  0  0  0  0  0
   -0.4454   -2.9642    0.5915 O   0  0  0  0  0  0  0  0  0  0  0  0
   -1.0239   -0.9549   -0.2910 N   0  0  0  0  0  0  0  0  0  0  0  0
   -1.8098   -0.3411   -0.4901 H   0  0  0  0  0  0  0  0  0  0  0  0
    0.2903   -0.3005   -0.2484 C   0  0  1  0  0  0  0  0  0  0  0  0
    0.9412   -0.8286    0.4574 H   0  0  0  0  0  0  0  0  0  0  0  0
    0.9479   -0.3275   -1.6386 C   0  0  0  0  0  0  0  0  0  0  0  0
    0.8347   -1.3280   -2.0659 H   0  0  0  0  0  0  0  0  0  0  0  0
    0.4542    0.3805   -2.3089 H   0  0  0  0  0  0  0  0  0  0  0  0
    2.4419   -0.0009   -1.5740 C   0  0  0  0  0  0  0  0  0  0  0  0
    3.2127   -0.7283   -2.2433 O   0  5  0  0  0  0  0  0  0  0  0  0
    2.8256    0.8979   -0.7814 O   0  0  0  0  0  0  0  0  0  0  0  0
    0.0982    1.1482    0.2693 C   0  0  0  0  0  0  0  0  0  0  0  0
   -0.9723    1.7247    0.0595 O   0  0  0  0  0  0  0  0  0  0  0  0
    0.9603    1.6542    1.2211 N   0  0  0  0  0  0  0  0  0  0  0  0
    1.9207    1.3375    1.0475 H   0  0  0  0  0  0  0  0  0  0  0  0
    0.8034    2.9933    1.7670 C   0  0  0  0  0  0  0  0  0  0  0  0
   -0.1644    3.0938    2.2685 H   0  0  0  0  0  0  0  0  0  0  0  0
    1.5920    3.1925    2.4984 H   0  0  0  0  0  0  0  0  0  0  0  0
    0.8697    3.7404    0.9696 H   0  0  0  0  0  0  0  0  0  0  0  0
  1  2  1  0  0  0  0
  2  3  1  0  0  0  0
  2  4  1  0  0  0  0
  2  5  1  0  0  0  0
  5  6  2  0  0  0  0
  5  7  1  0  0  0  0
  7  8  1  0  0  0  0
  7  9  1  0  0  0  0
  9 10  1  0  0  0  0
  9 11  1  0  0  0  0
  9 17  1  0  0  0  0
 11 12  1  0  0  0  0
 11 13  1  0  0  0  0
 11 14  1  0  0  0  0
 14 15  1  0  0  0  0
 14 16  2  0  0  0  0
 17 18  2  0  0  0  0
 17 19  1  0  0  0  0
 19 20  1  0  0  0  0
 19 21  1  0  0  0  0
 21 22  1  0  0  0  0
 21 23  1  0  0  0  0
 21 24  1  0  0  0  0
M  CHG  1  15  -1
M  END
$$$$

  -OEChem-03222214023D

 24 23  0     1  0  0  0  0  0999 V2000
   -2.8246   -3.7188    0.5521 H   0  0  0  0  0  0  0  0  0  0  0  0
   -2.7556   -2.7098    0.1359 C   0  0  0  0  0  0  0  0  0  0  0  0
   -3.3779   -2.0386    0.7330 H   0  0  0  0  0  0  0  0  0  0  0  0
   -3.1292   -2.7255   -0.8908 H   0  0  0  0  0  0  0  0  0  0  0  0
   -1.3146   -2.2319    0.1535 C   0  0  0  0  0  0  0  0  0  0  0  0
   -0.4449   -2.9713    0.5846 O   0  0  0  0  0  0  0  0  0  0  0  0
   -1.0300   -0.9596   -0.2892 N   0  0  0  0  0  0  0  0  0  0  0  0
   -1.8183   -0.3506   -0.4938 H   0  0  0  0  0  0  0  0  0  0  0  0
    0.2804   -0.2988   -0.2392 C   0  0  1  0  0  0  0  0  0  0  0  0
    0.9279   -0.8277    0.4696 H   0  0  0  0  0  0  0  0  0  0  0  0
    0.9463   -0.3229   -1.6258 C   0  0  0  0  0  0  0  0  0  0  0  0
    0.8413   -1.3248   -2.0515 H   0  0  0  0  0  0  0  0  0  0  0  0
    0.4490    0.3805   -2.2981 H   0  0  0  0  0  0  0  0  0  0  0  0
    2.4397    0.0104   -1.5683 C   0  0  0  0  0  0  0  0  0  0  0  0
    3.1671   -0.5132   -2.4446 O   0  5  0  0  0  0  0  0  0  0  0  0
    2.8685    0.7187   -0.6195 O   0  0  0  0  0  0  0  0  0  0  0  0
    0.0897    1.1484    0.2796 C   0  0  0  0  0  0  0  0  0  0  0  0
   -0.9716    1.7352    0.0543 O   0  0  0  0  0  0  0  0  0  0  0  0
    0.9505    1.6508    1.2338 N   0  0  0  0  0  0  0  0  0  0  0  0
    1.9045    1.2999    1.0880 H   0  0  0  0  0  0  0  0  0  0  0  0
    0.8185    3.0007    1.7583 C   0  0  0  0  0  0  0  0  0  0  0  0
   -0.1499    3.1281    2.2522 H   0  0  0  0  0  0  0  0  0  0  0  0
    1.6071    3.1944    2.4913 H   0  0  0  0  0  0  0  0  0  0  0  0
    0.9050    3.7343    0.9504 H   0  0  0  0  0  0  0  0  0  0  0  0
  1  2  1  0  0  0  0
  2  3  1  0  0  0  0
  2  4  1  0  0  0  0
  2  5  1  0  0  0  0
  5  6  2  0  0  0  0
  5  7  1  0  0  0  0
  7  8  1  0  0  0  0
  7  9  1  0  0  0  0
  9 10  1  0  0  0  0
  9 11  1  0  0  0  0
  9 17  1  0  0  0  0
 11 12  1  0  0  0  0
 11 13  1  0  0  0  0
 11 14  1  0  0  0  0
 14 15  1  0  0  0  0
 14 16  2  0  0  0  0
 17 18  2  0  0  0  0
 17 19  1  0  0  0  0
 19 20  1  0  0  0  0
 19 21  1  0  0  0  0
 21 22  1  0  0  0  0
 21 23  1  0  0  0  0
 21 24  1  0  0  0  0
M  CHG  1  15  -1
M  END
$$$$

  -OEChem-03222214023D

 24 23  0     1  0  0  0  0  0999 V2000
   -2.8252   -3.7377    0.5364 H   0  0  0  0  0  0  0  0  0  0  0  0
   -2.7592   -2.7251    0.1288 C   0  0  0  0  0  0  0  0  0  0  0  0
   -3.3867   -2.0618    0.7293 H   0  0  0  0  0  0  0  0  0  0  0  0
   -3.1290   -2.7338   -0.8996 H   0  0  0  0  0  0  0  0  0  0  0  0
   -1.3201   -2.2409    0.1553 C   0  0  0  0  0  0  0  0  0  0  0  0
   -0.4491   -2.9781    0.5876 O   0  0  0  0  0  0  0  0  0  0  0  0
   -1.0398   -0.9670   -0.2854 N   0  0  0  0  0  0  0  0  0  0  0  0
   -1.8304   -0.3658   -0.5026 H   0  0  0  0  0  0  0  0  0  0  0  0
    0.2655   -0.2965   -0.2324 C   0  0  1  0  0  0  0  0  0  0  0  0
    0.9077   -0.8261    0.4807 H   0  0  0  0  0  0  0  0  0  0  0  0
    0.9424   -0.3217   -1.6131 C   0  0  0  0  0  0  0  0  0  0  0  0
    0.8524   -1.3263   -2.0355 H   0  0  0  0  0  0  0  0  0  0  0  0
    0.4413    0.3737   -2.2912 H   0  0  0  0  0  0  0  0  0  0  0  0
    2.4325    0.0252   -1.5511 C   0  0  0  0  0  0  0  0  0  0  0  0
    3.1128   -0.2507   -2.5670 O   0  5  0  0  0  0  0  0  0  0  0  0
    2.8994    0.5390   -0.4994 O   0  0  0  0  0  0  0  0  0  0  0  0
    0.0845    1.1510    0.2835 C   0  0  0  0  0  0  0  0  0  0  0  0
   -0.9679    1.7489    0.0493 O   0  0  0  0  0  0  0  0  0  0  0  0
    0.9511    1.6483    1.2348 N   0  0  0  0  0  0  0  0  0  0  0  0
    1.8970    1.2663    1.1119 H   0  0  0  0  0  0  0  0  0  0  0  0
    0.8439    3.0054    1.7460 C   0  0  0  0  0  0  0  0  0  0  0  0
   -0.1235    3.1564    2.2355 H   0  0  0  0  0  0  0  0  0  0  0  0
    1.6339    3.1907    2.4796 H   0  0  0  0  0  0  0  0  0  0  0  0
    0.9468    3.7295    0.9314 H   0  0  0  0  0  0  0  0  0  0  0  0
  1  2  1  0  0  0  0
  2  3  1  0  0  0  0
  2  4  1  0  0  0  0
  2  5  1  0  0  0  0
  5  6  2  0  0  0  0
  5  7  1  0  0  0  0
  7  8  1  0  0  0  0
  7  9  1  0  0  0  0
  9 10  1  0  0  0  0
  9 11  1  0  0  0  0
  9 17  1  0  0  0  0
 11 12  1  0  0  0  0
 11 13  1  0  0  0  0
 11 14  1  0  0  0  0
 14 15  1  0  0  0  0
 14 16  2  0  0  0  0
 17 18  2  0  0  0  0
 17 19  1  0  0  0  0
 19 20  1  0  0  0  0
 19 21  1  0  0  0  0
 21 22  1  0  0  0  0
 21 23  1  0  0  0  0
 21 24  1  0  0  0  0
M  CHG  1  15  -1
M  END
$$$$

  -OEChem-03222214023D

 24 23  0     1  0  0  0  0  0999 V2000
   -2.8022   -3.8261    0.4818 H   0  0  0  0  0  0  0  0  0  0  0  0
   -2.7672   -2.8049    0.0921 C   0  0  0  0  0  0  0  0  0  0  0  0
   -3.4313   -2.1762    0.6901 H   0  0  0  0  0  0  0  0  0  0  0  0
   -3.1163   -2.8109   -0.9434 H   0  0  0  0  0  0  0  0  0  0  0  0
   -1.3483   -2.2673    0.1557 C   0  0  0  0  0  0  0  0  0  0  0  0
   -0.4633   -2.9764    0.6043 O   0  0  0  0  0  0  0  0  0  0  0  0
   -1.1061   -0.9821   -0.2779 N   0  0  0  0  0  0  0  0  0  0  0  0
   -1.9131   -0.4232   -0.5387 H   0  0  0  0  0  0  0  0  0  0  0  0
    0.1752   -0.2640   -0.2323 C   0  0  1  0  0  0  0  0  0  0  0  0
    0.7829   -0.7944    0.5092 H   0  0  0  0  0  0  0  0  0  0  0  0
    0.9130   -0.3172   -1.5814 C   0  0  0  0  0  0  0  0  0  0  0  0
    0.6763   -1.2580   -2.0849 H   0  0  0  0  0  0  0  0  0  0  0  0
    0.5814    0.4999   -2.2275 H   0  0  0  0  0  0  0  0  0  0  0  0
    2.4348   -0.2584   -1.4246 C   0  0  0  0  0  0  0  0  0  0  0  0
    3.0997   -0.2998   -2.4867 O   0  5  0  0  0  0  0  0  0  0  0  0
    2.9203    0.0069   -0.2914 O   0  0  0  0  0  0  0  0  0  0  0  0
    0.0559    1.1835    0.2783 C   0  0  0  0  0  0  0  0  0  0  0  0
   -0.9656    1.8322    0.0512 O   0  0  0  0  0  0  0  0  0  0  0  0
    0.9775    1.6375    1.1987 N   0  0  0  0  0  0  0  0  0  0  0  0
    1.8778    1.1467    1.1293 H   0  0  0  0  0  0  0  0  0  0  0  0
    0.9796    3.0015    1.7010 C   0  0  0  0  0  0  0  0  0  0  0  0
    0.0338    3.2268    2.2038 H   0  0  0  0  0  0  0  0  0  0  0  0
    1.7924    3.1320    2.4215 H   0  0  0  0  0  0  0  0  0  0  0  0
    1.1237    3.7110    0.8800 H   0  0  0  0  0  0  0  0  0  0  0  0
  1  2  1  0  0  0  0
  2  3  1  0  0  0  0
  2  4  1  0  0  0  0
  2  5  1  0  0  0  0
  5  6  2  0  0  0  0
  5  7  1  0  0  0  0
  7  8  1  0  0  0  0
  7  9  1  0  0  0  0
  9 10  1  0  0  0  0
  9 11  1  0  0  0  0
  9 17  1  0  0  0  0
 11 12  1  0  0  0  0
 11 13  1  0  0  0  0
 11 14  1  0  0  0  0
 14 15  1  0  0  0  0
 14 16  2  0  0  0  0
 17 18  2  0  0  0  0
 17 19  1  0  0  0  0
 19 20  1  0  0  0  0
 19 21  1  0  0  0  0
 21 22  1  0  0  0  0
 21 23  1  0  0  0  0
 21 24  1  0  0  0  0
M  CHG  1  15  -1
M  END
$$$$

  -OEChem-03222214023D

 24 23  0     1  0  0  0  0  0999 V2000
   -2.7993   -3.8330    0.5093 H   0  0  0  0  0  0  0  0  0  0  0  0
   -2.7684   -2.8210    0.0959 C   0  0  0  0  0  0  0  0  0  0  0  0
   -3.4305   -2.1807    0.6840 H   0  0  0  0  0  0  0  0  0  0  0  0
   -3.1237   -2.8510   -0.9370 H   0  0  0  0  0  0  0  0  0  0  0  0
   -1.3501   -2.2795    0.1394 C   0  0  0  0  0  0  0  0  0  0  0  0
   -0.4569   -2.9901    0.5690 O   0  0  0  0  0  0  0  0  0  0  0  0
   -1.1200   -0.9893   -0.2870 N   0  0  0  0  0  0  0  0  0  0  0  0
   -1.9338   -0.4365   -0.5388 H   0  0  0  0  0  0  0  0  0  0  0  0
    0.1536   -0.2572   -0.2392 C   0  0  1  0  0  0  0  0  0  0  0  0
    0.7493   -0.7886    0.5107 H   0  0  0  0  0  0  0  0  0  0  0  0
    0.9088   -0.3149   -1.5785 C   0  0  0  0  0  0  0  0  0  0  0  0
    0.6894   -1.2620   -2.0779 H   0  0  0  0  0  0  0  0  0  0  0  0
    0.5707    0.4935   -2.2325 H   0  0  0  0  0  0  0  0  0  0  0  0
    2.4297   -0.2343   -1.4112 C   0  0  0  0  0  0  0  0  0  0  0  0
    3.0749    0.0135   -2.4573 O   0  5  0  0  0  0  0  0  0  0  0  0
    2.9161   -0.1732   -0.2503 O   0  0  0  0  0  0  0  0  0  0  0  0
    0.0463    1.1879    0.2754 C   0  0  0  0  0  0  0  0  0  0  0  0
   -0.9693    1.8469    0.0540 O   0  0  0  0  0  0  0  0  0  0  0  0
    0.9799    1.6286    1.1907 N   0  0  0  0  0  0  0  0  0  0  0  0
    1.8659    1.1112    1.1394 H   0  0  0  0  0  0  0  0  0  0  0  0
    1.0111    2.9946    1.6869 C   0  0  0  0  0  0  0  0  0  0  0  0
    0.0512    3.2631    2.1393 H   0  0  0  0  0  0  0  0  0  0  0  0
    1.7900    3.0973    2.4482 H   0  0  0  0  0  0  0  0  0  0  0  0
    1.2260    3.6908    0.8701 H   0  0  0  0  0  0  0  0  0  0  0  0
  1  2  1  0  0  0  0
  2  3  1  0  0  0  0
  2  4  1  0  0  0  0
  2  5  1  0  0  0  0
  5  6  2  0  0  0  0
  5  7  1  0  0  0  0
  7  8  1  0  0  0  0
  7  9  1  0  0  0  0
  9 10  1  0  0  0  0
  9 11  1  0  0  0  0
  9 17  1  0  0  0  0
 11 12  1  0  0  0  0
 11 13  1  0  0  0  0
 11 14  1  0  0  0  0
 14 15  1  0  0  0  0
 14 16  2  0  0  0  0
 17 18  2  0  0  0  0
 17 19  1  0  0  0  0
 19 20  1  0  0  0  0
 19 21  1  0  0  0  0
 21 22  1  0  0  0  0
 21 23  1  0  0  0  0
 21 24  1  0  0  0  0
M  CHG  1  15  -1
M  END
$$$$

  -OEChem-03222214023D

 24 23  0     1  0  0  0  0  0999 V2000
   -2.7954   -3.8503    0.4714 H   0  0  0  0  0  0  0  0  0  0  0  0
   -2.7669   -2.8298    0.0790 C   0  0  0  0  0  0  0  0  0  0  0  0
   -3.4390   -2.2054    0.6728 H   0  0  0  0  0  0  0  0  0  0  0  0
   -3.1112   -2.8415   -0.9581 H   0  0  0  0  0  0  0  0  0  0  0  0
   -1.3526   -2.2807    0.1482 C   0  0  0  0  0  0  0  0  0  0  0  0
   -0.4643   -2.9869    0.5942 O   0  0  0  0  0  0  0  0  0  0  0  0
   -1.1229   -0.9907   -0.2792 N   0  0  0  0  0  0  0  0  0  0  0  0
   -1.9358   -0.4457   -0.5498 H   0  0  0  0  0  0  0  0  0  0  0  0
    0.1480   -0.2535   -0.2353 C   0  0  1  0  0  0  0  0  0  0  0  0
    0.7407   -0.7814    0.5186 H   0  0  0  0  0  0  0  0  0  0  0  0
    0.9014   -0.3178   -1.5759 C   0  0  0  0  0  0  0  0  0  0  0  0
    0.6859   -1.2682   -2.0704 H   0  0  0  0  0  0  0  0  0  0  0  0
    0.5551    0.4847   -2.2333 H   0  0  0  0  0  0  0  0  0  0  0  0
    2.4225   -0.2300   -1.4125 C   0  0  0  0  0  0  0  0  0  0  0  0
    3.0332    0.2933   -2.3745 O   0  5  0  0  0  0  0  0  0  0  0  0
    2.9321   -0.4211   -0.2781 O   0  0  0  0  0  0  0  0  0  0  0  0
    0.0471    1.1918    0.2753 C   0  0  0  0  0  0  0  0  0  0  0  0
   -0.9641    1.8566    0.0529 O   0  0  0  0  0  0  0  0  0  0  0  0
    0.9865    1.6315    1.1858 N   0  0  0  0  0  0  0  0  0  0  0  0
    1.8594    1.0940    1.1692 H   0  0  0  0  0  0  0  0  0  0  0  0
    1.0275    2.9993    1.6763 C   0  0  0  0  0  0  0  0  0  0  0  0
    0.0889    3.2560    2.1776 H   0  0  0  0  0  0  0  0  0  0  0  0
    1.8447    3.1143    2.3945 H   0  0  0  0  0  0  0  0  0  0  0  0
    1.1903    3.6963    0.8481 H   0  0  0  0  0  0  0  0  0  0  0  0
  1  2  1  0  0  0  0
  2  3  1  0  0  0  0
  2  4  1  0  0  0  0
  2  5  1  0  0  0  0
  5  6  2  0  0  0  0
  5  7  1  0  0  0  0
  7  8  1  0  0  0  0
  7  9  1  0  0  0  0
  9 10  1  0  0  0  0
  9 11  1  0  0  0  0
  9 17  1  0  0  0  0
 11 12  1  0  0  0  0
 11 13  1  0  0  0  0
 11 14  1  0  0  0  0
 14 15  1  0  0  0  0
 14 16  2  0  0  0  0
 17 18  2  0  0  0  0
 17 19  1  0  0  0  0
 19 20  1  0  0  0  0
 19 21  1  0  0  0  0
 21 22  1  0  0  0  0
 21 23  1  0  0  0  0
 21 24  1  0  0  0  0
M  CHG  1  15  -1
M  END
$$$$

  -OEChem-03222214023D

 24 23  0     1  0  0  0  0  0999 V2000
   -2.8009   -3.8353    0.4787 H   0  0  0  0  0  0  0  0  0  0  0  0
   -2.7591   -2.8196    0.0750 C   0  0  0  0  0  0  0  0  0  0  0  0
   -3.4405   -2.1849    0.6469 H   0  0  0  0  0  0  0  0  0  0  0  0
   -3.0821   -2.8421   -0.9686 H   0  0  0  0  0  0  0  0  0  0  0  0
   -1.3439   -2.2756    0.1666 C   0  0  0  0  0  0  0  0  0  0  0  0
   -0.4705   -2.9762    0.6483 O   0  0  0  0  0  0  0  0  0  0  0  0
   -1.1009   -0.9902   -0.2665 N   0  0  0  0  0  0  0  0  0  0  0  0
   -1.9053   -0.4452   -0.5611 H   0  0  0  0  0  0  0  0  0  0  0  0
    0.1766   -0.2643   -0.2277 C   0  0  1  0  0  0  0  0  0  0  0  0
    0.7909   -0.7909    0.5097 H   0  0  0  0  0  0  0  0  0  0  0  0
    0.8889   -0.3095   -1.5915 C   0  0  0  0  0  0  0  0  0  0  0  0
    0.6519   -1.2476   -2.0991 H   0  0  0  0  0  0  0  0  0  0  0  0
    0.5332    0.5089   -2.2245 H   0  0  0  0  0  0  0  0  0  0  0  0
    2.4119   -0.2430   -1.4578 C   0  0  0  0  0  0  0  0  0  0  0  0
    2.9904    0.5372   -2.2512 O   0  5  0  0  0  0  0  0  0  0  0  0
    2.9681   -0.7799   -0.4686 O   0  0  0  0  0  0  0  0  0  0  0  0
    0.0629    1.1819    0.2805 C   0  0  0  0  0  0  0  0  0  0  0  0
   -0.9491    1.8402    0.0434 O   0  0  0  0  0  0  0  0  0  0  0  0
    0.9899    1.6407    1.1953 N   0  0  0  0  0  0  0  0  0  0  0  0
    1.8591    1.1042    1.2248 H   0  0  0  0  0  0  0  0  0  0  0  0
    1.0047    3.0093    1.6863 C   0  0  0  0  0  0  0  0  0  0  0  0
    0.0469    3.2610    2.1529 H   0  0  0  0  0  0  0  0  0  0  0  0
    1.7938    3.1290    2.4346 H   0  0  0  0  0  0  0  0  0  0  0  0
    1.1940    3.7070    0.8642 H   0  0  0  0  0  0  0  0  0  0  0  0
  1  2  1  0  0  0  0
  2  3  1  0  0  0  0
  2  4  1  0  0  0  0
  2  5  1  0  0  0  0
  5  6  2  0  0  0  0
  5  7  1  0  0  0  0
  7  8  1  0  0  0  0
  7  9  1  0  0  0  0
  9 10  1  0  0  0  0
  9 11  1  0  0  0  0
  9 17  1  0  0  0  0
 11 12  1  0  0  0  0
 11 13  1  0  0  0  0
 11 14  1  0  0  0  0
 14 15  1  0  0  0  0
 14 16  2  0  0  0  0
 17 18  2  0  0  0  0
 17 19  1  0  0  0  0
 19 20  1  0  0  0  0
 19 21  1  0  0  0  0
 21 22  1  0  0  0  0
 21 23  1  0  0  0  0
 21 24  1  0  0  0  0
M  CHG  1  15  -1
M  END
$$$$

  -OEChem-03222214023D

 24 23  0     1  0  0  0  0  0999 V2000
   -2.7944   -3.8345    0.4492 H   0  0  0  0  0  0  0  0  0  0  0  0
   -2.7480   -2.8143    0.0578 C   0  0  0  0  0  0  0  0  0  0  0  0
   -3.4493   -2.1901    0.6168 H   0  0  0  0  0  0  0  0  0  0  0  0
   -3.0409   -2.8277   -0.9948 H   0  0  0  0  0  0  0  0  0  0  0  0
   -1.3396   -2.2628    0.1949 C   0  0  0  0  0  0  0  0  0  0  0  0
   -0.4853   -2.9474    0.7306 O   0  0  0  0  0  0  0  0  0  0  0  0
   -1.0851   -0.9827   -0.2463 N   0  0  0  0  0  0  0  0  0  0  0  0
   -1.8782   -0.4433   -0.5793 H   0  0  0  0  0  0  0  0  0  0  0  0
    0.2014   -0.2725   -0.2179 C   0  0  1  0  0  0  0  0  0  0  0  0
    0.8414   -0.8011    0.4974 H   0  0  0  0  0  0  0  0  0  0  0  0
    0.8717   -0.3029   -1.6018 C   0  0  0  0  0  0  0  0  0  0  0  0
    0.6130   -1.2298   -2.1198 H   0  0  0  0  0  0  0  0  0  0  0  0
    0.5181    0.5305   -2.2161 H   0  0  0  0  0  0  0  0  0  0  0  0
    2.3923   -0.2619   -1.4766 C   0  0  0  0  0  0  0  0  0  0  0  0
    2.9659    0.7090   -2.0252 O   0  5  0  0  0  0  0  0  0  0  0  0
    2.9647   -1.0957   -0.7361 O   0  0  0  0  0  0  0  0  0  0  0  0
    0.0799    1.1763    0.2887 C   0  0  0  0  0  0  0  0  0  0  0  0
   -0.9355    1.8278    0.0462 O   0  0  0  0  0  0  0  0  0  0  0  0
    0.9988    1.6523    1.2039 N   0  0  0  0  0  0  0  0  0  0  0  0
    1.8757    1.1328    1.2427 H   0  0  0  0  0  0  0  0  0  0  0  0
    0.9862    3.0213    1.6947 C   0  0  0  0  0  0  0  0  0  0  0  0
    0.0337    3.2450    2.1857 H   0  0  0  0  0  0  0  0  0  0  0  0
    1.7903    3.1652    2.4224 H   0  0  0  0  0  0  0  0  0  0  0  0
    1.1337    3.7237    0.8680 H   0  0  0  0  0  0  0  0  0  0  0  0
  1  2  1  0  0  0  0
  2  3  1  0  0  0  0
  2  4  1  0  0  0  0
  2  5  1  0  0  0  0
  5  6  2  0  0  0  0
  5  7  1  0  0  0  0
  7  8  1  0  0  0  0
  7  9  1  0  0  0  0
  9 10  1  0  0  0  0
  9 11  1  0  0  0  0
  9 17  1  0  0  0  0
 11 12  1  0  0  0  0
 11 13  1  0  0  0  0
 11 14  1  0  0  0  0
 14 15  1  0  0  0  0
 14 16  2  0  0  0  0
 17 18  2  0  0  0  0
 17 19  1  0  0  0  0
 19 20  1  0  0  0  0
 19 21  1  0  0  0  0
 21 22  1  0  0  0  0
 21 23  1  0  0  0  0
 21 24  1  0  0  0  0
M  CHG  1  15  -1
M  END
$$$$

  -OEChem-03222214023D

 24 23  0     1  0  0  0  0  0999 V2000
   -2.7949   -3.8297    0.4486 H   0  0  0  0  0  0  0  0  0  0  0  0
   -2.7464   -2.8100    0.0565 C   0  0  0  0  0  0  0  0  0  0  0  0
   -3.4477   -2.1840    0.6135 H   0  0  0  0  0  0  0  0  0  0  0  0
   -3.0372   -2.8243   -0.9967 H   0  0  0  0  0  0  0  0  0  0  0  0
   -1.3375   -2.2605    0.1964 C   0  0  0  0  0  0  0  0  0  0  0  0
   -0.4860   -2.9428    0.7398 O   0  0  0  0  0  0  0  0  0  0  0  0
   -1.0795   -0.9810   -0.2441 N   0  0  0  0  0  0  0  0  0  0  0  0
   -1.8706   -0.4370   -0.5744 H   0  0  0  0  0  0  0  0  0  0  0  0
    0.2113   -0.2797   -0.2212 C   0  0  1  0  0  0  0  0  0  0  0  0
    0.8639   -0.8136    0.4795 H   0  0  0  0  0  0  0  0  0  0  0  0
    0.8679   -0.2911   -1.6093 C   0  0  0  0  0  0  0  0  0  0  0  0
    0.6034   -1.2080   -2.1422 H   0  0  0  0  0  0  0  0  0  0  0  0
    0.5258    0.5558   -2.2110 H   0  0  0  0  0  0  0  0  0  0  0  0
    2.3833   -0.2620   -1.4574 C   0  0  0  0  0  0  0  0  0  0  0  0
    2.9475    0.8298   -1.7081 O   0  5  0  0  0  0  0  0  0  0  0  0
    2.9646   -1.2754   -1.0060 O   0  0  0  0  0  0  0  0  0  0  0  0
    0.0853    1.1681    0.2920 C   0  0  0  0  0  0  0  0  0  0  0  0
   -0.9407    1.8090    0.0634 O   0  0  0  0  0  0  0  0  0  0  0  0
    1.0025    1.6481    1.2071 N   0  0  0  0  0  0  0  0  0  0  0  0
    1.8978    1.1603    1.2046 H   0  0  0  0  0  0  0  0  0  0  0  0
    0.9771    3.0193    1.6909 C   0  0  0  0  0  0  0  0  0  0  0  0
    0.0285    3.2314    2.1944 H   0  0  0  0  0  0  0  0  0  0  0  0
    1.7901    3.1787    2.4053 H   0  0  0  0  0  0  0  0  0  0  0  0
    1.1020    3.7192    0.8584 H   0  0  0  0  0  0  0  0  0  0  0  0
  1  2  1  0  0  0  0
  2  3  1  0  0  0  0
  2  4  1  0  0  0  0
  2  5  1  0  0  0  0
  5  6  2  0  0  0  0
  5  7  1  0  0  0  0
  7  8  1  0  0  0  0
  7  9  1  0  0  0  0
  9 10  1  0  0  0  0
  9 11  1  0  0  0  0
  9 17  1  0  0  0  0
 11 12  1  0  0  0  0
 11 13  1  0  0  0  0
 11 14  1  0  0  0  0
 14 15  1  0  0  0  0
 14 16  2  0  0  0  0
 17 18  2  0  0  0  0
 17 19  1  0  0  0  0
 19 20  1  0  0  0  0
 19 21  1  0  0  0  0
 21 22  1  0  0  0  0
 21 23  1  0  0  0  0
 21 24  1  0  0  0  0
M  CHG  1  15  -1
M  END
$$$$

  -OEChem-03222214023D

 24 23  0     1  0  0  0  0  0999 V2000
   -2.8044   -3.8126    0.4686 H   0  0  0  0  0  0  0  0  0  0  0  0
   -2.7532   -2.7946    0.0723 C   0  0  0  0  0  0  0  0  0  0  0  0
   -3.4401   -2.1602    0.6379 H   0  0  0  0  0  0  0  0  0  0  0  0
   -3.0609   -2.8096   -0.9761 H   0  0  0  0  0  0  0  0  0  0  0  0
   -1.3373   -2.2576    0.1874 C   0  0  0  0  0  0  0  0  0  0  0  0
   -0.4811   -2.9479    0.7133 O   0  0  0  0  0  0  0  0  0  0  0  0
   -1.0761   -0.9795   -0.2546 N   0  0  0  0  0  0  0  0  0  0  0  0
   -1.8694   -0.4226   -0.5579 H   0  0  0  0  0  0  0  0  0  0  0  0
    0.2188   -0.2861   -0.2356 C   0  0  1  0  0  0  0  0  0  0  0  0
    0.8718   -0.8220    0.4637 H   0  0  0  0  0  0  0  0  0  0  0  0
    0.8810   -0.2892   -1.6191 C   0  0  0  0  0  0  0  0  0  0  0  0
    0.6157   -1.1999   -2.1629 H   0  0  0  0  0  0  0  0  0  0  0  0
    0.5561    0.5668   -2.2174 H   0  0  0  0  0  0  0  0  0  0  0  0
    2.3911   -0.2687   -1.4306 C   0  0  0  0  0  0  0  0  0  0  0  0
    2.9288    0.8637   -1.3681 O   0  5  0  0  0  0  0  0  0  0  0  0
    3.0003   -1.3557   -1.3069 O   0  0  0  0  0  0  0  0  0  0  0  0
    0.0914    1.1627    0.2800 C   0  0  0  0  0  0  0  0  0  0  0  0
   -0.9502    1.7877    0.0762 O   0  0  0  0  0  0  0  0  0  0  0  0
    1.0083    1.6443    1.1942 N   0  0  0  0  0  0  0  0  0  0  0  0
    1.9279    1.2080    1.1189 H   0  0  0  0  0  0  0  0  0  0  0  0
    0.9558    3.0080    1.6977 C   0  0  0  0  0  0  0  0  0  0  0  0
    0.0091    3.1903    2.2163 H   0  0  0  0  0  0  0  0  0  0  0  0
    1.7734    3.1769    2.4046 H   0  0  0  0  0  0  0  0  0  0  0  0
    1.0538    3.7227    0.8742 H   0  0  0  0  0  0  0  0  0  0  0  0
  1  2  1  0  0  0  0
  2  3  1  0  0  0  0
  2  4  1  0  0  0  0
  2  5  1  0  0  0  0
  5  6  2  0  0  0  0
  5  7  1  0  0  0  0
  7  8  1  0  0  0  0
  7  9  1  0  0  0  0
  9 10  1  0  0  0  0
  9 11  1  0  0  0  0
  9 17  1  0  0  0  0
 11 12  1  0  0  0  0
 11 13  1  0  0  0  0
 11 14  1  0  0  0  0
 14 15  1  0  0  0  0
 14 16  2  0  0  0  0
 17 18  2  0  0  0  0
 17 19  1  0  0  0  0
 19 20  1  0  0  0  0
 19 21  1  0  0  0  0
 21 22  1  0  0  0  0
 21 23  1  0  0  0  0
 21 24  1  0  0  0  0
M  CHG  1  15  -1
M  END
$$$$

  -OEChem-03222214023D

 24 23  0     1  0  0  0  0  0999 V2000
   -2.8179   -3.7873    0.4964 H   0  0  0  0  0  0  0  0  0  0  0  0
   -2.7628   -2.7716    0.0950 C   0  0  0  0  0  0  0  0  0  0  0  0
   -3.4283   -2.1265    0.6737 H   0  0  0  0  0  0  0  0  0  0  0  0
   -3.0943   -2.7862   -0.9462 H   0  0  0  0  0  0  0  0  0  0  0  0
   -1.3382   -2.2518    0.1762 C   0  0  0  0  0  0  0  0  0  0  0  0
   -0.4752   -2.9549    0.6740 O   0  0  0  0  0  0  0  0  0  0  0  0
   -1.0715   -0.9759   -0.2687 N   0  0  0  0  0  0  0  0  0  0  0  0
   -1.8657   -0.4031   -0.5388 H   0  0  0  0  0  0  0  0  0  0  0  0
    0.2280   -0.2916   -0.2490 C   0  0  1  0  0  0  0  0  0  0  0  0
    0.8750   -0.8261    0.4568 H   0  0  0  0  0  0  0  0  0  0  0  0
    0.9038   -0.2967   -1.6261 C   0  0  0  0  0  0  0  0  0  0  0  0
    0.6335   -1.2033   -2.1746 H   0  0  0  0  0  0  0  0  0  0  0  0
    0.5951    0.5652   -2.2238 H   0  0  0  0  0  0  0  0  0  0  0  0
    2.4126   -0.2859   -1.4175 C   0  0  0  0  0  0  0  0  0  0  0  0
    2.9178    0.8068   -1.0562 O   0  5  0  0  0  0  0  0  0  0  0  0
    3.0603   -1.3364   -1.6312 O   0  0  0  0  0  0  0  0  0  0  0  0
    0.0949    1.1587    0.2658 C   0  0  0  0  0  0  0  0  0  0  0  0
   -0.9587    1.7696    0.0777 O   0  0  0  0  0  0  0  0  0  0  0  0
    1.0079    1.6406    1.1830 N   0  0  0  0  0  0  0  0  0  0  0  0
    1.9452    1.2572    1.0361 H   0  0  0  0  0  0  0  0  0  0  0  0
    0.9258    2.9930    1.7121 C   0  0  0  0  0  0  0  0  0  0  0  0
   -0.0179    3.1396    2.2473 H   0  0  0  0  0  0  0  0  0  0  0  0
    1.7489    3.1713    2.4104 H   0  0  0  0  0  0  0  0  0  0  0  0
    0.9921    3.7252    0.9009 H   0  0  0  0  0  0  0  0  0  0  0  0
  1  2  1  0  0  0  0
  2  3  1  0  0  0  0
  2  4  1  0  0  0  0
  2  5  1  0  0  0  0
  5  6  2  0  0  0  0
  5  7  1  0  0  0  0
  7  8  1  0  0  0  0
  7  9  1  0  0  0  0
  9 10  1  0  0  0  0
  9 11  1  0  0  0  0
  9 17  1  0  0  0  0
 11 12  1  0  0  0  0
 11 13  1  0  0  0  0
 11 14  1  0  0  0  0
 14 15  1  0  0  0  0
 14 16  2  0  0  0  0
 17 18  2  0  0  0  0
 17 19  1  0  0  0  0
 19 20  1  0  0  0  0
 19 21  1  0  0  0  0
 21 22  1  0  0  0  0
 21 23  1  0  0  0  0
 21 24  1  0  0  0  0
M  CHG  1  15  -1
M  END
$$$$

  -OEChem-03222214023D

 24 23  0     1  0  0  0  0  0999 V2000
   -2.8197   -3.7738    0.5127 H   0  0  0  0  0  0  0  0  0  0  0  0
   -2.7643   -2.7592    0.1084 C   0  0  0  0  0  0  0  0  0  0  0  0
   -3.4184   -2.1095    0.6949 H   0  0  0  0  0  0  0  0  0  0  0  0
   -3.1100   -2.7735   -0.9281 H   0  0  0  0  0  0  0  0  0  0  0  0
   -1.3360   -2.2473    0.1691 C   0  0  0  0  0  0  0  0  0  0  0  0
   -0.4668   -2.9586    0.6446 O   0  0  0  0  0  0  0  0  0  0  0  0
   -1.0688   -0.9719   -0.2761 N   0  0  0  0  0  0  0  0  0  0  0  0
   -1.8638   -0.3911   -0.5272 H   0  0  0  0  0  0  0  0  0  0  0  0
    0.2320   -0.2909   -0.2501 C   0  0  1  0  0  0  0  0  0  0  0  0
    0.8744   -0.8230    0.4615 H   0  0  0  0  0  0  0  0  0  0  0  0
    0.9160   -0.3067   -1.6247 C   0  0  0  0  0  0  0  0  0  0  0  0
    0.6388   -1.2145   -2.1680 H   0  0  0  0  0  0  0  0  0  0  0  0
    0.6112    0.5547   -2.2246 H   0  0  0  0  0  0  0  0  0  0  0  0
    2.4289   -0.3006   -1.4302 C   0  0  0  0  0  0  0  0  0  0  0  0
    2.9165    0.6804   -0.8104 O   0  5  0  0  0  0  0  0  0  0  0  0
    3.1004   -1.2250   -1.9447 O   0  0  0  0  0  0  0  0  0  0  0  0
    0.0907    1.1591    0.2646 C   0  0  0  0  0  0  0  0  0  0  0  0
   -0.9637    1.7674    0.0718 O   0  0  0  0  0  0  0  0  0  0  0  0
    0.9969    1.6403    1.1878 N   0  0  0  0  0  0  0  0  0  0  0  0
    1.9376    1.2659    1.0237 H   0  0  0  0  0  0  0  0  0  0  0  0
    0.9093    2.9899    1.7225 C   0  0  0  0  0  0  0  0  0  0  0  0
   -0.0402    3.1347    2.2475 H   0  0  0  0  0  0  0  0  0  0  0  0
    1.7244    3.1636    2.4311 H   0  0  0  0  0  0  0  0  0  0  0  0
    0.9853    3.7259    0.9156 H   0  0  0  0  0  0  0  0  0  0  0  0
  1  2  1  0  0  0  0
  2  3  1  0  0  0  0
  2  4  1  0  0  0  0
  2  5  1  0  0  0  0
  5  6  2  0  0  0  0
  5  7  1  0  0  0  0
  7  8  1  0  0  0  0
  7  9  1  0  0  0  0
  9 10  1  0  0  0  0
  9 11  1  0  0  0  0
  9 17  1  0  0  0  0
 11 12  1  0  0  0  0
 11 13  1  0  0  0  0
 11 14  1  0  0  0  0
 14 15  1  0  0  0  0
 14 16  2  0  0  0  0
 17 18  2  0  0  0  0
 17 19  1  0  0  0  0
 19 20  1  0  0  0  0
 19 21  1  0  0  0  0
 21 22  1  0  0  0  0
 21 23  1  0  0  0  0
 21 24  1  0  0  0  0
M  CHG  1  15  -1
M  END
$$$$

  -OEChem-03222214023D

 24 23  0     1  0  0  0  0  0999 V2000
   -2.8163   -3.7759    0.5148 H   0  0  0  0  0  0  0  0  0  0  0  0
   -2.7638   -2.7609    0.1113 C   0  0  0  0  0  0  0  0  0  0  0  0
   -3.4139   -2.1120    0.7032 H   0  0  0  0  0  0  0  0  0  0  0  0
   -3.1169   -2.7745   -0.9226 H   0  0  0  0  0  0  0  0  0  0  0  0
   -1.3351   -2.2491    0.1626 C   0  0  0  0  0  0  0  0  0  0  0  0
   -0.4616   -2.9643    0.6247 O   0  0  0  0  0  0  0  0  0  0  0  0
   -1.0701   -0.9717   -0.2789 N   0  0  0  0  0  0  0  0  0  0  0  0
   -1.8664   -0.3890   -0.5218 H   0  0  0  0  0  0  0  0  0  0  0  0
    0.2294   -0.2885   -0.2437 C   0  0  1  0  0  0  0  0  0  0  0  0
    0.8677   -0.8209    0.4713 H   0  0  0  0  0  0  0  0  0  0  0  0
    0.9202   -0.3091   -1.6170 C   0  0  0  0  0  0  0  0  0  0  0  0
    0.6400   -1.2186   -2.1559 H   0  0  0  0  0  0  0  0  0  0  0  0
    0.6116    0.5502   -2.2177 H   0  0  0  0  0  0  0  0  0  0  0  0
    2.4380   -0.3016   -1.4467 C   0  0  0  0  0  0  0  0  0  0  0  0
    2.9230    0.5037   -0.6079 O   0  5  0  0  0  0  0  0  0  0  0  0
    3.1155   -1.0359   -2.2036 O   0  0  0  0  0  0  0  0  0  0  0  0
    0.0825    1.1599    0.2732 C   0  0  0  0  0  0  0  0  0  0  0  0
   -0.9647    1.7746    0.0625 O   0  0  0  0  0  0  0  0  0  0  0  0
    0.9821    1.6398    1.2029 N   0  0  0  0  0  0  0  0  0  0  0  0
    1.9177    1.2401    1.0633 H   0  0  0  0  0  0  0  0  0  0  0  0
    0.9096    2.9965    1.7212 C   0  0  0  0  0  0  0  0  0  0  0  0
   -0.0403    3.1594    2.2403 H   0  0  0  0  0  0  0  0  0  0  0  0
    1.7239    3.1683    2.4311 H   0  0  0  0  0  0  0  0  0  0  0  0
    0.9984    3.7217    0.9059 H   0  0  0  0  0  0  0  0  0  0  0  0
  1  2  1  0  0  0  0
  2  3  1  0  0  0  0
  2  4  1  0  0  0  0
  2  5  1  0  0  0  0
  5  6  2  0  0  0  0
  5  7  1  0  0  0  0
  7  8  1  0  0  0  0
  7  9  1  0  0  0  0
  9 10  1  0  0  0  0
  9 11  1  0  0  0  0
  9 17  1  0  0  0  0
 11 12  1  0  0  0  0
 11 13  1  0  0  0  0
 11 14  1  0  0  0  0
 14 15  1  0  0  0  0
 14 16  2  0  0  0  0
 17 18  2  0  0  0  0
 17 19  1  0  0  0  0
 19 20  1  0  0  0  0
 19 21  1  0  0  0  0
 21 22  1  0  0  0  0
 21 23  1  0  0  0  0
 21 24  1  0  0  0  0
M  CHG  1  15  -1
M  END
$$$$

  -OEChem-03222214023D

 24 23  0     1  0  0  0  0  0999 V2000
   -2.8072   -3.7939    0.5040 H   0  0  0  0  0  0  0  0  0  0  0  0
   -2.7617   -2.7763    0.1061 C   0  0  0  0  0  0  0  0  0  0  0  0
   -3.4171   -2.1356    0.7011 H   0  0  0  0  0  0  0  0  0  0  0  0
   -3.1134   -2.7866   -0.9285 H   0  0  0  0  0  0  0  0  0  0  0  0
   -1.3368   -2.2543    0.1614 C   0  0  0  0  0  0  0  0  0  0  0  0
   -0.4582   -2.9676    0.6165 O   0  0  0  0  0  0  0  0  0  0  0  0
   -1.0808   -0.9737   -0.2769 N   0  0  0  0  0  0  0  0  0  0  0  0
   -1.8811   -0.4004   -0.5281 H   0  0  0  0  0  0  0  0  0  0  0  0
    0.2122   -0.2781   -0.2369 C   0  0  1  0  0  0  0  0  0  0  0  0
    0.8426   -0.8096    0.4853 H   0  0  0  0  0  0  0  0  0  0  0  0
    0.9158   -0.3093   -1.6044 C   0  0  0  0  0  0  0  0  0  0  0  0
    0.6469   -1.2300   -2.1295 H   0  0  0  0  0  0  0  0  0  0  0  0
    0.5962    0.5373   -2.2174 H   0  0  0  0  0  0  0  0  0  0  0  0
    2.4372   -0.2847   -1.4509 C   0  0  0  0  0  0  0  0  0  0  0  0
    2.9242    0.3076   -0.4500 O   0  5  0  0  0  0  0  0  0  0  0  0
    3.1138   -0.7896   -2.3776 O   0  0  0  0  0  0  0  0  0  0  0  0
    0.0716    1.1693    0.2787 C   0  0  0  0  0  0  0  0  0  0  0  0
   -0.9650    1.7968    0.0561 O   0  0  0  0  0  0  0  0  0  0  0  0
    0.9760    1.6421    1.2067 N   0  0  0  0  0  0  0  0  0  0  0  0
    1.9002    1.2063    1.0958 H   0  0  0  0  0  0  0  0  0  0  0  0
    0.9303    3.0037    1.7143 C   0  0  0  0  0  0  0  0  0  0  0  0
   -0.0204    3.1921    2.2231 H   0  0  0  0  0  0  0  0  0  0  0  0
    1.7418    3.1621    2.4307 H   0  0  0  0  0  0  0  0  0  0  0  0
    1.0431    3.7203    0.8946 H   0  0  0  0  0  0  0  0  0  0  0  0
  1  2  1  0  0  0  0
  2  3  1  0  0  0  0
  2  4  1  0  0  0  0
  2  5  1  0  0  0  0
  5  6  2  0  0  0  0
  5  7  1  0  0  0  0
  7  8  1  0  0  0  0
  7  9  1  0  0  0  0
  9 10  1  0  0  0  0
  9 11  1  0  0  0  0
  9 17  1  0  0  0  0
 11 12  1  0  0  0  0
 11 13  1  0  0  0  0
 11 14  1  0  0  0  0
 14 15  1  0  0  0  0
 14 16  2  0  0  0  0
 17 18  2  0  0  0  0
 17 19  1  0  0  0  0
 19 20  1  0  0  0  0
 19 21  1  0  0  0  0
 21 22  1  0  0  0  0
 21 23  1  0  0  0  0
 21 24  1  0  0  0  0
M  CHG  1  15  -1
M  END
$$$$

  -OEChem-03222214023D

 24 23  0     1  0  0  0  0  0999 V2000
   -2.7956   -3.8225    0.4845 H   0  0  0  0  0  0  0  0  0  0  0  0
   -2.7601   -2.8014    0.0943 C   0  0  0  0  0  0  0  0  0  0  0  0
   -3.4261   -2.1726    0.6903 H   0  0  0  0  0  0  0  0  0  0  0  0
   -3.1067   -2.8082   -0.9421 H   0  0  0  0  0  0  0  0  0  0  0  0
   -1.3418   -2.2626    0.1612 C   0  0  0  0  0  0  0  0  0  0  0  0
   -0.4582   -2.9687    0.6176 O   0  0  0  0  0  0  0  0  0  0  0  0
   -1.0989   -0.9781   -0.2736 N   0  0  0  0  0  0  0  0  0  0  0  0
   -1.9053   -0.4191   -0.5358 H   0  0  0  0  0  0  0  0  0  0  0  0
    0.1840   -0.2629   -0.2326 C   0  0  1  0  0  0  0  0  0  0  0  0
    0.8019   -0.7932    0.5011 H   0  0  0  0  0  0  0  0  0  0  0  0
    0.9082   -0.3076   -1.5896 C   0  0  0  0  0  0  0  0  0  0  0  0
    0.6619   -1.2436   -2.0980 H   0  0  0  0  0  0  0  0  0  0  0  0
    0.5765    0.5200   -2.2219 H   0  0  0  0  0  0  0  0  0  0  0  0
    2.4305   -0.2544   -1.4389 C   0  0  0  0  0  0  0  0  0  0  0  0
    2.9198    0.1028   -0.3327 O   0  5  0  0  0  0  0  0  0  0  0  0
    3.1045   -0.5051   -2.4659 O   0  0  0  0  0  0  0  0  0  0  0  0
    0.0575    1.1843    0.2801 C   0  0  0  0  0  0  0  0  0  0  0  0
   -0.9680    1.8273    0.0538 O   0  0  0  0  0  0  0  0  0  0  0  0
    0.9760    1.6453    1.2001 N   0  0  0  0  0  0  0  0  0  0  0  0
    1.8833    1.1691    1.1180 H   0  0  0  0  0  0  0  0  0  0  0  0
    0.9663    3.0097    1.7016 C   0  0  0  0  0  0  0  0  0  0  0  0
    0.0226    3.2236    2.2132 H   0  0  0  0  0  0  0  0  0  0  0  0
    1.7843    3.1506    2.4142 H   0  0  0  0  0  0  0  0  0  0  0  0
    1.0938    3.7201    0.8786 H   0  0  0  0  0  0  0  0  0  0  0  0
  1  2  1  0  0  0  0
  2  3  1  0  0  0  0
  2  4  1  0  0  0  0
  2  5  1  0  0  0  0
  5  6  2  0  0  0  0
  5  7  1  0  0  0  0
  7  8  1  0  0  0  0
  7  9  1  0  0  0  0
  9 10  1  0  0  0  0
  9 11  1  0  0  0  0
  9 17  1  0  0  0  0
 11 12  1  0  0  0  0
 11 13  1  0  0  0  0
 11 14  1  0  0  0  0
 14 15  1  0  0  0  0
 14 16  2  0  0  0  0
 17 18  2  0  0  0  0
 17 19  1  0  0  0  0
 19 20  1  0  0  0  0
 19 21  1  0  0  0  0
 21 22  1  0  0  0  0
 21 23  1  0  0  0  0
 21 24  1  0  0  0  0
M  CHG  1  15  -1
M  END
$$$$

  -OEChem-03222214023D

 24 23  0     1  0  0  0  0  0999 V2000
   -2.7800   -3.8516    0.4663 H   0  0  0  0  0  0  0  0  0  0  0  0
   -2.7567   -2.8282    0.0812 C   0  0  0  0  0  0  0  0  0  0  0  0
   -3.4353   -2.2124    0.6764 H   0  0  0  0  0  0  0  0  0  0  0  0
   -3.0967   -2.8353   -0.9573 H   0  0  0  0  0  0  0  0  0  0  0  0
   -1.3466   -2.2699    0.1596 C   0  0  0  0  0  0  0  0  0  0  0  0
   -0.4577   -2.9673    0.6183 O   0  0  0  0  0  0  0  0  0  0  0  0
   -1.1186   -0.9807   -0.2707 N   0  0  0  0  0  0  0  0  0  0  0  0
   -1.9301   -0.4386   -0.5508 H   0  0  0  0  0  0  0  0  0  0  0  0
    0.1545   -0.2470   -0.2296 C   0  0  1  0  0  0  0  0  0  0  0  0
    0.7588   -0.7756    0.5156 H   0  0  0  0  0  0  0  0  0  0  0  0
    0.8977   -0.3026   -1.5762 C   0  0  0  0  0  0  0  0  0  0  0  0
    0.6740   -1.2514   -2.0704 H   0  0  0  0  0  0  0  0  0  0  0  0
    0.5558    0.5074   -2.2259 H   0  0  0  0  0  0  0  0  0  0  0  0
    2.4189   -0.2217   -1.4188 C   0  0  0  0  0  0  0  0  0  0  0  0
    2.9170   -0.1185   -0.2657 O   0  5  0  0  0  0  0  0  0  0  0  0
    3.0832   -0.2064   -2.4819 O   0  0  0  0  0  0  0  0  0  0  0  0
    0.0446    1.1989    0.2822 C   0  0  0  0  0  0  0  0  0  0  0  0
   -0.9678    1.8596    0.0524 O   0  0  0  0  0  0  0  0  0  0  0  0
    0.9789    1.6461    1.1935 N   0  0  0  0  0  0  0  0  0  0  0  0
    1.8661    1.1305    1.1445 H   0  0  0  0  0  0  0  0  0  0  0  0
    1.0051    3.0134    1.6864 C   0  0  0  0  0  0  0  0  0  0  0  0
    0.0691    3.2543    2.2000 H   0  0  0  0  0  0  0  0  0  0  0  0
    1.8292    3.1390    2.3947 H   0  0  0  0  0  0  0  0  0  0  0  0
    1.1469    3.7150    0.8583 H   0  0  0  0  0  0  0  0  0  0  0  0
  1  2  1  0  0  0  0
  2  3  1  0  0  0  0
  2  4  1  0  0  0  0
  2  5  1  0  0  0  0
  5  6  2  0  0  0  0
  5  7  1  0  0  0  0
  7  8  1  0  0  0  0
  7  9  1  0  0  0  0
  9 10  1  0  0  0  0
  9 11  1  0  0  0  0
  9 17  1  0  0  0  0
 11 12  1  0  0  0  0
 11 13  1  0  0  0  0
 11 14  1  0  0  0  0
 14 15  1  0  0  0  0
 14 16  2  0  0  0  0
 17 18  2  0  0  0  0
 17 19  1  0  0  0  0
 19 20  1  0  0  0  0
 19 21  1  0  0  0  0
 21 22  1  0  0  0  0
 21 23  1  0  0  0  0
 21 24  1  0  0  0  0
M  CHG  1  15  -1
M  END
$$$$

  -OEChem-03222214023D

 24 23  0     1  0  0  0  0  0999 V2000
   -2.7750   -3.8628    0.4584 H   0  0  0  0  0  0  0  0  0  0  0  0
   -2.7524   -2.8405    0.0704 C   0  0  0  0  0  0  0  0  0  0  0  0
   -3.4416   -2.2266    0.6553 H   0  0  0  0  0  0  0  0  0  0  0  0
   -3.0797   -2.8526   -0.9721 H   0  0  0  0  0  0  0  0  0  0  0  0
   -1.3463   -2.2740    0.1638 C   0  0  0  0  0  0  0  0  0  0  0  0
   -0.4589   -2.9652    0.6340 O   0  0  0  0  0  0  0  0  0  0  0  0
   -1.1237   -0.9833   -0.2654 N   0  0  0  0  0  0  0  0  0  0  0  0
   -1.9357   -0.4517   -0.5629 H   0  0  0  0  0  0  0  0  0  0  0  0
    0.1438   -0.2400   -0.2256 C   0  0  1  0  0  0  0  0  0  0  0  0
    0.7444   -0.7653    0.5240 H   0  0  0  0  0  0  0  0  0  0  0  0
    0.8884   -0.3004   -1.5712 C   0  0  0  0  0  0  0  0  0  0  0  0
    0.6747   -1.2562   -2.0562 H   0  0  0  0  0  0  0  0  0  0  0  0
    0.5361    0.4993   -2.2284 H   0  0  0  0  0  0  0  0  0  0  0  0
    2.4088   -0.2061   -1.4154 C   0  0  0  0  0  0  0  0  0  0  0  0
    2.9328   -0.3732   -0.2835 O   0  5  0  0  0  0  0  0  0  0  0  0
    3.0473    0.0850   -2.4545 O   0  0  0  0  0  0  0  0  0  0  0  0
    0.0404    1.2056    0.2837 C   0  0  0  0  0  0  0  0  0  0  0  0
   -0.9649    1.8748    0.0500 O   0  0  0  0  0  0  0  0  0  0  0  0
    0.9816    1.6490    1.1905 N   0  0  0  0  0  0  0  0  0  0  0  0
    1.8519    1.1071    1.1822 H   0  0  0  0  0  0  0  0  0  0  0  0
    1.0239    3.0172    1.6798 C   0  0  0  0  0  0  0  0  0  0  0  0
    0.0877    3.2731    2.1859 H   0  0  0  0  0  0  0  0  0  0  0  0
    1.8445    3.1329    2.3939 H   0  0  0  0  0  0  0  0  0  0  0  0
    1.1821    3.7139    0.8505 H   0  0  0  0  0  0  0  0  0  0  0  0
  1  2  1  0  0  0  0
  2  3  1  0  0  0  0
  2  4  1  0  0  0  0
  2  5  1  0  0  0  0
  5  6  2  0  0  0  0
  5  7  1  0  0  0  0
  7  8  1  0  0  0  0
  7  9  1  0  0  0  0
  9 10  1  0  0  0  0
  9 11  1  0  0  0  0
  9 17  1  0  0  0  0
 11 12  1  0  0  0  0
 11 13  1  0  0  0  0
 11 14  1  0  0  0  0
 14 15  1  0  0  0  0
 14 16  2  0  0  0  0
 17 18  2  0  0  0  0
 17 19  1  0  0  0  0
 19 20  1  0  0  0  0
 19 21  1  0  0  0  0
 21 22  1  0  0  0  0
 21 23  1  0  0  0  0
 21 24  1  0  0  0  0
M  CHG  1  15  -1
M  END
$$$$

  -OEChem-03222214023D

 24 23  0     1  0  0  0  0  0999 V2000
   -2.7803   -3.8540    0.4467 H   0  0  0  0  0  0  0  0  0  0  0  0
   -2.7472   -2.8319    0.0590 C   0  0  0  0  0  0  0  0  0  0  0  0
   -3.4489   -2.2164    0.6272 H   0  0  0  0  0  0  0  0  0  0  0  0
   -3.0503   -2.8440   -0.9909 H   0  0  0  0  0  0  0  0  0  0  0  0
   -1.3429   -2.2674    0.1853 C   0  0  0  0  0  0  0  0  0  0  0  0
   -0.4732   -2.9519    0.6961 O   0  0  0  0  0  0  0  0  0  0  0  0
   -1.1057   -0.9818   -0.2508 N   0  0  0  0  0  0  0  0  0  0  0  0
   -1.9070   -0.4533   -0.5813 H   0  0  0  0  0  0  0  0  0  0  0  0
    0.1685   -0.2500   -0.2128 C   0  0  1  0  0  0  0  0  0  0  0  0
    0.7832   -0.7736    0.5265 H   0  0  0  0  0  0  0  0  0  0  0  0
    0.8804   -0.3027   -1.5772 C   0  0  0  0  0  0  0  0  0  0  0  0
    0.6470   -1.2508   -2.0681 H   0  0  0  0  0  0  0  0  0  0  0  0
    0.5209    0.5065   -2.2192 H   0  0  0  0  0  0  0  0  0  0  0  0
    2.4033   -0.2300   -1.4512 C   0  0  0  0  0  0  0  0  0  0  0  0
    2.9667   -0.6880   -0.4265 O   0  5  0  0  0  0  0  0  0  0  0  0
    3.0041    0.3370   -2.3947 O   0  0  0  0  0  0  0  0  0  0  0  0
    0.0563    1.1978    0.2907 C   0  0  0  0  0  0  0  0  0  0  0  0
   -0.9469    1.8640    0.0400 O   0  0  0  0  0  0  0  0  0  0  0  0
    0.9851    1.6578    1.2031 N   0  0  0  0  0  0  0  0  0  0  0  0
    1.8476    1.1109    1.2466 H   0  0  0  0  0  0  0  0  0  0  0  0
    1.0060    3.0280    1.6892 C   0  0  0  0  0  0  0  0  0  0  0  0
    0.0644    3.2714    2.1917 H   0  0  0  0  0  0  0  0  0  0  0  0
    1.8227    3.1581    2.4055 H   0  0  0  0  0  0  0  0  0  0  0  0
    1.1564    3.7251    0.8585 H   0  0  0  0  0  0  0  0  0  0  0  0
  1  2  1  0  0  0  0
  2  3  1  0  0  0  0
  2  4  1  0  0  0  0
  2  5  1  0  0  0  0
  5  6  2  0  0  0  0
  5  7  1  0  0  0  0
  7  8  1  0  0  0  0
  7  9  1  0  0  0  0
  9 10  1  0  0  0  0
  9 11  1  0  0  0  0
  9 17  1  0  0  0  0
 11 12  1  0  0  0  0
 11 13  1  0  0  0  0
 11 14  1  0  0  0  0
 14 15  1  0  0  0  0
 14 16  2  0  0  0  0
 17 18  2  0  0  0  0
 17 19  1  0  0  0  0
 19 20  1  0  0  0  0
 19 21  1  0  0  0  0
 21 22  1  0  0  0  0
 21 23  1  0  0  0  0
 21 24  1  0  0  0  0
M  CHG  1  15  -1
M  END
$$$$

  -OEChem-03222214023D

 24 23  0     1  0  0  0  0  0999 V2000
   -2.7854   -3.8415    0.4486 H   0  0  0  0  0  0  0  0  0  0  0  0
   -2.7433   -2.8212    0.0569 C   0  0  0  0  0  0  0  0  0  0  0  0
   -3.4499   -2.2005    0.6131 H   0  0  0  0  0  0  0  0  0  0  0  0
   -3.0326   -2.8368   -0.9967 H   0  0  0  0  0  0  0  0  0  0  0  0
   -1.3386   -2.2613    0.1988 C   0  0  0  0  0  0  0  0  0  0  0  0
   -0.4820   -2.9409    0.7372 O   0  0  0  0  0  0  0  0  0  0  0  0
   -1.0894   -0.9802   -0.2430 N   0  0  0  0  0  0  0  0  0  0  0  0
   -1.8828   -0.4491   -0.5882 H   0  0  0  0  0  0  0  0  0  0  0  0
    0.1928   -0.2623   -0.2102 C   0  0  1  0  0  0  0  0  0  0  0  0
    0.8254   -0.7870    0.5139 H   0  0  0  0  0  0  0  0  0  0  0  0
    0.8736   -0.3024   -1.5899 C   0  0  0  0  0  0  0  0  0  0  0  0
    0.6221   -1.2399   -2.0921 H   0  0  0  0  0  0  0  0  0  0  0  0
    0.5141    0.5203   -2.2150 H   0  0  0  0  0  0  0  0  0  0  0  0
    2.3959   -0.2516   -1.4730 C   0  0  0  0  0  0  0  0  0  0  0  0
    2.9719   -0.9702   -0.6216 O   0  5  0  0  0  0  0  0  0  0  0  0
    2.9804    0.5705   -2.2181 O   0  0  0  0  0  0  0  0  0  0  0  0
    0.0714    1.1870    0.2921 C   0  0  0  0  0  0  0  0  0  0  0  0
   -0.9360    1.8456    0.0368 O   0  0  0  0  0  0  0  0  0  0  0  0
    0.9903    1.6612    1.2079 N   0  0  0  0  0  0  0  0  0  0  0  0
    1.8561    1.1248    1.2694 H   0  0  0  0  0  0  0  0  0  0  0  0
    0.9874    3.0313    1.6957 C   0  0  0  0  0  0  0  0  0  0  0  0
    0.0368    3.2623    2.1865 H   0  0  0  0  0  0  0  0  0  0  0  0
    1.7929    3.1713    2.4225 H   0  0  0  0  0  0  0  0  0  0  0  0
    1.1393    3.7313    0.8679 H   0  0  0  0  0  0  0  0  0  0  0  0
  1  2  1  0  0  0  0
  2  3  1  0  0  0  0
  2  4  1  0  0  0  0
  2  5  1  0  0  0  0
  5  6  2  0  0  0  0
  5  7  1  0  0  0  0
  7  8  1  0  0  0  0
  7  9  1  0  0  0  0
  9 10  1  0  0  0  0
  9 11  1  0  0  0  0
  9 17  1  0  0  0  0
 11 12  1  0  0  0  0
 11 13  1  0  0  0  0
 11 14  1  0  0  0  0
 14 15  1  0  0  0  0
 14 16  2  0  0  0  0
 17 18  2  0  0  0  0
 17 19  1  0  0  0  0
 19 20  1  0  0  0  0
 19 21  1  0  0  0  0
 21 22  1  0  0  0  0
 21 23  1  0  0  0  0
 21 24  1  0  0  0  0
M  CHG  1  15  -1
M  END
$$$$

  -OEChem-03222214023D

 24 23  0     1  0  0  0  0  0999 V2000
   -2.7906   -3.8337    0.4542 H   0  0  0  0  0  0  0  0  0  0  0  0
   -2.7440   -2.8146    0.0600 C   0  0  0  0  0  0  0  0  0  0  0  0
   -3.4473   -2.1892    0.6153 H   0  0  0  0  0  0  0  0  0  0  0  0
   -3.0343   -2.8314   -0.9934 H   0  0  0  0  0  0  0  0  0  0  0  0
   -1.3363   -2.2614    0.1996 C   0  0  0  0  0  0  0  0  0  0  0  0
   -0.4838   -2.9426    0.7426 O   0  0  0  0  0  0  0  0  0  0  0  0
   -1.0809   -0.9820   -0.2432 N   0  0  0  0  0  0  0  0  0  0  0  0
   -1.8730   -0.4422   -0.5777 H   0  0  0  0  0  0  0  0  0  0  0  0
    0.2067   -0.2741   -0.2170 C   0  0  1  0  0  0  0  0  0  0  0  0
    0.8538   -0.8027    0.4924 H   0  0  0  0  0  0  0  0  0  0  0  0
    0.8700   -0.2960   -1.6033 C   0  0  0  0  0  0  0  0  0  0  0  0
    0.6109   -1.2225   -2.1220 H   0  0  0  0  0  0  0  0  0  0  0  0
    0.5188    0.5402   -2.2150 H   0  0  0  0  0  0  0  0  0  0  0  0
    2.3882   -0.2584   -1.4668 C   0  0  0  0  0  0  0  0  0  0  0  0
    2.9636   -1.1795   -0.8419 O   0  5  0  0  0  0  0  0  0  0  0  0
    2.9601    0.7695   -1.9011 O   0  0  0  0  0  0  0  0  0  0  0  0
    0.0802    1.1749    0.2898 C   0  0  0  0  0  0  0  0  0  0  0  0
   -0.9392    1.8210    0.0485 O   0  0  0  0  0  0  0  0  0  0  0  0
    0.9964    1.6558    1.2054 N   0  0  0  0  0  0  0  0  0  0  0  0
    1.8792    1.1465    1.2359 H   0  0  0  0  0  0  0  0  0  0  0  0
    0.9791    3.0273    1.6890 C   0  0  0  0  0  0  0  0  0  0  0  0
    0.0261    3.2502    2.1794 H   0  0  0  0  0  0  0  0  0  0  0  0
    1.7832    3.1775    2.4154 H   0  0  0  0  0  0  0  0  0  0  0  0
    1.1239    3.7262    0.8588 H   0  0  0  0  0  0  0  0  0  0  0  0
  1  2  1  0  0  0  0
  2  3  1  0  0  0  0
  2  4  1  0  0  0  0
  2  5  1  0  0  0  0
  5  6  2  0  0  0  0
  5  7  1  0  0  0  0
  7  8  1  0  0  0  0
  7  9  1  0  0  0  0
  9 10  1  0  0  0  0
  9 11  1  0  0  0  0
  9 17  1  0  0  0  0
 11 12  1  0  0  0  0
 11 13  1  0  0  0  0
 11 14  1  0  0  0  0
 14 15  1  0  0  0  0
 14 16  2  0  0  0  0
 17 18  2  0  0  0  0
 17 19  1  0  0  0  0
 19 20  1  0  0  0  0
 19 21  1  0  0  0  0
 21 22  1  0  0  0  0
 21 23  1  0  0  0  0
 21 24  1  0  0  0  0
M  CHG  1  15  -1
M  END
$$$$

  -OEChem-03222214023D

 24 23  0     1  0  0  0  0  0999 V2000
   -2.7993   -3.8195    0.4663 H   0  0  0  0  0  0  0  0  0  0  0  0
   -2.7484   -2.8008    0.0716 C   0  0  0  0  0  0  0  0  0  0  0  0
   -3.4376   -2.1681    0.6365 H   0  0  0  0  0  0  0  0  0  0  0  0
   -3.0530   -2.8143   -0.9778 H   0  0  0  0  0  0  0  0  0  0  0  0
   -1.3338   -2.2616    0.1911 C   0  0  0  0  0  0  0  0  0  0  0  0
   -0.4784   -2.9516    0.7183 O   0  0  0  0  0  0  0  0  0  0  0  0
   -1.0749   -0.9832   -0.2519 N   0  0  0  0  0  0  0  0  0  0  0  0
   -1.8693   -0.4309   -0.5596 H   0  0  0  0  0  0  0  0  0  0  0  0
    0.2168   -0.2835   -0.2337 C   0  0  1  0  0  0  0  0  0  0  0  0
    0.8704   -0.8161    0.4677 H   0  0  0  0  0  0  0  0  0  0  0  0
    0.8763   -0.2915   -1.6195 C   0  0  0  0  0  0  0  0  0  0  0  0
    0.6142   -1.2083   -2.1540 H   0  0  0  0  0  0  0  0  0  0  0  0
    0.5407    0.5570   -2.2227 H   0  0  0  0  0  0  0  0  0  0  0  0
    2.3890   -0.2630   -1.4491 C   0  0  0  0  0  0  0  0  0  0  0  0
    2.9732   -1.3097   -1.0865 O   0  5  0  0  0  0  0  0  0  0  0  0
    2.9279    0.8686   -1.5054 O   0  0  0  0  0  0  0  0  0  0  0  0
    0.0887    1.1655    0.2785 C   0  0  0  0  0  0  0  0  0  0  0  0
   -0.9489    1.7943    0.0664 O   0  0  0  0  0  0  0  0  0  0  0  0
    1.0065    1.6488    1.1909 N   0  0  0  0  0  0  0  0  0  0  0  0
    1.9177    1.1926    1.1421 H   0  0  0  0  0  0  0  0  0  0  0  0
    0.9641    3.0156    1.6864 C   0  0  0  0  0  0  0  0  0  0  0  0
    0.0148    3.2107    2.1954 H   0  0  0  0  0  0  0  0  0  0  0  0
    1.7772    3.1799    2.3996 H   0  0  0  0  0  0  0  0  0  0  0  0
    1.0769    3.7245    0.8598 H   0  0  0  0  0  0  0  0  0  0  0  0
  1  2  1  0  0  0  0
  2  3  1  0  0  0  0
  2  4  1  0  0  0  0
  2  5  1  0  0  0  0
  5  6  2  0  0  0  0
  5  7  1  0  0  0  0
  7  8  1  0  0  0  0
  7  9  1  0  0  0  0
  9 10  1  0  0  0  0
  9 11  1  0  0  0  0
  9 17  1  0  0  0  0
 11 12  1  0  0  0  0
 11 13  1  0  0  0  0
 11 14  1  0  0  0  0
 14 15  1  0  0  0  0
 14 16  2  0  0  0  0
 17 18  2  0  0  0  0
 17 19  1  0  0  0  0
 19 20  1  0  0  0  0
 19 21  1  0  0  0  0
 21 22  1  0  0  0  0
 21 23  1  0  0  0  0
 21 24  1  0  0  0  0
M  CHG  1  15  -1
M  END
$$$$

  -OEChem-03222214023D

 24 23  0     1  0  0  0  0  0999 V2000
   -2.8061   -3.7999    0.4889 H   0  0  0  0  0  0  0  0  0  0  0  0
   -2.7545   -2.7828    0.0901 C   0  0  0  0  0  0  0  0  0  0  0  0
   -3.4246   -2.1424    0.6688 H   0  0  0  0  0  0  0  0  0  0  0  0
   -3.0831   -2.7966   -0.9519 H   0  0  0  0  0  0  0  0  0  0  0  0
   -1.3326   -2.2568    0.1760 C   0  0  0  0  0  0  0  0  0  0  0  0
   -0.4701   -2.9579    0.6768 O   0  0  0  0  0  0  0  0  0  0  0  0
   -1.0716   -0.9791   -0.2674 N   0  0  0  0  0  0  0  0  0  0  0  0
   -1.8687   -0.4116   -0.5397 H   0  0  0  0  0  0  0  0  0  0  0  0
    0.2240   -0.2868   -0.2521 C   0  0  1  0  0  0  0  0  0  0  0  0
    0.8762   -0.8210    0.4495 H   0  0  0  0  0  0  0  0  0  0  0  0
    0.8938   -0.2893   -1.6321 C   0  0  0  0  0  0  0  0  0  0  0  0
    0.6296   -1.2003   -2.1758 H   0  0  0  0  0  0  0  0  0  0  0  0
    0.5741    0.5668   -2.2327 H   0  0  0  0  0  0  0  0  0  0  0  0
    2.4037   -0.2683   -1.4349 C   0  0  0  0  0  0  0  0  0  0  0  0
    3.0126   -1.3593   -1.3515 O   0  5  0  0  0  0  0  0  0  0  0  0
    2.9043    0.8494   -1.1549 O   0  0  0  0  0  0  0  0  0  0  0  0
    0.0926    1.1620    0.2640 C   0  0  0  0  0  0  0  0  0  0  0  0
   -0.9587    1.7766    0.0749 O   0  0  0  0  0  0  0  0  0  0  0  0
    1.0106    1.6437    1.1761 N   0  0  0  0  0  0  0  0  0  0  0  0
    1.9427    1.2449    1.0420 H   0  0  0  0  0  0  0  0  0  0  0  0
    0.9403    2.9999    1.6964 C   0  0  0  0  0  0  0  0  0  0  0  0
    0.0007    3.1568    2.2355 H   0  0  0  0  0  0  0  0  0  0  0  0
    1.7685    3.1773    2.3888 H   0  0  0  0  0  0  0  0  0  0  0  0
    1.0071    3.7256    0.8795 H   0  0  0  0  0  0  0  0  0  0  0  0
  1  2  1  0  0  0  0
  2  3  1  0  0  0  0
  2  4  1  0  0  0  0
  2  5  1  0  0  0  0
  5  6  2  0  0  0  0
  5  7  1  0  0  0  0
  7  8  1  0  0  0  0
  7  9  1  0  0  0  0
  9 10  1  0  0  0  0
  9 11  1  0  0  0  0
  9 17  1  0  0  0  0
 11 12  1  0  0  0  0
 11 13  1  0  0  0  0
 11 14  1  0  0  0  0
 14 15  1  0  0  0  0
 14 16  2  0  0  0  0
 17 18  2  0  0  0  0
 17 19  1  0  0  0  0
 19 20  1  0  0  0  0
 19 21  1  0  0  0  0
 21 22  1  0  0  0  0
 21 23  1  0  0  0  0
 21 24  1  0  0  0  0
M  CHG  1  15  -1
M  END
$$$$

  -OEChem-03222214023D

 24 23  0     1  0  0  0  0  0999 V2000
   -2.8072   -3.7865    0.5029 H   0  0  0  0  0  0  0  0  0  0  0  0
   -2.7548   -2.7712    0.0999 C   0  0  0  0  0  0  0  0  0  0  0  0
   -3.4172   -2.1257    0.6818 H   0  0  0  0  0  0  0  0  0  0  0  0
   -3.0925   -2.7873   -0.9392 H   0  0  0  0  0  0  0  0  0  0  0  0
   -1.3301   -2.2508    0.1720 C   0  0  0  0  0  0  0  0  0  0  0  0
   -0.4634   -2.9563    0.6597 O   0  0  0  0  0  0  0  0  0  0  0  0
   -1.0682   -0.9736   -0.2719 N   0  0  0  0  0  0  0  0  0  0  0  0
   -1.8656   -0.3996   -0.5298 H   0  0  0  0  0  0  0  0  0  0  0  0
    0.2294   -0.2857   -0.2542 C   0  0  1  0  0  0  0  0  0  0  0  0
    0.8801   -0.8183    0.4496 H   0  0  0  0  0  0  0  0  0  0  0  0
    0.9032   -0.2919   -1.6334 C   0  0  0  0  0  0  0  0  0  0  0  0
    0.6310   -1.2013   -2.1761 H   0  0  0  0  0  0  0  0  0  0  0  0
    0.5875    0.5650   -2.2344 H   0  0  0  0  0  0  0  0  0  0  0  0
    2.4162   -0.2771   -1.4450 C   0  0  0  0  0  0  0  0  0  0  0  0
    3.0541   -1.3358   -1.6475 O   0  5  0  0  0  0  0  0  0  0  0  0
    2.9022    0.7609   -0.9266 O   0  0  0  0  0  0  0  0  0  0  0  0
    0.0897    1.1628    0.2633 C   0  0  0  0  0  0  0  0  0  0  0  0
   -0.9649    1.7719    0.0740 O   0  0  0  0  0  0  0  0  0  0  0  0
    1.0029    1.6444    1.1796 N   0  0  0  0  0  0  0  0  0  0  0  0
    1.9411    1.2653    1.0173 H   0  0  0  0  0  0  0  0  0  0  0  0
    0.9223    2.9952    1.7123 C   0  0  0  0  0  0  0  0  0  0  0  0
   -0.0292    3.1480    2.2313 H   0  0  0  0  0  0  0  0  0  0  0  0
    1.7343    3.1632    2.4258 H   0  0  0  0  0  0  0  0  0  0  0  0
    1.0096    3.7299    0.9054 H   0  0  0  0  0  0  0  0  0  0  0  0
  1  2  1  0  0  0  0
  2  3  1  0  0  0  0
  2  4  1  0  0  0  0
  2  5  1  0  0  0  0
  5  6  2  0  0  0  0
  5  7  1  0  0  0  0
  7  8  1  0  0  0  0
  7  9  1  0  0  0  0
  9 10  1  0  0  0  0
  9 11  1  0  0  0  0
  9 17  1  0  0  0  0
 11 12  1  0  0  0  0
 11 13  1  0  0  0  0
 11 14  1  0  0  0  0
 14 15  1  0  0  0  0
 14 16  2  0  0  0  0
 17 18  2  0  0  0  0
 17 19  1  0  0  0  0
 19 20  1  0  0  0  0
 19 21  1  0  0  0  0
 21 22  1  0  0  0  0
 21 23  1  0  0  0  0
 21 24  1  0  0  0  0
M  CHG  1  15  -1
M  END
$$$$

  -OEChem-03222214023D

 24 23  0     1  0  0  0  0  0999 V2000
   -2.8112   -3.7805    0.5054 H   0  0  0  0  0  0  0  0  0  0  0  0
   -2.7574   -2.7649    0.1033 C   0  0  0  0  0  0  0  0  0  0  0  0
   -3.4144   -2.1182    0.6898 H   0  0  0  0  0  0  0  0  0  0  0  0
   -3.1011   -2.7783   -0.9338 H   0  0  0  0  0  0  0  0  0  0  0  0
   -1.3304   -2.2492    0.1679 C   0  0  0  0  0  0  0  0  0  0  0  0
   -0.4614   -2.9589    0.6458 O   0  0  0  0  0  0  0  0  0  0  0  0
   -1.0663   -0.9716   -0.2737 N   0  0  0  0  0  0  0  0  0  0  0  0
   -1.8633   -0.3932   -0.5236 H   0  0  0  0  0  0  0  0  0  0  0  0
    0.2322   -0.2855   -0.2485 C   0  0  1  0  0  0  0  0  0  0  0  0
    0.8793   -0.8177    0.4587 H   0  0  0  0  0  0  0  0  0  0  0  0
    0.9119   -0.2957   -1.6264 C   0  0  0  0  0  0  0  0  0  0  0  0
    0.6340   -1.2055   -2.1662 H   0  0  0  0  0  0  0  0  0  0  0  0
    0.5977    0.5605   -2.2287 H   0  0  0  0  0  0  0  0  0  0  0  0
    2.4288   -0.2843   -1.4544 C   0  0  0  0  0  0  0  0  0  0  0  0
    3.0867   -1.2397   -1.9281 O   0  5  0  0  0  0  0  0  0  0  0  0
    2.9134    0.6342   -0.7424 O   0  0  0  0  0  0  0  0  0  0  0  0
    0.0858    1.1622    0.2705 C   0  0  0  0  0  0  0  0  0  0  0  0
   -0.9665    1.7722    0.0713 O   0  0  0  0  0  0  0  0  0  0  0  0
    0.9912    1.6447    1.1933 N   0  0  0  0  0  0  0  0  0  0  0  0
    1.9297    1.2604    1.0362 H   0  0  0  0  0  0  0  0  0  0  0  0
    0.9110    2.9978    1.7202 C   0  0  0  0  0  0  0  0  0  0  0  0
   -0.0369    3.1506    2.2458 H   0  0  0  0  0  0  0  0  0  0  0  0
    1.7281    3.1713    2.4265 H   0  0  0  0  0  0  0  0  0  0  0  0
    0.9899    3.7290    0.9093 H   0  0  0  0  0  0  0  0  0  0  0  0
  1  2  1  0  0  0  0
  2  3  1  0  0  0  0
  2  4  1  0  0  0  0
  2  5  1  0  0  0  0
  5  6  2  0  0  0  0
  5  7  1  0  0  0  0
  7  8  1  0  0  0  0
  7  9  1  0  0  0  0
  9 10  1  0  0  0  0
  9 11  1  0  0  0  0
  9 17  1  0  0  0  0
 11 12  1  0  0  0  0
 11 13  1  0  0  0  0
 11 14  1  0  0  0  0
 14 15  1  0  0  0  0
 14 16  2  0  0  0  0
 17 18  2  0  0  0  0
 17 19  1  0  0  0  0
 19 20  1  0  0  0  0
 19 21  1  0  0  0  0
 21 22  1  0  0  0  0
 21 23  1  0  0  0  0
 21 24  1  0  0  0  0
M  CHG  1  15  -1
M  END
$$$$

  -OEChem-03222214023D

 24 23  0     1  0  0  0  0  0999 V2000
   -2.8092   -3.7839    0.5022 H   0  0  0  0  0  0  0  0  0  0  0  0
   -2.7580   -2.7668    0.1036 C   0  0  0  0  0  0  0  0  0  0  0  0
   -3.4150   -2.1228    0.6933 H   0  0  0  0  0  0  0  0  0  0  0  0
   -3.1036   -2.7775   -0.9329 H   0  0  0  0  0  0  0  0  0  0  0  0
   -1.3318   -2.2490    0.1667 C   0  0  0  0  0  0  0  0  0  0  0  0
   -0.4596   -2.9605    0.6364 O   0  0  0  0  0  0  0  0  0  0  0  0
   -1.0697   -0.9705   -0.2736 N   0  0  0  0  0  0  0  0  0  0  0  0
   -1.8672   -0.3932   -0.5246 H   0  0  0  0  0  0  0  0  0  0  0  0
    0.2275   -0.2823   -0.2410 C   0  0  1  0  0  0  0  0  0  0  0  0
    0.8695   -0.8139    0.4712 H   0  0  0  0  0  0  0  0  0  0  0  0
    0.9149   -0.3003   -1.6162 C   0  0  0  0  0  0  0  0  0  0  0  0
    0.6371   -1.2147   -2.1480 H   0  0  0  0  0  0  0  0  0  0  0  0
    0.5980    0.5502   -2.2250 H   0  0  0  0  0  0  0  0  0  0  0  0
    2.4348   -0.2868   -1.4590 C   0  0  0  0  0  0  0  0  0  0  0  0
    3.1038   -1.0762   -2.1663 O   0  5  0  0  0  0  0  0  0  0  0  0
    2.9223    0.4851   -0.5906 O   0  0  0  0  0  0  0  0  0  0  0  0
    0.0799    1.1649    0.2770 C   0  0  0  0  0  0  0  0  0  0  0  0
   -0.9654    1.7818    0.0636 O   0  0  0  0  0  0  0  0  0  0  0  0
    0.9817    1.6451    1.2040 N   0  0  0  0  0  0  0  0  0  0  0  0
    1.9157    1.2400    1.0680 H   0  0  0  0  0  0  0  0  0  0  0  0
    0.9123    3.0014    1.7234 C   0  0  0  0  0  0  0  0  0  0  0  0
   -0.0386    3.1668    2.2399 H   0  0  0  0  0  0  0  0  0  0  0  0
    1.7251    3.1694    2.4360 H   0  0  0  0  0  0  0  0  0  0  0  0
    1.0062    3.7276    0.9096 H   0  0  0  0  0  0  0  0  0  0  0  0
  1  2  1  0  0  0  0
  2  3  1  0  0  0  0
  2  4  1  0  0  0  0
  2  5  1  0  0  0  0
  5  6  2  0  0  0  0
  5  7  1  0  0  0  0
  7  8  1  0  0  0  0
  7  9  1  0  0  0  0
  9 10  1  0  0  0  0
  9 11  1  0  0  0  0
  9 17  1  0  0  0  0
 11 12  1  0  0  0  0
 11 13  1  0  0  0  0
 11 14  1  0  0  0  0
 14 15  1  0  0  0  0
 14 16  2  0  0  0  0
 17 18  2  0  0  0  0
 17 19  1  0  0  0  0
 19 20  1  0  0  0  0
 19 21  1  0  0  0  0
 21 22  1  0  0  0  0
 21 23  1  0  0  0  0
 21 24  1  0  0  0  0
M  CHG  1  15  -1
M  END
$$$$

  -OEChem-03222214023D

 24 23  0     1  0  0  0  0  0999 V2000
   -2.8056   -3.7949    0.4985 H   0  0  0  0  0  0  0  0  0  0  0  0
   -2.7603   -2.7770    0.1012 C   0  0  0  0  0  0  0  0  0  0  0  0
   -3.4187   -2.1374    0.6940 H   0  0  0  0  0  0  0  0  0  0  0  0
   -3.1086   -2.7875   -0.9345 H   0  0  0  0  0  0  0  0  0  0  0  0
   -1.3362   -2.2530    0.1622 C   0  0  0  0  0  0  0  0  0  0  0  0
   -0.4590   -2.9644    0.6226 O   0  0  0  0  0  0  0  0  0  0  0  0
   -1.0797   -0.9723   -0.2755 N   0  0  0  0  0  0  0  0  0  0  0  0
   -1.8793   -0.3994   -0.5293 H   0  0  0  0  0  0  0  0  0  0  0  0
    0.2136   -0.2769   -0.2352 C   0  0  1  0  0  0  0  0  0  0  0  0
    0.8460   -0.8087    0.4851 H   0  0  0  0  0  0  0  0  0  0  0  0
    0.9154   -0.3053   -1.6034 C   0  0  0  0  0  0  0  0  0  0  0  0
    0.6476   -1.2280   -2.1257 H   0  0  0  0  0  0  0  0  0  0  0  0
    0.5941    0.5352   -2.2237 H   0  0  0  0  0  0  0  0  0  0  0  0
    2.4369   -0.2815   -1.4524 C   0  0  0  0  0  0  0  0  0  0  0  0
    3.1126   -0.8535   -2.3400 O   0  5  0  0  0  0  0  0  0  0  0  0
    2.9249    0.3312   -0.4644 O   0  0  0  0  0  0  0  0  0  0  0  0
    0.0716    1.1704    0.2814 C   0  0  0  0  0  0  0  0  0  0  0  0
   -0.9655    1.7971    0.0589 O   0  0  0  0  0  0  0  0  0  0  0  0
    0.9754    1.6437    1.2099 N   0  0  0  0  0  0  0  0  0  0  0  0
    1.9004    1.2107    1.0967 H   0  0  0  0  0  0  0  0  0  0  0  0
    0.9281    3.0042    1.7203 C   0  0  0  0  0  0  0  0  0  0  0  0
   -0.0239    3.1918    2.2270 H   0  0  0  0  0  0  0  0  0  0  0  0
    1.7376    3.1603    2.4394 H   0  0  0  0  0  0  0  0  0  0  0  0
    1.0436    3.7231    0.9030 H   0  0  0  0  0  0  0  0  0  0  0  0
  1  2  1  0  0  0  0
  2  3  1  0  0  0  0
  2  4  1  0  0  0  0
  2  5  1  0  0  0  0
  5  6  2  0  0  0  0
  5  7  1  0  0  0  0
  7  8  1  0  0  0  0
  7  9  1  0  0  0  0
  9 10  1  0  0  0  0
  9 11  1  0  0  0  0
  9 17  1  0  0  0  0
 11 12  1  0  0  0  0
 11 13  1  0  0  0  0
 11 14  1  0  0  0  0
 14 15  1  0  0  0  0
 14 16  2  0  0  0  0
 17 18  2  0  0  0  0
 17 19  1  0  0  0  0
 19 20  1  0  0  0  0
 19 21  1  0  0  0  0
 21 22  1  0  0  0  0
 21 23  1  0  0  0  0
 21 24  1  0  0  0  0
M  CHG  1  15  -1
M  END
$$$$

  -OEChem-03222214023D

 24 23  0     1  0  0  0  0  0999 V2000
   -2.8058   -3.8089    0.4925 H   0  0  0  0  0  0  0  0  0  0  0  0
   -2.7640   -2.7899    0.0976 C   0  0  0  0  0  0  0  0  0  0  0  0
   -3.4250   -2.1543    0.6918 H   0  0  0  0  0  0  0  0  0  0  0  0
   -3.1121   -2.7991   -0.9382 H   0  0  0  0  0  0  0  0  0  0  0  0
   -1.3420   -2.2603    0.1593 C   0  0  0  0  0  0  0  0  0  0  0  0
   -0.4609   -2.9717    0.6124 O   0  0  0  0  0  0  0  0  0  0  0  0
   -1.0917   -0.9773   -0.2758 N   0  0  0  0  0  0  0  0  0  0  0  0
   -1.8948   -0.4103   -0.5317 H   0  0  0  0  0  0  0  0  0  0  0  0
    0.1962   -0.2718   -0.2317 C   0  0  1  0  0  0  0  0  0  0  0  0
    0.8171   -0.8037    0.4982 H   0  0  0  0  0  0  0  0  0  0  0  0
    0.9148   -0.3102   -1.5916 C   0  0  0  0  0  0  0  0  0  0  0  0
    0.6613   -1.2410   -2.1062 H   0  0  0  0  0  0  0  0  0  0  0  0
    0.5886    0.5199   -2.2234 H   0  0  0  0  0  0  0  0  0  0  0  0
    2.4369   -0.2710   -1.4408 C   0  0  0  0  0  0  0  0  0  0  0  0
    3.1119   -0.5870   -2.4490 O   0  5  0  0  0  0  0  0  0  0  0  0
    2.9238    0.1720   -0.3650 O   0  0  0  0  0  0  0  0  0  0  0  0
    0.0638    1.1752    0.2828 C   0  0  0  0  0  0  0  0  0  0  0  0
   -0.9651    1.8127    0.0552 O   0  0  0  0  0  0  0  0  0  0  0  0
    0.9744    1.6401    1.2089 N   0  0  0  0  0  0  0  0  0  0  0  0
    1.8882    1.1782    1.1187 H   0  0  0  0  0  0  0  0  0  0  0  0
    0.9511    3.0040    1.7117 C   0  0  0  0  0  0  0  0  0  0  0  0
   -0.0011    3.2138    2.2093 H   0  0  0  0  0  0  0  0  0  0  0  0
    1.7575    3.1482    2.4368 H   0  0  0  0  0  0  0  0  0  0  0  0
    1.0879    3.7154    0.8911 H   0  0  0  0  0  0  0  0  0  0  0  0
  1  2  1  0  0  0  0
  2  3  1  0  0  0  0
  2  4  1  0  0  0  0
  2  5  1  0  0  0  0
  5  6  2  0  0  0  0
  5  7  1  0  0  0  0
  7  8  1  0  0  0  0
  7  9  1  0  0  0  0
  9 10  1  0  0  0  0
  9 11  1  0  0  0  0
  9 17  1  0  0  0  0
 11 12  1  0  0  0  0
 11 13  1  0  0  0  0
 11 14  1  0  0  0  0
 14 15  1  0  0  0  0
 14 16  2  0  0  0  0
 17 18  2  0  0  0  0
 17 19  1  0  0  0  0
 19 20  1  0  0  0  0
 19 21  1  0  0  0  0
 21 22  1  0  0  0  0
 21 23  1  0  0  0  0
 21 24  1  0  0  0  0
M  CHG  1  15  -1
M  END
$$$$

  -OEChem-03222214023D

 24 23  0     1  0  0  0  0  0999 V2000
   -2.7919   -3.8659    0.4521 H   0  0  0  0  0  0  0  0  0  0  0  0
   -2.7680   -2.8441    0.0629 C   0  0  0  0  0  0  0  0  0  0  0  0
   -3.4636   -2.2305    0.6404 H   0  0  0  0  0  0  0  0  0  0  0  0
   -3.0856   -2.8581   -0.9825 H   0  0  0  0  0  0  0  0  0  0  0  0
   -1.3643   -2.2748    0.1689 C   0  0  0  0  0  0  0  0  0  0  0  0
   -0.4812   -2.9620    0.6526 O   0  0  0  0  0  0  0  0  0  0  0  0
   -1.1389   -0.9847   -0.2609 N   0  0  0  0  0  0  0  0  0  0  0  0
   -1.9476   -0.4556   -0.5712 H   0  0  0  0  0  0  0  0  0  0  0  0
    0.1315   -0.2458   -0.2236 C   0  0  1  0  0  0  0  0  0  0  0  0
    0.7210   -0.7704    0.5348 H   0  0  0  0  0  0  0  0  0  0  0  0
    0.8865   -0.3155   -1.5671 C   0  0  0  0  0  0  0  0  0  0  0  0
    0.4738   -1.1280   -2.1706 H   0  0  0  0  0  0  0  0  0  0  0  0
    0.7485    0.6122   -2.1291 H   0  0  0  0  0  0  0  0  0  0  0  0
    2.3836   -0.5905   -1.4136 C   0  0  0  0  0  0  0  0  0  0  0  0
    3.0346   -0.6591   -2.4835 O   0  5  0  0  0  0  0  0  0  0  0  0
    2.9057   -0.4505   -0.2752 O   0  0  0  0  0  0  0  0  0  0  0  0
    0.0402    1.2003    0.2851 C   0  0  0  0  0  0  0  0  0  0  0  0
   -0.9580    1.8804    0.0513 O   0  0  0  0  0  0  0  0  0  0  0  0
    0.9885    1.6349    1.1884 N   0  0  0  0  0  0  0  0  0  0  0  0
    1.8528    1.0835    1.1770 H   0  0  0  0  0  0  0  0  0  0  0  0
    1.0408    2.9987    1.6887 C   0  0  0  0  0  0  0  0  0  0  0  0
    0.1048    3.2586    2.1931 H   0  0  0  0  0  0  0  0  0  0  0  0
    1.8592    3.1014    2.4073 H   0  0  0  0  0  0  0  0  0  0  0  0
    1.2082    3.7008    0.8659 H   0  0  0  0  0  0  0  0  0  0  0  0
  1  2  1  0  0  0  0
  2  3  1  0  0  0  0
  2  4  1  0  0  0  0
  2  5  1  0  0  0  0
  5  6  2  0  0  0  0
  5  7  1  0  0  0  0
  7  8  1  0  0  0  0
  7  9  1  0  0  0  0
  9 10  1  0  0  0  0
  9 11  1  0  0  0  0
  9 17  1  0  0  0  0
 11 12  1  0  0  0  0
 11 13  1  0  0  0  0
 11 14  1  0  0  0  0
 14 15  1  0  0  0  0
 14 16  2  0  0  0  0
 17 18  2  0  0  0  0
 17 19  1  0  0  0  0
 19 20  1  0  0  0  0
 19 21  1  0  0  0  0
 21 22  1  0  0  0  0
 21 23  1  0  0  0  0
 21 24  1  0  0  0  0
M  CHG  1  15  -1
M  END
$$$$

  -OEChem-03222214023D

 24 23  0     1  0  0  0  0  0999 V2000
   -2.8036   -3.8523    0.4520 H   0  0  0  0  0  0  0  0  0  0  0  0
   -2.7657   -2.8337    0.0559 C   0  0  0  0  0  0  0  0  0  0  0  0
   -3.4688   -2.2117    0.6152 H   0  0  0  0  0  0  0  0  0  0  0  0
   -3.0627   -2.8538   -0.9955 H   0  0  0  0  0  0  0  0  0  0  0  0
   -1.3607   -2.2722    0.1856 C   0  0  0  0  0  0  0  0  0  0  0  0
   -0.4941   -2.9591    0.6980 O   0  0  0  0  0  0  0  0  0  0  0  0
   -1.1194   -0.9868   -0.2494 N   0  0  0  0  0  0  0  0  0  0  0  0
   -1.9189   -0.4568   -0.5814 H   0  0  0  0  0  0  0  0  0  0  0  0
    0.1564   -0.2565   -0.2081 C   0  0  1  0  0  0  0  0  0  0  0  0
    0.7510   -0.7794    0.5470 H   0  0  0  0  0  0  0  0  0  0  0  0
    0.8867   -0.3213   -1.5681 C   0  0  0  0  0  0  0  0  0  0  0  0
    0.4512   -1.1205   -2.1731 H   0  0  0  0  0  0  0  0  0  0  0  0
    0.7394    0.6151   -2.1136 H   0  0  0  0  0  0  0  0  0  0  0  0
    2.3867   -0.6129   -1.4752 C   0  0  0  0  0  0  0  0  0  0  0  0
    3.0361   -0.3835   -2.5238 O   0  5  0  0  0  0  0  0  0  0  0  0
    2.9129   -0.7889   -0.3468 O   0  0  0  0  0  0  0  0  0  0  0  0
    0.0536    1.1915    0.2940 C   0  0  0  0  0  0  0  0  0  0  0  0
   -0.9380    1.8707    0.0325 O   0  0  0  0  0  0  0  0  0  0  0  0
    0.9857    1.6436    1.2066 N   0  0  0  0  0  0  0  0  0  0  0  0
    1.8394    1.0831    1.2557 H   0  0  0  0  0  0  0  0  0  0  0  0
    1.0195    3.0122    1.6966 C   0  0  0  0  0  0  0  0  0  0  0  0
    0.0718    3.2708    2.1795 H   0  0  0  0  0  0  0  0  0  0  0  0
    1.8226    3.1269    2.4306 H   0  0  0  0  0  0  0  0  0  0  0  0
    1.1991    3.7085    0.8712 H   0  0  0  0  0  0  0  0  0  0  0  0
  1  2  1  0  0  0  0
  2  3  1  0  0  0  0
  2  4  1  0  0  0  0
  2  5  1  0  0  0  0
  5  6  2  0  0  0  0
  5  7  1  0  0  0  0
  7  8  1  0  0  0  0
  7  9  1  0  0  0  0
  9 10  1  0  0  0  0
  9 11  1  0  0  0  0
  9 17  1  0  0  0  0
 11 12  1  0  0  0  0
 11 13  1  0  0  0  0
 11 14  1  0  0  0  0
 14 15  1  0  0  0  0
 14 16  2  0  0  0  0
 17 18  2  0  0  0  0
 17 19  1  0  0  0  0
 19 20  1  0  0  0  0
 19 21  1  0  0  0  0
 21 22  1  0  0  0  0
 21 23  1  0  0  0  0
 21 24  1  0  0  0  0
M  CHG  1  15  -1
M  END
$$$$

  -OEChem-03222214023D

 24 23  0     1  0  0  0  0  0999 V2000
   -2.7961   -3.8467    0.4261 H   0  0  0  0  0  0  0  0  0  0  0  0
   -2.7476   -2.8275    0.0326 C   0  0  0  0  0  0  0  0  0  0  0  0
   -3.4824   -2.2117    0.5569 H   0  0  0  0  0  0  0  0  0  0  0  0
   -2.9925   -2.8501   -1.0322 H   0  0  0  0  0  0  0  0  0  0  0  0
   -1.3554   -2.2544    0.2307 C   0  0  0  0  0  0  0  0  0  0  0  0
   -0.5231   -2.9157    0.8265 O   0  0  0  0  0  0  0  0  0  0  0  0
   -1.0967   -0.9780   -0.2195 N   0  0  0  0  0  0  0  0  0  0  0  0
   -1.8755   -0.4648   -0.6196 H   0  0  0  0  0  0  0  0  0  0  0  0
    0.1891   -0.2655   -0.1862 C   0  0  1  0  0  0  0  0  0  0  0  0
    0.8078   -0.7839    0.5525 H   0  0  0  0  0  0  0  0  0  0  0  0
    0.8706   -0.3202   -1.5735 C   0  0  0  0  0  0  0  0  0  0  0  0
    0.4009   -1.0990   -2.1793 H   0  0  0  0  0  0  0  0  0  0  0  0
    0.7198    0.6287   -2.0969 H   0  0  0  0  0  0  0  0  0  0  0  0
    2.3665   -0.6419   -1.5404 C   0  0  0  0  0  0  0  0  0  0  0  0
    3.0392   -0.1447   -2.4755 O   0  5  0  0  0  0  0  0  0  0  0  0
    2.8662   -1.2002   -0.5340 O   0  0  0  0  0  0  0  0  0  0  0  0
    0.0739    1.1878    0.3041 C   0  0  0  0  0  0  0  0  0  0  0  0
   -0.9106    1.8658    0.0141 O   0  0  0  0  0  0  0  0  0  0  0  0
    0.9917    1.6628    1.2206 N   0  0  0  0  0  0  0  0  0  0  0  0
    1.8333    1.0969    1.3303 H   0  0  0  0  0  0  0  0  0  0  0  0
    0.9969    3.0315    1.7122 C   0  0  0  0  0  0  0  0  0  0  0  0
    0.0458    3.2677    2.2000 H   0  0  0  0  0  0  0  0  0  0  0  0
    1.8006    3.1632    2.4426 H   0  0  0  0  0  0  0  0  0  0  0  0
    1.1573    3.7327    0.8871 H   0  0  0  0  0  0  0  0  0  0  0  0
  1  2  1  0  0  0  0
  2  3  1  0  0  0  0
  2  4  1  0  0  0  0
  2  5  1  0  0  0  0
  5  6  2  0  0  0  0
  5  7  1  0  0  0  0
  7  8  1  0  0  0  0
  7  9  1  0  0  0  0
  9 10  1  0  0  0  0
  9 11  1  0  0  0  0
  9 17  1  0  0  0  0
 11 12  1  0  0  0  0
 11 13  1  0  0  0  0
 11 14  1  0  0  0  0
 14 15  1  0  0  0  0
 14 16  2  0  0  0  0
 17 18  2  0  0  0  0
 17 19  1  0  0  0  0
 19 20  1  0  0  0  0
 19 21  1  0  0  0  0
 21 22  1  0  0  0  0
 21 23  1  0  0  0  0
 21 24  1  0  0  0  0
M  CHG  1  15  -1
M  END
$$$$

  -OEChem-03222214023D

 24 23  0     1  0  0  0  0  0999 V2000
   -2.7768   -3.8588    0.3959 H   0  0  0  0  0  0  0  0  0  0  0  0
   -2.7282   -2.8381    0.0063 C   0  0  0  0  0  0  0  0  0  0  0  0
   -3.4942   -2.2351    0.4997 H   0  0  0  0  0  0  0  0  0  0  0  0
   -2.9279   -2.8626   -1.0678 H   0  0  0  0  0  0  0  0  0  0  0  0
   -1.3547   -2.2431    0.2631 C   0  0  0  0  0  0  0  0  0  0  0  0
   -0.5504   -2.8742    0.9262 O   0  0  0  0  0  0  0  0  0  0  0  0
   -1.0911   -0.9699   -0.1926 N   0  0  0  0  0  0  0  0  0  0  0  0
   -1.8524   -0.4782   -0.6486 H   0  0  0  0  0  0  0  0  0  0  0  0
    0.2015   -0.2698   -0.1705 C   0  0  1  0  0  0  0  0  0  0  0  0
    0.8450   -0.7922    0.5453 H   0  0  0  0  0  0  0  0  0  0  0  0
    0.8470   -0.3048   -1.5745 C   0  0  0  0  0  0  0  0  0  0  0  0
    0.3599   -1.0678   -2.1867 H   0  0  0  0  0  0  0  0  0  0  0  0
    0.6992    0.6547   -2.0791 H   0  0  0  0  0  0  0  0  0  0  0  0
    2.3360   -0.6462   -1.5545 C   0  0  0  0  0  0  0  0  0  0  0  0
    3.0687    0.0662   -2.2825 O   0  5  0  0  0  0  0  0  0  0  0  0
    2.7614   -1.5200   -0.7630 O   0  0  0  0  0  0  0  0  0  0  0  0
    0.0832    1.1844    0.3218 C   0  0  0  0  0  0  0  0  0  0  0  0
   -0.8995    1.8624    0.0258 O   0  0  0  0  0  0  0  0  0  0  0  0
    0.9994    1.6689    1.2355 N   0  0  0  0  0  0  0  0  0  0  0  0
    1.8412    1.1078    1.3557 H   0  0  0  0  0  0  0  0  0  0  0  0
    1.0008    3.0439    1.7099 C   0  0  0  0  0  0  0  0  0  0  0  0
    0.0536    3.2796    2.2054 H   0  0  0  0  0  0  0  0  0  0  0  0
    1.8120    3.1911    2.4289 H   0  0  0  0  0  0  0  0  0  0  0  0
    1.1464    3.7353    0.8738 H   0  0  0  0  0  0  0  0  0  0  0  0
  1  2  1  0  0  0  0
  2  3  1  0  0  0  0
  2  4  1  0  0  0  0
  2  5  1  0  0  0  0
  5  6  2  0  0  0  0
  5  7  1  0  0  0  0
  7  8  1  0  0  0  0
  7  9  1  0  0  0  0
  9 10  1  0  0  0  0
  9 11  1  0  0  0  0
  9 17  1  0  0  0  0
 11 12  1  0  0  0  0
 11 13  1  0  0  0  0
 11 14  1  0  0  0  0
 14 15  1  0  0  0  0
 14 16  2  0  0  0  0
 17 18  2  0  0  0  0
 17 19  1  0  0  0  0
 19 20  1  0  0  0  0
 19 21  1  0  0  0  0
 21 22  1  0  0  0  0
 21 23  1  0  0  0  0
 21 24  1  0  0  0  0
M  CHG  1  15  -1
M  END
$$$$

  -OEChem-03222214023D

 24 23  0     1  0  0  0  0  0999 V2000
   -2.7539   -3.8739    0.3790 H   0  0  0  0  0  0  0  0  0  0  0  0
   -2.7134   -2.8519   -0.0082 C   0  0  0  0  0  0  0  0  0  0  0  0
   -3.4978   -2.2607    0.4708 H   0  0  0  0  0  0  0  0  0  0  0  0
   -2.8917   -2.8779   -1.0861 H   0  0  0  0  0  0  0  0  0  0  0  0
   -1.3543   -2.2368    0.2761 C   0  0  0  0  0  0  0  0  0  0  0  0
   -0.5618   -2.8458    0.9738 O   0  0  0  0  0  0  0  0  0  0  0  0
   -1.0959   -0.9630   -0.1811 N   0  0  0  0  0  0  0  0  0  0  0  0
   -1.8487   -0.4872   -0.6667 H   0  0  0  0  0  0  0  0  0  0  0  0
    0.1999   -0.2693   -0.1685 C   0  0  1  0  0  0  0  0  0  0  0  0
    0.8592   -0.7988    0.5289 H   0  0  0  0  0  0  0  0  0  0  0  0
    0.8271   -0.2892   -1.5785 C   0  0  0  0  0  0  0  0  0  0  0  0
    0.3362   -1.0450   -2.1969 H   0  0  0  0  0  0  0  0  0  0  0  0
    0.6884    0.6759   -2.0755 H   0  0  0  0  0  0  0  0  0  0  0  0
    2.3095   -0.6416   -1.5358 C   0  0  0  0  0  0  0  0  0  0  0  0
    3.0989    0.2191   -1.9940 O   0  5  0  0  0  0  0  0  0  0  0  0
    2.6631   -1.7209   -1.0076 O   0  0  0  0  0  0  0  0  0  0  0  0
    0.0858    1.1846    0.3296 C   0  0  0  0  0  0  0  0  0  0  0  0
   -0.8981    1.8641    0.0401 O   0  0  0  0  0  0  0  0  0  0  0  0
    1.0071    1.6696    1.2384 N   0  0  0  0  0  0  0  0  0  0  0  0
    1.8574    1.1183    1.3385 H   0  0  0  0  0  0  0  0  0  0  0  0
    1.0126    3.0474    1.7049 C   0  0  0  0  0  0  0  0  0  0  0  0
    0.0695    3.2865    2.2067 H   0  0  0  0  0  0  0  0  0  0  0  0
    1.8296    3.1984    2.4165 H   0  0  0  0  0  0  0  0  0  0  0  0
    1.1518    3.7341    0.8638 H   0  0  0  0  0  0  0  0  0  0  0  0
  1  2  1  0  0  0  0
  2  3  1  0  0  0  0
  2  4  1  0  0  0  0
  2  5  1  0  0  0  0
  5  6  2  0  0  0  0
  5  7  1  0  0  0  0
  7  8  1  0  0  0  0
  7  9  1  0  0  0  0
  9 10  1  0  0  0  0
  9 11  1  0  0  0  0
  9 17  1  0  0  0  0
 11 12  1  0  0  0  0
 11 13  1  0  0  0  0
 11 14  1  0  0  0  0
 14 15  1  0  0  0  0
 14 16  2  0  0  0  0
 17 18  2  0  0  0  0
 17 19  1  0  0  0  0
 19 20  1  0  0  0  0
 19 21  1  0  0  0  0
 21 22  1  0  0  0  0
 21 23  1  0  0  0  0
 21 24  1  0  0  0  0
M  CHG  1  15  -1
M  END
$$$$

  -OEChem-03222214023D

 24 23  0     1  0  0  0  0  0999 V2000
   -2.7542   -3.8722    0.3883 H   0  0  0  0  0  0  0  0  0  0  0  0
   -2.7157   -2.8505    0.0001 C   0  0  0  0  0  0  0  0  0  0  0  0
   -3.4911   -2.2559    0.4893 H   0  0  0  0  0  0  0  0  0  0  0  0
   -2.9086   -2.8763   -1.0751 H   0  0  0  0  0  0  0  0  0  0  0  0
   -1.3511   -2.2396    0.2657 C   0  0  0  0  0  0  0  0  0  0  0  0
   -0.5495   -2.8508    0.9513 O   0  0  0  0  0  0  0  0  0  0  0  0
   -1.0965   -0.9642   -0.1887 N   0  0  0  0  0  0  0  0  0  0  0  0
   -1.8546   -0.4822   -0.6602 H   0  0  0  0  0  0  0  0  0  0  0  0
    0.1993   -0.2719   -0.1788 C   0  0  1  0  0  0  0  0  0  0  0  0
    0.8629   -0.8055    0.5119 H   0  0  0  0  0  0  0  0  0  0  0  0
    0.8282   -0.2788   -1.5849 C   0  0  0  0  0  0  0  0  0  0  0  0
    0.3427   -1.0305   -2.2127 H   0  0  0  0  0  0  0  0  0  0  0  0
    0.7011    0.6893   -2.0785 H   0  0  0  0  0  0  0  0  0  0  0  0
    2.3057   -0.6339   -1.5037 C   0  0  0  0  0  0  0  0  0  0  0  0
    3.1151    0.3130   -1.6556 O   0  5  0  0  0  0  0  0  0  0  0  0
    2.6304   -1.8222   -1.2787 O   0  0  0  0  0  0  0  0  0  0  0  0
    0.0858    1.1804    0.3256 C   0  0  0  0  0  0  0  0  0  0  0  0
   -0.9087    1.8526    0.0545 O   0  0  0  0  0  0  0  0  0  0  0  0
    1.0100    1.6630    1.2325 N   0  0  0  0  0  0  0  0  0  0  0  0
    1.8811    1.1374    1.2830 H   0  0  0  0  0  0  0  0  0  0  0  0
    1.0099    3.0404    1.7009 C   0  0  0  0  0  0  0  0  0  0  0  0
    0.0629    3.2780    2.1961 H   0  0  0  0  0  0  0  0  0  0  0  0
    1.8212    3.1913    2.4191 H   0  0  0  0  0  0  0  0  0  0  0  0
    1.1550    3.7287    0.8620 H   0  0  0  0  0  0  0  0  0  0  0  0
  1  2  1  0  0  0  0
  2  3  1  0  0  0  0
  2  4  1  0  0  0  0
  2  5  1  0  0  0  0
  5  6  2  0  0  0  0
  5  7  1  0  0  0  0
  7  8  1  0  0  0  0
  7  9  1  0  0  0  0
  9 10  1  0  0  0  0
  9 11  1  0  0  0  0
  9 17  1  0  0  0  0
 11 12  1  0  0  0  0
 11 13  1  0  0  0  0
 11 14  1  0  0  0  0
 14 15  1  0  0  0  0
 14 16  2  0  0  0  0
 17 18  2  0  0  0  0
 17 19  1  0  0  0  0
 19 20  1  0  0  0  0
 19 21  1  0  0  0  0
 21 22  1  0  0  0  0
 21 23  1  0  0  0  0
 21 24  1  0  0  0  0
M  CHG  1  15  -1
M  END
$$$$

  -OEChem-03222214023D

 24 23  0     1  0  0  0  0  0999 V2000
   -2.7645   -3.8667    0.4051 H   0  0  0  0  0  0  0  0  0  0  0  0
   -2.7272   -2.8465    0.0131 C   0  0  0  0  0  0  0  0  0  0  0  0
   -3.4892   -2.2463    0.5160 H   0  0  0  0  0  0  0  0  0  0  0  0
   -2.9417   -2.8744   -1.0581 H   0  0  0  0  0  0  0  0  0  0  0  0
   -1.3535   -2.2436    0.2492 C   0  0  0  0  0  0  0  0  0  0  0  0
   -0.5331   -2.8689    0.8994 O   0  0  0  0  0  0  0  0  0  0  0  0
   -1.1030   -0.9663   -0.2024 N   0  0  0  0  0  0  0  0  0  0  0  0
   -1.8735   -0.4685   -0.6361 H   0  0  0  0  0  0  0  0  0  0  0  0
    0.1912   -0.2715   -0.1952 C   0  0  1  0  0  0  0  0  0  0  0  0
    0.8497   -0.8043    0.5014 H   0  0  0  0  0  0  0  0  0  0  0  0
    0.8387   -0.2748   -1.5901 C   0  0  0  0  0  0  0  0  0  0  0  0
    0.3659   -1.0283   -2.2257 H   0  0  0  0  0  0  0  0  0  0  0  0
    0.7247    0.6930   -2.0870 H   0  0  0  0  0  0  0  0  0  0  0  0
    2.3120   -0.6254   -1.4564 C   0  0  0  0  0  0  0  0  0  0  0  0
    3.0948    0.3425   -1.2908 O   0  5  0  0  0  0  0  0  0  0  0  0
    2.6628   -1.8243   -1.5467 O   0  0  0  0  0  0  0  0  0  0  0  0
    0.0836    1.1801    0.3124 C   0  0  0  0  0  0  0  0  0  0  0  0
   -0.9244    1.8435    0.0695 O   0  0  0  0  0  0  0  0  0  0  0  0
    1.0162    1.6547    1.2144 N   0  0  0  0  0  0  0  0  0  0  0  0
    1.9088    1.1613    1.1935 H   0  0  0  0  0  0  0  0  0  0  0  0
    1.0098    3.0268    1.6971 C   0  0  0  0  0  0  0  0  0  0  0  0
    0.0698    3.2485    2.2122 H   0  0  0  0  0  0  0  0  0  0  0  0
    1.8326    3.1787    2.4018 H   0  0  0  0  0  0  0  0  0  0  0  0
    1.1317    3.7252    0.8631 H   0  0  0  0  0  0  0  0  0  0  0  0
  1  2  1  0  0  0  0
  2  3  1  0  0  0  0
  2  4  1  0  0  0  0
  2  5  1  0  0  0  0
  5  6  2  0  0  0  0
  5  7  1  0  0  0  0
  7  8  1  0  0  0  0
  7  9  1  0  0  0  0
  9 10  1  0  0  0  0
  9 11  1  0  0  0  0
  9 17  1  0  0  0  0
 11 12  1  0  0  0  0
 11 13  1  0  0  0  0
 11 14  1  0  0  0  0
 14 15  1  0  0  0  0
 14 16  2  0  0  0  0
 17 18  2  0  0  0  0
 17 19  1  0  0  0  0
 19 20  1  0  0  0  0
 19 21  1  0  0  0  0
 21 22  1  0  0  0  0
 21 23  1  0  0  0  0
 21 24  1  0  0  0  0
M  CHG  1  15  -1
M  END
$$$$

  -OEChem-03222214023D

 24 23  0     1  0  0  0  0  0999 V2000
   -2.7819   -3.8541    0.4414 H   0  0  0  0  0  0  0  0  0  0  0  0
   -2.7476   -2.8351    0.0458 C   0  0  0  0  0  0  0  0  0  0  0  0
   -3.4750   -2.2227    0.5842 H   0  0  0  0  0  0  0  0  0  0  0  0
   -3.0143   -2.8605   -1.0136 H   0  0  0  0  0  0  0  0  0  0  0  0
   -1.3546   -2.2540    0.2140 C   0  0  0  0  0  0  0  0  0  0  0  0
   -0.5044   -2.9069    0.7950 O   0  0  0  0  0  0  0  0  0  0  0  0
   -1.1104   -0.9730   -0.2312 N   0  0  0  0  0  0  0  0  0  0  0  0
   -1.8988   -0.4513   -0.6005 H   0  0  0  0  0  0  0  0  0  0  0  0
    0.1799   -0.2706   -0.2214 C   0  0  1  0  0  0  0  0  0  0  0  0
    0.8265   -0.8009    0.4881 H   0  0  0  0  0  0  0  0  0  0  0  0
    0.8608   -0.2745   -1.5990 C   0  0  0  0  0  0  0  0  0  0  0  0
    0.4099   -1.0346   -2.2427 H   0  0  0  0  0  0  0  0  0  0  0  0
    0.7579    0.6916   -2.1012 H   0  0  0  0  0  0  0  0  0  0  0  0
    2.3315   -0.6111   -1.4091 C   0  0  0  0  0  0  0  0  0  0  0  0
    3.0430    0.3124   -0.9370 O   0  5  0  0  0  0  0  0  0  0  0  0
    2.7593   -1.7251   -1.7907 O   0  0  0  0  0  0  0  0  0  0  0  0
    0.0766    1.1789    0.2910 C   0  0  0  0  0  0  0  0  0  0  0  0
   -0.9439    1.8334    0.0768 O   0  0  0  0  0  0  0  0  0  0  0  0
    1.0169    1.6415    1.1901 N   0  0  0  0  0  0  0  0  0  0  0  0
    1.9239    1.1770    1.1003 H   0  0  0  0  0  0  0  0  0  0  0  0
    1.0067    3.0059    1.6937 C   0  0  0  0  0  0  0  0  0  0  0  0
    0.0646    3.2187    2.2089 H   0  0  0  0  0  0  0  0  0  0  0  0
    1.8266    3.1479    2.4039 H   0  0  0  0  0  0  0  0  0  0  0  0
    1.1305    3.7171    0.8708 H   0  0  0  0  0  0  0  0  0  0  0  0
  1  2  1  0  0  0  0
  2  3  1  0  0  0  0
  2  4  1  0  0  0  0
  2  5  1  0  0  0  0
  5  6  2  0  0  0  0
  5  7  1  0  0  0  0
  7  8  1  0  0  0  0
  7  9  1  0  0  0  0
  9 10  1  0  0  0  0
  9 11  1  0  0  0  0
  9 17  1  0  0  0  0
 11 12  1  0  0  0  0
 11 13  1  0  0  0  0
 11 14  1  0  0  0  0
 14 15  1  0  0  0  0
 14 16  2  0  0  0  0
 17 18  2  0  0  0  0
 17 19  1  0  0  0  0
 19 20  1  0  0  0  0
 19 21  1  0  0  0  0
 21 22  1  0  0  0  0
 21 23  1  0  0  0  0
 21 24  1  0  0  0  0
M  CHG  1  15  -1
M  END
$$$$

  -OEChem-03222214023D

 24 23  0     1  0  0  0  0  0999 V2000
   -2.7871   -3.8517    0.4493 H   0  0  0  0  0  0  0  0  0  0  0  0
   -2.7556   -2.8309    0.0582 C   0  0  0  0  0  0  0  0  0  0  0  0
   -3.4670   -2.2173    0.6161 H   0  0  0  0  0  0  0  0  0  0  0  0
   -3.0466   -2.8490   -0.9950 H   0  0  0  0  0  0  0  0  0  0  0  0
   -1.3558   -2.2585    0.1968 C   0  0  0  0  0  0  0  0  0  0  0  0
   -0.4905   -2.9269    0.7366 O   0  0  0  0  0  0  0  0  0  0  0  0
   -1.1168   -0.9751   -0.2436 N   0  0  0  0  0  0  0  0  0  0  0  0
   -1.9146   -0.4429   -0.5762 H   0  0  0  0  0  0  0  0  0  0  0  0
    0.1692   -0.2649   -0.2306 C   0  0  1  0  0  0  0  0  0  0  0  0
    0.8068   -0.7927    0.4889 H   0  0  0  0  0  0  0  0  0  0  0  0
    0.8716   -0.2817   -1.5983 C   0  0  0  0  0  0  0  0  0  0  0  0
    0.4316   -1.0522   -2.2374 H   0  0  0  0  0  0  0  0  0  0  0  0
    0.7683    0.6788   -2.1106 H   0  0  0  0  0  0  0  0  0  0  0  0
    2.3455   -0.6040   -1.3940 C   0  0  0  0  0  0  0  0  0  0  0  0
    2.9869    0.2026   -0.6690 O   0  5  0  0  0  0  0  0  0  0  0  0
    2.8503   -1.5643   -2.0217 O   0  0  0  0  0  0  0  0  0  0  0  0
    0.0664    1.1831    0.2839 C   0  0  0  0  0  0  0  0  0  0  0  0
   -0.9572    1.8362    0.0796 O   0  0  0  0  0  0  0  0  0  0  0  0
    1.0110    1.6369    1.1819 N   0  0  0  0  0  0  0  0  0  0  0  0
    1.9178    1.1712    1.0701 H   0  0  0  0  0  0  0  0  0  0  0  0
    1.0104    2.9988    1.6913 C   0  0  0  0  0  0  0  0  0  0  0  0
    0.0786    3.2085    2.2260 H   0  0  0  0  0  0  0  0  0  0  0  0
    1.8446    3.1378    2.3854 H   0  0  0  0  0  0  0  0  0  0  0  0
    1.1171    3.7140    0.8694 H   0  0  0  0  0  0  0  0  0  0  0  0
  1  2  1  0  0  0  0
  2  3  1  0  0  0  0
  2  4  1  0  0  0  0
  2  5  1  0  0  0  0
  5  6  2  0  0  0  0
  5  7  1  0  0  0  0
  7  8  1  0  0  0  0
  7  9  1  0  0  0  0
  9 10  1  0  0  0  0
  9 11  1  0  0  0  0
  9 17  1  0  0  0  0
 11 12  1  0  0  0  0
 11 13  1  0  0  0  0
 11 14  1  0  0  0  0
 14 15  1  0  0  0  0
 14 16  2  0  0  0  0
 17 18  2  0  0  0  0
 17 19  1  0  0  0  0
 19 20  1  0  0  0  0
 19 21  1  0  0  0  0
 21 22  1  0  0  0  0
 21 23  1  0  0  0  0
 21 24  1  0  0  0  0
M  CHG  1  15  -1
M  END
$$$$

  -OEChem-03222214023D

 24 23  0     1  0  0  0  0  0999 V2000
   -2.7837   -3.8551    0.4566 H   0  0  0  0  0  0  0  0  0  0  0  0
   -2.7563   -2.8337    0.0665 C   0  0  0  0  0  0  0  0  0  0  0  0
   -3.4585   -2.2197    0.6358 H   0  0  0  0  0  0  0  0  0  0  0  0
   -3.0627   -2.8495   -0.9823 H   0  0  0  0  0  0  0  0  0  0  0  0
   -1.3538   -2.2635    0.1852 C   0  0  0  0  0  0  0  0  0  0  0  0
   -0.4779   -2.9403    0.6964 O   0  0  0  0  0  0  0  0  0  0  0  0
   -1.1227   -0.9769   -0.2505 N   0  0  0  0  0  0  0  0  0  0  0  0
   -1.9268   -0.4441   -0.5667 H   0  0  0  0  0  0  0  0  0  0  0  0
    0.1573   -0.2558   -0.2315 C   0  0  1  0  0  0  0  0  0  0  0  0
    0.7843   -0.7832    0.4972 H   0  0  0  0  0  0  0  0  0  0  0  0
    0.8750   -0.2881   -1.5929 C   0  0  0  0  0  0  0  0  0  0  0  0
    0.4425   -1.0718   -2.2208 H   0  0  0  0  0  0  0  0  0  0  0  0
    0.7611    0.6642   -2.1175 H   0  0  0  0  0  0  0  0  0  0  0  0
    2.3573   -0.5926   -1.4022 C   0  0  0  0  0  0  0  0  0  0  0  0
    2.9477    0.0345   -0.4807 O   0  5  0  0  0  0  0  0  0  0  0  0
    2.9188   -1.3518   -2.2270 O   0  0  0  0  0  0  0  0  0  0  0  0
    0.0545    1.1903    0.2839 C   0  0  0  0  0  0  0  0  0  0  0  0
   -0.9632    1.8498    0.0723 O   0  0  0  0  0  0  0  0  0  0  0  0
    1.0009    1.6377    1.1825 N   0  0  0  0  0  0  0  0  0  0  0  0
    1.8981    1.1472    1.0901 H   0  0  0  0  0  0  0  0  0  0  0  0
    1.0179    3.0000    1.6896 C   0  0  0  0  0  0  0  0  0  0  0  0
    0.0811    3.2288    2.2075 H   0  0  0  0  0  0  0  0  0  0  0  0
    1.8422    3.1237    2.3982 H   0  0  0  0  0  0  0  0  0  0  0  0
    1.1532    3.7112    0.8685 H   0  0  0  0  0  0  0  0  0  0  0  0
  1  2  1  0  0  0  0
  2  3  1  0  0  0  0
  2  4  1  0  0  0  0
  2  5  1  0  0  0  0
  5  6  2  0  0  0  0
  5  7  1  0  0  0  0
  7  8  1  0  0  0  0
  7  9  1  0  0  0  0
  9 10  1  0  0  0  0
  9 11  1  0  0  0  0
  9 17  1  0  0  0  0
 11 12  1  0  0  0  0
 11 13  1  0  0  0  0
 11 14  1  0  0  0  0
 14 15  1  0  0  0  0
 14 16  2  0  0  0  0
 17 18  2  0  0  0  0
 17 19  1  0  0  0  0
 19 20  1  0  0  0  0
 19 21  1  0  0  0  0
 21 22  1  0  0  0  0
 21 23  1  0  0  0  0
 21 24  1  0  0  0  0
M  CHG  1  15  -1
M  END
$$$$

  -OEChem-03222214023D

 24 23  0     1  0  0  0  0  0999 V2000
   -2.7741   -3.8696    0.4526 H   0  0  0  0  0  0  0  0  0  0  0  0
   -2.7540   -2.8475    0.0637 C   0  0  0  0  0  0  0  0  0  0  0  0
   -3.4572   -2.2382    0.6369 H   0  0  0  0  0  0  0  0  0  0  0  0
   -3.0647   -2.8634   -0.9838 H   0  0  0  0  0  0  0  0  0  0  0  0
   -1.3545   -2.2694    0.1779 C   0  0  0  0  0  0  0  0  0  0  0  0
   -0.4713   -2.9466    0.6757 O   0  0  0  0  0  0  0  0  0  0  0  0
   -1.1342   -0.9788   -0.2525 N   0  0  0  0  0  0  0  0  0  0  0  0
   -1.9433   -0.4542   -0.5695 H   0  0  0  0  0  0  0  0  0  0  0  0
    0.1375   -0.2423   -0.2277 C   0  0  1  0  0  0  0  0  0  0  0  0
    0.7492   -0.7688    0.5132 H   0  0  0  0  0  0  0  0  0  0  0  0
    0.8731   -0.2917   -1.5808 C   0  0  0  0  0  0  0  0  0  0  0  0
    0.4526   -1.0921   -2.1958 H   0  0  0  0  0  0  0  0  0  0  0  0
    0.7437    0.6496   -2.1212 H   0  0  0  0  0  0  0  0  0  0  0  0
    2.3649   -0.5725   -1.4081 C   0  0  0  0  0  0  0  0  0  0  0  0
    2.9186   -0.1672   -0.3495 O   0  5  0  0  0  0  0  0  0  0  0  0
    2.9674   -1.1021   -2.3720 O   0  0  0  0  0  0  0  0  0  0  0  0
    0.0414    1.2024    0.2874 C   0  0  0  0  0  0  0  0  0  0  0  0
   -0.9650    1.8748    0.0655 O   0  0  0  0  0  0  0  0  0  0  0  0
    0.9937    1.6414    1.1839 N   0  0  0  0  0  0  0  0  0  0  0  0
    1.8744    1.1171    1.1246 H   0  0  0  0  0  0  0  0  0  0  0  0
    1.0367    3.0053    1.6848 C   0  0  0  0  0  0  0  0  0  0  0  0
    0.1016    3.2561    2.1955 H   0  0  0  0  0  0  0  0  0  0  0  0
    1.8589    3.1146    2.3981 H   0  0  0  0  0  0  0  0  0  0  0  0
    1.1922    3.7099    0.8616 H   0  0  0  0  0  0  0  0  0  0  0  0
  1  2  1  0  0  0  0
  2  3  1  0  0  0  0
  2  4  1  0  0  0  0
  2  5  1  0  0  0  0
  5  6  2  0  0  0  0
  5  7  1  0  0  0  0
  7  8  1  0  0  0  0
  7  9  1  0  0  0  0
  9 10  1  0  0  0  0
  9 11  1  0  0  0  0
  9 17  1  0  0  0  0
 11 12  1  0  0  0  0
 11 13  1  0  0  0  0
 11 14  1  0  0  0  0
 14 15  1  0  0  0  0
 14 16  2  0  0  0  0
 17 18  2  0  0  0  0
 17 19  1  0  0  0  0
 19 20  1  0  0  0  0
 19 21  1  0  0  0  0
 21 22  1  0  0  0  0
 21 23  1  0  0  0  0
 21 24  1  0  0  0  0
M  CHG  1  15  -1
M  END
$$$$

  -OEChem-03222214023D

 24 23  0     1  0  0  0  0  0999 V2000
   -2.7700   -3.8771    0.4413 H   0  0  0  0  0  0  0  0  0  0  0  0
   -2.7504   -2.8543    0.0545 C   0  0  0  0  0  0  0  0  0  0  0  0
   -3.4627   -2.2494    0.6206 H   0  0  0  0  0  0  0  0  0  0  0  0
   -3.0495   -2.8698   -0.9964 H   0  0  0  0  0  0  0  0  0  0  0  0
   -1.3548   -2.2699    0.1859 C   0  0  0  0  0  0  0  0  0  0  0  0
   -0.4761   -2.9426    0.6970 O   0  0  0  0  0  0  0  0  0  0  0  0
   -1.1354   -0.9794   -0.2457 N   0  0  0  0  0  0  0  0  0  0  0  0
   -1.9423   -0.4647   -0.5831 H   0  0  0  0  0  0  0  0  0  0  0  0
    0.1326   -0.2353   -0.2171 C   0  0  1  0  0  0  0  0  0  0  0  0
    0.7337   -0.7584    0.5334 H   0  0  0  0  0  0  0  0  0  0  0  0
    0.8717   -0.2977   -1.5703 C   0  0  0  0  0  0  0  0  0  0  0  0
    0.4526   -1.1087   -2.1718 H   0  0  0  0  0  0  0  0  0  0  0  0
    0.7270    0.6351   -2.1219 H   0  0  0  0  0  0  0  0  0  0  0  0
    2.3708   -0.5684   -1.4318 C   0  0  0  0  0  0  0  0  0  0  0  0
    2.9125   -0.4257   -0.3031 O   0  5  0  0  0  0  0  0  0  0  0  0
    2.9891   -0.8415   -2.4884 O   0  0  0  0  0  0  0  0  0  0  0  0
    0.0390    1.2107    0.2916 C   0  0  0  0  0  0  0  0  0  0  0  0
   -0.9563    1.8928    0.0522 O   0  0  0  0  0  0  0  0  0  0  0  0
    0.9908    1.6506    1.1888 N   0  0  0  0  0  0  0  0  0  0  0  0
    1.8544    1.0984    1.1821 H   0  0  0  0  0  0  0  0  0  0  0  0
    1.0411    3.0153    1.6871 C   0  0  0  0  0  0  0  0  0  0  0  0
    0.1053    3.2733    2.1928 H   0  0  0  0  0  0  0  0  0  0  0  0
    1.8607    3.1217    2.4039 H   0  0  0  0  0  0  0  0  0  0  0  0
    1.2049    3.7165    0.8627 H   0  0  0  0  0  0  0  0  0  0  0  0
  1  2  1  0  0  0  0
  2  3  1  0  0  0  0
  2  4  1  0  0  0  0
  2  5  1  0  0  0  0
  5  6  2  0  0  0  0
  5  7  1  0  0  0  0
  7  8  1  0  0  0  0
  7  9  1  0  0  0  0
  9 10  1  0  0  0  0
  9 11  1  0  0  0  0
  9 17  1  0  0  0  0
 11 12  1  0  0  0  0
 11 13  1  0  0  0  0
 11 14  1  0  0  0  0
 14 15  1  0  0  0  0
 14 16  2  0  0  0  0
 17 18  2  0  0  0  0
 17 19  1  0  0  0  0
 19 20  1  0  0  0  0
 19 21  1  0  0  0  0
 21 22  1  0  0  0  0
 21 23  1  0  0  0  0
 21 24  1  0  0  0  0
M  CHG  1  15  -1
M  END
$$$$

  -OEChem-03222214023D

 24 23  0     1  0  0  0  0  0999 V2000
   -2.7717   -3.8684    0.4336 H   0  0  0  0  0  0  0  0  0  0  0  0
   -2.7437   -2.8471    0.0433 C   0  0  0  0  0  0  0  0  0  0  0  0
   -3.4708   -2.2412    0.5892 H   0  0  0  0  0  0  0  0  0  0  0  0
   -3.0162   -2.8677   -1.0147 H   0  0  0  0  0  0  0  0  0  0  0  0
   -1.3521   -2.2611    0.2077 C   0  0  0  0  0  0  0  0  0  0  0  0
   -0.4918   -2.9256    0.7587 O   0  0  0  0  0  0  0  0  0  0  0  0
   -1.1185   -0.9761   -0.2327 N   0  0  0  0  0  0  0  0  0  0  0  0
   -1.9131   -0.4669   -0.6056 H   0  0  0  0  0  0  0  0  0  0  0  0
    0.1549   -0.2411   -0.1987 C   0  0  1  0  0  0  0  0  0  0  0  0
    0.7594   -0.7602    0.5510 H   0  0  0  0  0  0  0  0  0  0  0  0
    0.8722   -0.3045   -1.5662 C   0  0  0  0  0  0  0  0  0  0  0  0
    0.4322   -1.1080   -2.1624 H   0  0  0  0  0  0  0  0  0  0  0  0
    0.7203    0.6315   -2.1108 H   0  0  0  0  0  0  0  0  0  0  0  0
    2.3729   -0.5923   -1.4838 C   0  0  0  0  0  0  0  0  0  0  0  0
    2.9193   -0.7507   -0.3623 O   0  5  0  0  0  0  0  0  0  0  0  0
    2.9865   -0.5943   -2.5779 O   0  0  0  0  0  0  0  0  0  0  0  0
    0.0505    1.2082    0.2994 C   0  0  0  0  0  0  0  0  0  0  0  0
   -0.9354    1.8920    0.0291 O   0  0  0  0  0  0  0  0  0  0  0  0
    0.9862    1.6634    1.2067 N   0  0  0  0  0  0  0  0  0  0  0  0
    1.8343    1.0959    1.2678 H   0  0  0  0  0  0  0  0  0  0  0  0
    1.0198    3.0304    1.7008 C   0  0  0  0  0  0  0  0  0  0  0  0
    0.0766    3.2826    2.1958 H   0  0  0  0  0  0  0  0  0  0  0  0
    1.8311    3.1461    2.4255 H   0  0  0  0  0  0  0  0  0  0  0  0
    1.1866    3.7300    0.8757 H   0  0  0  0  0  0  0  0  0  0  0  0
  1  2  1  0  0  0  0
  2  3  1  0  0  0  0
  2  4  1  0  0  0  0
  2  5  1  0  0  0  0
  5  6  2  0  0  0  0
  5  7  1  0  0  0  0
  7  8  1  0  0  0  0
  7  9  1  0  0  0  0
  9 10  1  0  0  0  0
  9 11  1  0  0  0  0
  9 17  1  0  0  0  0
 11 12  1  0  0  0  0
 11 13  1  0  0  0  0
 11 14  1  0  0  0  0
 14 15  1  0  0  0  0
 14 16  2  0  0  0  0
 17 18  2  0  0  0  0
 17 19  1  0  0  0  0
 19 20  1  0  0  0  0
 19 21  1  0  0  0  0
 21 22  1  0  0  0  0
 21 23  1  0  0  0  0
 21 24  1  0  0  0  0
M  CHG  1  15  -1
M  END
$$$$

  -OEChem-03222214023D

 24 23  0     1  0  0  0  0  0999 V2000
   -2.7766   -3.8581    0.4199 H   0  0  0  0  0  0  0  0  0  0  0  0
   -2.7355   -2.8379    0.0282 C   0  0  0  0  0  0  0  0  0  0  0  0
   -3.4789   -2.2298    0.5493 H   0  0  0  0  0  0  0  0  0  0  0  0
   -2.9748   -2.8611   -1.0379 H   0  0  0  0  0  0  0  0  0  0  0  0
   -1.3498   -2.2518    0.2347 C   0  0  0  0  0  0  0  0  0  0  0  0
   -0.5146   -2.9048    0.8358 O   0  0  0  0  0  0  0  0  0  0  0  0
   -1.1000   -0.9729   -0.2141 N   0  0  0  0  0  0  0  0  0  0  0  0
   -1.8794   -0.4705   -0.6265 H   0  0  0  0  0  0  0  0  0  0  0  0
    0.1812   -0.2519   -0.1811 C   0  0  1  0  0  0  0  0  0  0  0  0
    0.7986   -0.7691    0.5594 H   0  0  0  0  0  0  0  0  0  0  0  0
    0.8679   -0.3083   -1.5661 C   0  0  0  0  0  0  0  0  0  0  0  0
    0.4057   -1.0999   -2.1612 H   0  0  0  0  0  0  0  0  0  0  0  0
    0.7123    0.6350   -2.0975 H   0  0  0  0  0  0  0  0  0  0  0  0
    2.3655   -0.6190   -1.5290 C   0  0  0  0  0  0  0  0  0  0  0  0
    2.8916   -1.0759   -0.4847 O   0  5  0  0  0  0  0  0  0  0  0  0
    2.9964   -0.3499   -2.5794 O   0  0  0  0  0  0  0  0  0  0  0  0
    0.0662    1.2005    0.3100 C   0  0  0  0  0  0  0  0  0  0  0  0
   -0.9151    1.8814    0.0171 O   0  0  0  0  0  0  0  0  0  0  0  0
    0.9873    1.6738    1.2240 N   0  0  0  0  0  0  0  0  0  0  0  0
    1.8256    1.1029    1.3354 H   0  0  0  0  0  0  0  0  0  0  0  0
    0.9996    3.0435    1.7122 C   0  0  0  0  0  0  0  0  0  0  0  0
    0.0515    3.2842    2.2034 H   0  0  0  0  0  0  0  0  0  0  0  0
    1.8071    3.1746    2.4384 H   0  0  0  0  0  0  0  0  0  0  0  0
    1.1584    3.7421    0.8846 H   0  0  0  0  0  0  0  0  0  0  0  0
  1  2  1  0  0  0  0
  2  3  1  0  0  0  0
  2  4  1  0  0  0  0
  2  5  1  0  0  0  0
  5  6  2  0  0  0  0
  5  7  1  0  0  0  0
  7  8  1  0  0  0  0
  7  9  1  0  0  0  0
  9 10  1  0  0  0  0
  9 11  1  0  0  0  0
  9 17  1  0  0  0  0
 11 12  1  0  0  0  0
 11 13  1  0  0  0  0
 11 14  1  0  0  0  0
 14 15  1  0  0  0  0
 14 16  2  0  0  0  0
 17 18  2  0  0  0  0
 17 19  1  0  0  0  0
 19 20  1  0  0  0  0
 19 21  1  0  0  0  0
 21 22  1  0  0  0  0
 21 23  1  0  0  0  0
 21 24  1  0  0  0  0
M  CHG  1  15  -1
M  END
$$$$

  -OEChem-03222214023D

 24 23  0     1  0  0  0  0  0999 V2000
   -2.7742   -3.8562    0.4077 H   0  0  0  0  0  0  0  0  0  0  0  0
   -2.7280   -2.8358    0.0172 C   0  0  0  0  0  0  0  0  0  0  0  0
   -3.4858   -2.2303    0.5203 H   0  0  0  0  0  0  0  0  0  0  0  0
   -2.9415   -2.8599   -1.0541 H   0  0  0  0  0  0  0  0  0  0  0  0
   -1.3498   -2.2442    0.2564 C   0  0  0  0  0  0  0  0  0  0  0  0
   -0.5360   -2.8812    0.9023 O   0  0  0  0  0  0  0  0  0  0  0  0
   -1.0903   -0.9698   -0.1989 N   0  0  0  0  0  0  0  0  0  0  0  0
   -1.8569   -0.4760   -0.6439 H   0  0  0  0  0  0  0  0  0  0  0  0
    0.1981   -0.2618   -0.1717 C   0  0  1  0  0  0  0  0  0  0  0  0
    0.8319   -0.7805    0.5545 H   0  0  0  0  0  0  0  0  0  0  0  0
    0.8586   -0.3045   -1.5700 C   0  0  0  0  0  0  0  0  0  0  0  0
    0.3801   -1.0826   -2.1699 H   0  0  0  0  0  0  0  0  0  0  0  0
    0.7043    0.6473   -2.0870 H   0  0  0  0  0  0  0  0  0  0  0  0
    2.3514   -0.6344   -1.5507 C   0  0  0  0  0  0  0  0  0  0  0  0
    2.8227   -1.3607   -0.6437 O   0  5  0  0  0  0  0  0  0  0  0  0
    3.0345   -0.1074   -2.4616 O   0  0  0  0  0  0  0  0  0  0  0  0
    0.0771    1.1924    0.3174 C   0  0  0  0  0  0  0  0  0  0  0  0
   -0.9028    1.8715    0.0150 O   0  0  0  0  0  0  0  0  0  0  0  0
    0.9917    1.6763    1.2329 N   0  0  0  0  0  0  0  0  0  0  0  0
    1.8282    1.1089    1.3630 H   0  0  0  0  0  0  0  0  0  0  0  0
    0.9920    3.0485    1.7151 C   0  0  0  0  0  0  0  0  0  0  0  0
    0.0402    3.2844    2.2015 H   0  0  0  0  0  0  0  0  0  0  0  0
    1.7956    3.1889    2.4440 H   0  0  0  0  0  0  0  0  0  0  0  0
    1.1494    3.7445    0.8849 H   0  0  0  0  0  0  0  0  0  0  0  0
  1  2  1  0  0  0  0
  2  3  1  0  0  0  0
  2  4  1  0  0  0  0
  2  5  1  0  0  0  0
  5  6  2  0  0  0  0
  5  7  1  0  0  0  0
  7  8  1  0  0  0  0
  7  9  1  0  0  0  0
  9 10  1  0  0  0  0
  9 11  1  0  0  0  0
  9 17  1  0  0  0  0
 11 12  1  0  0  0  0
 11 13  1  0  0  0  0
 11 14  1  0  0  0  0
 14 15  1  0  0  0  0
 14 16  2  0  0  0  0
 17 18  2  0  0  0  0
 17 19  1  0  0  0  0
 19 20  1  0  0  0  0
 19 21  1  0  0  0  0
 21 22  1  0  0  0  0
 21 23  1  0  0  0  0
 21 24  1  0  0  0  0
M  CHG  1  15  -1
M  END
$$$$

  -OEChem-03222214023D

 24 23  0     1  0  0  0  0  0999 V2000
   -2.7625   -3.8669    0.3899 H   0  0  0  0  0  0  0  0  0  0  0  0
   -2.7187   -2.8454    0.0018 C   0  0  0  0  0  0  0  0  0  0  0  0
   -3.4930   -2.2483    0.4895 H   0  0  0  0  0  0  0  0  0  0  0  0
   -2.9096   -2.8703   -1.0739 H   0  0  0  0  0  0  0  0  0  0  0  0
   -1.3519   -2.2400    0.2714 C   0  0  0  0  0  0  0  0  0  0  0  0
   -0.5540   -2.8594    0.9533 O   0  0  0  0  0  0  0  0  0  0  0  0
   -1.0910   -0.9666   -0.1856 N   0  0  0  0  0  0  0  0  0  0  0  0
   -1.8478   -0.4844   -0.6590 H   0  0  0  0  0  0  0  0  0  0  0  0
    0.2021   -0.2669   -0.1668 C   0  0  1  0  0  0  0  0  0  0  0  0
    0.8522   -0.7908    0.5422 H   0  0  0  0  0  0  0  0  0  0  0  0
    0.8406   -0.2949   -1.5737 C   0  0  0  0  0  0  0  0  0  0  0  0
    0.3542   -1.0634   -2.1798 H   0  0  0  0  0  0  0  0  0  0  0  0
    0.6897    0.6631   -2.0804 H   0  0  0  0  0  0  0  0  0  0  0  0
    2.3280   -0.6380   -1.5476 C   0  0  0  0  0  0  0  0  0  0  0  0
    2.7310   -1.5844   -0.8322 O   0  5  0  0  0  0  0  0  0  0  0  0
    3.0762    0.1085   -2.2235 O   0  0  0  0  0  0  0  0  0  0  0  0
    0.0834    1.1874    0.3265 C   0  0  0  0  0  0  0  0  0  0  0  0
   -0.8976    1.8666    0.0276 O   0  0  0  0  0  0  0  0  0  0  0  0
    1.0000    1.6747    1.2385 N   0  0  0  0  0  0  0  0  0  0  0  0
    1.8419    1.1147    1.3609 H   0  0  0  0  0  0  0  0  0  0  0  0
    1.0018    3.0514    1.7082 C   0  0  0  0  0  0  0  0  0  0  0  0
    0.0551    3.2880    2.2043 H   0  0  0  0  0  0  0  0  0  0  0  0
    1.8142    3.2013    2.4253 H   0  0  0  0  0  0  0  0  0  0  0  0
    1.1459    3.7406    0.8699 H   0  0  0  0  0  0  0  0  0  0  0  0
  1  2  1  0  0  0  0
  2  3  1  0  0  0  0
  2  4  1  0  0  0  0
  2  5  1  0  0  0  0
  5  6  2  0  0  0  0
  5  7  1  0  0  0  0
  7  8  1  0  0  0  0
  7  9  1  0  0  0  0
  9 10  1  0  0  0  0
  9 11  1  0  0  0  0
  9 17  1  0  0  0  0
 11 12  1  0  0  0  0
 11 13  1  0  0  0  0
 11 14  1  0  0  0  0
 14 15  1  0  0  0  0
 14 16  2  0  0  0  0
 17 18  2  0  0  0  0
 17 19  1  0  0  0  0
 19 20  1  0  0  0  0
 19 21  1  0  0  0  0
 21 22  1  0  0  0  0
 21 23  1  0  0  0  0
 21 24  1  0  0  0  0
M  CHG  1  15  -1
M  END
$$$$

  -OEChem-03222214023D

 24 23  0     1  0  0  0  0  0999 V2000
   -2.7510   -3.8710    0.3936 H   0  0  0  0  0  0  0  0  0  0  0  0
   -2.7105   -2.8523   -0.0021 C   0  0  0  0  0  0  0  0  0  0  0  0
   -3.4943   -2.2571    0.4722 H   0  0  0  0  0  0  0  0  0  0  0  0
   -2.8890   -2.8869   -1.0796 H   0  0  0  0  0  0  0  0  0  0  0  0
   -1.3512   -2.2354    0.2767 C   0  0  0  0  0  0  0  0  0  0  0  0
   -0.5558   -2.8427    0.9728 O   0  0  0  0  0  0  0  0  0  0  0  0
   -1.0950   -0.9619   -0.1824 N   0  0  0  0  0  0  0  0  0  0  0  0
   -1.8502   -0.4844   -0.6627 H   0  0  0  0  0  0  0  0  0  0  0  0
    0.2009   -0.2686   -0.1739 C   0  0  1  0  0  0  0  0  0  0  0  0
    0.8626   -0.7978    0.5214 H   0  0  0  0  0  0  0  0  0  0  0  0
    0.8266   -0.2851   -1.5839 C   0  0  0  0  0  0  0  0  0  0  0  0
    0.3368   -1.0449   -2.1984 H   0  0  0  0  0  0  0  0  0  0  0  0
    0.6871    0.6783   -2.0835 H   0  0  0  0  0  0  0  0  0  0  0  0
    2.3080   -0.6379   -1.5334 C   0  0  0  0  0  0  0  0  0  0  0  0
    2.6522   -1.7428   -1.0546 O   0  5  0  0  0  0  0  0  0  0  0  0
    3.1049    0.2622   -1.8922 O   0  0  0  0  0  0  0  0  0  0  0  0
    0.0866    1.1851    0.3240 C   0  0  0  0  0  0  0  0  0  0  0  0
   -0.9021    1.8609    0.0415 O   0  0  0  0  0  0  0  0  0  0  0  0
    1.0100    1.6705    1.2302 N   0  0  0  0  0  0  0  0  0  0  0  0
    1.8678    1.1278    1.3143 H   0  0  0  0  0  0  0  0  0  0  0  0
    1.0094    3.0459    1.7035 C   0  0  0  0  0  0  0  0  0  0  0  0
    0.0631    3.2792    2.2020 H   0  0  0  0  0  0  0  0  0  0  0  0
    1.8223    3.1953    2.4200 H   0  0  0  0  0  0  0  0  0  0  0  0
    1.1505    3.7377    0.8669 H   0  0  0  0  0  0  0  0  0  0  0  0
  1  2  1  0  0  0  0
  2  3  1  0  0  0  0
  2  4  1  0  0  0  0
  2  5  1  0  0  0  0
  5  6  2  0  0  0  0
  5  7  1  0  0  0  0
  7  8  1  0  0  0  0
  7  9  1  0  0  0  0
  9 10  1  0  0  0  0
  9 11  1  0  0  0  0
  9 17  1  0  0  0  0
 11 12  1  0  0  0  0
 11 13  1  0  0  0  0
 11 14  1  0  0  0  0
 14 15  1  0  0  0  0
 14 16  2  0  0  0  0
 17 18  2  0  0  0  0
 17 19  1  0  0  0  0
 19 20  1  0  0  0  0
 19 21  1  0  0  0  0
 21 22  1  0  0  0  0
 21 23  1  0  0  0  0
 21 24  1  0  0  0  0
M  CHG  1  15  -1
M  END
$$$$

  -OEChem-03222214023D

 24 23  0     1  0  0  0  0  0999 V2000
   -2.7550   -3.8735    0.4014 H   0  0  0  0  0  0  0  0  0  0  0  0
   -2.7180   -2.8537    0.0077 C   0  0  0  0  0  0  0  0  0  0  0  0
   -3.4887   -2.2562    0.5006 H   0  0  0  0  0  0  0  0  0  0  0  0
   -2.9201   -2.8846   -1.0658 H   0  0  0  0  0  0  0  0  0  0  0  0
   -1.3497   -2.2440    0.2587 C   0  0  0  0  0  0  0  0  0  0  0  0
   -0.5395   -2.8613    0.9285 O   0  0  0  0  0  0  0  0  0  0  0  0
   -1.0995   -0.9673   -0.1952 N   0  0  0  0  0  0  0  0  0  0  0  0
   -1.8664   -0.4780   -0.6441 H   0  0  0  0  0  0  0  0  0  0  0  0
    0.1943   -0.2701   -0.1915 C   0  0  1  0  0  0  0  0  0  0  0  0
    0.8587   -0.8021    0.4997 H   0  0  0  0  0  0  0  0  0  0  0  0
    0.8283   -0.2730   -1.5944 C   0  0  0  0  0  0  0  0  0  0  0  0
    0.3500   -1.0306   -2.2208 H   0  0  0  0  0  0  0  0  0  0  0  0
    0.6998    0.6930   -2.0916 H   0  0  0  0  0  0  0  0  0  0  0  0
    2.3060   -0.6207   -1.4980 C   0  0  0  0  0  0  0  0  0  0  0  0
    2.6340   -1.8102   -1.2847 O   0  5  0  0  0  0  0  0  0  0  0  0
    3.0966    0.3539   -1.4746 O   0  0  0  0  0  0  0  0  0  0  0  0
    0.0852    1.1816    0.3137 C   0  0  0  0  0  0  0  0  0  0  0  0
   -0.9165    1.8499    0.0589 O   0  0  0  0  0  0  0  0  0  0  0  0
    1.0177    1.6600    1.2138 N   0  0  0  0  0  0  0  0  0  0  0  0
    1.9001    1.1495    1.2233 H   0  0  0  0  0  0  0  0  0  0  0  0
    1.0160    3.0335    1.6921 C   0  0  0  0  0  0  0  0  0  0  0  0
    0.0737    3.2624    2.2000 H   0  0  0  0  0  0  0  0  0  0  0  0
    1.8345    3.1830    2.4023 H   0  0  0  0  0  0  0  0  0  0  0  0
    1.1475    3.7290    0.8569 H   0  0  0  0  0  0  0  0  0  0  0  0
  1  2  1  0  0  0  0
  2  3  1  0  0  0  0
  2  4  1  0  0  0  0
  2  5  1  0  0  0  0
  5  6  2  0  0  0  0
  5  7  1  0  0  0  0
  7  8  1  0  0  0  0
  7  9  1  0  0  0  0
  9 10  1  0  0  0  0
  9 11  1  0  0  0  0
  9 17  1  0  0  0  0
 11 12  1  0  0  0  0
 11 13  1  0  0  0  0
 11 14  1  0  0  0  0
 14 15  1  0  0  0  0
 14 16  2  0  0  0  0
 17 18  2  0  0  0  0
 17 19  1  0  0  0  0
 19 20  1  0  0  0  0
 19 21  1  0  0  0  0
 21 22  1  0  0  0  0
 21 23  1  0  0  0  0
 21 24  1  0  0  0  0
M  CHG  1  15  -1
M  END
$$$$

  -OEChem-03222214023D

 24 23  0     1  0  0  0  0  0999 V2000
   -2.7628   -3.8713    0.4158 H   0  0  0  0  0  0  0  0  0  0  0  0
   -2.7299   -2.8508    0.0238 C   0  0  0  0  0  0  0  0  0  0  0  0
   -3.4799   -2.2488    0.5426 H   0  0  0  0  0  0  0  0  0  0  0  0
   -2.9659   -2.8766   -1.0429 H   0  0  0  0  0  0  0  0  0  0  0  0
   -1.3496   -2.2530    0.2328 C   0  0  0  0  0  0  0  0  0  0  0  0
   -0.5167   -2.8884    0.8561 O   0  0  0  0  0  0  0  0  0  0  0  0
   -1.1073   -0.9722   -0.2141 N   0  0  0  0  0  0  0  0  0  0  0  0
   -1.8893   -0.4675   -0.6179 H   0  0  0  0  0  0  0  0  0  0  0  0
    0.1820   -0.2669   -0.2132 C   0  0  1  0  0  0  0  0  0  0  0  0
    0.8407   -0.7988    0.4840 H   0  0  0  0  0  0  0  0  0  0  0  0
    0.8406   -0.2631   -1.6026 C   0  0  0  0  0  0  0  0  0  0  0  0
    0.3812   -1.0238   -2.2394 H   0  0  0  0  0  0  0  0  0  0  0  0
    0.7222    0.7026   -2.1025 H   0  0  0  0  0  0  0  0  0  0  0  0
    2.3162   -0.5975   -1.4529 C   0  0  0  0  0  0  0  0  0  0  0  0
    2.6766   -1.7954   -1.5087 O   0  5  0  0  0  0  0  0  0  0  0  0
    3.0468    0.3546   -1.0792 O   0  0  0  0  0  0  0  0  0  0  0  0
    0.0792    1.1823    0.2990 C   0  0  0  0  0  0  0  0  0  0  0  0
   -0.9358    1.8425    0.0765 O   0  0  0  0  0  0  0  0  0  0  0  0
    1.0234    1.6488    1.1921 N   0  0  0  0  0  0  0  0  0  0  0  0
    1.9242    1.1714    1.1197 H   0  0  0  0  0  0  0  0  0  0  0  0
    1.0211    3.0172    1.6845 C   0  0  0  0  0  0  0  0  0  0  0  0
    0.0861    3.2343    2.2108 H   0  0  0  0  0  0  0  0  0  0  0  0
    1.8510    3.1646    2.3820 H   0  0  0  0  0  0  0  0  0  0  0  0
    1.1336    3.7215    0.8541 H   0  0  0  0  0  0  0  0  0  0  0  0
  1  2  1  0  0  0  0
  2  3  1  0  0  0  0
  2  4  1  0  0  0  0
  2  5  1  0  0  0  0
  5  6  2  0  0  0  0
  5  7  1  0  0  0  0
  7  8  1  0  0  0  0
  7  9  1  0  0  0  0
  9 10  1  0  0  0  0
  9 11  1  0  0  0  0
  9 17  1  0  0  0  0
 11 12  1  0  0  0  0
 11 13  1  0  0  0  0
 11 14  1  0  0  0  0
 14 15  1  0  0  0  0
 14 16  2  0  0  0  0
 17 18  2  0  0  0  0
 17 19  1  0  0  0  0
 19 20  1  0  0  0  0
 19 21  1  0  0  0  0
 21 22  1  0  0  0  0
 21 23  1  0  0  0  0
 21 24  1  0  0  0  0
M  CHG  1  15  -1
M  END
$$$$

  -OEChem-03222214023D

 24 23  0     1  0  0  0  0  0999 V2000
   -2.7673   -3.8659    0.4258 H   0  0  0  0  0  0  0  0  0  0  0  0
   -2.7371   -2.8444    0.0364 C   0  0  0  0  0  0  0  0  0  0  0  0
   -3.4709   -2.2394    0.5744 H   0  0  0  0  0  0  0  0  0  0  0  0
   -2.9985   -2.8653   -1.0244 H   0  0  0  0  0  0  0  0  0  0  0  0
   -1.3486   -2.2558    0.2142 C   0  0  0  0  0  0  0  0  0  0  0  0
   -0.4982   -2.9066    0.7968 O   0  0  0  0  0  0  0  0  0  0  0  0
   -1.1118   -0.9725   -0.2278 N   0  0  0  0  0  0  0  0  0  0  0  0
   -1.9035   -0.4569   -0.5979 H   0  0  0  0  0  0  0  0  0  0  0  0
    0.1740   -0.2615   -0.2244 C   0  0  1  0  0  0  0  0  0  0  0  0
    0.8256   -0.7913    0.4813 H   0  0  0  0  0  0  0  0  0  0  0  0
    0.8521   -0.2642   -1.6042 C   0  0  0  0  0  0  0  0  0  0  0  0
    0.4039   -1.0311   -2.2419 H   0  0  0  0  0  0  0  0  0  0  0  0
    0.7382    0.6975   -2.1120 H   0  0  0  0  0  0  0  0  0  0  0  0
    2.3278   -0.5887   -1.4264 C   0  0  0  0  0  0  0  0  0  0  0  0
    2.7443   -1.7274   -1.7414 O   0  5  0  0  0  0  0  0  0  0  0  0
    3.0014    0.2815   -0.8150 O   0  0  0  0  0  0  0  0  0  0  0  0
    0.0719    1.1861    0.2915 C   0  0  0  0  0  0  0  0  0  0  0  0
   -0.9484    1.8428    0.0825 O   0  0  0  0  0  0  0  0  0  0  0  0
    1.0203    1.6450    1.1834 N   0  0  0  0  0  0  0  0  0  0  0  0
    1.9260    1.1783    1.0766 H   0  0  0  0  0  0  0  0  0  0  0  0
    1.0193    3.0087    1.6879 C   0  0  0  0  0  0  0  0  0  0  0  0
    0.0872    3.2197    2.2217 H   0  0  0  0  0  0  0  0  0  0  0  0
    1.8531    3.1506    2.3817 H   0  0  0  0  0  0  0  0  0  0  0  0
    1.1260    3.7210    0.8636 H   0  0  0  0  0  0  0  0  0  0  0  0
  1  2  1  0  0  0  0
  2  3  1  0  0  0  0
  2  4  1  0  0  0  0
  2  5  1  0  0  0  0
  5  6  2  0  0  0  0
  5  7  1  0  0  0  0
  7  8  1  0  0  0  0
  7  9  1  0  0  0  0
  9 10  1  0  0  0  0
  9 11  1  0  0  0  0
  9 17  1  0  0  0  0
 11 12  1  0  0  0  0
 11 13  1  0  0  0  0
 11 14  1  0  0  0  0
 14 15  1  0  0  0  0
 14 16  2  0  0  0  0
 17 18  2  0  0  0  0
 17 19  1  0  0  0  0
 19 20  1  0  0  0  0
 19 21  1  0  0  0  0
 21 22  1  0  0  0  0
 21 23  1  0  0  0  0
 21 24  1  0  0  0  0
M  CHG  1  15  -1
M  END
$$$$

  -OEChem-03222214023D

 24 23  0     1  0  0  0  0  0999 V2000
   -2.7749   -3.8576    0.4453 H   0  0  0  0  0  0  0  0  0  0  0  0
   -2.7459   -2.8372    0.0530 C   0  0  0  0  0  0  0  0  0  0  0  0
   -3.4611   -2.2250    0.6077 H   0  0  0  0  0  0  0  0  0  0  0  0
   -3.0334   -2.8574   -1.0011 H   0  0  0  0  0  0  0  0  0  0  0  0
   -1.3486   -2.2599    0.1962 C   0  0  0  0  0  0  0  0  0  0  0  0
   -0.4846   -2.9241    0.7427 O   0  0  0  0  0  0  0  0  0  0  0  0
   -1.1139   -0.9745   -0.2410 N   0  0  0  0  0  0  0  0  0  0  0  0
   -1.9120   -0.4485   -0.5822 H   0  0  0  0  0  0  0  0  0  0  0  0
    0.1696   -0.2593   -0.2292 C   0  0  1  0  0  0  0  0  0  0  0  0
    0.8119   -0.7888    0.4849 H   0  0  0  0  0  0  0  0  0  0  0  0
    0.8653   -0.2695   -1.6009 C   0  0  0  0  0  0  0  0  0  0  0  0
    0.4237   -1.0417   -2.2367 H   0  0  0  0  0  0  0  0  0  0  0  0
    0.7520    0.6885   -2.1153 H   0  0  0  0  0  0  0  0  0  0  0  0
    2.3437   -0.5862   -1.4172 C   0  0  0  0  0  0  0  0  0  0  0  0
    2.8220   -1.6011   -1.9755 O   0  5  0  0  0  0  0  0  0  0  0  0
    2.9775    0.1781   -0.6412 O   0  0  0  0  0  0  0  0  0  0  0  0
    0.0642    1.1866    0.2892 C   0  0  0  0  0  0  0  0  0  0  0  0
   -0.9558    1.8433    0.0786 O   0  0  0  0  0  0  0  0  0  0  0  0
    1.0095    1.6411    1.1859 N   0  0  0  0  0  0  0  0  0  0  0  0
    1.9136    1.1679    1.0821 H   0  0  0  0  0  0  0  0  0  0  0  0
    1.0127    3.0038    1.6930 C   0  0  0  0  0  0  0  0  0  0  0  0
    0.0700    3.2263    2.2030 H   0  0  0  0  0  0  0  0  0  0  0  0
    1.8298    3.1335    2.4088 H   0  0  0  0  0  0  0  0  0  0  0  0
    1.1498    3.7158    0.8730 H   0  0  0  0  0  0  0  0  0  0  0  0
  1  2  1  0  0  0  0
  2  3  1  0  0  0  0
  2  4  1  0  0  0  0
  2  5  1  0  0  0  0
  5  6  2  0  0  0  0
  5  7  1  0  0  0  0
  7  8  1  0  0  0  0
  7  9  1  0  0  0  0
  9 10  1  0  0  0  0
  9 11  1  0  0  0  0
  9 17  1  0  0  0  0
 11 12  1  0  0  0  0
 11 13  1  0  0  0  0
 11 14  1  0  0  0  0
 14 15  1  0  0  0  0
 14 16  2  0  0  0  0
 17 18  2  0  0  0  0
 17 19  1  0  0  0  0
 19 20  1  0  0  0  0
 19 21  1  0  0  0  0
 21 22  1  0  0  0  0
 21 23  1  0  0  0  0
 21 24  1  0  0  0  0
M  CHG  1  15  -1
M  END
$$$$

  -OEChem-03222214023D

 24 23  0     1  0  0  0  0  0999 V2000
   -2.7798   -3.8615    0.4399 H   0  0  0  0  0  0  0  0  0  0  0  0
   -2.7528   -2.8389    0.0532 C   0  0  0  0  0  0  0  0  0  0  0  0
   -3.4619   -2.2288    0.6179 H   0  0  0  0  0  0  0  0  0  0  0  0
   -3.0501   -2.8524   -0.9983 H   0  0  0  0  0  0  0  0  0  0  0  0
   -1.3534   -2.2643    0.1865 C   0  0  0  0  0  0  0  0  0  0  0  0
   -0.4812   -2.9375    0.7087 O   0  0  0  0  0  0  0  0  0  0  0  0
   -1.1224   -0.9765   -0.2459 N   0  0  0  0  0  0  0  0  0  0  0  0
   -1.9251   -0.4473   -0.5713 H   0  0  0  0  0  0  0  0  0  0  0  0
    0.1575   -0.2548   -0.2257 C   0  0  1  0  0  0  0  0  0  0  0  0
    0.7878   -0.7839    0.4989 H   0  0  0  0  0  0  0  0  0  0  0  0
    0.8716   -0.2791   -1.5888 C   0  0  0  0  0  0  0  0  0  0  0  0
    0.4394   -1.0639   -2.2158 H   0  0  0  0  0  0  0  0  0  0  0  0
    0.7537    0.6704   -2.1173 H   0  0  0  0  0  0  0  0  0  0  0  0
    2.3539   -0.5842   -1.4025 C   0  0  0  0  0  0  0  0  0  0  0  0
    2.8941   -1.4206   -2.1643 O   0  5  0  0  0  0  0  0  0  0  0  0
    2.9514    0.0616   -0.4989 O   0  0  0  0  0  0  0  0  0  0  0  0
    0.0548    1.1903    0.2935 C   0  0  0  0  0  0  0  0  0  0  0  0
   -0.9606    1.8524    0.0788 O   0  0  0  0  0  0  0  0  0  0  0  0
    1.0007    1.6379    1.1927 N   0  0  0  0  0  0  0  0  0  0  0  0
    1.8979    1.1478    1.0995 H   0  0  0  0  0  0  0  0  0  0  0  0
    1.0208    3.0037    1.6909 C   0  0  0  0  0  0  0  0  0  0  0  0
    0.0903    3.2331    2.2199 H   0  0  0  0  0  0  0  0  0  0  0  0
    1.8544    3.1345    2.3872 H   0  0  0  0  0  0  0  0  0  0  0  0
    1.1429    3.7104    0.8636 H   0  0  0  0  0  0  0  0  0  0  0  0
  1  2  1  0  0  0  0
  2  3  1  0  0  0  0
  2  4  1  0  0  0  0
  2  5  1  0  0  0  0
  5  6  2  0  0  0  0
  5  7  1  0  0  0  0
  7  8  1  0  0  0  0
  7  9  1  0  0  0  0
  9 10  1  0  0  0  0
  9 11  1  0  0  0  0
  9 17  1  0  0  0  0
 11 12  1  0  0  0  0
 11 13  1  0  0  0  0
 11 14  1  0  0  0  0
 14 15  1  0  0  0  0
 14 16  2  0  0  0  0
 17 18  2  0  0  0  0
 17 19  1  0  0  0  0
 19 20  1  0  0  0  0
 19 21  1  0  0  0  0
 21 22  1  0  0  0  0
 21 23  1  0  0  0  0
 21 24  1  0  0  0  0
M  CHG  1  15  -1
M  END
$$$$

  -OEChem-03222214023D

 24 23  0     1  0  0  0  0  0999 V2000
   -2.7830   -3.8607    0.4504 H   0  0  0  0  0  0  0  0  0  0  0  0
   -2.7589   -2.8386    0.0622 C   0  0  0  0  0  0  0  0  0  0  0  0
   -3.4594   -2.2268    0.6358 H   0  0  0  0  0  0  0  0  0  0  0  0
   -3.0700   -2.8528   -0.9852 H   0  0  0  0  0  0  0  0  0  0  0  0
   -1.3568   -2.2666    0.1770 C   0  0  0  0  0  0  0  0  0  0  0  0
   -0.4770   -2.9464    0.6774 O   0  0  0  0  0  0  0  0  0  0  0  0
   -1.1292   -0.9779   -0.2547 N   0  0  0  0  0  0  0  0  0  0  0  0
   -1.9354   -0.4463   -0.5673 H   0  0  0  0  0  0  0  0  0  0  0  0
    0.1473   -0.2505   -0.2273 C   0  0  1  0  0  0  0  0  0  0  0  0
    0.7635   -0.7784    0.5095 H   0  0  0  0  0  0  0  0  0  0  0  0
    0.8790   -0.2920   -1.5817 C   0  0  0  0  0  0  0  0  0  0  0  0
    0.4559   -1.0888   -2.1996 H   0  0  0  0  0  0  0  0  0  0  0  0
    0.7563    0.6483   -2.1255 H   0  0  0  0  0  0  0  0  0  0  0  0
    2.3656   -0.5861   -1.3985 C   0  0  0  0  0  0  0  0  0  0  0  0
    2.9566   -1.1989   -2.3192 O   0  5  0  0  0  0  0  0  0  0  0  0
    2.9328   -0.0759   -0.3937 O   0  0  0  0  0  0  0  0  0  0  0  0
    0.0476    1.1948    0.2883 C   0  0  0  0  0  0  0  0  0  0  0  0
   -0.9627    1.8623    0.0681 O   0  0  0  0  0  0  0  0  0  0  0  0
    0.9941    1.6361    1.1898 N   0  0  0  0  0  0  0  0  0  0  0  0
    1.8826    1.1269    1.1168 H   0  0  0  0  0  0  0  0  0  0  0  0
    1.0250    2.9993    1.6936 C   0  0  0  0  0  0  0  0  0  0  0  0
    0.0892    3.2398    2.2079 H   0  0  0  0  0  0  0  0  0  0  0  0
    1.8485    3.1154    2.4044 H   0  0  0  0  0  0  0  0  0  0  0  0
    1.1708    3.7069    0.8712 H   0  0  0  0  0  0  0  0  0  0  0  0
  1  2  1  0  0  0  0
  2  3  1  0  0  0  0
  2  4  1  0  0  0  0
  2  5  1  0  0  0  0
  5  6  2  0  0  0  0
  5  7  1  0  0  0  0
  7  8  1  0  0  0  0
  7  9  1  0  0  0  0
  9 10  1  0  0  0  0
  9 11  1  0  0  0  0
  9 17  1  0  0  0  0
 11 12  1  0  0  0  0
 11 13  1  0  0  0  0
 11 14  1  0  0  0  0
 14 15  1  0  0  0  0
 14 16  2  0  0  0  0
 17 18  2  0  0  0  0
 17 19  1  0  0  0  0
 19 20  1  0  0  0  0
 19 21  1  0  0  0  0
 21 22  1  0  0  0  0
 21 23  1  0  0  0  0
 21 24  1  0  0  0  0
M  CHG  1  15  -1
M  END
$$$$

  -OEChem-03222214023D

 24 23  0     1  0  0  0  0  0999 V2000
   -2.7873   -3.8643    0.4526 H   0  0  0  0  0  0  0  0  0  0  0  0
   -2.7650   -2.8419    0.0647 C   0  0  0  0  0  0  0  0  0  0  0  0
   -3.4608   -2.2297    0.6436 H   0  0  0  0  0  0  0  0  0  0  0  0
   -3.0837   -2.8550   -0.9804 H   0  0  0  0  0  0  0  0  0  0  0  0
   -1.3616   -2.2714    0.1699 C   0  0  0  0  0  0  0  0  0  0  0  0
   -0.4772   -2.9561    0.6553 O   0  0  0  0  0  0  0  0  0  0  0  0
   -1.1364   -0.9813   -0.2598 N   0  0  0  0  0  0  0  0  0  0  0  0
   -1.9448   -0.4497   -0.5670 H   0  0  0  0  0  0  0  0  0  0  0  0
    0.1367   -0.2473   -0.2264 C   0  0  1  0  0  0  0  0  0  0  0  0
    0.7380   -0.7744    0.5222 H   0  0  0  0  0  0  0  0  0  0  0  0
    0.8841   -0.3045   -1.5729 C   0  0  0  0  0  0  0  0  0  0  0  0
    0.4688   -1.1115   -2.1825 H   0  0  0  0  0  0  0  0  0  0  0  0
    0.7544    0.6278   -2.1287 H   0  0  0  0  0  0  0  0  0  0  0  0
    2.3758   -0.5871   -1.3984 C   0  0  0  0  0  0  0  0  0  0  0  0
    3.0056   -0.9395   -2.4240 O   0  5  0  0  0  0  0  0  0  0  0  0
    2.9157   -0.2371   -0.3135 O   0  0  0  0  0  0  0  0  0  0  0  0
    0.0422    1.1979    0.2868 C   0  0  0  0  0  0  0  0  0  0  0  0
   -0.9629    1.8715    0.0628 O   0  0  0  0  0  0  0  0  0  0  0  0
    0.9906    1.6337    1.1891 N   0  0  0  0  0  0  0  0  0  0  0  0
    1.8684    1.1038    1.1410 H   0  0  0  0  0  0  0  0  0  0  0  0
    1.0344    2.9974    1.6902 C   0  0  0  0  0  0  0  0  0  0  0  0
    0.0985    3.2496    2.1987 H   0  0  0  0  0  0  0  0  0  0  0  0
    1.8549    3.1061    2.4055 H   0  0  0  0  0  0  0  0  0  0  0  0
    1.1929    3.7013    0.8671 H   0  0  0  0  0  0  0  0  0  0  0  0
  1  2  1  0  0  0  0
  2  3  1  0  0  0  0
  2  4  1  0  0  0  0
  2  5  1  0  0  0  0
  5  6  2  0  0  0  0
  5  7  1  0  0  0  0
  7  8  1  0  0  0  0
  7  9  1  0  0  0  0
  9 10  1  0  0  0  0
  9 11  1  0  0  0  0
  9 17  1  0  0  0  0
 11 12  1  0  0  0  0
 11 13  1  0  0  0  0
 11 14  1  0  0  0  0
 14 15  1  0  0  0  0
 14 16  2  0  0  0  0
 17 18  2  0  0  0  0
 17 19  1  0  0  0  0
 19 20  1  0  0  0  0
 19 21  1  0  0  0  0
 21 22  1  0  0  0  0
 21 23  1  0  0  0  0
 21 24  1  0  0  0  0
M  CHG  1  15  -1
M  END
$$$$

  -OEChem-03222214023D

 24 23  0     1  0  0  0  0  0999 V2000
   -2.7957   -3.8484    0.4188 H   0  0  0  0  0  0  0  0  0  0  0  0
   -2.7444   -2.8311    0.0207 C   0  0  0  0  0  0  0  0  0  0  0  0
   -3.5031   -2.2196    0.5150 H   0  0  0  0  0  0  0  0  0  0  0  0
   -2.9525   -2.8631   -1.0517 H   0  0  0  0  0  0  0  0  0  0  0  0
   -1.3654   -2.2427    0.2626 C   0  0  0  0  0  0  0  0  0  0  0  0
   -0.5527   -2.8819    0.9077 O   0  0  0  0  0  0  0  0  0  0  0  0
   -1.0979   -0.9720   -0.1978 N   0  0  0  0  0  0  0  0  0  0  0  0
   -1.8587   -0.4773   -0.6518 H   0  0  0  0  0  0  0  0  0  0  0  0
    0.1946   -0.2718   -0.1652 C   0  0  1  0  0  0  0  0  0  0  0  0
    0.8163   -0.7819    0.5765 H   0  0  0  0  0  0  0  0  0  0  0  0
    0.8655   -0.3299   -1.5616 C   0  0  0  0  0  0  0  0  0  0  0  0
    0.2169   -0.8724   -2.2545 H   0  0  0  0  0  0  0  0  0  0  0  0
    0.9802    0.6816   -1.9614 H   0  0  0  0  0  0  0  0  0  0  0  0
    2.2361   -1.0051   -1.6088 C   0  0  0  0  0  0  0  0  0  0  0  0
    2.7696   -1.0505   -2.7439 O   0  5  0  0  0  0  0  0  0  0  0  0
    2.8400   -1.2488   -0.5345 O   0  0  0  0  0  0  0  0  0  0  0  0
    0.0748    1.1847    0.3160 C   0  0  0  0  0  0  0  0  0  0  0  0
   -0.8942    1.8716   -0.0035 O   0  0  0  0  0  0  0  0  0  0  0  0
    0.9856    1.6662    1.2362 N   0  0  0  0  0  0  0  0  0  0  0  0
    1.8154    1.0901    1.3757 H   0  0  0  0  0  0  0  0  0  0  0  0
    0.9893    3.0378    1.7195 C   0  0  0  0  0  0  0  0  0  0  0  0
    0.0358    3.2771    2.2010 H   0  0  0  0  0  0  0  0  0  0  0  0
    1.7897    3.1741    2.4529 H   0  0  0  0  0  0  0  0  0  0  0  0
    1.1537    3.7341    0.8909 H   0  0  0  0  0  0  0  0  0  0  0  0
  1  2  1  0  0  0  0
  2  3  1  0  0  0  0
  2  4  1  0  0  0  0
  2  5  1  0  0  0  0
  5  6  2  0  0  0  0
  5  7  1  0  0  0  0
  7  8  1  0  0  0  0
  7  9  1  0  0  0  0
  9 10  1  0  0  0  0
  9 11  1  0  0  0  0
  9 17  1  0  0  0  0
 11 12  1  0  0  0  0
 11 13  1  0  0  0  0
 11 14  1  0  0  0  0
 14 15  1  0  0  0  0
 14 16  2  0  0  0  0
 17 18  2  0  0  0  0
 17 19  1  0  0  0  0
 19 20  1  0  0  0  0
 19 21  1  0  0  0  0
 21 22  1  0  0  0  0
 21 23  1  0  0  0  0
 21 24  1  0  0  0  0
M  CHG  1  15  -1
M  END
$$$$

  -OEChem-03222214023D

 24 23  0     1  0  0  0  0  0999 V2000
   -2.7787   -3.8472    0.4121 H   0  0  0  0  0  0  0  0  0  0  0  0
   -2.7170   -2.8392   -0.0077 C   0  0  0  0  0  0  0  0  0  0  0  0
   -3.5156   -2.2284    0.4199 H   0  0  0  0  0  0  0  0  0  0  0  0
   -2.8536   -2.9010   -1.0902 H   0  0  0  0  0  0  0  0  0  0  0  0
   -1.3665   -2.2209    0.3082 C   0  0  0  0  0  0  0  0  0  0  0  0
   -0.5987   -2.8165    1.0439 O   0  0  0  0  0  0  0  0  0  0  0  0
   -1.0898   -0.9578   -0.1671 N   0  0  0  0  0  0  0  0  0  0  0  0
   -1.8224   -0.4965   -0.6958 H   0  0  0  0  0  0  0  0  0  0  0  0
    0.2121   -0.2749   -0.1444 C   0  0  1  0  0  0  0  0  0  0  0  0
    0.8511   -0.7832    0.5841 H   0  0  0  0  0  0  0  0  0  0  0  0
    0.8460   -0.3283   -1.5605 C   0  0  0  0  0  0  0  0  0  0  0  0
    0.1711   -0.8463   -2.2465 H   0  0  0  0  0  0  0  0  0  0  0  0
    0.9670    0.6884   -1.9459 H   0  0  0  0  0  0  0  0  0  0  0  0
    2.2039   -1.0243   -1.6629 C   0  0  0  0  0  0  0  0  0  0  0  0
    2.8316   -0.8091   -2.7281 O   0  5  0  0  0  0  0  0  0  0  0  0
    2.6858   -1.6163   -0.6679 O   0  0  0  0  0  0  0  0  0  0  0  0
    0.0904    1.1865    0.3271 C   0  0  0  0  0  0  0  0  0  0  0  0
   -0.8659    1.8791   -0.0172 O   0  0  0  0  0  0  0  0  0  0  0  0
    0.9961    1.6808    1.2462 N   0  0  0  0  0  0  0  0  0  0  0  0
    1.8059    1.0931    1.4364 H   0  0  0  0  0  0  0  0  0  0  0  0
    0.9862    3.0524    1.7307 C   0  0  0  0  0  0  0  0  0  0  0  0
    0.0331    3.2795    2.2190 H   0  0  0  0  0  0  0  0  0  0  0  0
    1.7899    3.1985    2.4585 H   0  0  0  0  0  0  0  0  0  0  0  0
    1.1360    3.7512    0.9015 H   0  0  0  0  0  0  0  0  0  0  0  0
  1  2  1  0  0  0  0
  2  3  1  0  0  0  0
  2  4  1  0  0  0  0
  2  5  1  0  0  0  0
  5  6  2  0  0  0  0
  5  7  1  0  0  0  0
  7  8  1  0  0  0  0
  7  9  1  0  0  0  0
  9 10  1  0  0  0  0
  9 11  1  0  0  0  0
  9 17  1  0  0  0  0
 11 12  1  0  0  0  0
 11 13  1  0  0  0  0
 11 14  1  0  0  0  0
 14 15  1  0  0  0  0
 14 16  2  0  0  0  0
 17 18  2  0  0  0  0
 17 19  1  0  0  0  0
 19 20  1  0  0  0  0
 19 21  1  0  0  0  0
 21 22  1  0  0  0  0
 21 23  1  0  0  0  0
 21 24  1  0  0  0  0
M  CHG  1  15  -1
M  END
$$$$

  -OEChem-03222214023D

 24 23  0     1  0  0  0  0  0999 V2000
   -2.7308   -3.8697    0.4042 H   0  0  0  0  0  0  0  0  0  0  0  0
   -2.6709   -2.8758   -0.0483 C   0  0  0  0  0  0  0  0  0  0  0  0
   -3.5234   -2.2814    0.2891 H   0  0  0  0  0  0  0  0  0  0  0  0
   -2.7156   -2.9826   -1.1350 H   0  0  0  0  0  0  0  0  0  0  0  0
   -1.3731   -2.1952    0.3506 C   0  0  0  0  0  0  0  0  0  0  0  0
   -0.6542   -2.7259    1.1803 O   0  0  0  0  0  0  0  0  0  0  0  0
   -1.1072   -0.9337   -0.1357 N   0  0  0  0  0  0  0  0  0  0  0  0
   -1.8042   -0.5282   -0.7503 H   0  0  0  0  0  0  0  0  0  0  0  0
    0.2021   -0.2653   -0.1264 C   0  0  1  0  0  0  0  0  0  0  0  0
    0.8602   -0.7811    0.5808 H   0  0  0  0  0  0  0  0  0  0  0  0
    0.8048   -0.3075   -1.5559 C   0  0  0  0  0  0  0  0  0  0  0  0
    0.1142   -0.8082   -2.2388 H   0  0  0  0  0  0  0  0  0  0  0  0
    0.9336    0.7125   -1.9310 H   0  0  0  0  0  0  0  0  0  0  0  0
    2.1493   -1.0233   -1.6736 C   0  0  0  0  0  0  0  0  0  0  0  0
    2.9101   -0.6038   -2.5790 O   0  5  0  0  0  0  0  0  0  0  0  0
    2.4557   -1.9161   -0.8497 O   0  0  0  0  0  0  0  0  0  0  0  0
    0.0935    1.1982    0.3452 C   0  0  0  0  0  0  0  0  0  0  0  0
   -0.8471    1.9066   -0.0096 O   0  0  0  0  0  0  0  0  0  0  0  0
    1.0094    1.6881    1.2570 N   0  0  0  0  0  0  0  0  0  0  0  0
    1.8041    1.0870    1.4641 H   0  0  0  0  0  0  0  0  0  0  0  0
    1.0180    3.0627    1.7323 C   0  0  0  0  0  0  0  0  0  0  0  0
    0.0730    3.3011    2.2308 H   0  0  0  0  0  0  0  0  0  0  0  0
    1.8322    3.2061    2.4488 H   0  0  0  0  0  0  0  0  0  0  0  0
    1.1638    3.7552    0.8971 H   0  0  0  0  0  0  0  0  0  0  0  0
  1  2  1  0  0  0  0
  2  3  1  0  0  0  0
  2  4  1  0  0  0  0
  2  5  1  0  0  0  0
  5  6  2  0  0  0  0
  5  7  1  0  0  0  0
  7  8  1  0  0  0  0
  7  9  1  0  0  0  0
  9 10  1  0  0  0  0
  9 11  1  0  0  0  0
  9 17  1  0  0  0  0
 11 12  1  0  0  0  0
 11 13  1  0  0  0  0
 11 14  1  0  0  0  0
 14 15  1  0  0  0  0
 14 16  2  0  0  0  0
 17 18  2  0  0  0  0
 17 19  1  0  0  0  0
 19 20  1  0  0  0  0
 19 21  1  0  0  0  0
 21 22  1  0  0  0  0
 21 23  1  0  0  0  0
 21 24  1  0  0  0  0
M  CHG  1  15  -1
M  END
$$$$

  -OEChem-03222214023D

 24 23  0     1  0  0  0  0  0999 V2000
   -2.6730   -3.8972    0.3861 H   0  0  0  0  0  0  0  0  0  0  0  0
   -2.6258   -2.9087   -0.0795 C   0  0  0  0  0  0  0  0  0  0  0  0
   -3.5153   -2.3411    0.2038 H   0  0  0  0  0  0  0  0  0  0  0  0
   -2.6095   -3.0333   -1.1651 H   0  0  0  0  0  0  0  0  0  0  0  0
   -1.3760   -2.1753    0.3741 C   0  0  0  0  0  0  0  0  0  0  0  0
   -0.6913   -2.6557    1.2625 O   0  0  0  0  0  0  0  0  0  0  0  0
   -1.1280   -0.9120   -0.1169 N   0  0  0  0  0  0  0  0  0  0  0  0
   -1.7976   -0.5510   -0.7866 H   0  0  0  0  0  0  0  0  0  0  0  0
    0.1866   -0.2557   -0.1168 C   0  0  1  0  0  0  0  0  0  0  0  0
    0.8585   -0.7839    0.5691 H   0  0  0  0  0  0  0  0  0  0  0  0
    0.7666   -0.2855   -1.5537 C   0  0  0  0  0  0  0  0  0  0  0  0
    0.0687   -0.7748   -2.2375 H   0  0  0  0  0  0  0  0  0  0  0  0
    0.9067    0.7351   -1.9232 H   0  0  0  0  0  0  0  0  0  0  0  0
    2.0981   -1.0213   -1.6568 C   0  0  0  0  0  0  0  0  0  0  0  0
    2.9955   -0.4616   -2.3319 O   0  5  0  0  0  0  0  0  0  0  0  0
    2.2283   -2.1229   -1.0751 O   0  0  0  0  0  0  0  0  0  0  0  0
    0.0914    1.2076    0.3619 C   0  0  0  0  0  0  0  0  0  0  0  0
   -0.8371    1.9302    0.0035 O   0  0  0  0  0  0  0  0  0  0  0  0
    1.0168    1.6899    1.2685 N   0  0  0  0  0  0  0  0  0  0  0  0
    1.8062    1.0821    1.4738 H   0  0  0  0  0  0  0  0  0  0  0  0
    1.0487    3.0695    1.7285 C   0  0  0  0  0  0  0  0  0  0  0  0
    0.1109    3.3274    2.2308 H   0  0  0  0  0  0  0  0  0  0  0  0
    1.8703    3.2092    2.4373 H   0  0  0  0  0  0  0  0  0  0  0  0
    1.1986    3.7500    0.8841 H   0  0  0  0  0  0  0  0  0  0  0  0
  1  2  1  0  0  0  0
  2  3  1  0  0  0  0
  2  4  1  0  0  0  0
  2  5  1  0  0  0  0
  5  6  2  0  0  0  0
  5  7  1  0  0  0  0
  7  8  1  0  0  0  0
  7  9  1  0  0  0  0
  9 10  1  0  0  0  0
  9 11  1  0  0  0  0
  9 17  1  0  0  0  0
 11 12  1  0  0  0  0
 11 13  1  0  0  0  0
 11 14  1  0  0  0  0
 14 15  1  0  0  0  0
 14 16  2  0  0  0  0
 17 18  2  0  0  0  0
 17 19  1  0  0  0  0
 19 20  1  0  0  0  0
 19 21  1  0  0  0  0
 21 22  1  0  0  0  0
 21 23  1  0  0  0  0
 21 24  1  0  0  0  0
M  CHG  1  15  -1
M  END
$$$$

  -OEChem-03222214023D

 24 23  0     1  0  0  0  0  0999 V2000
   -2.6543   -3.9060    0.3857 H   0  0  0  0  0  0  0  0  0  0  0  0
   -2.6102   -2.9217   -0.0889 C   0  0  0  0  0  0  0  0  0  0  0  0
   -3.5097   -2.3603    0.1748 H   0  0  0  0  0  0  0  0  0  0  0  0
   -2.5757   -3.0565   -1.1729 H   0  0  0  0  0  0  0  0  0  0  0  0
   -1.3744   -2.1716    0.3757 C   0  0  0  0  0  0  0  0  0  0  0  0
   -0.6895   -2.6415    1.2701 O   0  0  0  0  0  0  0  0  0  0  0  0
   -1.1374   -0.9053   -0.1130 N   0  0  0  0  0  0  0  0  0  0  0  0
   -1.8024   -0.5560   -0.7933 H   0  0  0  0  0  0  0  0  0  0  0  0
    0.1776   -0.2512   -0.1179 C   0  0  1  0  0  0  0  0  0  0  0  0
    0.8558   -0.7861    0.5572 H   0  0  0  0  0  0  0  0  0  0  0  0
    0.7498   -0.2728   -1.5548 C   0  0  0  0  0  0  0  0  0  0  0  0
    0.0529   -0.7610   -2.2405 H   0  0  0  0  0  0  0  0  0  0  0  0
    0.8969    0.7468   -1.9242 H   0  0  0  0  0  0  0  0  0  0  0  0
    2.0756   -1.0162   -1.6311 C   0  0  0  0  0  0  0  0  0  0  0  0
    3.0700   -0.3641   -2.0312 O   0  5  0  0  0  0  0  0  0  0  0  0
    2.0940   -2.2296   -1.3203 O   0  0  0  0  0  0  0  0  0  0  0  0
    0.0884    1.2101    0.3685 C   0  0  0  0  0  0  0  0  0  0  0  0
   -0.8442    1.9340    0.0235 O   0  0  0  0  0  0  0  0  0  0  0  0
    1.0202    1.6872    1.2712 N   0  0  0  0  0  0  0  0  0  0  0  0
    1.8257    1.0898    1.4416 H   0  0  0  0  0  0  0  0  0  0  0  0
    1.0622    3.0691    1.7236 C   0  0  0  0  0  0  0  0  0  0  0  0
    0.1231    3.3395    2.2170 H   0  0  0  0  0  0  0  0  0  0  0  0
    1.8790    3.2042    2.4385 H   0  0  0  0  0  0  0  0  0  0  0  0
    1.2259    3.7433    0.8767 H   0  0  0  0  0  0  0  0  0  0  0  0
  1  2  1  0  0  0  0
  2  3  1  0  0  0  0
  2  4  1  0  0  0  0
  2  5  1  0  0  0  0
  5  6  2  0  0  0  0
  5  7  1  0  0  0  0
  7  8  1  0  0  0  0
  7  9  1  0  0  0  0
  9 10  1  0  0  0  0
  9 11  1  0  0  0  0
  9 17  1  0  0  0  0
 11 12  1  0  0  0  0
 11 13  1  0  0  0  0
 11 14  1  0  0  0  0
 14 15  1  0  0  0  0
 14 16  2  0  0  0  0
 17 18  2  0  0  0  0
 17 19  1  0  0  0  0
 19 20  1  0  0  0  0
 19 21  1  0  0  0  0
 21 22  1  0  0  0  0
 21 23  1  0  0  0  0
 21 24  1  0  0  0  0
M  CHG  1  15  -1
M  END
$$$$

  -OEChem-03222214023D

 24 23  0     1  0  0  0  0  0999 V2000
   -2.6653   -3.9069    0.3878 H   0  0  0  0  0  0  0  0  0  0  0  0
   -2.6245   -2.9192   -0.0798 C   0  0  0  0  0  0  0  0  0  0  0  0
   -3.5121   -2.3523    0.2114 H   0  0  0  0  0  0  0  0  0  0  0  0
   -2.6190   -3.0455   -1.1654 H   0  0  0  0  0  0  0  0  0  0  0  0
   -1.3706   -2.1837    0.3587 C   0  0  0  0  0  0  0  0  0  0  0  0
   -0.6571   -2.6752    1.2185 O   0  0  0  0  0  0  0  0  0  0  0  0
   -1.1376   -0.9138   -0.1223 N   0  0  0  0  0  0  0  0  0  0  0  0
   -1.8189   -0.5479   -0.7776 H   0  0  0  0  0  0  0  0  0  0  0  0
    0.1732   -0.2517   -0.1274 C   0  0  1  0  0  0  0  0  0  0  0  0
    0.8519   -0.7864    0.5476 H   0  0  0  0  0  0  0  0  0  0  0  0
    0.7546   -0.2671   -1.5578 C   0  0  0  0  0  0  0  0  0  0  0  0
    0.0680   -0.7625   -2.2493 H   0  0  0  0  0  0  0  0  0  0  0  0
    0.9022    0.7511   -1.9302 H   0  0  0  0  0  0  0  0  0  0  0  0
    2.0832   -1.0046   -1.5985 C   0  0  0  0  0  0  0  0  0  0  0  0
    3.1182   -0.3014   -1.6943 O   0  5  0  0  0  0  0  0  0  0  0  0
    2.0658   -2.2572   -1.5779 O   0  0  0  0  0  0  0  0  0  0  0  0
    0.0842    1.2074    0.3660 C   0  0  0  0  0  0  0  0  0  0  0  0
   -0.8589    1.9259    0.0384 O   0  0  0  0  0  0  0  0  0  0  0  0
    1.0198    1.6813    1.2664 N   0  0  0  0  0  0  0  0  0  0  0  0
    1.8461    1.1006    1.3921 H   0  0  0  0  0  0  0  0  0  0  0  0
    1.0637    3.0641    1.7163 C   0  0  0  0  0  0  0  0  0  0  0  0
    0.1236    3.3384    2.2056 H   0  0  0  0  0  0  0  0  0  0  0  0
    1.8780    3.1982    2.4344 H   0  0  0  0  0  0  0  0  0  0  0  0
    1.2328    3.7364    0.8690 H   0  0  0  0  0  0  0  0  0  0  0  0
  1  2  1  0  0  0  0
  2  3  1  0  0  0  0
  2  4  1  0  0  0  0
  2  5  1  0  0  0  0
  5  6  2  0  0  0  0
  5  7  1  0  0  0  0
  7  8  1  0  0  0  0
  7  9  1  0  0  0  0
  9 10  1  0  0  0  0
  9 11  1  0  0  0  0
  9 17  1  0  0  0  0
 11 12  1  0  0  0  0
 11 13  1  0  0  0  0
 11 14  1  0  0  0  0
 14 15  1  0  0  0  0
 14 16  2  0  0  0  0
 17 18  2  0  0  0  0
 17 19  1  0  0  0  0
 19 20  1  0  0  0  0
 19 21  1  0  0  0  0
 21 22  1  0  0  0  0
 21 23  1  0  0  0  0
 21 24  1  0  0  0  0
M  CHG  1  15  -1
M  END
$$$$

  -OEChem-03222214023D

 24 23  0     1  0  0  0  0  0999 V2000
   -2.6851   -3.9023    0.3839 H   0  0  0  0  0  0  0  0  0  0  0  0
   -2.6586   -2.8987   -0.0495 C   0  0  0  0  0  0  0  0  0  0  0  0
   -3.5137   -2.3293    0.3223 H   0  0  0  0  0  0  0  0  0  0  0  0
   -2.7299   -2.9849   -1.1365 H   0  0  0  0  0  0  0  0  0  0  0  0
   -1.3651   -2.1991    0.3289 C   0  0  0  0  0  0  0  0  0  0  0  0
   -0.6119   -2.7271    1.1309 O   0  0  0  0  0  0  0  0  0  0  0  0
   -1.1285   -0.9276   -0.1464 N   0  0  0  0  0  0  0  0  0  0  0  0
   -1.8352   -0.5283   -0.7538 H   0  0  0  0  0  0  0  0  0  0  0  0
    0.1769   -0.2550   -0.1480 C   0  0  1  0  0  0  0  0  0  0  0  0
    0.8502   -0.7833    0.5373 H   0  0  0  0  0  0  0  0  0  0  0  0
    0.7798   -0.2717   -1.5672 C   0  0  0  0  0  0  0  0  0  0  0  0
    0.1088   -0.7791   -2.2657 H   0  0  0  0  0  0  0  0  0  0  0  0
    0.9298    0.7441   -1.9449 H   0  0  0  0  0  0  0  0  0  0  0  0
    2.1136   -0.9985   -1.5633 C   0  0  0  0  0  0  0  0  0  0  0  0
    3.1308   -0.2949   -1.3457 O   0  5  0  0  0  0  0  0  0  0  0  0
    2.1290   -2.2201   -1.8433 O   0  0  0  0  0  0  0  0  0  0  0  0
    0.0832    1.2027    0.3459 C   0  0  0  0  0  0  0  0  0  0  0  0
   -0.8762    1.9086    0.0383 O   0  0  0  0  0  0  0  0  0  0  0  0
    1.0191    1.6754    1.2462 N   0  0  0  0  0  0  0  0  0  0  0  0
    1.8671    1.1166    1.3270 H   0  0  0  0  0  0  0  0  0  0  0  0
    1.0472    3.0524    1.7144 C   0  0  0  0  0  0  0  0  0  0  0  0
    0.1050    3.3082    2.2095 H   0  0  0  0  0  0  0  0  0  0  0  0
    1.8610    3.1868    2.4330 H   0  0  0  0  0  0  0  0  0  0  0  0
    1.2060    3.7378    0.8757 H   0  0  0  0  0  0  0  0  0  0  0  0
  1  2  1  0  0  0  0
  2  3  1  0  0  0  0
  2  4  1  0  0  0  0
  2  5  1  0  0  0  0
  5  6  2  0  0  0  0
  5  7  1  0  0  0  0
  7  8  1  0  0  0  0
  7  9  1  0  0  0  0
  9 10  1  0  0  0  0
  9 11  1  0  0  0  0
  9 17  1  0  0  0  0
 11 12  1  0  0  0  0
 11 13  1  0  0  0  0
 11 14  1  0  0  0  0
 14 15  1  0  0  0  0
 14 16  2  0  0  0  0
 17 18  2  0  0  0  0
 17 19  1  0  0  0  0
 19 20  1  0  0  0  0
 19 21  1  0  0  0  0
 21 22  1  0  0  0  0
 21 23  1  0  0  0  0
 21 24  1  0  0  0  0
M  CHG  1  15  -1
M  END
$$$$

  -OEChem-03222214023D

 24 23  0     1  0  0  0  0  0999 V2000
   -2.7183   -3.8963    0.3805 H   0  0  0  0  0  0  0  0  0  0  0  0
   -2.6963   -2.8782   -0.0182 C   0  0  0  0  0  0  0  0  0  0  0  0
   -3.5073   -2.3030    0.4349 H   0  0  0  0  0  0  0  0  0  0  0  0
   -2.8480   -2.9219   -1.0996 H   0  0  0  0  0  0  0  0  0  0  0  0
   -1.3611   -2.2236    0.2892 C   0  0  0  0  0  0  0  0  0  0  0  0
   -0.5636   -2.8016    1.0088 O   0  0  0  0  0  0  0  0  0  0  0  0
   -1.1228   -0.9478   -0.1731 N   0  0  0  0  0  0  0  0  0  0  0  0
   -1.8664   -0.5009   -0.6984 H   0  0  0  0  0  0  0  0  0  0  0  0
    0.1740   -0.2583   -0.1702 C   0  0  1  0  0  0  0  0  0  0  0  0
    0.8383   -0.7808    0.5284 H   0  0  0  0  0  0  0  0  0  0  0  0
    0.8080   -0.2753   -1.5746 C   0  0  0  0  0  0  0  0  0  0  0  0
    0.1595   -0.7982   -2.2827 H   0  0  0  0  0  0  0  0  0  0  0  0
    0.9553    0.7395   -1.9554 H   0  0  0  0  0  0  0  0  0  0  0  0
    2.1521   -0.9809   -1.5246 C   0  0  0  0  0  0  0  0  0  0  0  0
    3.0931   -0.3282   -1.0058 O   0  5  0  0  0  0  0  0  0  0  0  0
    2.2681   -2.1013   -2.0754 O   0  0  0  0  0  0  0  0  0  0  0  0
    0.0744    1.1953    0.3300 C   0  0  0  0  0  0  0  0  0  0  0  0
   -0.9035    1.8873    0.0495 O   0  0  0  0  0  0  0  0  0  0  0  0
    1.0129    1.6632    1.2291 N   0  0  0  0  0  0  0  0  0  0  0  0
    1.8767    1.1217    1.2653 H   0  0  0  0  0  0  0  0  0  0  0  0
    1.0382    3.0382    1.7027 C   0  0  0  0  0  0  0  0  0  0  0  0
    0.0990    3.2876    2.2066 H   0  0  0  0  0  0  0  0  0  0  0  0
    1.8575    3.1736    2.4150 H   0  0  0  0  0  0  0  0  0  0  0  0
    1.1861    3.7277    0.8655 H   0  0  0  0  0  0  0  0  0  0  0  0
  1  2  1  0  0  0  0
  2  3  1  0  0  0  0
  2  4  1  0  0  0  0
  2  5  1  0  0  0  0
  5  6  2  0  0  0  0
  5  7  1  0  0  0  0
  7  8  1  0  0  0  0
  7  9  1  0  0  0  0
  9 10  1  0  0  0  0
  9 11  1  0  0  0  0
  9 17  1  0  0  0  0
 11 12  1  0  0  0  0
 11 13  1  0  0  0  0
 11 14  1  0  0  0  0
 14 15  1  0  0  0  0
 14 16  2  0  0  0  0
 17 18  2  0  0  0  0
 17 19  1  0  0  0  0
 19 20  1  0  0  0  0
 19 21  1  0  0  0  0
 21 22  1  0  0  0  0
 21 23  1  0  0  0  0
 21 24  1  0  0  0  0
M  CHG  1  15  -1
M  END
$$$$

  -OEChem-03222214023D

 24 23  0     1  0  0  0  0  0999 V2000
   -2.7397   -3.8895    0.4003 H   0  0  0  0  0  0  0  0  0  0  0  0
   -2.7174   -2.8702    0.0046 C   0  0  0  0  0  0  0  0  0  0  0  0
   -3.4991   -2.2839    0.4936 H   0  0  0  0  0  0  0  0  0  0  0  0
   -2.9154   -2.9065   -1.0696 H   0  0  0  0  0  0  0  0  0  0  0  0
   -1.3596   -2.2393    0.2585 C   0  0  0  0  0  0  0  0  0  0  0  0
   -0.5332   -2.8479    0.9171 O   0  0  0  0  0  0  0  0  0  0  0  0
   -1.1252   -0.9592   -0.1942 N   0  0  0  0  0  0  0  0  0  0  0  0
   -1.8905   -0.4868   -0.6635 H   0  0  0  0  0  0  0  0  0  0  0  0
    0.1633   -0.2538   -0.1850 C   0  0  1  0  0  0  0  0  0  0  0  0
    0.8152   -0.7729    0.5275 H   0  0  0  0  0  0  0  0  0  0  0  0
    0.8237   -0.2796   -1.5779 C   0  0  0  0  0  0  0  0  0  0  0  0
    0.1923   -0.8204   -2.2883 H   0  0  0  0  0  0  0  0  0  0  0  0
    0.9612    0.7337   -1.9652 H   0  0  0  0  0  0  0  0  0  0  0  0
    2.1800   -0.9625   -1.5070 C   0  0  0  0  0  0  0  0  0  0  0  0
    3.0229   -0.4290   -0.7392 O   0  5  0  0  0  0  0  0  0  0  0  0
    2.4137   -1.9214   -2.2807 O   0  0  0  0  0  0  0  0  0  0  0  0
    0.0637    1.1967    0.3186 C   0  0  0  0  0  0  0  0  0  0  0  0
   -0.9187    1.8863    0.0486 O   0  0  0  0  0  0  0  0  0  0  0  0
    1.0066    1.6559    1.2168 N   0  0  0  0  0  0  0  0  0  0  0  0
    1.8707    1.1113    1.2373 H   0  0  0  0  0  0  0  0  0  0  0  0
    1.0399    3.0278    1.6976 C   0  0  0  0  0  0  0  0  0  0  0  0
    0.1032    3.2788    2.2053 H   0  0  0  0  0  0  0  0  0  0  0  0
    1.8618    3.1545    2.4083 H   0  0  0  0  0  0  0  0  0  0  0  0
    1.1893    3.7211    0.8639 H   0  0  0  0  0  0  0  0  0  0  0  0
  1  2  1  0  0  0  0
  2  3  1  0  0  0  0
  2  4  1  0  0  0  0
  2  5  1  0  0  0  0
  5  6  2  0  0  0  0
  5  7  1  0  0  0  0
  7  8  1  0  0  0  0
  7  9  1  0  0  0  0
  9 10  1  0  0  0  0
  9 11  1  0  0  0  0
  9 17  1  0  0  0  0
 11 12  1  0  0  0  0
 11 13  1  0  0  0  0
 11 14  1  0  0  0  0
 14 15  1  0  0  0  0
 14 16  2  0  0  0  0
 17 18  2  0  0  0  0
 17 19  1  0  0  0  0
 19 20  1  0  0  0  0
 19 21  1  0  0  0  0
 21 22  1  0  0  0  0
 21 23  1  0  0  0  0
 21 24  1  0  0  0  0
M  CHG  1  15  -1
M  END
$$$$

  -OEChem-03222214023D

 24 23  0     1  0  0  0  0  0999 V2000
   -2.7524   -3.8818    0.4135 H   0  0  0  0  0  0  0  0  0  0  0  0
   -2.7261   -2.8619    0.0197 C   0  0  0  0  0  0  0  0  0  0  0  0
   -3.4885   -2.2669    0.5281 H   0  0  0  0  0  0  0  0  0  0  0  0
   -2.9493   -2.8924   -1.0496 H   0  0  0  0  0  0  0  0  0  0  0  0
   -1.3554   -2.2481    0.2434 C   0  0  0  0  0  0  0  0  0  0  0  0
   -0.5164   -2.8759    0.8666 O   0  0  0  0  0  0  0  0  0  0  0  0
   -1.1219   -0.9662   -0.2050 N   0  0  0  0  0  0  0  0  0  0  0  0
   -1.8977   -0.4823   -0.6448 H   0  0  0  0  0  0  0  0  0  0  0  0
    0.1611   -0.2500   -0.1891 C   0  0  1  0  0  0  0  0  0  0  0  0
    0.7991   -0.7674    0.5359 H   0  0  0  0  0  0  0  0  0  0  0  0
    0.8361   -0.2900   -1.5776 C   0  0  0  0  0  0  0  0  0  0  0  0
    0.2093   -0.8424   -2.2833 H   0  0  0  0  0  0  0  0  0  0  0  0
    0.9621    0.7215   -1.9727 H   0  0  0  0  0  0  0  0  0  0  0  0
    2.2051   -0.9556   -1.5232 C   0  0  0  0  0  0  0  0  0  0  0  0
    2.9651   -0.6137   -0.5789 O   0  5  0  0  0  0  0  0  0  0  0  0
    2.5299   -1.7119   -2.4701 O   0  0  0  0  0  0  0  0  0  0  0  0
    0.0577    1.1996    0.3133 C   0  0  0  0  0  0  0  0  0  0  0  0
   -0.9239    1.8884    0.0394 O   0  0  0  0  0  0  0  0  0  0  0  0
    0.9983    1.6587    1.2140 N   0  0  0  0  0  0  0  0  0  0  0  0
    1.8545    1.1024    1.2546 H   0  0  0  0  0  0  0  0  0  0  0  0
    1.0325    3.0286    1.7011 C   0  0  0  0  0  0  0  0  0  0  0  0
    0.0900    3.2832    2.1965 H   0  0  0  0  0  0  0  0  0  0  0  0
    1.8447    3.1479    2.4244 H   0  0  0  0  0  0  0  0  0  0  0  0
    1.1977    3.7247    0.8726 H   0  0  0  0  0  0  0  0  0  0  0  0
  1  2  1  0  0  0  0
  2  3  1  0  0  0  0
  2  4  1  0  0  0  0
  2  5  1  0  0  0  0
  5  6  2  0  0  0  0
  5  7  1  0  0  0  0
  7  8  1  0  0  0  0
  7  9  1  0  0  0  0
  9 10  1  0  0  0  0
  9 11  1  0  0  0  0
  9 17  1  0  0  0  0
 11 12  1  0  0  0  0
 11 13  1  0  0  0  0
 11 14  1  0  0  0  0
 14 15  1  0  0  0  0
 14 16  2  0  0  0  0
 17 18  2  0  0  0  0
 17 19  1  0  0  0  0
 19 20  1  0  0  0  0
 19 21  1  0  0  0  0
 21 22  1  0  0  0  0
 21 23  1  0  0  0  0
 21 24  1  0  0  0  0
M  CHG  1  15  -1
M  END
$$$$

  -OEChem-03222214023D

 24 23  0     1  0  0  0  0  0999 V2000
   -2.7553   -3.8782    0.4074 H   0  0  0  0  0  0  0  0  0  0  0  0
   -2.7239   -2.8584    0.0136 C   0  0  0  0  0  0  0  0  0  0  0  0
   -3.4932   -2.2635    0.5118 H   0  0  0  0  0  0  0  0  0  0  0  0
   -2.9333   -2.8898   -1.0585 H   0  0  0  0  0  0  0  0  0  0  0  0
   -1.3559   -2.2448    0.2552 C   0  0  0  0  0  0  0  0  0  0  0  0
   -0.5276   -2.8728    0.8919 O   0  0  0  0  0  0  0  0  0  0  0  0
   -1.1132   -0.9659   -0.1970 N   0  0  0  0  0  0  0  0  0  0  0  0
   -1.8808   -0.4855   -0.6545 H   0  0  0  0  0  0  0  0  0  0  0  0
    0.1717   -0.2519   -0.1726 C   0  0  1  0  0  0  0  0  0  0  0  0
    0.8017   -0.7667    0.5598 H   0  0  0  0  0  0  0  0  0  0  0  0
    0.8433   -0.3009   -1.5662 C   0  0  0  0  0  0  0  0  0  0  0  0
    0.2044   -0.8493   -2.2637 H   0  0  0  0  0  0  0  0  0  0  0  0
    0.9624    0.7117   -1.9610 H   0  0  0  0  0  0  0  0  0  0  0  0
    2.2171   -0.9657   -1.5659 C   0  0  0  0  0  0  0  0  0  0  0  0
    2.9188   -0.8826   -0.5246 O   0  5  0  0  0  0  0  0  0  0  0  0
    2.5968   -1.4822   -2.6447 O   0  0  0  0  0  0  0  0  0  0  0  0
    0.0611    1.2001    0.3219 C   0  0  0  0  0  0  0  0  0  0  0  0
   -0.9098    1.8926    0.0208 O   0  0  0  0  0  0  0  0  0  0  0  0
    0.9893    1.6682    1.2310 N   0  0  0  0  0  0  0  0  0  0  0  0
    1.8297    1.0959    1.3236 H   0  0  0  0  0  0  0  0  0  0  0  0
    1.0197    3.0422    1.7060 C   0  0  0  0  0  0  0  0  0  0  0  0
    0.0793    3.2955    2.2060 H   0  0  0  0  0  0  0  0  0  0  0  0
    1.8368    3.1728    2.4216 H   0  0  0  0  0  0  0  0  0  0  0  0
    1.1748    3.7318    0.8701 H   0  0  0  0  0  0  0  0  0  0  0  0
  1  2  1  0  0  0  0
  2  3  1  0  0  0  0
  2  4  1  0  0  0  0
  2  5  1  0  0  0  0
  5  6  2  0  0  0  0
  5  7  1  0  0  0  0
  7  8  1  0  0  0  0
  7  9  1  0  0  0  0
  9 10  1  0  0  0  0
  9 11  1  0  0  0  0
  9 17  1  0  0  0  0
 11 12  1  0  0  0  0
 11 13  1  0  0  0  0
 11 14  1  0  0  0  0
 14 15  1  0  0  0  0
 14 16  2  0  0  0  0
 17 18  2  0  0  0  0
 17 19  1  0  0  0  0
 19 20  1  0  0  0  0
 19 21  1  0  0  0  0
 21 22  1  0  0  0  0
 21 23  1  0  0  0  0
 21 24  1  0  0  0  0
M  CHG  1  15  -1
M  END
$$$$

  -OEChem-03222214023D

 24 23  0     1  0  0  0  0  0999 V2000
   -2.7603   -3.8671    0.4041 H   0  0  0  0  0  0  0  0  0  0  0  0
   -2.7214   -2.8465    0.0129 C   0  0  0  0  0  0  0  0  0  0  0  0
   -3.4950   -2.2503    0.5029 H   0  0  0  0  0  0  0  0  0  0  0  0
   -2.9173   -2.8746   -1.0619 H   0  0  0  0  0  0  0  0  0  0  0  0
   -1.3550   -2.2373    0.2735 C   0  0  0  0  0  0  0  0  0  0  0  0
   -0.5472   -2.8571    0.9433 O   0  0  0  0  0  0  0  0  0  0  0  0
   -1.0975   -0.9648   -0.1883 N   0  0  0  0  0  0  0  0  0  0  0  0
   -1.8534   -0.4882   -0.6688 H   0  0  0  0  0  0  0  0  0  0  0  0
    0.1927   -0.2602   -0.1598 C   0  0  1  0  0  0  0  0  0  0  0  0
    0.8220   -0.7700    0.5759 H   0  0  0  0  0  0  0  0  0  0  0  0
    0.8539   -0.3109   -1.5614 C   0  0  0  0  0  0  0  0  0  0  0  0
    0.2005   -0.8496   -2.2528 H   0  0  0  0  0  0  0  0  0  0  0  0
    0.9705    0.7038   -1.9518 H   0  0  0  0  0  0  0  0  0  0  0  0
    2.2254   -0.9829   -1.6134 C   0  0  0  0  0  0  0  0  0  0  0  0
    2.8572   -1.1844   -0.5463 O   0  5  0  0  0  0  0  0  0  0  0  0
    2.6678   -1.2352   -2.7604 O   0  0  0  0  0  0  0  0  0  0  0  0
    0.0712    1.1955    0.3227 C   0  0  0  0  0  0  0  0  0  0  0  0
   -0.8912    1.8872   -0.0055 O   0  0  0  0  0  0  0  0  0  0  0  0
    0.9847    1.6771    1.2397 N   0  0  0  0  0  0  0  0  0  0  0  0
    1.8087    1.0946    1.3870 H   0  0  0  0  0  0  0  0  0  0  0  0
    0.9957    3.0511    1.7160 C   0  0  0  0  0  0  0  0  0  0  0  0
    0.0453    3.2962    2.2005 H   0  0  0  0  0  0  0  0  0  0  0  0
    1.7999    3.1879    2.4449 H   0  0  0  0  0  0  0  0  0  0  0  0
    1.1585    3.7423    0.8830 H   0  0  0  0  0  0  0  0  0  0  0  0
  1  2  1  0  0  0  0
  2  3  1  0  0  0  0
  2  4  1  0  0  0  0
  2  5  1  0  0  0  0
  5  6  2  0  0  0  0
  5  7  1  0  0  0  0
  7  8  1  0  0  0  0
  7  9  1  0  0  0  0
  9 10  1  0  0  0  0
  9 11  1  0  0  0  0
  9 17  1  0  0  0  0
 11 12  1  0  0  0  0
 11 13  1  0  0  0  0
 11 14  1  0  0  0  0
 14 15  1  0  0  0  0
 14 16  2  0  0  0  0
 17 18  2  0  0  0  0
 17 19  1  0  0  0  0
 19 20  1  0  0  0  0
 19 21  1  0  0  0  0
 21 22  1  0  0  0  0
 21 23  1  0  0  0  0
 21 24  1  0  0  0  0
M  CHG  1  15  -1
M  END
$$$$

  -OEChem-03222214023D

 24 23  0     1  0  0  0  0  0999 V2000
   -2.7512   -3.8632    0.3890 H   0  0  0  0  0  0  0  0  0  0  0  0
   -2.7110   -2.8401    0.0044 C   0  0  0  0  0  0  0  0  0  0  0  0
   -3.4988   -2.2516    0.4809 H   0  0  0  0  0  0  0  0  0  0  0  0
   -2.8840   -2.8637   -1.0744 H   0  0  0  0  0  0  0  0  0  0  0  0
   -1.3548   -2.2233    0.2974 C   0  0  0  0  0  0  0  0  0  0  0  0
   -0.5722   -2.8249    1.0122 O   0  0  0  0  0  0  0  0  0  0  0  0
   -1.0871   -0.9572   -0.1751 N   0  0  0  0  0  0  0  0  0  0  0  0
   -1.8278   -0.4930   -0.6899 H   0  0  0  0  0  0  0  0  0  0  0  0
    0.2099   -0.2653   -0.1499 C   0  0  1  0  0  0  0  0  0  0  0  0
    0.8455   -0.7719    0.5825 H   0  0  0  0  0  0  0  0  0  0  0  0
    0.8545   -0.3181   -1.5610 C   0  0  0  0  0  0  0  0  0  0  0  0
    0.1864   -0.8470   -2.2458 H   0  0  0  0  0  0  0  0  0  0  0  0
    0.9729    0.6981   -1.9480 H   0  0  0  0  0  0  0  0  0  0  0  0
    2.2185   -1.0037   -1.6494 C   0  0  0  0  0  0  0  0  0  0  0  0
    2.7547   -1.4808   -0.6202 O   0  5  0  0  0  0  0  0  0  0  0  0
    2.7441   -1.0072   -2.7890 O   0  0  0  0  0  0  0  0  0  0  0  0
    0.0830    1.1942    0.3236 C   0  0  0  0  0  0  0  0  0  0  0  0
   -0.8744    1.8853   -0.0202 O   0  0  0  0  0  0  0  0  0  0  0  0
    0.9884    1.6873    1.2433 N   0  0  0  0  0  0  0  0  0  0  0  0
    1.7993    1.0995    1.4302 H   0  0  0  0  0  0  0  0  0  0  0  0
    0.9800    3.0586    1.7283 C   0  0  0  0  0  0  0  0  0  0  0  0
    0.0204    3.2927    2.2001 H   0  0  0  0  0  0  0  0  0  0  0  0
    1.7718    3.1979    2.4702 H   0  0  0  0  0  0  0  0  0  0  0  0
    1.1494    3.7566    0.9023 H   0  0  0  0  0  0  0  0  0  0  0  0
  1  2  1  0  0  0  0
  2  3  1  0  0  0  0
  2  4  1  0  0  0  0
  2  5  1  0  0  0  0
  5  6  2  0  0  0  0
  5  7  1  0  0  0  0
  7  8  1  0  0  0  0
  7  9  1  0  0  0  0
  9 10  1  0  0  0  0
  9 11  1  0  0  0  0
  9 17  1  0  0  0  0
 11 12  1  0  0  0  0
 11 13  1  0  0  0  0
 11 14  1  0  0  0  0
 14 15  1  0  0  0  0
 14 16  2  0  0  0  0
 17 18  2  0  0  0  0
 17 19  1  0  0  0  0
 19 20  1  0  0  0  0
 19 21  1  0  0  0  0
 21 22  1  0  0  0  0
 21 23  1  0  0  0  0
 21 24  1  0  0  0  0
M  CHG  1  15  -1
M  END
$$$$

  -OEChem-03222214023D

 24 23  0     1  0  0  0  0  0999 V2000
   -2.7331   -3.8669    0.3817 H   0  0  0  0  0  0  0  0  0  0  0  0
   -2.6922   -2.8487   -0.0153 C   0  0  0  0  0  0  0  0  0  0  0  0
   -3.5081   -2.2663    0.4194 H   0  0  0  0  0  0  0  0  0  0  0  0
   -2.8186   -2.8902   -1.1000 H   0  0  0  0  0  0  0  0  0  0  0  0
   -1.3590   -2.2069    0.3256 C   0  0  0  0  0  0  0  0  0  0  0  0
   -0.6086   -2.7742    1.1009 O   0  0  0  0  0  0  0  0  0  0  0  0
   -1.0879   -0.9453   -0.1569 N   0  0  0  0  0  0  0  0  0  0  0  0
   -1.8067   -0.5083   -0.7234 H   0  0  0  0  0  0  0  0  0  0  0  0
    0.2160   -0.2666   -0.1388 C   0  0  1  0  0  0  0  0  0  0  0  0
    0.8632   -0.7747    0.5831 H   0  0  0  0  0  0  0  0  0  0  0  0
    0.8393   -0.3147   -1.5600 C   0  0  0  0  0  0  0  0  0  0  0  0
    0.1581   -0.8330   -2.2396 H   0  0  0  0  0  0  0  0  0  0  0  0
    0.9607    0.7027   -1.9428 H   0  0  0  0  0  0  0  0  0  0  0  0
    2.1932   -1.0165   -1.6690 C   0  0  0  0  0  0  0  0  0  0  0  0
    2.6056   -1.7452   -0.7360 O   0  5  0  0  0  0  0  0  0  0  0  0
    2.8329   -0.7869   -2.7239 O   0  0  0  0  0  0  0  0  0  0  0  0
    0.0925    1.1960    0.3295 C   0  0  0  0  0  0  0  0  0  0  0  0
   -0.8570    1.8928   -0.0248 O   0  0  0  0  0  0  0  0  0  0  0  0
    0.9981    1.6931    1.2473 N   0  0  0  0  0  0  0  0  0  0  0  0
    1.7965    1.0980    1.4590 H   0  0  0  0  0  0  0  0  0  0  0  0
    0.9841    3.0631    1.7354 C   0  0  0  0  0  0  0  0  0  0  0  0
    0.0254    3.2900    2.2125 H   0  0  0  0  0  0  0  0  0  0  0  0
    1.7790    3.2060    2.4733 H   0  0  0  0  0  0  0  0  0  0  0  0
    1.1452    3.7634    0.9098 H   0  0  0  0  0  0  0  0  0  0  0  0
  1  2  1  0  0  0  0
  2  3  1  0  0  0  0
  2  4  1  0  0  0  0
  2  5  1  0  0  0  0
  5  6  2  0  0  0  0
  5  7  1  0  0  0  0
  7  8  1  0  0  0  0
  7  9  1  0  0  0  0
  9 10  1  0  0  0  0
  9 11  1  0  0  0  0
  9 17  1  0  0  0  0
 11 12  1  0  0  0  0
 11 13  1  0  0  0  0
 11 14  1  0  0  0  0
 14 15  1  0  0  0  0
 14 16  2  0  0  0  0
 17 18  2  0  0  0  0
 17 19  1  0  0  0  0
 19 20  1  0  0  0  0
 19 21  1  0  0  0  0
 21 22  1  0  0  0  0
 21 23  1  0  0  0  0
 21 24  1  0  0  0  0
M  CHG  1  15  -1
M  END
$$$$

  -OEChem-03222214023D

 24 23  0     1  0  0  0  0  0999 V2000
   -2.7079   -3.8794    0.3940 H   0  0  0  0  0  0  0  0  0  0  0  0
   -2.6551   -2.8846   -0.0570 C   0  0  0  0  0  0  0  0  0  0  0  0
   -3.5191   -2.3011    0.2700 H   0  0  0  0  0  0  0  0  0  0  0  0
   -2.6846   -2.9908   -1.1442 H   0  0  0  0  0  0  0  0  0  0  0  0
   -1.3704   -2.1893    0.3586 C   0  0  0  0  0  0  0  0  0  0  0  0
   -0.6598   -2.7073    1.2037 O   0  0  0  0  0  0  0  0  0  0  0  0
   -1.1093   -0.9273   -0.1289 N   0  0  0  0  0  0  0  0  0  0  0  0
   -1.8009   -0.5324   -0.7563 H   0  0  0  0  0  0  0  0  0  0  0  0
    0.2007   -0.2602   -0.1221 C   0  0  1  0  0  0  0  0  0  0  0  0
    0.8627   -0.7781    0.5801 H   0  0  0  0  0  0  0  0  0  0  0  0
    0.7991   -0.2970   -1.5535 C   0  0  0  0  0  0  0  0  0  0  0  0
    0.1071   -0.8056   -2.2291 H   0  0  0  0  0  0  0  0  0  0  0  0
    0.9243    0.7221   -1.9316 H   0  0  0  0  0  0  0  0  0  0  0  0
    2.1419   -1.0152   -1.6690 C   0  0  0  0  0  0  0  0  0  0  0  0
    2.4137   -1.9568   -0.8886 O   0  5  0  0  0  0  0  0  0  0  0  0
    2.9138   -0.5880   -2.5614 O   0  0  0  0  0  0  0  0  0  0  0  0
    0.0926    1.2030    0.3510 C   0  0  0  0  0  0  0  0  0  0  0  0
   -0.8442    1.9147   -0.0072 O   0  0  0  0  0  0  0  0  0  0  0  0
    1.0095    1.6931    1.2616 N   0  0  0  0  0  0  0  0  0  0  0  0
    1.7987    1.0881    1.4773 H   0  0  0  0  0  0  0  0  0  0  0  0
    1.0218    3.0693    1.7325 C   0  0  0  0  0  0  0  0  0  0  0  0
    0.0798    3.3101    2.2356 H   0  0  0  0  0  0  0  0  0  0  0  0
    1.8403    3.2144    2.4437 H   0  0  0  0  0  0  0  0  0  0  0  0
    1.1634    3.7589    0.8940 H   0  0  0  0  0  0  0  0  0  0  0  0
  1  2  1  0  0  0  0
  2  3  1  0  0  0  0
  2  4  1  0  0  0  0
  2  5  1  0  0  0  0
  5  6  2  0  0  0  0
  5  7  1  0  0  0  0
  7  8  1  0  0  0  0
  7  9  1  0  0  0  0
  9 10  1  0  0  0  0
  9 11  1  0  0  0  0
  9 17  1  0  0  0  0
 11 12  1  0  0  0  0
 11 13  1  0  0  0  0
 11 14  1  0  0  0  0
 14 15  1  0  0  0  0
 14 16  2  0  0  0  0
 17 18  2  0  0  0  0
 17 19  1  0  0  0  0
 19 20  1  0  0  0  0
 19 21  1  0  0  0  0
 21 22  1  0  0  0  0
 21 23  1  0  0  0  0
 21 24  1  0  0  0  0
M  CHG  1  15  -1
M  END
$$$$

  -OEChem-03222214023D

 24 23  0     1  0  0  0  0  0999 V2000
   -2.6574   -3.9068    0.3666 H   0  0  0  0  0  0  0  0  0  0  0  0
   -2.6235   -2.9091   -0.0800 C   0  0  0  0  0  0  0  0  0  0  0  0
   -3.5152   -2.3547    0.2220 H   0  0  0  0  0  0  0  0  0  0  0  0
   -2.6162   -3.0125   -1.1679 H   0  0  0  0  0  0  0  0  0  0  0  0
   -1.3757   -2.1737    0.3761 C   0  0  0  0  0  0  0  0  0  0  0  0
   -0.6930   -2.6523    1.2671 O   0  0  0  0  0  0  0  0  0  0  0  0
   -1.1278   -0.9109   -0.1163 N   0  0  0  0  0  0  0  0  0  0  0  0
   -1.7965   -0.5521   -0.7881 H   0  0  0  0  0  0  0  0  0  0  0  0
    0.1865   -0.2540   -0.1176 C   0  0  1  0  0  0  0  0  0  0  0  0
    0.8585   -0.7818    0.5685 H   0  0  0  0  0  0  0  0  0  0  0  0
    0.7673   -0.2828   -1.5542 C   0  0  0  0  0  0  0  0  0  0  0  0
    0.0698   -0.7837   -2.2301 H   0  0  0  0  0  0  0  0  0  0  0  0
    0.9010    0.7363   -1.9302 H   0  0  0  0  0  0  0  0  0  0  0  0
    2.0994   -1.0177   -1.6553 C   0  0  0  0  0  0  0  0  0  0  0  0
    2.2296   -2.1200   -1.0748 O   0  5  0  0  0  0  0  0  0  0  0  0
    3.0057   -0.4434   -2.3057 O   0  0  0  0  0  0  0  0  0  0  0  0
    0.0921    1.2096    0.3595 C   0  0  0  0  0  0  0  0  0  0  0  0
   -0.8384    1.9309    0.0040 O   0  0  0  0  0  0  0  0  0  0  0  0
    1.0184    1.6923    1.2648 N   0  0  0  0  0  0  0  0  0  0  0  0
    1.8088    1.0850    1.4686 H   0  0  0  0  0  0  0  0  0  0  0  0
    1.0482    3.0708    1.7280 C   0  0  0  0  0  0  0  0  0  0  0  0
    0.1129    3.3236    2.2375 H   0  0  0  0  0  0  0  0  0  0  0  0
    1.8738    3.2116    2.4317 H   0  0  0  0  0  0  0  0  0  0  0  0
    1.1897    3.7543    0.8847 H   0  0  0  0  0  0  0  0  0  0  0  0
  1  2  1  0  0  0  0
  2  3  1  0  0  0  0
  2  4  1  0  0  0  0
  2  5  1  0  0  0  0
  5  6  2  0  0  0  0
  5  7  1  0  0  0  0
  7  8  1  0  0  0  0
  7  9  1  0  0  0  0
  9 10  1  0  0  0  0
  9 11  1  0  0  0  0
  9 17  1  0  0  0  0
 11 12  1  0  0  0  0
 11 13  1  0  0  0  0
 11 14  1  0  0  0  0
 14 15  1  0  0  0  0
 14 16  2  0  0  0  0
 17 18  2  0  0  0  0
 17 19  1  0  0  0  0
 19 20  1  0  0  0  0
 19 21  1  0  0  0  0
 21 22  1  0  0  0  0
 21 23  1  0  0  0  0
 21 24  1  0  0  0  0
M  CHG  1  15  -1
M  END
$$$$

  -OEChem-03222214023D

 24 23  0     1  0  0  0  0  0999 V2000
   -2.6510   -3.9133    0.3761 H   0  0  0  0  0  0  0  0  0  0  0  0
   -2.6125   -2.9244   -0.0890 C   0  0  0  0  0  0  0  0  0  0  0  0
   -3.5099   -2.3665    0.1889 H   0  0  0  0  0  0  0  0  0  0  0  0
   -2.5883   -3.0486   -1.1746 H   0  0  0  0  0  0  0  0  0  0  0  0
   -1.3730   -2.1777    0.3713 C   0  0  0  0  0  0  0  0  0  0  0  0
   -0.6814   -2.6547    1.2567 O   0  0  0  0  0  0  0  0  0  0  0  0
   -1.1382   -0.9094   -0.1133 N   0  0  0  0  0  0  0  0  0  0  0  0
   -1.8102   -0.5536   -0.7831 H   0  0  0  0  0  0  0  0  0  0  0  0
    0.1748   -0.2507   -0.1206 C   0  0  1  0  0  0  0  0  0  0  0  0
    0.8549   -0.7854    0.5527 H   0  0  0  0  0  0  0  0  0  0  0  0
    0.7481   -0.2672   -1.5574 C   0  0  0  0  0  0  0  0  0  0  0  0
    0.0537   -0.7658   -2.2383 H   0  0  0  0  0  0  0  0  0  0  0  0
    0.8864    0.7521   -1.9307 H   0  0  0  0  0  0  0  0  0  0  0  0
    2.0772   -1.0052   -1.6323 C   0  0  0  0  0  0  0  0  0  0  0  0
    2.1072   -2.2119   -1.2977 O   0  5  0  0  0  0  0  0  0  0  0  0
    3.0800   -0.3308   -1.9702 O   0  0  0  0  0  0  0  0  0  0  0  0
    0.0848    1.2089    0.3702 C   0  0  0  0  0  0  0  0  0  0  0  0
   -0.8505    1.9318    0.0300 O   0  0  0  0  0  0  0  0  0  0  0  0
    1.0195    1.6848    1.2706 N   0  0  0  0  0  0  0  0  0  0  0  0
    1.8288    1.0892    1.4306 H   0  0  0  0  0  0  0  0  0  0  0  0
    1.0676    3.0684    1.7171 C   0  0  0  0  0  0  0  0  0  0  0  0
    0.1320    3.3430    2.2147 H   0  0  0  0  0  0  0  0  0  0  0  0
    1.8891    3.2050    2.4266 H   0  0  0  0  0  0  0  0  0  0  0  0
    1.2280    3.7382    0.8661 H   0  0  0  0  0  0  0  0  0  0  0  0
  1  2  1  0  0  0  0
  2  3  1  0  0  0  0
  2  4  1  0  0  0  0
  2  5  1  0  0  0  0
  5  6  2  0  0  0  0
  5  7  1  0  0  0  0
  7  8  1  0  0  0  0
  7  9  1  0  0  0  0
  9 10  1  0  0  0  0
  9 11  1  0  0  0  0
  9 17  1  0  0  0  0
 11 12  1  0  0  0  0
 11 13  1  0  0  0  0
 11 14  1  0  0  0  0
 14 15  1  0  0  0  0
 14 16  2  0  0  0  0
 17 18  2  0  0  0  0
 17 19  1  0  0  0  0
 19 20  1  0  0  0  0
 19 21  1  0  0  0  0
 21 22  1  0  0  0  0
 21 23  1  0  0  0  0
 21 24  1  0  0  0  0
M  CHG  1  15  -1
M  END
$$$$

  -OEChem-03222214023D

 24 23  0     1  0  0  0  0  0999 V2000
   -2.6568   -3.9124    0.3890 H   0  0  0  0  0  0  0  0  0  0  0  0
   -2.6211   -2.9243   -0.0784 C   0  0  0  0  0  0  0  0  0  0  0  0
   -3.5093   -2.3605    0.2165 H   0  0  0  0  0  0  0  0  0  0  0  0
   -2.6195   -3.0505   -1.1639 H   0  0  0  0  0  0  0  0  0  0  0  0
   -1.3681   -2.1846    0.3563 C   0  0  0  0  0  0  0  0  0  0  0  0
   -0.6537   -2.6733    1.2168 O   0  0  0  0  0  0  0  0  0  0  0  0
   -1.1396   -0.9135   -0.1245 N   0  0  0  0  0  0  0  0  0  0  0  0
   -1.8243   -0.5480   -0.7762 H   0  0  0  0  0  0  0  0  0  0  0  0
    0.1698   -0.2481   -0.1351 C   0  0  1  0  0  0  0  0  0  0  0  0
    0.8519   -0.7818    0.5374 H   0  0  0  0  0  0  0  0  0  0  0  0
    0.7478   -0.2611   -1.5669 C   0  0  0  0  0  0  0  0  0  0  0  0
    0.0613   -0.7630   -2.2535 H   0  0  0  0  0  0  0  0  0  0  0  0
    0.8909    0.7567   -1.9426 H   0  0  0  0  0  0  0  0  0  0  0  0
    2.0781   -0.9948   -1.6086 C   0  0  0  0  0  0  0  0  0  0  0  0
    2.0672   -2.2460   -1.5448 O   0  5  0  0  0  0  0  0  0  0  0  0
    3.1120   -0.2833   -1.5987 O   0  0  0  0  0  0  0  0  0  0  0  0
    0.0836    1.2103    0.3593 C   0  0  0  0  0  0  0  0  0  0  0  0
   -0.8627    1.9284    0.0397 O   0  0  0  0  0  0  0  0  0  0  0  0
    1.0254    1.6811    1.2547 N   0  0  0  0  0  0  0  0  0  0  0  0
    1.8544    1.1011    1.3679 H   0  0  0  0  0  0  0  0  0  0  0  0
    1.0709    3.0606    1.7140 C   0  0  0  0  0  0  0  0  0  0  0  0
    0.1311    3.3328    2.2050 H   0  0  0  0  0  0  0  0  0  0  0  0
    1.8846    3.1886    2.4339 H   0  0  0  0  0  0  0  0  0  0  0  0
    1.2411    3.7381    0.8713 H   0  0  0  0  0  0  0  0  0  0  0  0
  1  2  1  0  0  0  0
  2  3  1  0  0  0  0
  2  4  1  0  0  0  0
  2  5  1  0  0  0  0
  5  6  2  0  0  0  0
  5  7  1  0  0  0  0
  7  8  1  0  0  0  0
  7  9  1  0  0  0  0
  9 10  1  0  0  0  0
  9 11  1  0  0  0  0
  9 17  1  0  0  0  0
 11 12  1  0  0  0  0
 11 13  1  0  0  0  0
 11 14  1  0  0  0  0
 14 15  1  0  0  0  0
 14 16  2  0  0  0  0
 17 18  2  0  0  0  0
 17 19  1  0  0  0  0
 19 20  1  0  0  0  0
 19 21  1  0  0  0  0
 21 22  1  0  0  0  0
 21 23  1  0  0  0  0
 21 24  1  0  0  0  0
M  CHG  1  15  -1
M  END
$$$$

  -OEChem-03222214023D

 24 23  0     1  0  0  0  0  0999 V2000
   -2.6676   -3.9144    0.3749 H   0  0  0  0  0  0  0  0  0  0  0  0
   -2.6468   -2.9105   -0.0583 C   0  0  0  0  0  0  0  0  0  0  0  0
   -3.5103   -2.3492    0.3063 H   0  0  0  0  0  0  0  0  0  0  0  0
   -2.7078   -2.9971   -1.1459 H   0  0  0  0  0  0  0  0  0  0  0  0
   -1.3628   -2.1993    0.3308 C   0  0  0  0  0  0  0  0  0  0  0  0
   -0.6145   -2.7193    1.1423 O   0  0  0  0  0  0  0  0  0  0  0  0
   -1.1337   -0.9257   -0.1432 N   0  0  0  0  0  0  0  0  0  0  0  0
   -1.8402   -0.5343   -0.7557 H   0  0  0  0  0  0  0  0  0  0  0  0
    0.1701   -0.2489   -0.1514 C   0  0  1  0  0  0  0  0  0  0  0  0
    0.8482   -0.7781    0.5287 H   0  0  0  0  0  0  0  0  0  0  0  0
    0.7668   -0.2610   -1.5737 C   0  0  0  0  0  0  0  0  0  0  0  0
    0.0946   -0.7706   -2.2691 H   0  0  0  0  0  0  0  0  0  0  0  0
    0.9123    0.7553   -1.9515 H   0  0  0  0  0  0  0  0  0  0  0  0
    2.1027   -0.9825   -1.5774 C   0  0  0  0  0  0  0  0  0  0  0  0
    2.1149   -2.2176   -1.7895 O   0  5  0  0  0  0  0  0  0  0  0  0
    3.1013   -0.2974   -1.2437 O   0  0  0  0  0  0  0  0  0  0  0  0
    0.0810    1.2075    0.3456 C   0  0  0  0  0  0  0  0  0  0  0  0
   -0.8791    1.9158    0.0452 O   0  0  0  0  0  0  0  0  0  0  0  0
    1.0248    1.6758    1.2395 N   0  0  0  0  0  0  0  0  0  0  0  0
    1.8730    1.1149    1.3075 H   0  0  0  0  0  0  0  0  0  0  0  0
    1.0621    3.0522    1.7085 C   0  0  0  0  0  0  0  0  0  0  0  0
    0.1238    3.3123    2.2089 H   0  0  0  0  0  0  0  0  0  0  0  0
    1.8803    3.1815    2.4230 H   0  0  0  0  0  0  0  0  0  0  0  0
    1.2196    3.7379    0.8699 H   0  0  0  0  0  0  0  0  0  0  0  0
  1  2  1  0  0  0  0
  2  3  1  0  0  0  0
  2  4  1  0  0  0  0
  2  5  1  0  0  0  0
  5  6  2  0  0  0  0
  5  7  1  0  0  0  0
  7  8  1  0  0  0  0
  7  9  1  0  0  0  0
  9 10  1  0  0  0  0
  9 11  1  0  0  0  0
  9 17  1  0  0  0  0
 11 12  1  0  0  0  0
 11 13  1  0  0  0  0
 11 14  1  0  0  0  0
 14 15  1  0  0  0  0
 14 16  2  0  0  0  0
 17 18  2  0  0  0  0
 17 19  1  0  0  0  0
 19 20  1  0  0  0  0
 19 21  1  0  0  0  0
 21 22  1  0  0  0  0
 21 23  1  0  0  0  0
 21 24  1  0  0  0  0
M  CHG  1  15  -1
M  END
$$$$

  -OEChem-03222214023D

 24 23  0     1  0  0  0  0  0999 V2000
   -2.6932   -3.9116    0.3679 H   0  0  0  0  0  0  0  0  0  0  0  0
   -2.6782   -2.8949   -0.0348 C   0  0  0  0  0  0  0  0  0  0  0  0
   -3.5057   -2.3294    0.4000 H   0  0  0  0  0  0  0  0  0  0  0  0
   -2.8079   -2.9453   -1.1188 H   0  0  0  0  0  0  0  0  0  0  0  0
   -1.3589   -2.2198    0.2963 C   0  0  0  0  0  0  0  0  0  0  0  0
   -0.5730   -2.7801    1.0422 O   0  0  0  0  0  0  0  0  0  0  0  0
   -1.1293   -0.9422   -0.1662 N   0  0  0  0  0  0  0  0  0  0  0  0
   -1.8662   -0.5129   -0.7147 H   0  0  0  0  0  0  0  0  0  0  0  0
    0.1656   -0.2487   -0.1675 C   0  0  1  0  0  0  0  0  0  0  0  0
    0.8339   -0.7725    0.5266 H   0  0  0  0  0  0  0  0  0  0  0  0
    0.7925   -0.2632   -1.5758 C   0  0  0  0  0  0  0  0  0  0  0  0
    0.1417   -0.7900   -2.2790 H   0  0  0  0  0  0  0  0  0  0  0  0
    0.9316    0.7510   -1.9608 H   0  0  0  0  0  0  0  0  0  0  0  0
    2.1396   -0.9635   -1.5398 C   0  0  0  0  0  0  0  0  0  0  0  0
    2.2324   -2.1225   -2.0088 O   0  5  0  0  0  0  0  0  0  0  0  0
    3.0626   -0.3433   -0.9526 O   0  0  0  0  0  0  0  0  0  0  0  0
    0.0717    1.2042    0.3338 C   0  0  0  0  0  0  0  0  0  0  0  0
   -0.8993    1.9043    0.0495 O   0  0  0  0  0  0  0  0  0  0  0  0
    1.0174    1.6668    1.2278 N   0  0  0  0  0  0  0  0  0  0  0  0
    1.8767    1.1173    1.2612 H   0  0  0  0  0  0  0  0  0  0  0  0
    1.0547    3.0412    1.7018 C   0  0  0  0  0  0  0  0  0  0  0  0
    0.1194    3.2966    2.2099 H   0  0  0  0  0  0  0  0  0  0  0  0
    1.8781    3.1702    2.4105 H   0  0  0  0  0  0  0  0  0  0  0  0
    1.2039    3.7303    0.8644 H   0  0  0  0  0  0  0  0  0  0  0  0
  1  2  1  0  0  0  0
  2  3  1  0  0  0  0
  2  4  1  0  0  0  0
  2  5  1  0  0  0  0
  5  6  2  0  0  0  0
  5  7  1  0  0  0  0
  7  8  1  0  0  0  0
  7  9  1  0  0  0  0
  9 10  1  0  0  0  0
  9 11  1  0  0  0  0
  9 17  1  0  0  0  0
 11 12  1  0  0  0  0
 11 13  1  0  0  0  0
 11 14  1  0  0  0  0
 14 15  1  0  0  0  0
 14 16  2  0  0  0  0
 17 18  2  0  0  0  0
 17 19  1  0  0  0  0
 19 20  1  0  0  0  0
 19 21  1  0  0  0  0
 21 22  1  0  0  0  0
 21 23  1  0  0  0  0
 21 24  1  0  0  0  0
M  CHG  1  15  -1
M  END
$$$$

  -OEChem-03222214023D

 24 23  0     1  0  0  0  0  0999 V2000
   -2.7225   -3.8995    0.3832 H   0  0  0  0  0  0  0  0  0  0  0  0
   -2.7026   -2.8804   -0.0133 C   0  0  0  0  0  0  0  0  0  0  0  0
   -3.5023   -2.3023    0.4560 H   0  0  0  0  0  0  0  0  0  0  0  0
   -2.8746   -2.9204   -1.0917 H   0  0  0  0  0  0  0  0  0  0  0  0
   -1.3585   -2.2331    0.2708 C   0  0  0  0  0  0  0  0  0  0  0  0
   -0.5441   -2.8268    0.9574 O   0  0  0  0  0  0  0  0  0  0  0  0
   -1.1273   -0.9531   -0.1841 N   0  0  0  0  0  0  0  0  0  0  0  0
   -1.8846   -0.4954   -0.6796 H   0  0  0  0  0  0  0  0  0  0  0  0
    0.1619   -0.2486   -0.1782 C   0  0  1  0  0  0  0  0  0  0  0  0
    0.8177   -0.7692    0.5297 H   0  0  0  0  0  0  0  0  0  0  0  0
    0.8141   -0.2719   -1.5755 C   0  0  0  0  0  0  0  0  0  0  0  0
    0.1776   -0.8126   -2.2813 H   0  0  0  0  0  0  0  0  0  0  0  0
    0.9482    0.7397   -1.9685 H   0  0  0  0  0  0  0  0  0  0  0  0
    2.1701   -0.9561   -1.5178 C   0  0  0  0  0  0  0  0  0  0  0  0
    2.3613   -1.9814   -2.2142 O   0  5  0  0  0  0  0  0  0  0  0  0
    3.0216   -0.4264   -0.7572 O   0  0  0  0  0  0  0  0  0  0  0  0
    0.0645    1.2023    0.3249 C   0  0  0  0  0  0  0  0  0  0  0  0
   -0.9142    1.8960    0.0517 O   0  0  0  0  0  0  0  0  0  0  0  0
    1.0097    1.6612    1.2208 N   0  0  0  0  0  0  0  0  0  0  0  0
    1.8711    1.1128    1.2450 H   0  0  0  0  0  0  0  0  0  0  0  0
    1.0459    3.0327    1.7024 C   0  0  0  0  0  0  0  0  0  0  0  0
    0.1096    3.2858    2.2098 H   0  0  0  0  0  0  0  0  0  0  0  0
    1.8674    3.1576    2.4139 H   0  0  0  0  0  0  0  0  0  0  0  0
    1.1974    3.7259    0.8690 H   0  0  0  0  0  0  0  0  0  0  0  0
  1  2  1  0  0  0  0
  2  3  1  0  0  0  0
  2  4  1  0  0  0  0
  2  5  1  0  0  0  0
  5  6  2  0  0  0  0
  5  7  1  0  0  0  0
  7  8  1  0  0  0  0
  7  9  1  0  0  0  0
  9 10  1  0  0  0  0
  9 11  1  0  0  0  0
  9 17  1  0  0  0  0
 11 12  1  0  0  0  0
 11 13  1  0  0  0  0
 11 14  1  0  0  0  0
 14 15  1  0  0  0  0
 14 16  2  0  0  0  0
 17 18  2  0  0  0  0
 17 19  1  0  0  0  0
 19 20  1  0  0  0  0
 19 21  1  0  0  0  0
 21 22  1  0  0  0  0
 21 23  1  0  0  0  0
 21 24  1  0  0  0  0
M  CHG  1  15  -1
M  END
$$$$

  -OEChem-03222214023D

 24 23  0     1  0  0  0  0  0999 V2000
   -2.7482   -3.8881    0.3972 H   0  0  0  0  0  0  0  0  0  0  0  0
   -2.7244   -2.8675    0.0051 C   0  0  0  0  0  0  0  0  0  0  0  0
   -3.4977   -2.2788    0.5045 H   0  0  0  0  0  0  0  0  0  0  0  0
   -2.9332   -2.8983   -1.0672 H   0  0  0  0  0  0  0  0  0  0  0  0
   -1.3607   -2.2451    0.2477 C   0  0  0  0  0  0  0  0  0  0  0  0
   -0.5280   -2.8657    0.8866 O   0  0  0  0  0  0  0  0  0  0  0  0
   -1.1263   -0.9633   -0.2002 N   0  0  0  0  0  0  0  0  0  0  0  0
   -1.8972   -0.4839   -0.6532 H   0  0  0  0  0  0  0  0  0  0  0  0
    0.1587   -0.2507   -0.1837 C   0  0  1  0  0  0  0  0  0  0  0  0
    0.8001   -0.7701    0.5376 H   0  0  0  0  0  0  0  0  0  0  0  0
    0.8336   -0.2838   -1.5711 C   0  0  0  0  0  0  0  0  0  0  0  0
    0.2085   -0.8367   -2.2776 H   0  0  0  0  0  0  0  0  0  0  0  0
    0.9606    0.7254   -1.9719 H   0  0  0  0  0  0  0  0  0  0  0  0
    2.1981   -0.9548   -1.5062 C   0  0  0  0  0  0  0  0  0  0  0  0
    2.4929   -1.7923   -2.3924 O   0  5  0  0  0  0  0  0  0  0  0  0
    2.9841   -0.5371   -0.6154 O   0  0  0  0  0  0  0  0  0  0  0  0
    0.0578    1.1987    0.3204 C   0  0  0  0  0  0  0  0  0  0  0  0
   -0.9229    1.8897    0.0479 O   0  0  0  0  0  0  0  0  0  0  0  0
    0.9991    1.6546    1.2217 N   0  0  0  0  0  0  0  0  0  0  0  0
    1.8579    1.1014    1.2518 H   0  0  0  0  0  0  0  0  0  0  0  0
    1.0383    3.0266    1.7016 C   0  0  0  0  0  0  0  0  0  0  0  0
    0.1020    3.2831    2.2075 H   0  0  0  0  0  0  0  0  0  0  0  0
    1.8598    3.1503    2.4135 H   0  0  0  0  0  0  0  0  0  0  0  0
    1.1921    3.7181    0.8672 H   0  0  0  0  0  0  0  0  0  0  0  0
  1  2  1  0  0  0  0
  2  3  1  0  0  0  0
  2  4  1  0  0  0  0
  2  5  1  0  0  0  0
  5  6  2  0  0  0  0
  5  7  1  0  0  0  0
  7  8  1  0  0  0  0
  7  9  1  0  0  0  0
  9 10  1  0  0  0  0
  9 11  1  0  0  0  0
  9 17  1  0  0  0  0
 11 12  1  0  0  0  0
 11 13  1  0  0  0  0
 11 14  1  0  0  0  0
 14 15  1  0  0  0  0
 14 16  2  0  0  0  0
 17 18  2  0  0  0  0
 17 19  1  0  0  0  0
 19 20  1  0  0  0  0
 19 21  1  0  0  0  0
 21 22  1  0  0  0  0
 21 23  1  0  0  0  0
 21 24  1  0  0  0  0
M  CHG  1  15  -1
M  END
$$$$

  -OEChem-03222214023D

 24 23  0     1  0  0  0  0  0999 V2000
   -2.7718   -3.8724    0.4188 H   0  0  0  0  0  0  0  0  0  0  0  0
   -2.7407   -2.8528    0.0245 C   0  0  0  0  0  0  0  0  0  0  0  0
   -3.4919   -2.2512    0.5417 H   0  0  0  0  0  0  0  0  0  0  0  0
   -2.9763   -2.8813   -1.0423 H   0  0  0  0  0  0  0  0  0  0  0  0
   -1.3619   -2.2517    0.2330 C   0  0  0  0  0  0  0  0  0  0  0  0
   -0.5186   -2.8929    0.8362 O   0  0  0  0  0  0  0  0  0  0  0  0
   -1.1224   -0.9704   -0.2139 N   0  0  0  0  0  0  0  0  0  0  0  0
   -1.9017   -0.4746   -0.6343 H   0  0  0  0  0  0  0  0  0  0  0  0
    0.1611   -0.2547   -0.1884 C   0  0  1  0  0  0  0  0  0  0  0  0
    0.7879   -0.7718    0.5460 H   0  0  0  0  0  0  0  0  0  0  0  0
    0.8516   -0.3011   -1.5696 C   0  0  0  0  0  0  0  0  0  0  0  0
    0.2313   -0.8632   -2.2731 H   0  0  0  0  0  0  0  0  0  0  0  0
    0.9718    0.7055   -1.9786 H   0  0  0  0  0  0  0  0  0  0  0  0
    2.2231   -0.9641   -1.5162 C   0  0  0  0  0  0  0  0  0  0  0  0
    2.6113   -1.5680   -2.5452 O   0  5  0  0  0  0  0  0  0  0  0  0
    2.9508   -0.6946   -0.5244 O   0  0  0  0  0  0  0  0  0  0  0  0
    0.0565    1.1955    0.3116 C   0  0  0  0  0  0  0  0  0  0  0  0
   -0.9238    1.8846    0.0336 O   0  0  0  0  0  0  0  0  0  0  0  0
    0.9913    1.6533    1.2189 N   0  0  0  0  0  0  0  0  0  0  0  0
    1.8438    1.0925    1.2718 H   0  0  0  0  0  0  0  0  0  0  0  0
    1.0243    3.0227    1.7071 C   0  0  0  0  0  0  0  0  0  0  0  0
    0.0800    3.2775    2.1985 H   0  0  0  0  0  0  0  0  0  0  0  0
    1.8338    3.1412    2.4335 H   0  0  0  0  0  0  0  0  0  0  0  0
    1.1930    3.7190    0.8795 H   0  0  0  0  0  0  0  0  0  0  0  0
  1  2  1  0  0  0  0
  2  3  1  0  0  0  0
  2  4  1  0  0  0  0
  2  5  1  0  0  0  0
  5  6  2  0  0  0  0
  5  7  1  0  0  0  0
  7  8  1  0  0  0  0
  7  9  1  0  0  0  0
  9 10  1  0  0  0  0
  9 11  1  0  0  0  0
  9 17  1  0  0  0  0
 11 12  1  0  0  0  0
 11 13  1  0  0  0  0
 11 14  1  0  0  0  0
 14 15  1  0  0  0  0
 14 16  2  0  0  0  0
 17 18  2  0  0  0  0
 17 19  1  0  0  0  0
 19 20  1  0  0  0  0
 19 21  1  0  0  0  0
 21 22  1  0  0  0  0
 21 23  1  0  0  0  0
 21 24  1  0  0  0  0
M  CHG  1  15  -1
M  END
$$$$

  -OEChem-03222214023D

 24 23  0     1  0  0  0  0  0999 V2000
   -2.7910   -3.8588    0.4257 H   0  0  0  0  0  0  0  0  0  0  0  0
   -2.7496   -2.8398    0.0305 C   0  0  0  0  0  0  0  0  0  0  0  0
   -3.4931   -2.2294    0.5486 H   0  0  0  0  0  0  0  0  0  0  0  0
   -2.9881   -2.8662   -1.0356 H   0  0  0  0  0  0  0  0  0  0  0  0
   -1.3638   -2.2533    0.2352 C   0  0  0  0  0  0  0  0  0  0  0  0
   -0.5258   -2.9048    0.8343 O   0  0  0  0  0  0  0  0  0  0  0  0
   -1.1121   -0.9752   -0.2139 N   0  0  0  0  0  0  0  0  0  0  0  0
   -1.8882   -0.4713   -0.6304 H   0  0  0  0  0  0  0  0  0  0  0  0
    0.1737   -0.2632   -0.1808 C   0  0  1  0  0  0  0  0  0  0  0  0
    0.7922   -0.7779    0.5612 H   0  0  0  0  0  0  0  0  0  0  0  0
    0.8640   -0.3172   -1.5647 C   0  0  0  0  0  0  0  0  0  0  0  0
    0.2355   -0.8750   -2.2642 H   0  0  0  0  0  0  0  0  0  0  0  0
    0.9798    0.6907   -1.9722 H   0  0  0  0  0  0  0  0  0  0  0  0
    2.2387   -0.9809   -1.5517 C   0  0  0  0  0  0  0  0  0  0  0  0
    2.7024   -1.3116   -2.6698 O   0  5  0  0  0  0  0  0  0  0  0  0
    2.9126   -0.9257   -0.4905 O   0  0  0  0  0  0  0  0  0  0  0  0
    0.0613    1.1885    0.3129 C   0  0  0  0  0  0  0  0  0  0  0  0
   -0.9152    1.8756    0.0173 O   0  0  0  0  0  0  0  0  0  0  0  0
    0.9840    1.6550    1.2282 N   0  0  0  0  0  0  0  0  0  0  0  0
    1.8263    1.0854    1.3203 H   0  0  0  0  0  0  0  0  0  0  0  0
    1.0075    3.0267    1.7097 C   0  0  0  0  0  0  0  0  0  0  0  0
    0.0584    3.2796    2.1928 H   0  0  0  0  0  0  0  0  0  0  0  0
    1.8109    3.1525    2.4415 H   0  0  0  0  0  0  0  0  0  0  0  0
    1.1797    3.7197    0.8800 H   0  0  0  0  0  0  0  0  0  0  0  0
  1  2  1  0  0  0  0
  2  3  1  0  0  0  0
  2  4  1  0  0  0  0
  2  5  1  0  0  0  0
  5  6  2  0  0  0  0
  5  7  1  0  0  0  0
  7  8  1  0  0  0  0
  7  9  1  0  0  0  0
  9 10  1  0  0  0  0
  9 11  1  0  0  0  0
  9 17  1  0  0  0  0
 11 12  1  0  0  0  0
 11 13  1  0  0  0  0
 11 14  1  0  0  0  0
 14 15  1  0  0  0  0
 14 16  2  0  0  0  0
 17 18  2  0  0  0  0
 17 19  1  0  0  0  0
 19 20  1  0  0  0  0
 19 21  1  0  0  0  0
 21 22  1  0  0  0  0
 21 23  1  0  0  0  0
 21 24  1  0  0  0  0
M  CHG  1  15  -1
M  END
$$$$

  -OEChem-03222214023D

 24 23  0     1  0  0  0  0  0999 V2000
   -2.7215   -3.8650    0.4161 H   0  0  0  0  0  0  0  0  0  0  0  0
   -2.6515   -2.8823   -0.0586 C   0  0  0  0  0  0  0  0  0  0  0  0
   -3.5255   -2.2899    0.2229 H   0  0  0  0  0  0  0  0  0  0  0  0
   -2.6435   -3.0171   -1.1432 H   0  0  0  0  0  0  0  0  0  0  0  0
   -1.3813   -2.1764    0.3827 C   0  0  0  0  0  0  0  0  0  0  0  0
   -0.6961   -2.6740    1.2606 O   0  0  0  0  0  0  0  0  0  0  0  0
   -1.1057   -0.9240   -0.1207 N   0  0  0  0  0  0  0  0  0  0  0  0
   -1.7723   -0.5493   -0.7863 H   0  0  0  0  0  0  0  0  0  0  0  0
    0.2127   -0.2754   -0.1055 C   0  0  1  0  0  0  0  0  0  0  0  0
    0.8736   -0.7830    0.6045 H   0  0  0  0  0  0  0  0  0  0  0  0
    0.7981   -0.3213   -1.5425 C   0  0  0  0  0  0  0  0  0  0  0  0
    0.0004   -0.5156   -2.2642 H   0  0  0  0  0  0  0  0  0  0  0  0
    1.2172    0.6575   -1.7932 H   0  0  0  0  0  0  0  0  0  0  0  0
    1.9146   -1.3349   -1.7847 C   0  0  0  0  0  0  0  0  0  0  0  0
    2.3728   -1.3579   -2.9529 O   0  5  0  0  0  0  0  0  0  0  0  0
    2.3952   -1.9795   -0.8228 O   0  0  0  0  0  0  0  0  0  0  0  0
    0.1006    1.1941    0.3487 C   0  0  0  0  0  0  0  0  0  0  0  0
   -0.8129    1.9139   -0.0508 O   0  0  0  0  0  0  0  0  0  0  0  0
    1.0037    1.6922    1.2690 N   0  0  0  0  0  0  0  0  0  0  0  0
    1.7655    1.0734    1.5369 H   0  0  0  0  0  0  0  0  0  0  0  0
    1.0087    3.0706    1.7337 C   0  0  0  0  0  0  0  0  0  0  0  0
    0.0639    3.3098    2.2322 H   0  0  0  0  0  0  0  0  0  0  0  0
    1.8243    3.2225    2.4467 H   0  0  0  0  0  0  0  0  0  0  0  0
    1.1506    3.7568    0.8926 H   0  0  0  0  0  0  0  0  0  0  0  0
  1  2  1  0  0  0  0
  2  3  1  0  0  0  0
  2  4  1  0  0  0  0
  2  5  1  0  0  0  0
  5  6  2  0  0  0  0
  5  7  1  0  0  0  0
  7  8  1  0  0  0  0
  7  9  1  0  0  0  0
  9 10  1  0  0  0  0
  9 11  1  0  0  0  0
  9 17  1  0  0  0  0
 11 12  1  0  0  0  0
 11 13  1  0  0  0  0
 11 14  1  0  0  0  0
 14 15  1  0  0  0  0
 14 16  2  0  0  0  0
 17 18  2  0  0  0  0
 17 19  1  0  0  0  0
 19 20  1  0  0  0  0
 19 21  1  0  0  0  0
 21 22  1  0  0  0  0
 21 23  1  0  0  0  0
 21 24  1  0  0  0  0
M  CHG  1  15  -1
M  END
$$$$

  -OEChem-03222214023D

 24 23  0     1  0  0  0  0  0999 V2000
   -2.6282   -3.8990    0.3934 H   0  0  0  0  0  0  0  0  0  0  0  0
   -2.5784   -2.9245   -0.1005 C   0  0  0  0  0  0  0  0  0  0  0  0
   -3.5068   -2.3813    0.0913 H   0  0  0  0  0  0  0  0  0  0  0  0
   -2.4709   -3.0829   -1.1765 H   0  0  0  0  0  0  0  0  0  0  0  0
   -1.3939   -2.1321    0.4238 C   0  0  0  0  0  0  0  0  0  0  0  0
   -0.7811   -2.5424    1.3968 O   0  0  0  0  0  0  0  0  0  0  0  0
   -1.1384   -0.8826   -0.0977 N   0  0  0  0  0  0  0  0  0  0  0  0
   -1.7557   -0.5809   -0.8426 H   0  0  0  0  0  0  0  0  0  0  0  0
    0.1905   -0.2570   -0.0936 C   0  0  1  0  0  0  0  0  0  0  0  0
    0.8593   -0.7750    0.6024 H   0  0  0  0  0  0  0  0  0  0  0  0
    0.7541   -0.3079   -1.5391 C   0  0  0  0  0  0  0  0  0  0  0  0
   -0.0528   -0.4830   -2.2551 H   0  0  0  0  0  0  0  0  0  0  0  0
    1.1907    0.6639   -1.7888 H   0  0  0  0  0  0  0  0  0  0  0  0
    1.8458   -1.3457   -1.7886 C   0  0  0  0  0  0  0  0  0  0  0  0
    2.5012   -1.1996   -2.8486 O   0  5  0  0  0  0  0  0  0  0  0  0
    2.0541   -2.2484   -0.9452 O   0  0  0  0  0  0  0  0  0  0  0  0
    0.1044    1.2167    0.3558 C   0  0  0  0  0  0  0  0  0  0  0  0
   -0.7862    1.9585   -0.0549 O   0  0  0  0  0  0  0  0  0  0  0  0
    1.0214    1.7022    1.2694 N   0  0  0  0  0  0  0  0  0  0  0  0
    1.7551    1.0620    1.5624 H   0  0  0  0  0  0  0  0  0  0  0  0
    1.0447    3.0773    1.7433 C   0  0  0  0  0  0  0  0  0  0  0  0
    0.1085    3.3213    2.2553 H   0  0  0  0  0  0  0  0  0  0  0  0
    1.8706    3.2169    2.4470 H   0  0  0  0  0  0  0  0  0  0  0  0
    1.1826    3.7683    0.9054 H   0  0  0  0  0  0  0  0  0  0  0  0
  1  2  1  0  0  0  0
  2  3  1  0  0  0  0
  2  4  1  0  0  0  0
  2  5  1  0  0  0  0
  5  6  2  0  0  0  0
  5  7  1  0  0  0  0
  7  8  1  0  0  0  0
  7  9  1  0  0  0  0
  9 10  1  0  0  0  0
  9 11  1  0  0  0  0
  9 17  1  0  0  0  0
 11 12  1  0  0  0  0
 11 13  1  0  0  0  0
 11 14  1  0  0  0  0
 14 15  1  0  0  0  0
 14 16  2  0  0  0  0
 17 18  2  0  0  0  0
 17 19  1  0  0  0  0
 19 20  1  0  0  0  0
 19 21  1  0  0  0  0
 21 22  1  0  0  0  0
 21 23  1  0  0  0  0
 21 24  1  0  0  0  0
M  CHG  1  15  -1
M  END
$$$$

  -OEChem-03222214023D

 24 23  0     1  0  0  0  0  0999 V2000
   -2.5856   -3.8977    0.4312 H   0  0  0  0  0  0  0  0  0  0  0  0
   -2.5034   -2.9641   -0.1323 C   0  0  0  0  0  0  0  0  0  0  0  0
   -3.4577   -2.4346   -0.0839 H   0  0  0  0  0  0  0  0  0  0  0  0
   -2.2765   -3.2033   -1.1744 H   0  0  0  0  0  0  0  0  0  0  0  0
   -1.3983   -2.0994    0.4471 C   0  0  0  0  0  0  0  0  0  0  0  0
   -0.8397   -2.4440    1.4780 O   0  0  0  0  0  0  0  0  0  0  0  0
   -1.1715   -0.8476   -0.0820 N   0  0  0  0  0  0  0  0  0  0  0  0
   -1.7506   -0.6059   -0.8772 H   0  0  0  0  0  0  0  0  0  0  0  0
    0.1644   -0.2396   -0.0882 C   0  0  1  0  0  0  0  0  0  0  0  0
    0.8418   -0.7740    0.5878 H   0  0  0  0  0  0  0  0  0  0  0  0
    0.7068   -0.2853   -1.5403 C   0  0  0  0  0  0  0  0  0  0  0  0
   -0.1056   -0.4475   -2.2529 H   0  0  0  0  0  0  0  0  0  0  0  0
    1.1568    0.6807   -1.7895 H   0  0  0  0  0  0  0  0  0  0  0  0
    1.7760   -1.3461   -1.7782 C   0  0  0  0  0  0  0  0  0  0  0  0
    2.6320   -1.0892   -2.6586 O   0  5  0  0  0  0  0  0  0  0  0  0
    1.7186   -2.4186   -1.1324 O   0  0  0  0  0  0  0  0  0  0  0  0
    0.1008    1.2338    0.3684 C   0  0  0  0  0  0  0  0  0  0  0  0
   -0.7724    1.9951   -0.0436 O   0  0  0  0  0  0  0  0  0  0  0  0
    1.0326    1.7033    1.2756 N   0  0  0  0  0  0  0  0  0  0  0  0
    1.7480    1.0469    1.5770 H   0  0  0  0  0  0  0  0  0  0  0  0
    1.0817    3.0774    1.7499 C   0  0  0  0  0  0  0  0  0  0  0  0
    0.1475    3.3410    2.2560 H   0  0  0  0  0  0  0  0  0  0  0  0
    1.9059    3.1998    2.4588 H   0  0  0  0  0  0  0  0  0  0  0  0
    1.2393    3.7646    0.9124 H   0  0  0  0  0  0  0  0  0  0  0  0
  1  2  1  0  0  0  0
  2  3  1  0  0  0  0
  2  4  1  0  0  0  0
  2  5  1  0  0  0  0
  5  6  2  0  0  0  0
  5  7  1  0  0  0  0
  7  8  1  0  0  0  0
  7  9  1  0  0  0  0
  9 10  1  0  0  0  0
  9 11  1  0  0  0  0
  9 17  1  0  0  0  0
 11 12  1  0  0  0  0
 11 13  1  0  0  0  0
 11 14  1  0  0  0  0
 14 15  1  0  0  0  0
 14 16  2  0  0  0  0
 17 18  2  0  0  0  0
 17 19  1  0  0  0  0
 19 20  1  0  0  0  0
 19 21  1  0  0  0  0
 21 22  1  0  0  0  0
 21 23  1  0  0  0  0
 21 24  1  0  0  0  0
M  CHG  1  15  -1
M  END
$$$$

  -OEChem-03222214023D

 24 23  0     1  0  0  0  0  0999 V2000
   -2.5455   -3.9148    0.4103 H   0  0  0  0  0  0  0  0  0  0  0  0
   -2.4829   -2.9726   -0.1412 C   0  0  0  0  0  0  0  0  0  0  0  0
   -3.4481   -2.4638   -0.0868 H   0  0  0  0  0  0  0  0  0  0  0  0
   -2.2502   -3.1933   -1.1863 H   0  0  0  0  0  0  0  0  0  0  0  0
   -1.3953   -2.0933    0.4484 C   0  0  0  0  0  0  0  0  0  0  0  0
   -0.8362   -2.4303    1.4823 O   0  0  0  0  0  0  0  0  0  0  0  0
   -1.1791   -0.8391   -0.0799 N   0  0  0  0  0  0  0  0  0  0  0  0
   -1.7522   -0.6105   -0.8833 H   0  0  0  0  0  0  0  0  0  0  0  0
    0.1577   -0.2349   -0.0906 C   0  0  1  0  0  0  0  0  0  0  0  0
    0.8397   -0.7756    0.5757 H   0  0  0  0  0  0  0  0  0  0  0  0
    0.6917   -0.2770   -1.5433 C   0  0  0  0  0  0  0  0  0  0  0  0
   -0.1206   -0.4410   -2.2557 H   0  0  0  0  0  0  0  0  0  0  0  0
    1.1454    0.6864   -1.7963 H   0  0  0  0  0  0  0  0  0  0  0  0
    1.7519   -1.3487   -1.7560 C   0  0  0  0  0  0  0  0  0  0  0  0
    2.7769   -1.0203   -2.4005 O   0  5  0  0  0  0  0  0  0  0  0  0
    1.5085   -2.5063   -1.3408 O   0  0  0  0  0  0  0  0  0  0  0  0
    0.0998    1.2372    0.3718 C   0  0  0  0  0  0  0  0  0  0  0  0
   -0.7737    2.0013   -0.0343 O   0  0  0  0  0  0  0  0  0  0  0  0
    1.0359    1.7040    1.2762 N   0  0  0  0  0  0  0  0  0  0  0  0
    1.7581    1.0500    1.5659 H   0  0  0  0  0  0  0  0  0  0  0  0
    1.0898    3.0791    1.7480 C   0  0  0  0  0  0  0  0  0  0  0  0
    0.1527    3.3498    2.2452 H   0  0  0  0  0  0  0  0  0  0  0  0
    1.9081    3.1978    2.4642 H   0  0  0  0  0  0  0  0  0  0  0  0
    1.2590    3.7633    0.9104 H   0  0  0  0  0  0  0  0  0  0  0  0
  1  2  1  0  0  0  0
  2  3  1  0  0  0  0
  2  4  1  0  0  0  0
  2  5  1  0  0  0  0
  5  6  2  0  0  0  0
  5  7  1  0  0  0  0
  7  8  1  0  0  0  0
  7  9  1  0  0  0  0
  9 10  1  0  0  0  0
  9 11  1  0  0  0  0
  9 17  1  0  0  0  0
 11 12  1  0  0  0  0
 11 13  1  0  0  0  0
 11 14  1  0  0  0  0
 14 15  1  0  0  0  0
 14 16  2  0  0  0  0
 17 18  2  0  0  0  0
 17 19  1  0  0  0  0
 19 20  1  0  0  0  0
 19 21  1  0  0  0  0
 21 22  1  0  0  0  0
 21 23  1  0  0  0  0
 21 24  1  0  0  0  0
M  CHG  1  15  -1
M  END
$$$$

  -OEChem-03222214023D

 24 23  0     1  0  0  0  0  0999 V2000
   -2.5547   -3.9150    0.4188 H   0  0  0  0  0  0  0  0  0  0  0  0
   -2.4813   -2.9819   -0.1464 C   0  0  0  0  0  0  0  0  0  0  0  0
   -3.4430   -2.4654   -0.1057 H   0  0  0  0  0  0  0  0  0  0  0  0
   -2.2435   -3.2202   -1.1864 H   0  0  0  0  0  0  0  0  0  0  0  0
   -1.3910   -2.1016    0.4371 C   0  0  0  0  0  0  0  0  0  0  0  0
   -0.8088   -2.4502    1.4544 O   0  0  0  0  0  0  0  0  0  0  0  0
   -1.1854   -0.8420   -0.0831 N   0  0  0  0  0  0  0  0  0  0  0  0
   -1.7630   -0.6119   -0.8827 H   0  0  0  0  0  0  0  0  0  0  0  0
    0.1477   -0.2294   -0.0937 C   0  0  1  0  0  0  0  0  0  0  0  0
    0.8334   -0.7712    0.5681 H   0  0  0  0  0  0  0  0  0  0  0  0
    0.6803   -0.2666   -1.5442 C   0  0  0  0  0  0  0  0  0  0  0  0
   -0.1282   -0.4413   -2.2586 H   0  0  0  0  0  0  0  0  0  0  0  0
    1.1298    0.6971   -1.8031 H   0  0  0  0  0  0  0  0  0  0  0  0
    1.7426   -1.3388   -1.7276 C   0  0  0  0  0  0  0  0  0  0  0  0
    2.8833   -0.9687   -2.0966 O   0  5  0  0  0  0  0  0  0  0  0  0
    1.3916   -2.5317   -1.5642 O   0  0  0  0  0  0  0  0  0  0  0  0
    0.0911    1.2396    0.3780 C   0  0  0  0  0  0  0  0  0  0  0  0
   -0.7887    2.0036   -0.0144 O   0  0  0  0  0  0  0  0  0  0  0  0
    1.0321    1.7006    1.2803 N   0  0  0  0  0  0  0  0  0  0  0  0
    1.7778    1.0561    1.5293 H   0  0  0  0  0  0  0  0  0  0  0  0
    1.1019    3.0782    1.7425 C   0  0  0  0  0  0  0  0  0  0  0  0
    0.1664    3.3655    2.2331 H   0  0  0  0  0  0  0  0  0  0  0  0
    1.9180    3.1910    2.4623 H   0  0  0  0  0  0  0  0  0  0  0  0
    1.2847    3.7544    0.9012 H   0  0  0  0  0  0  0  0  0  0  0  0
  1  2  1  0  0  0  0
  2  3  1  0  0  0  0
  2  4  1  0  0  0  0
  2  5  1  0  0  0  0
  5  6  2  0  0  0  0
  5  7  1  0  0  0  0
  7  8  1  0  0  0  0
  7  9  1  0  0  0  0
  9 10  1  0  0  0  0
  9 11  1  0  0  0  0
  9 17  1  0  0  0  0
 11 12  1  0  0  0  0
 11 13  1  0  0  0  0
 11 14  1  0  0  0  0
 14 15  1  0  0  0  0
 14 16  2  0  0  0  0
 17 18  2  0  0  0  0
 17 19  1  0  0  0  0
 19 20  1  0  0  0  0
 19 21  1  0  0  0  0
 21 22  1  0  0  0  0
 21 23  1  0  0  0  0
 21 24  1  0  0  0  0
M  CHG  1  15  -1
M  END
$$$$

  -OEChem-03222214023D

 24 23  0     1  0  0  0  0  0999 V2000
   -2.5722   -3.9179    0.4097 H   0  0  0  0  0  0  0  0  0  0  0  0
   -2.5083   -2.9734   -0.1376 C   0  0  0  0  0  0  0  0  0  0  0  0
   -3.4603   -2.4453   -0.0470 H   0  0  0  0  0  0  0  0  0  0  0  0
   -2.3165   -3.1914   -1.1915 H   0  0  0  0  0  0  0  0  0  0  0  0
   -1.3828   -2.1206    0.4196 C   0  0  0  0  0  0  0  0  0  0  0  0
   -0.7591   -2.5041    1.3986 O   0  0  0  0  0  0  0  0  0  0  0  0
   -1.1759   -0.8571   -0.0906 N   0  0  0  0  0  0  0  0  0  0  0  0
   -1.7739   -0.6036   -0.8681 H   0  0  0  0  0  0  0  0  0  0  0  0
    0.1514   -0.2320   -0.1000 C   0  0  1  0  0  0  0  0  0  0  0  0
    0.8399   -0.7698    0.5624 H   0  0  0  0  0  0  0  0  0  0  0  0
    0.6882   -0.2633   -1.5465 C   0  0  0  0  0  0  0  0  0  0  0  0
   -0.1154   -0.4488   -2.2641 H   0  0  0  0  0  0  0  0  0  0  0  0
    1.1330    0.7017   -1.8080 H   0  0  0  0  0  0  0  0  0  0  0  0
    1.7585   -1.3288   -1.7054 C   0  0  0  0  0  0  0  0  0  0  0  0
    2.9511   -0.9452   -1.7771 O   0  5  0  0  0  0  0  0  0  0  0  0
    1.3751   -2.5183   -1.8137 O   0  0  0  0  0  0  0  0  0  0  0  0
    0.0875    1.2341    0.3786 C   0  0  0  0  0  0  0  0  0  0  0  0
   -0.8035    1.9913   -0.0020 O   0  0  0  0  0  0  0  0  0  0  0  0
    1.0281    1.6966    1.2802 N   0  0  0  0  0  0  0  0  0  0  0  0
    1.7958    1.0657    1.4965 H   0  0  0  0  0  0  0  0  0  0  0  0
    1.0981    3.0767    1.7344 C   0  0  0  0  0  0  0  0  0  0  0  0
    0.1615    3.3677    2.2208 H   0  0  0  0  0  0  0  0  0  0  0  0
    1.9122    3.1925    2.4559 H   0  0  0  0  0  0  0  0  0  0  0  0
    1.2838    3.7474    0.8895 H   0  0  0  0  0  0  0  0  0  0  0  0
  1  2  1  0  0  0  0
  2  3  1  0  0  0  0
  2  4  1  0  0  0  0
  2  5  1  0  0  0  0
  5  6  2  0  0  0  0
  5  7  1  0  0  0  0
  7  8  1  0  0  0  0
  7  9  1  0  0  0  0
  9 10  1  0  0  0  0
  9 11  1  0  0  0  0
  9 17  1  0  0  0  0
 11 12  1  0  0  0  0
 11 13  1  0  0  0  0
 11 14  1  0  0  0  0
 14 15  1  0  0  0  0
 14 16  2  0  0  0  0
 17 18  2  0  0  0  0
 17 19  1  0  0  0  0
 19 20  1  0  0  0  0
 19 21  1  0  0  0  0
 21 22  1  0  0  0  0
 21 23  1  0  0  0  0
 21 24  1  0  0  0  0
M  CHG  1  15  -1
M  END
$$$$

  -OEChem-03222214023D

 24 23  0     1  0  0  0  0  0999 V2000
   -2.6026   -3.9182    0.3974 H   0  0  0  0  0  0  0  0  0  0  0  0
   -2.5595   -2.9513   -0.1114 C   0  0  0  0  0  0  0  0  0  0  0  0
   -3.4871   -2.4075    0.0816 H   0  0  0  0  0  0  0  0  0  0  0  0
   -2.4608   -3.1250   -1.1861 H   0  0  0  0  0  0  0  0  0  0  0  0
   -1.3720   -2.1487    0.3885 C   0  0  0  0  0  0  0  0  0  0  0  0
   -0.6943   -2.5816    1.3084 O   0  0  0  0  0  0  0  0  0  0  0  0
   -1.1568   -0.8817   -0.1091 N   0  0  0  0  0  0  0  0  0  0  0  0
   -1.7879   -0.5847   -0.8444 H   0  0  0  0  0  0  0  0  0  0  0  0
    0.1625   -0.2388   -0.1129 C   0  0  1  0  0  0  0  0  0  0  0  0
    0.8503   -0.7687    0.5565 H   0  0  0  0  0  0  0  0  0  0  0  0
    0.7157   -0.2656   -1.5517 C   0  0  0  0  0  0  0  0  0  0  0  0
   -0.0779   -0.4643   -2.2770 H   0  0  0  0  0  0  0  0  0  0  0  0
    1.1534    0.7027   -1.8127 H   0  0  0  0  0  0  0  0  0  0  0  0
    1.8020   -1.3173   -1.6853 C   0  0  0  0  0  0  0  0  0  0  0  0
    2.9808   -0.9539   -1.4519 O   0  5  0  0  0  0  0  0  0  0  0  0
    1.4611   -2.4598   -2.0758 O   0  0  0  0  0  0  0  0  0  0  0  0
    0.0836    1.2238    0.3715 C   0  0  0  0  0  0  0  0  0  0  0  0
   -0.8251    1.9670    0.0054 O   0  0  0  0  0  0  0  0  0  0  0  0
    1.0197    1.6902    1.2755 N   0  0  0  0  0  0  0  0  0  0  0  0
    1.8102    1.0761    1.4579 H   0  0  0  0  0  0  0  0  0  0  0  0
    1.0819    3.0717    1.7268 C   0  0  0  0  0  0  0  0  0  0  0  0
    0.1436    3.3587    2.2122 H   0  0  0  0  0  0  0  0  0  0  0  0
    1.8951    3.1939    2.4483 H   0  0  0  0  0  0  0  0  0  0  0  0
    1.2638    3.7415    0.8803 H   0  0  0  0  0  0  0  0  0  0  0  0
  1  2  1  0  0  0  0
  2  3  1  0  0  0  0
  2  4  1  0  0  0  0
  2  5  1  0  0  0  0
  5  6  2  0  0  0  0
  5  7  1  0  0  0  0
  7  8  1  0  0  0  0
  7  9  1  0  0  0  0
  9 10  1  0  0  0  0
  9 11  1  0  0  0  0
  9 17  1  0  0  0  0
 11 12  1  0  0  0  0
 11 13  1  0  0  0  0
 11 14  1  0  0  0  0
 14 15  1  0  0  0  0
 14 16  2  0  0  0  0
 17 18  2  0  0  0  0
 17 19  1  0  0  0  0
 19 20  1  0  0  0  0
 19 21  1  0  0  0  0
 21 22  1  0  0  0  0
 21 23  1  0  0  0  0
 21 24  1  0  0  0  0
M  CHG  1  15  -1
M  END
$$$$

  -OEChem-03222214023D

 24 23  0     1  0  0  0  0  0999 V2000
   -2.6520   -3.9050    0.4025 H   0  0  0  0  0  0  0  0  0  0  0  0
   -2.6091   -2.9249   -0.0808 C   0  0  0  0  0  0  0  0  0  0  0  0
   -3.5026   -2.3572    0.1894 H   0  0  0  0  0  0  0  0  0  0  0  0
   -2.5886   -3.0688   -1.1641 H   0  0  0  0  0  0  0  0  0  0  0  0
   -1.3641   -2.1765    0.3607 C   0  0  0  0  0  0  0  0  0  0  0  0
   -0.6402   -2.6628    1.2153 O   0  0  0  0  0  0  0  0  0  0  0  0
   -1.1362   -0.9076   -0.1255 N   0  0  0  0  0  0  0  0  0  0  0  0
   -1.8054   -0.5600   -0.8029 H   0  0  0  0  0  0  0  0  0  0  0  0
    0.1747   -0.2470   -0.1257 C   0  0  1  0  0  0  0  0  0  0  0  0
    0.8598   -0.7694    0.5521 H   0  0  0  0  0  0  0  0  0  0  0  0
    0.7454   -0.2720   -1.5578 C   0  0  0  0  0  0  0  0  0  0  0  0
   -0.0395   -0.4841   -2.2891 H   0  0  0  0  0  0  0  0  0  0  0  0
    1.1733    0.7007   -1.8170 H   0  0  0  0  0  0  0  0  0  0  0  0
    1.8506   -1.3059   -1.6778 C   0  0  0  0  0  0  0  0  0  0  0  0
    2.9573   -1.0091   -1.1626 O   0  5  0  0  0  0  0  0  0  0  0  0
    1.6143   -2.3481   -2.3355 O   0  0  0  0  0  0  0  0  0  0  0  0
    0.0816    1.2126    0.3616 C   0  0  0  0  0  0  0  0  0  0  0  0
   -0.8447    1.9410    0.0098 O   0  0  0  0  0  0  0  0  0  0  0  0
    1.0138    1.6843    1.2663 N   0  0  0  0  0  0  0  0  0  0  0  0
    1.8215    1.0848    1.4243 H   0  0  0  0  0  0  0  0  0  0  0  0
    1.0620    3.0650    1.7211 C   0  0  0  0  0  0  0  0  0  0  0  0
    0.1193    3.3428    2.2033 H   0  0  0  0  0  0  0  0  0  0  0  0
    1.8709    3.1918    2.4465 H   0  0  0  0  0  0  0  0  0  0  0  0
    1.2414    3.7386    0.8771 H   0  0  0  0  0  0  0  0  0  0  0  0
  1  2  1  0  0  0  0
  2  3  1  0  0  0  0
  2  4  1  0  0  0  0
  2  5  1  0  0  0  0
  5  6  2  0  0  0  0
  5  7  1  0  0  0  0
  7  8  1  0  0  0  0
  7  9  1  0  0  0  0
  9 10  1  0  0  0  0
  9 11  1  0  0  0  0
  9 17  1  0  0  0  0
 11 12  1  0  0  0  0
 11 13  1  0  0  0  0
 11 14  1  0  0  0  0
 14 15  1  0  0  0  0
 14 16  2  0  0  0  0
 17 18  2  0  0  0  0
 17 19  1  0  0  0  0
 19 20  1  0  0  0  0
 19 21  1  0  0  0  0
 21 22  1  0  0  0  0
 21 23  1  0  0  0  0
 21 24  1  0  0  0  0
M  CHG  1  15  -1
M  END
$$$$

  -OEChem-03222214023D

 24 23  0     1  0  0  0  0  0999 V2000
   -2.6792   -3.8950    0.4032 H   0  0  0  0  0  0  0  0  0  0  0  0
   -2.6380   -2.9051   -0.0598 C   0  0  0  0  0  0  0  0  0  0  0  0
   -3.5079   -2.3274    0.2617 H   0  0  0  0  0  0  0  0  0  0  0  0
   -2.6672   -3.0244   -1.1459 H   0  0  0  0  0  0  0  0  0  0  0  0
   -1.3605   -2.1907    0.3441 C   0  0  0  0  0  0  0  0  0  0  0  0
   -0.6138   -2.7101    1.1576 O   0  0  0  0  0  0  0  0  0  0  0  0
   -1.1220   -0.9221   -0.1377 N   0  0  0  0  0  0  0  0  0  0  0  0
   -1.8130   -0.5425   -0.7752 H   0  0  0  0  0  0  0  0  0  0  0  0
    0.1849   -0.2516   -0.1329 C   0  0  1  0  0  0  0  0  0  0  0  0
    0.8621   -0.7688    0.5566 H   0  0  0  0  0  0  0  0  0  0  0  0
    0.7680   -0.2842   -1.5620 C   0  0  0  0  0  0  0  0  0  0  0  0
   -0.0136   -0.5031   -2.2947 H   0  0  0  0  0  0  0  0  0  0  0  0
    1.1899    0.6910   -1.8204 H   0  0  0  0  0  0  0  0  0  0  0  0
    1.8870   -1.3049   -1.6876 C   0  0  0  0  0  0  0  0  0  0  0  0
    2.8888   -1.1428   -0.9461 O   0  5  0  0  0  0  0  0  0  0  0  0
    1.7754   -2.1931   -2.5671 O   0  0  0  0  0  0  0  0  0  0  0  0
    0.0828    1.2078    0.3518 C   0  0  0  0  0  0  0  0  0  0  0  0
   -0.8504    1.9277    0.0006 O   0  0  0  0  0  0  0  0  0  0  0  0
    1.0092    1.6858    1.2590 N   0  0  0  0  0  0  0  0  0  0  0  0
    1.8175    1.0883    1.4237 H   0  0  0  0  0  0  0  0  0  0  0  0
    1.0431    3.0641    1.7230 C   0  0  0  0  0  0  0  0  0  0  0  0
    0.1002    3.3267    2.2133 H   0  0  0  0  0  0  0  0  0  0  0  0
    1.8553    3.1967    2.4437 H   0  0  0  0  0  0  0  0  0  0  0  0
    1.2086    3.7457    0.8826 H   0  0  0  0  0  0  0  0  0  0  0  0
  1  2  1  0  0  0  0
  2  3  1  0  0  0  0
  2  4  1  0  0  0  0
  2  5  1  0  0  0  0
  5  6  2  0  0  0  0
  5  7  1  0  0  0  0
  7  8  1  0  0  0  0
  7  9  1  0  0  0  0
  9 10  1  0  0  0  0
  9 11  1  0  0  0  0
  9 17  1  0  0  0  0
 11 12  1  0  0  0  0
 11 13  1  0  0  0  0
 11 14  1  0  0  0  0
 14 15  1  0  0  0  0
 14 16  2  0  0  0  0
 17 18  2  0  0  0  0
 17 19  1  0  0  0  0
 19 20  1  0  0  0  0
 19 21  1  0  0  0  0
 21 22  1  0  0  0  0
 21 23  1  0  0  0  0
 21 24  1  0  0  0  0
M  CHG  1  15  -1
M  END
$$$$

  -OEChem-03222214023D

 24 23  0     1  0  0  0  0  0999 V2000
   -2.6841   -3.8955    0.3745 H   0  0  0  0  0  0  0  0  0  0  0  0
   -2.6598   -2.8833   -0.0387 C   0  0  0  0  0  0  0  0  0  0  0  0
   -3.5073   -2.3184    0.3567 H   0  0  0  0  0  0  0  0  0  0  0  0
   -2.7470   -2.9469   -1.1262 H   0  0  0  0  0  0  0  0  0  0  0  0
   -1.3582   -2.1967    0.3354 C   0  0  0  0  0  0  0  0  0  0  0  0
   -0.6044   -2.7365    1.1281 O   0  0  0  0  0  0  0  0  0  0  0  0
   -1.1069   -0.9315   -0.1485 N   0  0  0  0  0  0  0  0  0  0  0  0
   -1.8080   -0.5307   -0.7620 H   0  0  0  0  0  0  0  0  0  0  0  0
    0.1983   -0.2571   -0.1356 C   0  0  1  0  0  0  0  0  0  0  0  0
    0.8637   -0.7671    0.5697 H   0  0  0  0  0  0  0  0  0  0  0  0
    0.7955   -0.3000   -1.5617 C   0  0  0  0  0  0  0  0  0  0  0  0
    0.0149   -0.5198   -2.2954 H   0  0  0  0  0  0  0  0  0  0  0  0
    1.2128    0.6778   -1.8173 H   0  0  0  0  0  0  0  0  0  0  0  0
    1.9262   -1.3095   -1.7101 C   0  0  0  0  0  0  0  0  0  0  0  0
    2.8036   -1.3425   -0.8109 O   0  5  0  0  0  0  0  0  0  0  0  0
    1.9442   -2.0011   -2.7575 O   0  0  0  0  0  0  0  0  0  0  0  0
    0.0849    1.2038    0.3395 C   0  0  0  0  0  0  0  0  0  0  0  0
   -0.8504    1.9165   -0.0209 O   0  0  0  0  0  0  0  0  0  0  0  0
    1.0009    1.6891    1.2530 N   0  0  0  0  0  0  0  0  0  0  0  0
    1.8029    1.0899    1.4407 H   0  0  0  0  0  0  0  0  0  0  0  0
    1.0172    3.0643    1.7258 C   0  0  0  0  0  0  0  0  0  0  0  0
    0.0725    3.3093    2.2215 H   0  0  0  0  0  0  0  0  0  0  0  0
    1.8304    3.2037    2.4442 H   0  0  0  0  0  0  0  0  0  0  0  0
    1.1694    3.7541    0.8896 H   0  0  0  0  0  0  0  0  0  0  0  0
  1  2  1  0  0  0  0
  2  3  1  0  0  0  0
  2  4  1  0  0  0  0
  2  5  1  0  0  0  0
  5  6  2  0  0  0  0
  5  7  1  0  0  0  0
  7  8  1  0  0  0  0
  7  9  1  0  0  0  0
  9 10  1  0  0  0  0
  9 11  1  0  0  0  0
  9 17  1  0  0  0  0
 11 12  1  0  0  0  0
 11 13  1  0  0  0  0
 11 14  1  0  0  0  0
 14 15  1  0  0  0  0
 14 16  2  0  0  0  0
 17 18  2  0  0  0  0
 17 19  1  0  0  0  0
 19 20  1  0  0  0  0
 19 21  1  0  0  0  0
 21 22  1  0  0  0  0
 21 23  1  0  0  0  0
 21 24  1  0  0  0  0
M  CHG  1  15  -1
M  END
$$$$

  -OEChem-03222214023D

 24 23  0     1  0  0  0  0  0999 V2000
   -2.7156   -3.8696    0.4198 H   0  0  0  0  0  0  0  0  0  0  0  0
   -2.6567   -2.8801   -0.0423 C   0  0  0  0  0  0  0  0  0  0  0  0
   -3.5109   -2.2838    0.2874 H   0  0  0  0  0  0  0  0  0  0  0  0
   -2.6984   -2.9970   -1.1281 H   0  0  0  0  0  0  0  0  0  0  0  0
   -1.3610   -2.1933    0.3521 C   0  0  0  0  0  0  0  0  0  0  0  0
   -0.6276   -2.7252    1.1687 O   0  0  0  0  0  0  0  0  0  0  0  0
   -1.0991   -0.9326   -0.1376 N   0  0  0  0  0  0  0  0  0  0  0  0
   -1.7902   -0.5373   -0.7655 H   0  0  0  0  0  0  0  0  0  0  0  0
    0.2090   -0.2636   -0.1224 C   0  0  1  0  0  0  0  0  0  0  0  0
    0.8707   -0.7706    0.5873 H   0  0  0  0  0  0  0  0  0  0  0  0
    0.8017   -0.3075   -1.5540 C   0  0  0  0  0  0  0  0  0  0  0  0
    0.0118   -0.5166   -2.2808 H   0  0  0  0  0  0  0  0  0  0  0  0
    1.2174    0.6723   -1.8044 H   0  0  0  0  0  0  0  0  0  0  0  0
    1.9324   -1.3126   -1.7507 C   0  0  0  0  0  0  0  0  0  0  0  0
    2.6772   -1.5868   -0.7778 O   0  5  0  0  0  0  0  0  0  0  0  0
    2.0760   -1.7686   -2.9112 O   0  0  0  0  0  0  0  0  0  0  0  0
    0.0903    1.2001    0.3446 C   0  0  0  0  0  0  0  0  0  0  0  0
   -0.8392    1.9121   -0.0313 O   0  0  0  0  0  0  0  0  0  0  0  0
    0.9985    1.6934    1.2618 N   0  0  0  0  0  0  0  0  0  0  0  0
    1.7854    1.0870    1.4847 H   0  0  0  0  0  0  0  0  0  0  0  0
    1.0069    3.0701    1.7307 C   0  0  0  0  0  0  0  0  0  0  0  0
    0.0598    3.3122    2.2233 H   0  0  0  0  0  0  0  0  0  0  0  0
    1.8178    3.2154    2.4502 H   0  0  0  0  0  0  0  0  0  0  0  0
    1.1581    3.7583    0.8929 H   0  0  0  0  0  0  0  0  0  0  0  0
  1  2  1  0  0  0  0
  2  3  1  0  0  0  0
  2  4  1  0  0  0  0
  2  5  1  0  0  0  0
  5  6  2  0  0  0  0
  5  7  1  0  0  0  0
  7  8  1  0  0  0  0
  7  9  1  0  0  0  0
  9 10  1  0  0  0  0
  9 11  1  0  0  0  0
  9 17  1  0  0  0  0
 11 12  1  0  0  0  0
 11 13  1  0  0  0  0
 11 14  1  0  0  0  0
 14 15  1  0  0  0  0
 14 16  2  0  0  0  0
 17 18  2  0  0  0  0
 17 19  1  0  0  0  0
 19 20  1  0  0  0  0
 19 21  1  0  0  0  0
 21 22  1  0  0  0  0
 21 23  1  0  0  0  0
 21 24  1  0  0  0  0
M  CHG  1  15  -1
M  END
$$$$

  -OEChem-03222214023D

 24 23  0     1  0  0  0  0  0999 V2000
   -2.7000   -3.8725    0.4096 H   0  0  0  0  0  0  0  0  0  0  0  0
   -2.6417   -2.8843   -0.0549 C   0  0  0  0  0  0  0  0  0  0  0  0
   -3.5139   -2.2991    0.2461 H   0  0  0  0  0  0  0  0  0  0  0  0
   -2.6491   -3.0066   -1.1409 H   0  0  0  0  0  0  0  0  0  0  0  0
   -1.3682   -2.1777    0.3752 C   0  0  0  0  0  0  0  0  0  0  0  0
   -0.6685   -2.6806    1.2385 O   0  0  0  0  0  0  0  0  0  0  0  0
   -1.1008   -0.9224   -0.1254 N   0  0  0  0  0  0  0  0  0  0  0  0
   -1.7722   -0.5487   -0.7871 H   0  0  0  0  0  0  0  0  0  0  0  0
    0.2133   -0.2648   -0.1112 C   0  0  1  0  0  0  0  0  0  0  0  0
    0.8740   -0.7699    0.6006 H   0  0  0  0  0  0  0  0  0  0  0  0
    0.8000   -0.3136   -1.5475 C   0  0  0  0  0  0  0  0  0  0  0  0
    0.0031   -0.5149   -2.2686 H   0  0  0  0  0  0  0  0  0  0  0  0
    1.2182    0.6654   -1.7976 H   0  0  0  0  0  0  0  0  0  0  0  0
    1.9229   -1.3229   -1.7757 C   0  0  0  0  0  0  0  0  0  0  0  0
    2.5077   -1.8388   -0.7932 O   0  5  0  0  0  0  0  0  0  0  0  0
    2.2113   -1.5516   -2.9755 O   0  0  0  0  0  0  0  0  0  0  0  0
    0.0980    1.2029    0.3458 C   0  0  0  0  0  0  0  0  0  0  0  0
   -0.8205    1.9202   -0.0463 O   0  0  0  0  0  0  0  0  0  0  0  0
    1.0034    1.6996    1.2643 N   0  0  0  0  0  0  0  0  0  0  0  0
    1.7707    1.0828    1.5223 H   0  0  0  0  0  0  0  0  0  0  0  0
    1.0050    3.0752    1.7368 C   0  0  0  0  0  0  0  0  0  0  0  0
    0.0586    3.3097    2.2344 H   0  0  0  0  0  0  0  0  0  0  0  0
    1.8186    3.2250    2.4528 H   0  0  0  0  0  0  0  0  0  0  0  0
    1.1474    3.7658    0.8995 H   0  0  0  0  0  0  0  0  0  0  0  0
  1  2  1  0  0  0  0
  2  3  1  0  0  0  0
  2  4  1  0  0  0  0
  2  5  1  0  0  0  0
  5  6  2  0  0  0  0
  5  7  1  0  0  0  0
  7  8  1  0  0  0  0
  7  9  1  0  0  0  0
  9 10  1  0  0  0  0
  9 11  1  0  0  0  0
  9 17  1  0  0  0  0
 11 12  1  0  0  0  0
 11 13  1  0  0  0  0
 11 14  1  0  0  0  0
 14 15  1  0  0  0  0
 14 16  2  0  0  0  0
 17 18  2  0  0  0  0
 17 19  1  0  0  0  0
 19 20  1  0  0  0  0
 19 21  1  0  0  0  0
 21 22  1  0  0  0  0
 21 23  1  0  0  0  0
 21 24  1  0  0  0  0
M  CHG  1  15  -1
M  END
$$$$

  -OEChem-03222214023D

 24 23  0     1  0  0  0  0  0999 V2000
   -2.6713   -3.8781    0.4147 H   0  0  0  0  0  0  0  0  0  0  0  0
   -2.6068   -2.9047   -0.0793 C   0  0  0  0  0  0  0  0  0  0  0  0
   -3.5100   -2.3324    0.1455 H   0  0  0  0  0  0  0  0  0  0  0  0
   -2.5413   -3.0632   -1.1587 H   0  0  0  0  0  0  0  0  0  0  0  0
   -1.3803   -2.1521    0.4053 C   0  0  0  0  0  0  0  0  0  0  0  0
   -0.7285   -2.6041    1.3327 O   0  0  0  0  0  0  0  0  0  0  0  0
   -1.1171   -0.9011   -0.1085 N   0  0  0  0  0  0  0  0  0  0  0  0
   -1.7577   -0.5679   -0.8199 H   0  0  0  0  0  0  0  0  0  0  0  0
    0.2053   -0.2608   -0.0994 C   0  0  1  0  0  0  0  0  0  0  0  0
    0.8701   -0.7713    0.6051 H   0  0  0  0  0  0  0  0  0  0  0  0
    0.7798   -0.3096   -1.5416 C   0  0  0  0  0  0  0  0  0  0  0  0
   -0.0247   -0.4982   -2.2572 H   0  0  0  0  0  0  0  0  0  0  0  0
    1.2067    0.6664   -1.7903 H   0  0  0  0  0  0  0  0  0  0  0  0
    1.8867   -1.3321   -1.7903 C   0  0  0  0  0  0  0  0  0  0  0  0
    2.2831   -2.0707   -0.8585 O   0  5  0  0  0  0  0  0  0  0  0  0
    2.3440   -1.3558   -2.9586 O   0  0  0  0  0  0  0  0  0  0  0  0
    0.1035    1.2109    0.3509 C   0  0  0  0  0  0  0  0  0  0  0  0
   -0.7992    1.9404   -0.0551 O   0  0  0  0  0  0  0  0  0  0  0  0
    1.0134    1.7039    1.2673 N   0  0  0  0  0  0  0  0  0  0  0  0
    1.7575    1.0721    1.5538 H   0  0  0  0  0  0  0  0  0  0  0  0
    1.0224    3.0786    1.7427 C   0  0  0  0  0  0  0  0  0  0  0  0
    0.0807    3.3148    2.2481 H   0  0  0  0  0  0  0  0  0  0  0  0
    1.8419    3.2237    2.4527 H   0  0  0  0  0  0  0  0  0  0  0  0
    1.1610    3.7712    0.9064 H   0  0  0  0  0  0  0  0  0  0  0  0
  1  2  1  0  0  0  0
  2  3  1  0  0  0  0
  2  4  1  0  0  0  0
  2  5  1  0  0  0  0
  5  6  2  0  0  0  0
  5  7  1  0  0  0  0
  7  8  1  0  0  0  0
  7  9  1  0  0  0  0
  9 10  1  0  0  0  0
  9 11  1  0  0  0  0
  9 17  1  0  0  0  0
 11 12  1  0  0  0  0
 11 13  1  0  0  0  0
 11 14  1  0  0  0  0
 14 15  1  0  0  0  0
 14 16  2  0  0  0  0
 17 18  2  0  0  0  0
 17 19  1  0  0  0  0
 19 20  1  0  0  0  0
 19 21  1  0  0  0  0
 21 22  1  0  0  0  0
 21 23  1  0  0  0  0
 21 24  1  0  0  0  0
M  CHG  1  15  -1
M  END
$$$$

  -OEChem-03222214023D

 24 23  0     1  0  0  0  0  0999 V2000
   -2.6310   -3.8867    0.4184 H   0  0  0  0  0  0  0  0  0  0  0  0
   -2.5634   -2.9277   -0.1026 C   0  0  0  0  0  0  0  0  0  0  0  0
   -3.4927   -2.3741    0.0507 H   0  0  0  0  0  0  0  0  0  0  0  0
   -2.4298   -3.1179   -1.1704 H   0  0  0  0  0  0  0  0  0  0  0  0
   -1.3876   -2.1265    0.4270 C   0  0  0  0  0  0  0  0  0  0  0  0
   -0.7798   -2.5279    1.4070 O   0  0  0  0  0  0  0  0  0  0  0  0
   -1.1371   -0.8766   -0.0955 N   0  0  0  0  0  0  0  0  0  0  0  0
   -1.7500   -0.5837   -0.8474 H   0  0  0  0  0  0  0  0  0  0  0  0
    0.1924   -0.2528   -0.0942 C   0  0  1  0  0  0  0  0  0  0  0  0
    0.8634   -0.7720    0.5986 H   0  0  0  0  0  0  0  0  0  0  0  0
    0.7522   -0.3005   -1.5418 C   0  0  0  0  0  0  0  0  0  0  0  0
   -0.0589   -0.4799   -2.2520 H   0  0  0  0  0  0  0  0  0  0  0  0
    1.1878    0.6716   -1.7916 H   0  0  0  0  0  0  0  0  0  0  0  0
    1.8416   -1.3398   -1.7942 C   0  0  0  0  0  0  0  0  0  0  0  0
    2.0301   -2.2603   -0.9654 O   0  5  0  0  0  0  0  0  0  0  0  0
    2.4896   -1.1994   -2.8594 O   0  0  0  0  0  0  0  0  0  0  0  0
    0.1060    1.2203    0.3571 C   0  0  0  0  0  0  0  0  0  0  0  0
   -0.7841    1.9631   -0.0530 O   0  0  0  0  0  0  0  0  0  0  0  0
    1.0244    1.7052    1.2696 N   0  0  0  0  0  0  0  0  0  0  0  0
    1.7525    1.0619    1.5699 H   0  0  0  0  0  0  0  0  0  0  0  0
    1.0429    3.0779    1.7501 C   0  0  0  0  0  0  0  0  0  0  0  0
    0.1008    3.3199    2.2523 H   0  0  0  0  0  0  0  0  0  0  0  0
    1.8606    3.2141    2.4638 H   0  0  0  0  0  0  0  0  0  0  0  0
    1.1904    3.7720    0.9166 H   0  0  0  0  0  0  0  0  0  0  0  0
  1  2  1  0  0  0  0
  2  3  1  0  0  0  0
  2  4  1  0  0  0  0
  2  5  1  0  0  0  0
  5  6  2  0  0  0  0
  5  7  1  0  0  0  0
  7  8  1  0  0  0  0
  7  9  1  0  0  0  0
  9 10  1  0  0  0  0
  9 11  1  0  0  0  0
  9 17  1  0  0  0  0
 11 12  1  0  0  0  0
 11 13  1  0  0  0  0
 11 14  1  0  0  0  0
 14 15  1  0  0  0  0
 14 16  2  0  0  0  0
 17 18  2  0  0  0  0
 17 19  1  0  0  0  0
 19 20  1  0  0  0  0
 19 21  1  0  0  0  0
 21 22  1  0  0  0  0
 21 23  1  0  0  0  0
 21 24  1  0  0  0  0
M  CHG  1  15  -1
M  END
$$$$

  -OEChem-03222214023D

 24 23  0     1  0  0  0  0  0999 V2000
   -2.5916   -3.8989    0.4228 H   0  0  0  0  0  0  0  0  0  0  0  0
   -2.5152   -2.9577   -0.1284 C   0  0  0  0  0  0  0  0  0  0  0  0
   -3.4662   -2.4252   -0.0551 H   0  0  0  0  0  0  0  0  0  0  0  0
   -2.3086   -3.1823   -1.1779 H   0  0  0  0  0  0  0  0  0  0  0  0
   -1.3955   -2.1065    0.4426 C   0  0  0  0  0  0  0  0  0  0  0  0
   -0.8261   -2.4635    1.4632 O   0  0  0  0  0  0  0  0  0  0  0  0
   -1.1644   -0.8545   -0.0841 N   0  0  0  0  0  0  0  0  0  0  0  0
   -1.7522   -0.6013   -0.8692 H   0  0  0  0  0  0  0  0  0  0  0  0
    0.1701   -0.2423   -0.0899 C   0  0  1  0  0  0  0  0  0  0  0  0
    0.8475   -0.7740    0.5880 H   0  0  0  0  0  0  0  0  0  0  0  0
    0.7163   -0.2842   -1.5415 C   0  0  0  0  0  0  0  0  0  0  0  0
   -0.0985   -0.4587   -2.2482 H   0  0  0  0  0  0  0  0  0  0  0  0
    1.1570    0.6853   -1.7937 H   0  0  0  0  0  0  0  0  0  0  0  0
    1.7905   -1.3395   -1.7829 C   0  0  0  0  0  0  0  0  0  0  0  0
    1.7695   -2.3954   -1.1086 O   0  5  0  0  0  0  0  0  0  0  0  0
    2.6361   -1.0790   -2.6723 O   0  0  0  0  0  0  0  0  0  0  0  0
    0.1014    1.2307    0.3674 C   0  0  0  0  0  0  0  0  0  0  0  0
   -0.7760    1.9883   -0.0424 O   0  0  0  0  0  0  0  0  0  0  0  0
    1.0313    1.7035    1.2750 N   0  0  0  0  0  0  0  0  0  0  0  0
    1.7516    1.0508    1.5725 H   0  0  0  0  0  0  0  0  0  0  0  0
    1.0750    3.0776    1.7508 C   0  0  0  0  0  0  0  0  0  0  0  0
    0.1394    3.3372    2.2566 H   0  0  0  0  0  0  0  0  0  0  0  0
    1.8983    3.2024    2.4604 H   0  0  0  0  0  0  0  0  0  0  0  0
    1.2305    3.7666    0.9143 H   0  0  0  0  0  0  0  0  0  0  0  0
  1  2  1  0  0  0  0
  2  3  1  0  0  0  0
  2  4  1  0  0  0  0
  2  5  1  0  0  0  0
  5  6  2  0  0  0  0
  5  7  1  0  0  0  0
  7  8  1  0  0  0  0
  7  9  1  0  0  0  0
  9 10  1  0  0  0  0
  9 11  1  0  0  0  0
  9 17  1  0  0  0  0
 11 12  1  0  0  0  0
 11 13  1  0  0  0  0
 11 14  1  0  0  0  0
 14 15  1  0  0  0  0
 14 16  2  0  0  0  0
 17 18  2  0  0  0  0
 17 19  1  0  0  0  0
 19 20  1  0  0  0  0
 19 21  1  0  0  0  0
 21 22  1  0  0  0  0
 21 23  1  0  0  0  0
 21 24  1  0  0  0  0
M  CHG  1  15  -1
M  END
$$$$

  -OEChem-03222214023D

 24 23  0     1  0  0  0  0  0999 V2000
   -2.5499   -3.9161    0.4060 H   0  0  0  0  0  0  0  0  0  0  0  0
   -2.4852   -2.9737   -0.1447 C   0  0  0  0  0  0  0  0  0  0  0  0
   -3.4494   -2.4630   -0.0903 H   0  0  0  0  0  0  0  0  0  0  0  0
   -2.2527   -3.1942   -1.1898 H   0  0  0  0  0  0  0  0  0  0  0  0
   -1.3963   -2.0966    0.4462 C   0  0  0  0  0  0  0  0  0  0  0  0
   -0.8374   -2.4371    1.4789 O   0  0  0  0  0  0  0  0  0  0  0  0
   -1.1794   -0.8414   -0.0791 N   0  0  0  0  0  0  0  0  0  0  0  0
   -1.7560   -0.6073   -0.8782 H   0  0  0  0  0  0  0  0  0  0  0  0
    0.1570   -0.2354   -0.0900 C   0  0  1  0  0  0  0  0  0  0  0  0
    0.8393   -0.7765    0.5760 H   0  0  0  0  0  0  0  0  0  0  0  0
    0.6918   -0.2725   -1.5435 C   0  0  0  0  0  0  0  0  0  0  0  0
   -0.1246   -0.4464   -2.2488 H   0  0  0  0  0  0  0  0  0  0  0  0
    1.1367    0.6939   -1.8001 H   0  0  0  0  0  0  0  0  0  0  0  0
    1.7545   -1.3411   -1.7636 C   0  0  0  0  0  0  0  0  0  0  0  0
    1.5498   -2.4848   -1.2934 O   0  5  0  0  0  0  0  0  0  0  0  0
    2.7772   -1.0050   -2.4078 O   0  0  0  0  0  0  0  0  0  0  0  0
    0.0978    1.2356    0.3754 C   0  0  0  0  0  0  0  0  0  0  0  0
   -0.7765    1.9995   -0.0294 O   0  0  0  0  0  0  0  0  0  0  0  0
    1.0342    1.7018    1.2796 N   0  0  0  0  0  0  0  0  0  0  0  0
    1.7609    1.0494    1.5615 H   0  0  0  0  0  0  0  0  0  0  0  0
    1.0932    3.0783    1.7469 C   0  0  0  0  0  0  0  0  0  0  0  0
    0.1597    3.3526    2.2488 H   0  0  0  0  0  0  0  0  0  0  0  0
    1.9160    3.1977    2.4578 H   0  0  0  0  0  0  0  0  0  0  0  0
    1.2587    3.7598    0.9064 H   0  0  0  0  0  0  0  0  0  0  0  0
  1  2  1  0  0  0  0
  2  3  1  0  0  0  0
  2  4  1  0  0  0  0
  2  5  1  0  0  0  0
  5  6  2  0  0  0  0
  5  7  1  0  0  0  0
  7  8  1  0  0  0  0
  7  9  1  0  0  0  0
  9 10  1  0  0  0  0
  9 11  1  0  0  0  0
  9 17  1  0  0  0  0
 11 12  1  0  0  0  0
 11 13  1  0  0  0  0
 11 14  1  0  0  0  0
 14 15  1  0  0  0  0
 14 16  2  0  0  0  0
 17 18  2  0  0  0  0
 17 19  1  0  0  0  0
 19 20  1  0  0  0  0
 19 21  1  0  0  0  0
 21 22  1  0  0  0  0
 21 23  1  0  0  0  0
 21 24  1  0  0  0  0
M  CHG  1  15  -1
M  END
$$$$

  -OEChem-03222214023D

 24 23  0     1  0  0  0  0  0999 V2000
   -2.5370   -3.9273    0.3995 H   0  0  0  0  0  0  0  0  0  0  0  0
   -2.4771   -2.9850   -0.1518 C   0  0  0  0  0  0  0  0  0  0  0  0
   -3.4448   -2.4810   -0.1002 H   0  0  0  0  0  0  0  0  0  0  0  0
   -2.2410   -3.2052   -1.1961 H   0  0  0  0  0  0  0  0  0  0  0  0
   -1.3943   -2.1006    0.4400 C   0  0  0  0  0  0  0  0  0  0  0  0
   -0.8204   -2.4457    1.4631 O   0  0  0  0  0  0  0  0  0  0  0  0
   -1.1888   -0.8408   -0.0799 N   0  0  0  0  0  0  0  0  0  0  0  0
   -1.7665   -0.6112   -0.8794 H   0  0  0  0  0  0  0  0  0  0  0  0
    0.1455   -0.2300   -0.0936 C   0  0  1  0  0  0  0  0  0  0  0  0
    0.8319   -0.7739    0.5658 H   0  0  0  0  0  0  0  0  0  0  0  0
    0.6767   -0.2610   -1.5455 C   0  0  0  0  0  0  0  0  0  0  0  0
   -0.1363   -0.4381   -2.2541 H   0  0  0  0  0  0  0  0  0  0  0  0
    1.1231    0.7042   -1.8045 H   0  0  0  0  0  0  0  0  0  0  0  0
    1.7383   -1.3326   -1.7376 C   0  0  0  0  0  0  0  0  0  0  0  0
    1.4081   -2.5218   -1.5156 O   0  5  0  0  0  0  0  0  0  0  0  0
    2.8862   -0.9565   -2.0764 O   0  0  0  0  0  0  0  0  0  0  0  0
    0.0912    1.2386    0.3796 C   0  0  0  0  0  0  0  0  0  0  0  0
   -0.7883    2.0037   -0.0117 O   0  0  0  0  0  0  0  0  0  0  0  0
    1.0344    1.6987    1.2799 N   0  0  0  0  0  0  0  0  0  0  0  0
    1.7820    1.0544    1.5239 H   0  0  0  0  0  0  0  0  0  0  0  0
    1.1074    3.0772    1.7394 C   0  0  0  0  0  0  0  0  0  0  0  0
    0.1751    3.3649    2.2356 H   0  0  0  0  0  0  0  0  0  0  0  0
    1.9282    3.1912    2.4534 H   0  0  0  0  0  0  0  0  0  0  0  0
    1.2838    3.7525    0.8961 H   0  0  0  0  0  0  0  0  0  0  0  0
  1  2  1  0  0  0  0
  2  3  1  0  0  0  0
  2  4  1  0  0  0  0
  2  5  1  0  0  0  0
  5  6  2  0  0  0  0
  5  7  1  0  0  0  0
  7  8  1  0  0  0  0
  7  9  1  0  0  0  0
  9 10  1  0  0  0  0
  9 11  1  0  0  0  0
  9 17  1  0  0  0  0
 11 12  1  0  0  0  0
 11 13  1  0  0  0  0
 11 14  1  0  0  0  0
 14 15  1  0  0  0  0
 14 16  2  0  0  0  0
 17 18  2  0  0  0  0
 17 19  1  0  0  0  0
 19 20  1  0  0  0  0
 19 21  1  0  0  0  0
 21 22  1  0  0  0  0
 21 23  1  0  0  0  0
 21 24  1  0  0  0  0
M  CHG  1  15  -1
M  END
$$$$

  -OEChem-03222214023D

 24 23  0     1  0  0  0  0  0999 V2000
   -2.5522   -3.9294    0.3946 H   0  0  0  0  0  0  0  0  0  0  0  0
   -2.5031   -2.9770   -0.1402 C   0  0  0  0  0  0  0  0  0  0  0  0
   -3.4592   -2.4596   -0.0334 H   0  0  0  0  0  0  0  0  0  0  0  0
   -2.3186   -3.1793   -1.1986 H   0  0  0  0  0  0  0  0  0  0  0  0
   -1.3815   -2.1205    0.4187 C   0  0  0  0  0  0  0  0  0  0  0  0
   -0.7636   -2.4984    1.4035 O   0  0  0  0  0  0  0  0  0  0  0  0
   -1.1786   -0.8562   -0.0912 N   0  0  0  0  0  0  0  0  0  0  0  0
   -1.7775   -0.6048   -0.8686 H   0  0  0  0  0  0  0  0  0  0  0  0
    0.1482   -0.2298   -0.1037 C   0  0  1  0  0  0  0  0  0  0  0  0
    0.8378   -0.7685    0.5566 H   0  0  0  0  0  0  0  0  0  0  0  0
    0.6849   -0.2578   -1.5509 C   0  0  0  0  0  0  0  0  0  0  0  0
   -0.1203   -0.4476   -2.2653 H   0  0  0  0  0  0  0  0  0  0  0  0
    1.1252    0.7090   -1.8138 H   0  0  0  0  0  0  0  0  0  0  0  0
    1.7570   -1.3209   -1.7140 C   0  0  0  0  0  0  0  0  0  0  0  0
    1.3814   -2.5165   -1.7664 O   0  5  0  0  0  0  0  0  0  0  0  0
    2.9520   -0.9382   -1.7275 O   0  0  0  0  0  0  0  0  0  0  0  0
    0.0854    1.2357    0.3764 C   0  0  0  0  0  0  0  0  0  0  0  0
   -0.8060    1.9938   -0.0017 O   0  0  0  0  0  0  0  0  0  0  0  0
    1.0292    1.6960    1.2757 N   0  0  0  0  0  0  0  0  0  0  0  0
    1.7990    1.0648    1.4841 H   0  0  0  0  0  0  0  0  0  0  0  0
    1.1023    3.0748    1.7334 C   0  0  0  0  0  0  0  0  0  0  0  0
    0.1668    3.3668    2.2212 H   0  0  0  0  0  0  0  0  0  0  0  0
    1.9171    3.1871    2.4548 H   0  0  0  0  0  0  0  0  0  0  0  0
    1.2889    3.7473    0.8901 H   0  0  0  0  0  0  0  0  0  0  0  0
  1  2  1  0  0  0  0
  2  3  1  0  0  0  0
  2  4  1  0  0  0  0
  2  5  1  0  0  0  0
  5  6  2  0  0  0  0
  5  7  1  0  0  0  0
  7  8  1  0  0  0  0
  7  9  1  0  0  0  0
  9 10  1  0  0  0  0
  9 11  1  0  0  0  0
  9 17  1  0  0  0  0
 11 12  1  0  0  0  0
 11 13  1  0  0  0  0
 11 14  1  0  0  0  0
 14 15  1  0  0  0  0
 14 16  2  0  0  0  0
 17 18  2  0  0  0  0
 17 19  1  0  0  0  0
 19 20  1  0  0  0  0
 19 21  1  0  0  0  0
 21 22  1  0  0  0  0
 21 23  1  0  0  0  0
 21 24  1  0  0  0  0
M  CHG  1  15  -1
M  END
$$$$

  -OEChem-03222214023D

 24 23  0     1  0  0  0  0  0999 V2000
   -2.5970   -3.9180    0.4071 H   0  0  0  0  0  0  0  0  0  0  0  0
   -2.5384   -2.9644   -0.1249 C   0  0  0  0  0  0  0  0  0  0  0  0
   -3.4740   -2.4194    0.0203 H   0  0  0  0  0  0  0  0  0  0  0  0
   -2.4006   -3.1655   -1.1906 H   0  0  0  0  0  0  0  0  0  0  0  0
   -1.3711   -2.1449    0.3958 C   0  0  0  0  0  0  0  0  0  0  0  0
   -0.7080   -2.5645    1.3325 O   0  0  0  0  0  0  0  0  0  0  0  0
   -1.1628   -0.8766   -0.1017 N   0  0  0  0  0  0  0  0  0  0  0  0
   -1.7872   -0.5918   -0.8472 H   0  0  0  0  0  0  0  0  0  0  0  0
    0.1563   -0.2334   -0.1097 C   0  0  1  0  0  0  0  0  0  0  0  0
    0.8480   -0.7659    0.5537 H   0  0  0  0  0  0  0  0  0  0  0  0
    0.7003   -0.2565   -1.5527 C   0  0  0  0  0  0  0  0  0  0  0  0
   -0.0987   -0.4556   -2.2719 H   0  0  0  0  0  0  0  0  0  0  0  0
    1.1345    0.7126   -1.8161 H   0  0  0  0  0  0  0  0  0  0  0  0
    1.7856   -1.3071   -1.6984 C   0  0  0  0  0  0  0  0  0  0  0  0
    1.4349   -2.4642   -2.0334 O   0  5  0  0  0  0  0  0  0  0  0  0
    2.9580   -0.9593   -1.4143 O   0  0  0  0  0  0  0  0  0  0  0  0
    0.0815    1.2284    0.3773 C   0  0  0  0  0  0  0  0  0  0  0  0
   -0.8228    1.9765    0.0100 O   0  0  0  0  0  0  0  0  0  0  0  0
    1.0226    1.6913    1.2778 N   0  0  0  0  0  0  0  0  0  0  0  0
    1.8095    1.0722    1.4594 H   0  0  0  0  0  0  0  0  0  0  0  0
    1.0941    3.0732    1.7262 C   0  0  0  0  0  0  0  0  0  0  0  0
    0.1568    3.3687    2.2083 H   0  0  0  0  0  0  0  0  0  0  0  0
    1.9060    3.1908    2.4497 H   0  0  0  0  0  0  0  0  0  0  0  0
    1.2836    3.7396    0.8788 H   0  0  0  0  0  0  0  0  0  0  0  0
  1  2  1  0  0  0  0
  2  3  1  0  0  0  0
  2  4  1  0  0  0  0
  2  5  1  0  0  0  0
  5  6  2  0  0  0  0
  5  7  1  0  0  0  0
  7  8  1  0  0  0  0
  7  9  1  0  0  0  0
  9 10  1  0  0  0  0
  9 11  1  0  0  0  0
  9 17  1  0  0  0  0
 11 12  1  0  0  0  0
 11 13  1  0  0  0  0
 11 14  1  0  0  0  0
 14 15  1  0  0  0  0
 14 16  2  0  0  0  0
 17 18  2  0  0  0  0
 17 19  1  0  0  0  0
 19 20  1  0  0  0  0
 19 21  1  0  0  0  0
 21 22  1  0  0  0  0
 21 23  1  0  0  0  0
 21 24  1  0  0  0  0
M  CHG  1  15  -1
M  END
$$$$

  -OEChem-03222214023D

 24 23  0     1  0  0  0  0  0999 V2000
   -2.6336   -3.9114    0.3987 H   0  0  0  0  0  0  0  0  0  0  0  0
   -2.5902   -2.9365   -0.0946 C   0  0  0  0  0  0  0  0  0  0  0  0
   -3.4967   -2.3766    0.1467 H   0  0  0  0  0  0  0  0  0  0  0  0
   -2.5409   -3.0925   -1.1753 H   0  0  0  0  0  0  0  0  0  0  0  0
   -1.3650   -2.1689    0.3693 C   0  0  0  0  0  0  0  0  0  0  0  0
   -0.6582   -2.6372    1.2481 O   0  0  0  0  0  0  0  0  0  0  0  0
   -1.1422   -0.9001   -0.1200 N   0  0  0  0  0  0  0  0  0  0  0  0
   -1.7977   -0.5720   -0.8200 H   0  0  0  0  0  0  0  0  0  0  0  0
    0.1699   -0.2417   -0.1208 C   0  0  1  0  0  0  0  0  0  0  0  0
    0.8562   -0.7663    0.5543 H   0  0  0  0  0  0  0  0  0  0  0  0
    0.7350   -0.2658   -1.5553 C   0  0  0  0  0  0  0  0  0  0  0  0
   -0.0535   -0.4766   -2.2830 H   0  0  0  0  0  0  0  0  0  0  0  0
    1.1624    0.7062   -1.8179 H   0  0  0  0  0  0  0  0  0  0  0  0
    1.8372   -1.3013   -1.6831 C   0  0  0  0  0  0  0  0  0  0  0  0
    1.5738   -2.3714   -2.2830 O   0  5  0  0  0  0  0  0  0  0  0  0
    2.9415   -1.0186   -1.1551 O   0  0  0  0  0  0  0  0  0  0  0  0
    0.0818    1.2185    0.3651 C   0  0  0  0  0  0  0  0  0  0  0  0
   -0.8374    1.9529    0.0069 O   0  0  0  0  0  0  0  0  0  0  0  0
    1.0162    1.6874    1.2688 N   0  0  0  0  0  0  0  0  0  0  0  0
    1.8196    1.0832    1.4304 H   0  0  0  0  0  0  0  0  0  0  0  0
    1.0699    3.0679    1.7234 C   0  0  0  0  0  0  0  0  0  0  0  0
    0.1285    3.3490    2.2061 H   0  0  0  0  0  0  0  0  0  0  0  0
    1.8796    3.1926    2.4482 H   0  0  0  0  0  0  0  0  0  0  0  0
    1.2514    3.7409    0.8793 H   0  0  0  0  0  0  0  0  0  0  0  0
  1  2  1  0  0  0  0
  2  3  1  0  0  0  0
  2  4  1  0  0  0  0
  2  5  1  0  0  0  0
  5  6  2  0  0  0  0
  5  7  1  0  0  0  0
  7  8  1  0  0  0  0
  7  9  1  0  0  0  0
  9 10  1  0  0  0  0
  9 11  1  0  0  0  0
  9 17  1  0  0  0  0
 11 12  1  0  0  0  0
 11 13  1  0  0  0  0
 11 14  1  0  0  0  0
 14 15  1  0  0  0  0
 14 16  2  0  0  0  0
 17 18  2  0  0  0  0
 17 19  1  0  0  0  0
 19 20  1  0  0  0  0
 19 21  1  0  0  0  0
 21 22  1  0  0  0  0
 21 23  1  0  0  0  0
 21 24  1  0  0  0  0
M  CHG  1  15  -1
M  END
$$$$

  -OEChem-03222214023D

 24 23  0     1  0  0  0  0  0999 V2000
   -2.6700   -3.9002    0.3990 H   0  0  0  0  0  0  0  0  0  0  0  0
   -2.6309   -2.9119   -0.0676 C   0  0  0  0  0  0  0  0  0  0  0  0
   -3.5081   -2.3389    0.2422 H   0  0  0  0  0  0  0  0  0  0  0  0
   -2.6482   -3.0361   -1.1534 H   0  0  0  0  0  0  0  0  0  0  0  0
   -1.3632   -2.1863    0.3466 C   0  0  0  0  0  0  0  0  0  0  0  0
   -0.6241   -2.6947    1.1742 O   0  0  0  0  0  0  0  0  0  0  0  0
   -1.1288   -0.9174   -0.1370 N   0  0  0  0  0  0  0  0  0  0  0  0
   -1.8110   -0.5505   -0.7911 H   0  0  0  0  0  0  0  0  0  0  0  0
    0.1785   -0.2480   -0.1310 C   0  0  1  0  0  0  0  0  0  0  0  0
    0.8549   -0.7662    0.5585 H   0  0  0  0  0  0  0  0  0  0  0  0
    0.7651   -0.2800   -1.5579 C   0  0  0  0  0  0  0  0  0  0  0  0
   -0.0143   -0.5026   -2.2919 H   0  0  0  0  0  0  0  0  0  0  0  0
    1.1859    0.6941   -1.8227 H   0  0  0  0  0  0  0  0  0  0  0  0
    1.8824   -1.3028   -1.6744 C   0  0  0  0  0  0  0  0  0  0  0  0
    1.7427   -2.2366   -2.5009 O   0  5  0  0  0  0  0  0  0  0  0  0
    2.9019   -1.1097   -0.9653 O   0  0  0  0  0  0  0  0  0  0  0  0
    0.0807    1.2119    0.3526 C   0  0  0  0  0  0  0  0  0  0  0  0
   -0.8499    1.9354    0.0019 O   0  0  0  0  0  0  0  0  0  0  0  0
    1.0095    1.6853    1.2597 N   0  0  0  0  0  0  0  0  0  0  0  0
    1.8183    1.0869    1.4186 H   0  0  0  0  0  0  0  0  0  0  0  0
    1.0484    3.0624    1.7259 C   0  0  0  0  0  0  0  0  0  0  0  0
    0.1061    3.3280    2.2157 H   0  0  0  0  0  0  0  0  0  0  0  0
    1.8602    3.1899    2.4481 H   0  0  0  0  0  0  0  0  0  0  0  0
    1.2175    3.7449    0.8869 H   0  0  0  0  0  0  0  0  0  0  0  0
  1  2  1  0  0  0  0
  2  3  1  0  0  0  0
  2  4  1  0  0  0  0
  2  5  1  0  0  0  0
  5  6  2  0  0  0  0
  5  7  1  0  0  0  0
  7  8  1  0  0  0  0
  7  9  1  0  0  0  0
  9 10  1  0  0  0  0
  9 11  1  0  0  0  0
  9 17  1  0  0  0  0
 11 12  1  0  0  0  0
 11 13  1  0  0  0  0
 11 14  1  0  0  0  0
 14 15  1  0  0  0  0
 14 16  2  0  0  0  0
 17 18  2  0  0  0  0
 17 19  1  0  0  0  0
 19 20  1  0  0  0  0
 19 21  1  0  0  0  0
 21 22  1  0  0  0  0
 21 23  1  0  0  0  0
 21 24  1  0  0  0  0
M  CHG  1  15  -1
M  END
$$$$

  -OEChem-03222214023D

 24 23  0     1  0  0  0  0  0999 V2000
   -2.7137   -3.8808    0.4065 H   0  0  0  0  0  0  0  0  0  0  0  0
   -2.6684   -2.8844   -0.0419 C   0  0  0  0  0  0  0  0  0  0  0  0
   -3.5144   -2.2949    0.3195 H   0  0  0  0  0  0  0  0  0  0  0  0
   -2.7387   -2.9853   -1.1279 H   0  0  0  0  0  0  0  0  0  0  0  0
   -1.3633   -2.2023    0.3287 C   0  0  0  0  0  0  0  0  0  0  0  0
   -0.6040   -2.7484    1.1119 O   0  0  0  0  0  0  0  0  0  0  0  0
   -1.1116   -0.9352   -0.1500 N   0  0  0  0  0  0  0  0  0  0  0  0
   -1.8165   -0.5268   -0.7542 H   0  0  0  0  0  0  0  0  0  0  0  0
    0.1931   -0.2607   -0.1341 C   0  0  1  0  0  0  0  0  0  0  0  0
    0.8589   -0.7740    0.5687 H   0  0  0  0  0  0  0  0  0  0  0  0
    0.7969   -0.2964   -1.5558 C   0  0  0  0  0  0  0  0  0  0  0  0
    0.0212   -0.5251   -2.2919 H   0  0  0  0  0  0  0  0  0  0  0  0
    1.2094    0.6813   -1.8193 H   0  0  0  0  0  0  0  0  0  0  0  0
    1.9263   -1.3075   -1.6853 C   0  0  0  0  0  0  0  0  0  0  0  0
    1.9264   -2.0497   -2.6975 O   0  5  0  0  0  0  0  0  0  0  0  0
    2.8555   -1.2398   -0.8413 O   0  0  0  0  0  0  0  0  0  0  0  0
    0.0814    1.1983    0.3462 C   0  0  0  0  0  0  0  0  0  0  0  0
   -0.8562    1.9106   -0.0087 O   0  0  0  0  0  0  0  0  0  0  0  0
    0.9979    1.6797    1.2611 N   0  0  0  0  0  0  0  0  0  0  0  0
    1.8073    1.0854    1.4328 H   0  0  0  0  0  0  0  0  0  0  0  0
    1.0215    3.0580    1.7243 C   0  0  0  0  0  0  0  0  0  0  0  0
    0.0757    3.3139    2.2126 H   0  0  0  0  0  0  0  0  0  0  0  0
    1.8315    3.1967    2.4464 H   0  0  0  0  0  0  0  0  0  0  0  0
    1.1837    3.7403    0.8838 H   0  0  0  0  0  0  0  0  0  0  0  0
  1  2  1  0  0  0  0
  2  3  1  0  0  0  0
  2  4  1  0  0  0  0
  2  5  1  0  0  0  0
  5  6  2  0  0  0  0
  5  7  1  0  0  0  0
  7  8  1  0  0  0  0
  7  9  1  0  0  0  0
  9 10  1  0  0  0  0
  9 11  1  0  0  0  0
  9 17  1  0  0  0  0
 11 12  1  0  0  0  0
 11 13  1  0  0  0  0
 11 14  1  0  0  0  0
 14 15  1  0  0  0  0
 14 16  2  0  0  0  0
 17 18  2  0  0  0  0
 17 19  1  0  0  0  0
 19 20  1  0  0  0  0
 19 21  1  0  0  0  0
 21 22  1  0  0  0  0
 21 23  1  0  0  0  0
 21 24  1  0  0  0  0
M  CHG  1  15  -1
M  END
$$$$

  -OEChem-03222214023D

 24 23  0     1  0  0  0  0  0999 V2000
   -2.7219   -3.8807    0.3676 H   0  0  0  0  0  0  0  0  0  0  0  0
   -2.6942   -2.8575   -0.0176 C   0  0  0  0  0  0  0  0  0  0  0  0
   -3.5136   -2.2884    0.4281 H   0  0  0  0  0  0  0  0  0  0  0  0
   -2.8270   -2.8877   -1.1019 H   0  0  0  0  0  0  0  0  0  0  0  0
   -1.3654   -2.2061    0.3221 C   0  0  0  0  0  0  0  0  0  0  0  0
   -0.6010   -2.7727    1.0848 O   0  0  0  0  0  0  0  0  0  0  0  0
   -1.0982   -0.9441   -0.1611 N   0  0  0  0  0  0  0  0  0  0  0  0
   -1.8127   -0.5124   -0.7374 H   0  0  0  0  0  0  0  0  0  0  0  0
    0.2074   -0.2707   -0.1395 C   0  0  1  0  0  0  0  0  0  0  0  0
    0.8613   -0.7773    0.5782 H   0  0  0  0  0  0  0  0  0  0  0  0
    0.8235   -0.3196   -1.5581 C   0  0  0  0  0  0  0  0  0  0  0  0
    0.0490   -0.5514   -2.2942 H   0  0  0  0  0  0  0  0  0  0  0  0
    1.2324    0.6590   -1.8241 H   0  0  0  0  0  0  0  0  0  0  0  0
    1.9594   -1.3252   -1.7050 C   0  0  0  0  0  0  0  0  0  0  0  0
    2.1087   -1.8423   -2.8390 O   0  5  0  0  0  0  0  0  0  0  0  0
    2.7809   -1.4260   -0.7594 O   0  0  0  0  0  0  0  0  0  0  0  0
    0.0877    1.1916    0.3293 C   0  0  0  0  0  0  0  0  0  0  0  0
   -0.8546    1.8952   -0.0307 O   0  0  0  0  0  0  0  0  0  0  0  0
    0.9941    1.6823    1.2494 N   0  0  0  0  0  0  0  0  0  0  0  0
    1.7984    1.0882    1.4436 H   0  0  0  0  0  0  0  0  0  0  0  0
    0.9938    3.0556    1.7284 C   0  0  0  0  0  0  0  0  0  0  0  0
    0.0395    3.2929    2.2096 H   0  0  0  0  0  0  0  0  0  0  0  0
    1.7940    3.1969    2.4608 H   0  0  0  0  0  0  0  0  0  0  0  0
    1.1551    3.7495    0.8973 H   0  0  0  0  0  0  0  0  0  0  0  0
  1  2  1  0  0  0  0
  2  3  1  0  0  0  0
  2  4  1  0  0  0  0
  2  5  1  0  0  0  0
  5  6  2  0  0  0  0
  5  7  1  0  0  0  0
  7  8  1  0  0  0  0
  7  9  1  0  0  0  0
  9 10  1  0  0  0  0
  9 11  1  0  0  0  0
  9 17  1  0  0  0  0
 11 12  1  0  0  0  0
 11 13  1  0  0  0  0
 11 14  1  0  0  0  0
 14 15  1  0  0  0  0
 14 16  2  0  0  0  0
 17 18  2  0  0  0  0
 17 19  1  0  0  0  0
 19 20  1  0  0  0  0
 19 21  1  0  0  0  0
 21 22  1  0  0  0  0
 21 23  1  0  0  0  0
 21 24  1  0  0  0  0
M  CHG  1  15  -1
M  END
$$$$

  -OEChem-03222214023D

 24 23  0     1  0  0  0  0  0999 V2000
   -2.7309   -3.8723    0.3792 H   0  0  0  0  0  0  0  0  0  0  0  0
   -2.6923   -2.8557   -0.0223 C   0  0  0  0  0  0  0  0  0  0  0  0
   -3.5226   -2.2790    0.3922 H   0  0  0  0  0  0  0  0  0  0  0  0
   -2.7966   -2.9043   -1.1091 H   0  0  0  0  0  0  0  0  0  0  0  0
   -1.3723   -2.1991    0.3414 C   0  0  0  0  0  0  0  0  0  0  0  0
   -0.6308   -2.7526    1.1354 O   0  0  0  0  0  0  0  0  0  0  0  0
   -1.0953   -0.9425   -0.1507 N   0  0  0  0  0  0  0  0  0  0  0  0
   -1.7981   -0.5207   -0.7482 H   0  0  0  0  0  0  0  0  0  0  0  0
    0.2146   -0.2766   -0.1294 C   0  0  1  0  0  0  0  0  0  0  0  0
    0.8663   -0.7798    0.5922 H   0  0  0  0  0  0  0  0  0  0  0  0
    0.8254   -0.3295   -1.5531 C   0  0  0  0  0  0  0  0  0  0  0  0
    0.0429   -0.5509   -2.2841 H   0  0  0  0  0  0  0  0  0  0  0  0
    1.2345    0.6502   -1.8145 H   0  0  0  0  0  0  0  0  0  0  0  0
    1.9590   -1.3334   -1.7431 C   0  0  0  0  0  0  0  0  0  0  0  0
    2.2570   -1.5977   -2.9334 O   0  5  0  0  0  0  0  0  0  0  0  0
    2.6429   -1.6750   -0.7472 O   0  0  0  0  0  0  0  0  0  0  0  0
    0.0940    1.1895    0.3289 C   0  0  0  0  0  0  0  0  0  0  0  0
   -0.8393    1.8957   -0.0484 O   0  0  0  0  0  0  0  0  0  0  0  0
    0.9955    1.6867    1.2507 N   0  0  0  0  0  0  0  0  0  0  0  0
    1.7828    1.0832    1.4796 H   0  0  0  0  0  0  0  0  0  0  0  0
    0.9885    3.0595    1.7315 C   0  0  0  0  0  0  0  0  0  0  0  0
    0.0352    3.2896    2.2180 H   0  0  0  0  0  0  0  0  0  0  0  0
    1.7919    3.2051    2.4597 H   0  0  0  0  0  0  0  0  0  0  0  0
    1.1413    3.7563    0.9011 H   0  0  0  0  0  0  0  0  0  0  0  0
  1  2  1  0  0  0  0
  2  3  1  0  0  0  0
  2  4  1  0  0  0  0
  2  5  1  0  0  0  0
  5  6  2  0  0  0  0
  5  7  1  0  0  0  0
  7  8  1  0  0  0  0
  7  9  1  0  0  0  0
  9 10  1  0  0  0  0
  9 11  1  0  0  0  0
  9 17  1  0  0  0  0
 11 12  1  0  0  0  0
 11 13  1  0  0  0  0
 11 14  1  0  0  0  0
 14 15  1  0  0  0  0
 14 16  2  0  0  0  0
 17 18  2  0  0  0  0
 17 19  1  0  0  0  0
 19 20  1  0  0  0  0
 19 21  1  0  0  0  0
 21 22  1  0  0  0  0
 21 23  1  0  0  0  0
 21 24  1  0  0  0  0
M  CHG  1  15  -1
M  END
$$$$

  -OEChem-03222214023D

 24 23  0     1  0  0  0  0  0999 V2000
   -2.5684   -3.8959    0.4445 H   0  0  0  0  0  0  0  0  0  0  0  0
   -2.4708   -2.9777   -0.1413 C   0  0  0  0  0  0  0  0  0  0  0  0
   -3.4358   -2.4662   -0.1629 H   0  0  0  0  0  0  0  0  0  0  0  0
   -2.1805   -3.2426   -1.1613 H   0  0  0  0  0  0  0  0  0  0  0  0
   -1.4148   -2.0756    0.4716 C   0  0  0  0  0  0  0  0  0  0  0  0
   -0.9046   -2.3774    1.5410 O   0  0  0  0  0  0  0  0  0  0  0  0
   -1.1803   -0.8341   -0.0785 N   0  0  0  0  0  0  0  0  0  0  0  0
   -1.7265   -0.6288   -0.9068 H   0  0  0  0  0  0  0  0  0  0  0  0
    0.1636   -0.2445   -0.0763 C   0  0  1  0  0  0  0  0  0  0  0  0
    0.8357   -0.7784    0.6050 H   0  0  0  0  0  0  0  0  0  0  0  0
    0.6999   -0.3006   -1.5282 C   0  0  0  0  0  0  0  0  0  0  0  0
   -0.1207   -0.1654   -2.2378 H   0  0  0  0  0  0  0  0  0  0  0  0
    1.3939    0.5308   -1.6814 H   0  0  0  0  0  0  0  0  0  0  0  0
    1.4691   -1.5643   -1.9007 C   0  0  0  0  0  0  0  0  0  0  0  0
    1.9034   -1.6101   -3.0765 O   0  5  0  0  0  0  0  0  0  0  0  0
    1.6202   -2.4735   -1.0516 O   0  0  0  0  0  0  0  0  0  0  0  0
    0.1138    1.2363    0.3566 C   0  0  0  0  0  0  0  0  0  0  0  0
   -0.7309    2.0098   -0.0900 O   0  0  0  0  0  0  0  0  0  0  0  0
    1.0405    1.7059    1.2693 N   0  0  0  0  0  0  0  0  0  0  0  0
    1.7115    1.0314    1.6271 H   0  0  0  0  0  0  0  0  0  0  0  0
    1.0848    3.0789    1.7478 C   0  0  0  0  0  0  0  0  0  0  0  0
    0.1521    3.3353    2.2602 H   0  0  0  0  0  0  0  0  0  0  0  0
    1.9132    3.2042    2.4513 H   0  0  0  0  0  0  0  0  0  0  0  0
    1.2326    3.7702    0.9120 H   0  0  0  0  0  0  0  0  0  0  0  0
  1  2  1  0  0  0  0
  2  3  1  0  0  0  0
  2  4  1  0  0  0  0
  2  5  1  0  0  0  0
  5  6  2  0  0  0  0
  5  7  1  0  0  0  0
  7  8  1  0  0  0  0
  7  9  1  0  0  0  0
  9 10  1  0  0  0  0
  9 11  1  0  0  0  0
  9 17  1  0  0  0  0
 11 12  1  0  0  0  0
 11 13  1  0  0  0  0
 11 14  1  0  0  0  0
 14 15  1  0  0  0  0
 14 16  2  0  0  0  0
 17 18  2  0  0  0  0
 17 19  1  0  0  0  0
 19 20  1  0  0  0  0
 19 21  1  0  0  0  0
 21 22  1  0  0  0  0
 21 23  1  0  0  0  0
 21 24  1  0  0  0  0
M  CHG  1  15  -1
M  END
$$$$

  -OEChem-03222214023D

 24 23  0     1  0  0  0  0  0999 V2000
   -2.5251   -3.9025    0.4472 H   0  0  0  0  0  0  0  0  0  0  0  0
   -2.4265   -2.9944   -0.1537 C   0  0  0  0  0  0  0  0  0  0  0  0
   -3.4027   -2.5102   -0.2298 H   0  0  0  0  0  0  0  0  0  0  0  0
   -2.0828   -3.2723   -1.1536 H   0  0  0  0  0  0  0  0  0  0  0  0
   -1.4221   -2.0520    0.4844 C   0  0  0  0  0  0  0  0  0  0  0  0
   -0.9480   -2.3165    1.5812 O   0  0  0  0  0  0  0  0  0  0  0  0
   -1.2008   -0.8110   -0.0730 N   0  0  0  0  0  0  0  0  0  0  0  0
   -1.7236   -0.6403   -0.9236 H   0  0  0  0  0  0  0  0  0  0  0  0
    0.1491   -0.2365   -0.0761 C   0  0  1  0  0  0  0  0  0  0  0  0
    0.8217   -0.7812    0.5964 H   0  0  0  0  0  0  0  0  0  0  0  0
    0.6822   -0.2934   -1.5290 C   0  0  0  0  0  0  0  0  0  0  0  0
   -0.1345   -0.1487   -2.2409 H   0  0  0  0  0  0  0  0  0  0  0  0
    1.3862    0.5307   -1.6785 H   0  0  0  0  0  0  0  0  0  0  0  0
    1.4343   -1.5688   -1.8951 C   0  0  0  0  0  0  0  0  0  0  0  0
    2.1184   -1.5237   -2.9453 O   0  5  0  0  0  0  0  0  0  0  0  0
    1.2805   -2.5938   -1.1900 O   0  0  0  0  0  0  0  0  0  0  0  0
    0.1145    1.2451    0.3575 C   0  0  0  0  0  0  0  0  0  0  0  0
   -0.7183    2.0294   -0.0925 O   0  0  0  0  0  0  0  0  0  0  0  0
    1.0482    1.7063    1.2675 N   0  0  0  0  0  0  0  0  0  0  0  0
    1.7021    1.0225    1.6380 H   0  0  0  0  0  0  0  0  0  0  0  0
    1.0995    3.0770    1.7525 C   0  0  0  0  0  0  0  0  0  0  0  0
    0.1663    3.3375    2.2619 H   0  0  0  0  0  0  0  0  0  0  0  0
    1.9252    3.1936    2.4606 H   0  0  0  0  0  0  0  0  0  0  0  0
    1.2562    3.7713    0.9208 H   0  0  0  0  0  0  0  0  0  0  0  0
  1  2  1  0  0  0  0
  2  3  1  0  0  0  0
  2  4  1  0  0  0  0
  2  5  1  0  0  0  0
  5  6  2  0  0  0  0
  5  7  1  0  0  0  0
  7  8  1  0  0  0  0
  7  9  1  0  0  0  0
  9 10  1  0  0  0  0
  9 11  1  0  0  0  0
  9 17  1  0  0  0  0
 11 12  1  0  0  0  0
 11 13  1  0  0  0  0
 11 14  1  0  0  0  0
 14 15  1  0  0  0  0
 14 16  2  0  0  0  0
 17 18  2  0  0  0  0
 17 19  1  0  0  0  0
 19 20  1  0  0  0  0
 19 21  1  0  0  0  0
 21 22  1  0  0  0  0
 21 23  1  0  0  0  0
 21 24  1  0  0  0  0
M  CHG  1  15  -1
M  END
$$$$

  -OEChem-03222214023D

 24 23  0     1  0  0  0  0  0999 V2000
   -2.5300   -3.9021    0.4528 H   0  0  0  0  0  0  0  0  0  0  0  0
   -2.4081   -3.0088   -0.1656 C   0  0  0  0  0  0  0  0  0  0  0  0
   -3.3803   -2.5272   -0.2913 H   0  0  0  0  0  0  0  0  0  0  0  0
   -2.0260   -3.3107   -1.1446 H   0  0  0  0  0  0  0  0  0  0  0  0
   -1.4276   -2.0505    0.4860 C   0  0  0  0  0  0  0  0  0  0  0  0
   -0.9513   -2.3116    1.5834 O   0  0  0  0  0  0  0  0  0  0  0  0
   -1.2173   -0.8058   -0.0678 N   0  0  0  0  0  0  0  0  0  0  0  0
   -1.7305   -0.6507   -0.9271 H   0  0  0  0  0  0  0  0  0  0  0  0
    0.1332   -0.2327   -0.0729 C   0  0  1  0  0  0  0  0  0  0  0  0
    0.8074   -0.7843    0.5924 H   0  0  0  0  0  0  0  0  0  0  0  0
    0.6685   -0.2800   -1.5238 C   0  0  0  0  0  0  0  0  0  0  0  0
   -0.1448   -0.1351   -2.2394 H   0  0  0  0  0  0  0  0  0  0  0  0
    1.3724    0.5453   -1.6682 H   0  0  0  0  0  0  0  0  0  0  0  0
    1.4169   -1.5602   -1.8759 C   0  0  0  0  0  0  0  0  0  0  0  0
    2.3273   -1.4623   -2.7329 O   0  5  0  0  0  0  0  0  0  0  0  0
    1.0218   -2.6404   -1.3760 O   0  0  0  0  0  0  0  0  0  0  0  0
    0.1037    1.2470    0.3689 C   0  0  0  0  0  0  0  0  0  0  0  0
   -0.7261    2.0371   -0.0763 O   0  0  0  0  0  0  0  0  0  0  0  0
    1.0424    1.7015    1.2774 N   0  0  0  0  0  0  0  0  0  0  0  0
    1.7049    1.0180    1.6327 H   0  0  0  0  0  0  0  0  0  0  0  0
    1.1186    3.0771    1.7445 C   0  0  0  0  0  0  0  0  0  0  0  0
    0.1967    3.3557    2.2648 H   0  0  0  0  0  0  0  0  0  0  0  0
    1.9569    3.1910    2.4381 H   0  0  0  0  0  0  0  0  0  0  0  0
    1.2713    3.7593    0.9020 H   0  0  0  0  0  0  0  0  0  0  0  0
  1  2  1  0  0  0  0
  2  3  1  0  0  0  0
  2  4  1  0  0  0  0
  2  5  1  0  0  0  0
  5  6  2  0  0  0  0
  5  7  1  0  0  0  0
  7  8  1  0  0  0  0
  7  9  1  0  0  0  0
  9 10  1  0  0  0  0
  9 11  1  0  0  0  0
  9 17  1  0  0  0  0
 11 12  1  0  0  0  0
 11 13  1  0  0  0  0
 11 14  1  0  0  0  0
 14 15  1  0  0  0  0
 14 16  2  0  0  0  0
 17 18  2  0  0  0  0
 17 19  1  0  0  0  0
 19 20  1  0  0  0  0
 19 21  1  0  0  0  0
 21 22  1  0  0  0  0
 21 23  1  0  0  0  0
 21 24  1  0  0  0  0
M  CHG  1  15  -1
M  END
$$$$

  -OEChem-03222214023D

 24 23  0     1  0  0  0  0  0999 V2000
   -2.5225   -3.9072    0.4506 H   0  0  0  0  0  0  0  0  0  0  0  0
   -2.4280   -3.0001   -0.1521 C   0  0  0  0  0  0  0  0  0  0  0  0
   -3.4031   -2.5125   -0.2175 H   0  0  0  0  0  0  0  0  0  0  0  0
   -2.0963   -3.2802   -1.1557 H   0  0  0  0  0  0  0  0  0  0  0  0
   -1.4129   -2.0602    0.4726 C   0  0  0  0  0  0  0  0  0  0  0  0
   -0.9007   -2.3399    1.5492 O   0  0  0  0  0  0  0  0  0  0  0  0
   -1.2056   -0.8129   -0.0773 N   0  0  0  0  0  0  0  0  0  0  0  0
   -1.7256   -0.6535   -0.9319 H   0  0  0  0  0  0  0  0  0  0  0  0
    0.1421   -0.2332   -0.0835 C   0  0  1  0  0  0  0  0  0  0  0  0
    0.8208   -0.7820    0.5792 H   0  0  0  0  0  0  0  0  0  0  0  0
    0.6772   -0.2768   -1.5325 C   0  0  0  0  0  0  0  0  0  0  0  0
   -0.1348   -0.1409   -2.2512 H   0  0  0  0  0  0  0  0  0  0  0  0
    1.3772    0.5513   -1.6805 H   0  0  0  0  0  0  0  0  0  0  0  0
    1.4266   -1.5614   -1.8600 C   0  0  0  0  0  0  0  0  0  0  0  0
    2.5142   -1.4508   -2.4750 O   0  5  0  0  0  0  0  0  0  0  0  0
    0.8601   -2.6501   -1.5983 O   0  0  0  0  0  0  0  0  0  0  0  0
    0.1052    1.2452    0.3624 C   0  0  0  0  0  0  0  0  0  0  0  0
   -0.7337    2.0297   -0.0755 O   0  0  0  0  0  0  0  0  0  0  0  0
    1.0427    1.7033    1.2704 N   0  0  0  0  0  0  0  0  0  0  0  0
    1.7198    1.0268    1.6115 H   0  0  0  0  0  0  0  0  0  0  0  0
    1.1053    3.0762    1.7477 C   0  0  0  0  0  0  0  0  0  0  0  0
    0.1716    3.3493    2.2497 H   0  0  0  0  0  0  0  0  0  0  0  0
    1.9273    3.1882    2.4608 H   0  0  0  0  0  0  0  0  0  0  0  0
    1.2749    3.7637    0.9128 H   0  0  0  0  0  0  0  0  0  0  0  0
  1  2  1  0  0  0  0
  2  3  1  0  0  0  0
  2  4  1  0  0  0  0
  2  5  1  0  0  0  0
  5  6  2  0  0  0  0
  5  7  1  0  0  0  0
  7  8  1  0  0  0  0
  7  9  1  0  0  0  0
  9 10  1  0  0  0  0
  9 11  1  0  0  0  0
  9 17  1  0  0  0  0
 11 12  1  0  0  0  0
 11 13  1  0  0  0  0
 11 14  1  0  0  0  0
 14 15  1  0  0  0  0
 14 16  2  0  0  0  0
 17 18  2  0  0  0  0
 17 19  1  0  0  0  0
 19 20  1  0  0  0  0
 19 21  1  0  0  0  0
 21 22  1  0  0  0  0
 21 23  1  0  0  0  0
 21 24  1  0  0  0  0
M  CHG  1  15  -1
M  END
$$$$

  -OEChem-03222214023D

 24 23  0     1  0  0  0  0  0999 V2000
   -2.5164   -3.9178    0.4317 H   0  0  0  0  0  0  0  0  0  0  0  0
   -2.4324   -3.0024   -0.1602 C   0  0  0  0  0  0  0  0  0  0  0  0
   -3.4082   -2.5134   -0.2003 H   0  0  0  0  0  0  0  0  0  0  0  0
   -2.1205   -3.2687   -1.1740 H   0  0  0  0  0  0  0  0  0  0  0  0
   -1.4047   -2.0717    0.4579 C   0  0  0  0  0  0  0  0  0  0  0  0
   -0.8626   -2.3731    1.5137 O   0  0  0  0  0  0  0  0  0  0  0  0
   -1.2034   -0.8193   -0.0825 N   0  0  0  0  0  0  0  0  0  0  0  0
   -1.7283   -0.6543   -0.9333 H   0  0  0  0  0  0  0  0  0  0  0  0
    0.1393   -0.2286   -0.0853 C   0  0  1  0  0  0  0  0  0  0  0  0
    0.8225   -0.7754    0.5745 H   0  0  0  0  0  0  0  0  0  0  0  0
    0.6687   -0.2704   -1.5339 C   0  0  0  0  0  0  0  0  0  0  0  0
   -0.1455   -0.1480   -2.2530 H   0  0  0  0  0  0  0  0  0  0  0  0
    1.3635    0.5603   -1.6920 H   0  0  0  0  0  0  0  0  0  0  0  0
    1.4195   -1.5588   -1.8323 C   0  0  0  0  0  0  0  0  0  0  0  0
    2.6226   -1.4664   -2.1754 O   0  5  0  0  0  0  0  0  0  0  0  0
    0.7570   -2.6252   -1.8109 O   0  0  0  0  0  0  0  0  0  0  0  0
    0.0984    1.2470    0.3691 C   0  0  0  0  0  0  0  0  0  0  0  0
   -0.7451    2.0306   -0.0615 O   0  0  0  0  0  0  0  0  0  0  0  0
    1.0358    1.7033    1.2780 N   0  0  0  0  0  0  0  0  0  0  0  0
    1.7312    1.0332    1.5939 H   0  0  0  0  0  0  0  0  0  0  0  0
    1.1112    3.0797    1.7439 C   0  0  0  0  0  0  0  0  0  0  0  0
    0.1817    3.3641    2.2476 H   0  0  0  0  0  0  0  0  0  0  0  0
    1.9371    3.1908    2.4526 H   0  0  0  0  0  0  0  0  0  0  0  0
    1.2828    3.7593    0.9029 H   0  0  0  0  0  0  0  0  0  0  0  0
  1  2  1  0  0  0  0
  2  3  1  0  0  0  0
  2  4  1  0  0  0  0
  2  5  1  0  0  0  0
  5  6  2  0  0  0  0
  5  7  1  0  0  0  0
  7  8  1  0  0  0  0
  7  9  1  0  0  0  0
  9 10  1  0  0  0  0
  9 11  1  0  0  0  0
  9 17  1  0  0  0  0
 11 12  1  0  0  0  0
 11 13  1  0  0  0  0
 11 14  1  0  0  0  0
 14 15  1  0  0  0  0
 14 16  2  0  0  0  0
 17 18  2  0  0  0  0
 17 19  1  0  0  0  0
 19 20  1  0  0  0  0
 19 21  1  0  0  0  0
 21 22  1  0  0  0  0
 21 23  1  0  0  0  0
 21 24  1  0  0  0  0
M  CHG  1  15  -1
M  END
$$$$

  -OEChem-03222214023D

 24 23  0     1  0  0  0  0  0999 V2000
   -2.5444   -3.9086    0.4340 H   0  0  0  0  0  0  0  0  0  0  0  0
   -2.4408   -3.0001   -0.1651 C   0  0  0  0  0  0  0  0  0  0  0  0
   -3.4057   -2.4899   -0.2072 H   0  0  0  0  0  0  0  0  0  0  0  0
   -2.1372   -3.2804   -1.1777 H   0  0  0  0  0  0  0  0  0  0  0  0
   -1.3914   -2.0874    0.4426 C   0  0  0  0  0  0  0  0  0  0  0  0
   -0.8148   -2.4172    1.4706 O   0  0  0  0  0  0  0  0  0  0  0  0
   -1.1956   -0.8294   -0.0858 N   0  0  0  0  0  0  0  0  0  0  0  0
   -1.7376   -0.6468   -0.9225 H   0  0  0  0  0  0  0  0  0  0  0  0
    0.1402   -0.2240   -0.0899 C   0  0  1  0  0  0  0  0  0  0  0  0
    0.8304   -0.7674    0.5659 H   0  0  0  0  0  0  0  0  0  0  0  0
    0.6598   -0.2649   -1.5390 C   0  0  0  0  0  0  0  0  0  0  0  0
   -0.1587   -0.1557   -2.2555 H   0  0  0  0  0  0  0  0  0  0  0  0
    1.3488    0.5681   -1.7085 H   0  0  0  0  0  0  0  0  0  0  0  0
    1.4166   -1.5527   -1.8139 C   0  0  0  0  0  0  0  0  0  0  0  0
    2.6683   -1.4946   -1.8746 O   0  5  0  0  0  0  0  0  0  0  0  0
    0.7295   -2.5838   -2.0195 O   0  0  0  0  0  0  0  0  0  0  0  0
    0.0933    1.2475    0.3745 C   0  0  0  0  0  0  0  0  0  0  0  0
   -0.7631    2.0257   -0.0401 O   0  0  0  0  0  0  0  0  0  0  0  0
    1.0337    1.7026    1.2805 N   0  0  0  0  0  0  0  0  0  0  0  0
    1.7528    1.0419    1.5624 H   0  0  0  0  0  0  0  0  0  0  0  0
    1.1133    3.0799    1.7421 C   0  0  0  0  0  0  0  0  0  0  0  0
    0.1806    3.3730    2.2347 H   0  0  0  0  0  0  0  0  0  0  0  0
    1.9320    3.1877    2.4595 H   0  0  0  0  0  0  0  0  0  0  0  0
    1.2981    3.7549    0.9003 H   0  0  0  0  0  0  0  0  0  0  0  0
  1  2  1  0  0  0  0
  2  3  1  0  0  0  0
  2  4  1  0  0  0  0
  2  5  1  0  0  0  0
  5  6  2  0  0  0  0
  5  7  1  0  0  0  0
  7  8  1  0  0  0  0
  7  9  1  0  0  0  0
  9 10  1  0  0  0  0
  9 11  1  0  0  0  0
  9 17  1  0  0  0  0
 11 12  1  0  0  0  0
 11 13  1  0  0  0  0
 11 14  1  0  0  0  0
 14 15  1  0  0  0  0
 14 16  2  0  0  0  0
 17 18  2  0  0  0  0
 17 19  1  0  0  0  0
 19 20  1  0  0  0  0
 19 21  1  0  0  0  0
 21 22  1  0  0  0  0
 21 23  1  0  0  0  0
 21 24  1  0  0  0  0
M  CHG  1  15  -1
M  END
$$$$

  -OEChem-03222214023D

 24 23  0     1  0  0  0  0  0999 V2000
   -2.5193   -3.9281    0.3943 H   0  0  0  0  0  0  0  0  0  0  0  0
   -2.4544   -2.9925   -0.1674 C   0  0  0  0  0  0  0  0  0  0  0  0
   -3.4250   -2.4923   -0.1387 H   0  0  0  0  0  0  0  0  0  0  0  0
   -2.1987   -3.2239   -1.2053 H   0  0  0  0  0  0  0  0  0  0  0  0
   -1.3856   -2.0956    0.4297 C   0  0  0  0  0  0  0  0  0  0  0  0
   -0.7864   -2.4468    1.4368 O   0  0  0  0  0  0  0  0  0  0  0  0
   -1.1869   -0.8360   -0.0933 N   0  0  0  0  0  0  0  0  0  0  0  0
   -1.7430   -0.6363   -0.9170 H   0  0  0  0  0  0  0  0  0  0  0  0
    0.1445   -0.2200   -0.0963 C   0  0  1  0  0  0  0  0  0  0  0  0
    0.8369   -0.7592    0.5607 H   0  0  0  0  0  0  0  0  0  0  0  0
    0.6597   -0.2683   -1.5453 C   0  0  0  0  0  0  0  0  0  0  0  0
   -0.1604   -0.1697   -2.2619 H   0  0  0  0  0  0  0  0  0  0  0  0
    1.3473    0.5636   -1.7246 H   0  0  0  0  0  0  0  0  0  0  0  0
    1.4216   -1.5560   -1.7977 C   0  0  0  0  0  0  0  0  0  0  0  0
    2.6566   -1.5549   -1.5754 O   0  5  0  0  0  0  0  0  0  0  0  0
    0.7624   -2.5348   -2.2278 O   0  0  0  0  0  0  0  0  0  0  0  0
    0.0960    1.2506    0.3692 C   0  0  0  0  0  0  0  0  0  0  0  0
   -0.7675    2.0251   -0.0378 O   0  0  0  0  0  0  0  0  0  0  0  0
    1.0374    1.7065    1.2737 N   0  0  0  0  0  0  0  0  0  0  0  0
    1.7638    1.0490    1.5455 H   0  0  0  0  0  0  0  0  0  0  0  0
    1.1116    3.0818    1.7425 C   0  0  0  0  0  0  0  0  0  0  0  0
    0.1797    3.3661    2.2415 H   0  0  0  0  0  0  0  0  0  0  0  0
    1.9333    3.1905    2.4563 H   0  0  0  0  0  0  0  0  0  0  0  0
    1.2888    3.7628    0.9040 H   0  0  0  0  0  0  0  0  0  0  0  0
  1  2  1  0  0  0  0
  2  3  1  0  0  0  0
  2  4  1  0  0  0  0
  2  5  1  0  0  0  0
  5  6  2  0  0  0  0
  5  7  1  0  0  0  0
  7  8  1  0  0  0  0
  7  9  1  0  0  0  0
  9 10  1  0  0  0  0
  9 11  1  0  0  0  0
  9 17  1  0  0  0  0
 11 12  1  0  0  0  0
 11 13  1  0  0  0  0
 11 14  1  0  0  0  0
 14 15  1  0  0  0  0
 14 16  2  0  0  0  0
 17 18  2  0  0  0  0
 17 19  1  0  0  0  0
 19 20  1  0  0  0  0
 19 21  1  0  0  0  0
 21 22  1  0  0  0  0
 21 23  1  0  0  0  0
 21 24  1  0  0  0  0
M  CHG  1  15  -1
M  END
$$$$

  -OEChem-03222214023D

 24 23  0     1  0  0  0  0  0999 V2000
   -2.5476   -3.9230    0.3921 H   0  0  0  0  0  0  0  0  0  0  0  0
   -2.4794   -2.9823   -0.1610 C   0  0  0  0  0  0  0  0  0  0  0  0
   -3.4395   -2.4647   -0.1017 H   0  0  0  0  0  0  0  0  0  0  0  0
   -2.2556   -3.2066   -1.2077 H   0  0  0  0  0  0  0  0  0  0  0  0
   -1.3794   -2.1118    0.4185 C   0  0  0  0  0  0  0  0  0  0  0  0
   -0.7556   -2.4912    1.3989 O   0  0  0  0  0  0  0  0  0  0  0  0
   -1.1732   -0.8505   -0.0967 N   0  0  0  0  0  0  0  0  0  0  0  0
   -1.7500   -0.6228   -0.8987 H   0  0  0  0  0  0  0  0  0  0  0  0
    0.1527   -0.2221   -0.0977 C   0  0  1  0  0  0  0  0  0  0  0  0
    0.8461   -0.7564    0.5623 H   0  0  0  0  0  0  0  0  0  0  0  0
    0.6698   -0.2697   -1.5463 C   0  0  0  0  0  0  0  0  0  0  0  0
   -0.1515   -0.1765   -2.2625 H   0  0  0  0  0  0  0  0  0  0  0  0
    1.3524    0.5658   -1.7256 H   0  0  0  0  0  0  0  0  0  0  0  0
    1.4458   -1.5491   -1.7987 C   0  0  0  0  0  0  0  0  0  0  0  0
    2.6014   -1.6296   -1.3156 O   0  5  0  0  0  0  0  0  0  0  0  0
    0.8749   -2.4456   -2.4674 O   0  0  0  0  0  0  0  0  0  0  0  0
    0.0943    1.2463    0.3702 C   0  0  0  0  0  0  0  0  0  0  0  0
   -0.7774    2.0140   -0.0320 O   0  0  0  0  0  0  0  0  0  0  0  0
    1.0335    1.7051    1.2750 N   0  0  0  0  0  0  0  0  0  0  0  0
    1.7701    1.0534    1.5341 H   0  0  0  0  0  0  0  0  0  0  0  0
    1.1053    3.0818    1.7389 C   0  0  0  0  0  0  0  0  0  0  0  0
    0.1758    3.3639    2.2437 H   0  0  0  0  0  0  0  0  0  0  0  0
    1.9318    3.1963    2.4465 H   0  0  0  0  0  0  0  0  0  0  0  0
    1.2726    3.7607    0.8966 H   0  0  0  0  0  0  0  0  0  0  0  0
  1  2  1  0  0  0  0
  2  3  1  0  0  0  0
  2  4  1  0  0  0  0
  2  5  1  0  0  0  0
  5  6  2  0  0  0  0
  5  7  1  0  0  0  0
  7  8  1  0  0  0  0
  7  9  1  0  0  0  0
  9 10  1  0  0  0  0
  9 11  1  0  0  0  0
  9 17  1  0  0  0  0
 11 12  1  0  0  0  0
 11 13  1  0  0  0  0
 11 14  1  0  0  0  0
 14 15  1  0  0  0  0
 14 16  2  0  0  0  0
 17 18  2  0  0  0  0
 17 19  1  0  0  0  0
 19 20  1  0  0  0  0
 19 21  1  0  0  0  0
 21 22  1  0  0  0  0
 21 23  1  0  0  0  0
 21 24  1  0  0  0  0
M  CHG  1  15  -1
M  END
$$$$

  -OEChem-03222214023D

 24 23  0     1  0  0  0  0  0999 V2000
   -2.5900   -3.9062    0.4083 H   0  0  0  0  0  0  0  0  0  0  0  0
   -2.5203   -2.9592   -0.1340 C   0  0  0  0  0  0  0  0  0  0  0  0
   -3.4617   -2.4165   -0.0222 H   0  0  0  0  0  0  0  0  0  0  0  0
   -2.3517   -3.1731   -1.1930 H   0  0  0  0  0  0  0  0  0  0  0  0
   -1.3715   -2.1284    0.4082 C   0  0  0  0  0  0  0  0  0  0  0  0
   -0.7267   -2.5363    1.3623 O   0  0  0  0  0  0  0  0  0  0  0  0
   -1.1489   -0.8694   -0.1049 N   0  0  0  0  0  0  0  0  0  0  0  0
   -1.7487   -0.6076   -0.8793 H   0  0  0  0  0  0  0  0  0  0  0  0
    0.1734   -0.2325   -0.1022 C   0  0  1  0  0  0  0  0  0  0  0  0
    0.8628   -0.7593    0.5674 H   0  0  0  0  0  0  0  0  0  0  0  0
    0.6994   -0.2801   -1.5500 C   0  0  0  0  0  0  0  0  0  0  0  0
   -0.1220   -0.1862   -2.2664 H   0  0  0  0  0  0  0  0  0  0  0  0
    1.3772    0.5607   -1.7216 H   0  0  0  0  0  0  0  0  0  0  0  0
    1.4925   -1.5469   -1.8239 C   0  0  0  0  0  0  0  0  0  0  0  0
    2.5172   -1.7543   -1.1288 O   0  5  0  0  0  0  0  0  0  0  0  0
    1.0652   -2.3081   -2.7263 O   0  0  0  0  0  0  0  0  0  0  0  0
    0.0997    1.2364    0.3609 C   0  0  0  0  0  0  0  0  0  0  0  0
   -0.7820    1.9921   -0.0428 O   0  0  0  0  0  0  0  0  0  0  0  0
    1.0299    1.7064    1.2692 N   0  0  0  0  0  0  0  0  0  0  0  0
    1.7684    1.0603    1.5378 H   0  0  0  0  0  0  0  0  0  0  0  0
    1.0783    3.0809    1.7426 C   0  0  0  0  0  0  0  0  0  0  0  0
    0.1416    3.3467    2.2429 H   0  0  0  0  0  0  0  0  0  0  0  0
    1.8983    3.2021    2.4565 H   0  0  0  0  0  0  0  0  0  0  0  0
    1.2415    3.7673    0.9056 H   0  0  0  0  0  0  0  0  0  0  0  0
  1  2  1  0  0  0  0
  2  3  1  0  0  0  0
  2  4  1  0  0  0  0
  2  5  1  0  0  0  0
  5  6  2  0  0  0  0
  5  7  1  0  0  0  0
  7  8  1  0  0  0  0
  7  9  1  0  0  0  0
  9 10  1  0  0  0  0
  9 11  1  0  0  0  0
  9 17  1  0  0  0  0
 11 12  1  0  0  0  0
 11 13  1  0  0  0  0
 11 14  1  0  0  0  0
 14 15  1  0  0  0  0
 14 16  2  0  0  0  0
 17 18  2  0  0  0  0
 17 19  1  0  0  0  0
 19 20  1  0  0  0  0
 19 21  1  0  0  0  0
 21 22  1  0  0  0  0
 21 23  1  0  0  0  0
 21 24  1  0  0  0  0
M  CHG  1  15  -1
M  END
$$$$

  -OEChem-03222214023D

 24 23  0     1  0  0  0  0  0999 V2000
   -2.6085   -3.9014    0.4083 H   0  0  0  0  0  0  0  0  0  0  0  0
   -2.5480   -2.9426   -0.1139 C   0  0  0  0  0  0  0  0  0  0  0  0
   -3.4797   -2.3940    0.0431 H   0  0  0  0  0  0  0  0  0  0  0  0
   -2.4183   -3.1329   -1.1826 H   0  0  0  0  0  0  0  0  0  0  0  0
   -1.3730   -2.1356    0.4085 C   0  0  0  0  0  0  0  0  0  0  0  0
   -0.7295   -2.5533    1.3586 O   0  0  0  0  0  0  0  0  0  0  0  0
   -1.1349   -0.8808   -0.1084 N   0  0  0  0  0  0  0  0  0  0  0  0
   -1.7436   -0.6009   -0.8695 H   0  0  0  0  0  0  0  0  0  0  0  0
    0.1872   -0.2425   -0.1007 C   0  0  1  0  0  0  0  0  0  0  0  0
    0.8684   -0.7623    0.5819 H   0  0  0  0  0  0  0  0  0  0  0  0
    0.7261   -0.2924   -1.5470 C   0  0  0  0  0  0  0  0  0  0  0  0
   -0.0938   -0.1937   -2.2643 H   0  0  0  0  0  0  0  0  0  0  0  0
    1.4013    0.5523   -1.7082 H   0  0  0  0  0  0  0  0  0  0  0  0
    1.5324   -1.5472   -1.8514 C   0  0  0  0  0  0  0  0  0  0  0  0
    2.3844   -1.9252   -1.0112 O   0  5  0  0  0  0  0  0  0  0  0  0
    1.2882   -2.1271   -2.9376 O   0  0  0  0  0  0  0  0  0  0  0  0
    0.1037    1.2288    0.3527 C   0  0  0  0  0  0  0  0  0  0  0  0
   -0.7801    1.9774   -0.0594 O   0  0  0  0  0  0  0  0  0  0  0  0
    1.0250    1.7073    1.2654 N   0  0  0  0  0  0  0  0  0  0  0  0
    1.7552    1.0611    1.5550 H   0  0  0  0  0  0  0  0  0  0  0  0
    1.0574    3.0809    1.7424 C   0  0  0  0  0  0  0  0  0  0  0  0
    0.1200    3.3319    2.2489 H   0  0  0  0  0  0  0  0  0  0  0  0
    1.8800    3.2116    2.4514 H   0  0  0  0  0  0  0  0  0  0  0  0
    1.2066    3.7721    0.9067 H   0  0  0  0  0  0  0  0  0  0  0  0
  1  2  1  0  0  0  0
  2  3  1  0  0  0  0
  2  4  1  0  0  0  0
  2  5  1  0  0  0  0
  5  6  2  0  0  0  0
  5  7  1  0  0  0  0
  7  8  1  0  0  0  0
  7  9  1  0  0  0  0
  9 10  1  0  0  0  0
  9 11  1  0  0  0  0
  9 17  1  0  0  0  0
 11 12  1  0  0  0  0
 11 13  1  0  0  0  0
 11 14  1  0  0  0  0
 14 15  1  0  0  0  0
 14 16  2  0  0  0  0
 17 18  2  0  0  0  0
 17 19  1  0  0  0  0
 19 20  1  0  0  0  0
 19 21  1  0  0  0  0
 21 22  1  0  0  0  0
 21 23  1  0  0  0  0
 21 24  1  0  0  0  0
M  CHG  1  15  -1
M  END
$$$$

  -OEChem-03222214023D

 24 23  0     1  0  0  0  0  0999 V2000
   -2.6043   -3.9006    0.4106 H   0  0  0  0  0  0  0  0  0  0  0  0
   -2.5445   -2.9415   -0.1113 C   0  0  0  0  0  0  0  0  0  0  0  0
   -3.4817   -2.3993    0.0345 H   0  0  0  0  0  0  0  0  0  0  0  0
   -2.4010   -3.1319   -1.1781 H   0  0  0  0  0  0  0  0  0  0  0  0
   -1.3820   -2.1258    0.4251 C   0  0  0  0  0  0  0  0  0  0  0  0
   -0.7691   -2.5221    1.4042 O   0  0  0  0  0  0  0  0  0  0  0  0
   -1.1355   -0.8769   -0.1019 N   0  0  0  0  0  0  0  0  0  0  0  0
   -1.7323   -0.6058   -0.8753 H   0  0  0  0  0  0  0  0  0  0  0  0
    0.1922   -0.2502   -0.0924 C   0  0  1  0  0  0  0  0  0  0  0  0
    0.8675   -0.7692    0.5963 H   0  0  0  0  0  0  0  0  0  0  0  0
    0.7361   -0.3006   -1.5398 C   0  0  0  0  0  0  0  0  0  0  0  0
   -0.0846   -0.1889   -2.2541 H   0  0  0  0  0  0  0  0  0  0  0  0
    1.4153    0.5428   -1.6919 H   0  0  0  0  0  0  0  0  0  0  0  0
    1.5392   -1.5509   -1.8800 C   0  0  0  0  0  0  0  0  0  0  0  0
    2.1863   -2.1270   -0.9734 O   0  5  0  0  0  0  0  0  0  0  0  0
    1.4956   -1.9278   -3.0763 O   0  0  0  0  0  0  0  0  0  0  0  0
    0.1101    1.2249    0.3507 C   0  0  0  0  0  0  0  0  0  0  0  0
   -0.7652    1.9752   -0.0760 O   0  0  0  0  0  0  0  0  0  0  0  0
    1.0261    1.7084    1.2665 N   0  0  0  0  0  0  0  0  0  0  0  0
    1.7393    1.0572    1.5849 H   0  0  0  0  0  0  0  0  0  0  0  0
    1.0492    3.0826    1.7429 C   0  0  0  0  0  0  0  0  0  0  0  0
    0.1122    3.3254    2.2541 H   0  0  0  0  0  0  0  0  0  0  0  0
    1.8745    3.2215    2.4474 H   0  0  0  0  0  0  0  0  0  0  0  0
    1.1872    3.7745    0.9060 H   0  0  0  0  0  0  0  0  0  0  0  0
  1  2  1  0  0  0  0
  2  3  1  0  0  0  0
  2  4  1  0  0  0  0
  2  5  1  0  0  0  0
  5  6  2  0  0  0  0
  5  7  1  0  0  0  0
  7  8  1  0  0  0  0
  7  9  1  0  0  0  0
  9 10  1  0  0  0  0
  9 11  1  0  0  0  0
  9 17  1  0  0  0  0
 11 12  1  0  0  0  0
 11 13  1  0  0  0  0
 11 14  1  0  0  0  0
 14 15  1  0  0  0  0
 14 16  2  0  0  0  0
 17 18  2  0  0  0  0
 17 19  1  0  0  0  0
 19 20  1  0  0  0  0
 19 21  1  0  0  0  0
 21 22  1  0  0  0  0
 21 23  1  0  0  0  0
 21 24  1  0  0  0  0
M  CHG  1  15  -1
M  END
$$$$

  -OEChem-03222214023D

 24 23  0     1  0  0  0  0  0999 V2000
   -2.5908   -3.8928    0.4263 H   0  0  0  0  0  0  0  0  0  0  0  0
   -2.5083   -2.9544   -0.1290 C   0  0  0  0  0  0  0  0  0  0  0  0
   -3.4603   -2.4215   -0.0699 H   0  0  0  0  0  0  0  0  0  0  0  0
   -2.2896   -3.1847   -1.1751 H   0  0  0  0  0  0  0  0  0  0  0  0
   -1.3954   -2.0997    0.4505 C   0  0  0  0  0  0  0  0  0  0  0  0
   -0.8339   -2.4517    1.4769 O   0  0  0  0  0  0  0  0  0  0  0  0
   -1.1503   -0.8557   -0.0885 N   0  0  0  0  0  0  0  0  0  0  0  0
   -1.7232   -0.6144   -0.8888 H   0  0  0  0  0  0  0  0  0  0  0  0
    0.1855   -0.2476   -0.0835 C   0  0  1  0  0  0  0  0  0  0  0  0
    0.8599   -0.7712    0.6030 H   0  0  0  0  0  0  0  0  0  0  0  0
    0.7218   -0.3052   -1.5353 C   0  0  0  0  0  0  0  0  0  0  0  0
   -0.1022   -0.1823   -2.2439 H   0  0  0  0  0  0  0  0  0  0  0  0
    1.4086    0.5315   -1.6895 H   0  0  0  0  0  0  0  0  0  0  0  0
    1.5076   -1.5620   -1.8968 C   0  0  0  0  0  0  0  0  0  0  0  0
    1.9224   -2.3179   -0.9872 O   0  5  0  0  0  0  0  0  0  0  0  0
    1.6771   -1.7650   -3.1234 O   0  0  0  0  0  0  0  0  0  0  0  0
    0.1176    1.2312    0.3526 C   0  0  0  0  0  0  0  0  0  0  0  0
   -0.7456    1.9901   -0.0836 O   0  0  0  0  0  0  0  0  0  0  0  0
    1.0373    1.7118    1.2666 N   0  0  0  0  0  0  0  0  0  0  0  0
    1.7288    1.0501    1.6096 H   0  0  0  0  0  0  0  0  0  0  0  0
    1.0600    3.0837    1.7505 C   0  0  0  0  0  0  0  0  0  0  0  0
    0.1215    3.3255    2.2596 H   0  0  0  0  0  0  0  0  0  0  0  0
    1.8830    3.2178    2.4587 H   0  0  0  0  0  0  0  0  0  0  0  0
    1.2022    3.7799    0.9177 H   0  0  0  0  0  0  0  0  0  0  0  0
  1  2  1  0  0  0  0
  2  3  1  0  0  0  0
  2  4  1  0  0  0  0
  2  5  1  0  0  0  0
  5  6  2  0  0  0  0
  5  7  1  0  0  0  0
  7  8  1  0  0  0  0
  7  9  1  0  0  0  0
  9 10  1  0  0  0  0
  9 11  1  0  0  0  0
  9 17  1  0  0  0  0
 11 12  1  0  0  0  0
 11 13  1  0  0  0  0
 11 14  1  0  0  0  0
 14 15  1  0  0  0  0
 14 16  2  0  0  0  0
 17 18  2  0  0  0  0
 17 19  1  0  0  0  0
 19 20  1  0  0  0  0
 19 21  1  0  0  0  0
 21 22  1  0  0  0  0
 21 23  1  0  0  0  0
 21 24  1  0  0  0  0
M  CHG  1  15  -1
M  END
$$$$

  -OEChem-03222214023D

 24 23  0     1  0  0  0  0  0999 V2000
   -2.5728   -3.8890    0.4478 H   0  0  0  0  0  0  0  0  0  0  0  0
   -2.4669   -2.9751   -0.1431 C   0  0  0  0  0  0  0  0  0  0  0  0
   -3.4286   -2.4577   -0.1725 H   0  0  0  0  0  0  0  0  0  0  0  0
   -2.1736   -3.2478   -1.1602 H   0  0  0  0  0  0  0  0  0  0  0  0
   -1.4082   -2.0759    0.4692 C   0  0  0  0  0  0  0  0  0  0  0  0
   -0.8942   -2.3820    1.5355 O   0  0  0  0  0  0  0  0  0  0  0  0
   -1.1737   -0.8339   -0.0794 N   0  0  0  0  0  0  0  0  0  0  0  0
   -1.7228   -0.6252   -0.9050 H   0  0  0  0  0  0  0  0  0  0  0  0
    0.1696   -0.2433   -0.0780 C   0  0  1  0  0  0  0  0  0  0  0  0
    0.8433   -0.7765    0.6021 H   0  0  0  0  0  0  0  0  0  0  0  0
    0.7024   -0.2989   -1.5314 C   0  0  0  0  0  0  0  0  0  0  0  0
   -0.1216   -0.1648   -2.2373 H   0  0  0  0  0  0  0  0  0  0  0  0
    1.3977    0.5319   -1.6823 H   0  0  0  0  0  0  0  0  0  0  0  0
    1.4711   -1.5627   -1.9053 C   0  0  0  0  0  0  0  0  0  0  0  0
    1.6332   -2.4677   -1.0538 O   0  5  0  0  0  0  0  0  0  0  0  0
    1.8807   -1.6191   -3.0895 O   0  0  0  0  0  0  0  0  0  0  0  0
    0.1176    1.2373    0.3565 C   0  0  0  0  0  0  0  0  0  0  0  0
   -0.7293    2.0092   -0.0889 O   0  0  0  0  0  0  0  0  0  0  0  0
    1.0435    1.7089    1.2692 N   0  0  0  0  0  0  0  0  0  0  0  0
    1.7134    1.0351    1.6302 H   0  0  0  0  0  0  0  0  0  0  0  0
    1.0795    3.0804    1.7535 C   0  0  0  0  0  0  0  0  0  0  0  0
    0.1423    3.3316    2.2605 H   0  0  0  0  0  0  0  0  0  0  0  0
    1.9021    3.2055    2.4637 H   0  0  0  0  0  0  0  0  0  0  0  0
    1.2312    3.7758    0.9218 H   0  0  0  0  0  0  0  0  0  0  0  0
  1  2  1  0  0  0  0
  2  3  1  0  0  0  0
  2  4  1  0  0  0  0
  2  5  1  0  0  0  0
  5  6  2  0  0  0  0
  5  7  1  0  0  0  0
  7  8  1  0  0  0  0
  7  9  1  0  0  0  0
  9 10  1  0  0  0  0
  9 11  1  0  0  0  0
  9 17  1  0  0  0  0
 11 12  1  0  0  0  0
 11 13  1  0  0  0  0
 11 14  1  0  0  0  0
 14 15  1  0  0  0  0
 14 16  2  0  0  0  0
 17 18  2  0  0  0  0
 17 19  1  0  0  0  0
 19 20  1  0  0  0  0
 19 21  1  0  0  0  0
 21 22  1  0  0  0  0
 21 23  1  0  0  0  0
 21 24  1  0  0  0  0
M  CHG  1  15  -1
M  END
$$$$

  -OEChem-03222214023D

 24 23  0     1  0  0  0  0  0999 V2000
   -2.5414   -3.8935    0.4542 H   0  0  0  0  0  0  0  0  0  0  0  0
   -2.4205   -2.9973   -0.1604 C   0  0  0  0  0  0  0  0  0  0  0  0
   -3.3902   -2.5060   -0.2677 H   0  0  0  0  0  0  0  0  0  0  0  0
   -2.0558   -3.2956   -1.1470 H   0  0  0  0  0  0  0  0  0  0  0  0
   -1.4231   -2.0523    0.4841 C   0  0  0  0  0  0  0  0  0  0  0  0
   -0.9496   -2.3190    1.5804 O   0  0  0  0  0  0  0  0  0  0  0  0
   -1.2032   -0.8101   -0.0710 N   0  0  0  0  0  0  0  0  0  0  0  0
   -1.7282   -0.6361   -0.9195 H   0  0  0  0  0  0  0  0  0  0  0  0
    0.1466   -0.2353   -0.0744 C   0  0  1  0  0  0  0  0  0  0  0  0
    0.8197   -0.7800    0.5976 H   0  0  0  0  0  0  0  0  0  0  0  0
    0.6773   -0.2887   -1.5284 C   0  0  0  0  0  0  0  0  0  0  0  0
   -0.1453   -0.1466   -2.2340 H   0  0  0  0  0  0  0  0  0  0  0  0
    1.3797    0.5368   -1.6777 H   0  0  0  0  0  0  0  0  0  0  0  0
    1.4291   -1.5630   -1.8991 C   0  0  0  0  0  0  0  0  0  0  0  0
    1.3341   -2.5703   -1.1591 O   0  5  0  0  0  0  0  0  0  0  0  0
    2.0852   -1.5243   -2.9673 O   0  0  0  0  0  0  0  0  0  0  0  0
    0.1130    1.2452    0.3621 C   0  0  0  0  0  0  0  0  0  0  0  0
   -0.7187    2.0310   -0.0873 O   0  0  0  0  0  0  0  0  0  0  0  0
    1.0481    1.7044    1.2717 N   0  0  0  0  0  0  0  0  0  0  0  0
    1.7035    1.0200    1.6387 H   0  0  0  0  0  0  0  0  0  0  0  0
    1.1057    3.0761    1.7528 C   0  0  0  0  0  0  0  0  0  0  0  0
    0.1766    3.3393    2.2685 H   0  0  0  0  0  0  0  0  0  0  0  0
    1.9371    3.1931    2.4542 H   0  0  0  0  0  0  0  0  0  0  0  0
    1.2572    3.7678    0.9178 H   0  0  0  0  0  0  0  0  0  0  0  0
  1  2  1  0  0  0  0
  2  3  1  0  0  0  0
  2  4  1  0  0  0  0
  2  5  1  0  0  0  0
  5  6  2  0  0  0  0
  5  7  1  0  0  0  0
  7  8  1  0  0  0  0
  7  9  1  0  0  0  0
  9 10  1  0  0  0  0
  9 11  1  0  0  0  0
  9 17  1  0  0  0  0
 11 12  1  0  0  0  0
 11 13  1  0  0  0  0
 11 14  1  0  0  0  0
 14 15  1  0  0  0  0
 14 16  2  0  0  0  0
 17 18  2  0  0  0  0
 17 19  1  0  0  0  0
 19 20  1  0  0  0  0
 19 21  1  0  0  0  0
 21 22  1  0  0  0  0
 21 23  1  0  0  0  0
 21 24  1  0  0  0  0
M  CHG  1  15  -1
M  END
$$$$

  -OEChem-03222214023D

 24 23  0     1  0  0  0  0  0999 V2000
   -2.5178   -3.9071    0.4424 H   0  0  0  0  0  0  0  0  0  0  0  0
   -2.4150   -3.0030   -0.1638 C   0  0  0  0  0  0  0  0  0  0  0  0
   -3.3924   -2.5245   -0.2582 H   0  0  0  0  0  0  0  0  0  0  0  0
   -2.0546   -3.2864   -1.1564 H   0  0  0  0  0  0  0  0  0  0  0  0
   -1.4244   -2.0511    0.4815 C   0  0  0  0  0  0  0  0  0  0  0  0
   -0.9479   -2.3139    1.5782 O   0  0  0  0  0  0  0  0  0  0  0  0
   -1.2121   -0.8066   -0.0719 N   0  0  0  0  0  0  0  0  0  0  0  0
   -1.7306   -0.6445   -0.9266 H   0  0  0  0  0  0  0  0  0  0  0  0
    0.1384   -0.2333   -0.0773 C   0  0  1  0  0  0  0  0  0  0  0  0
    0.8133   -0.7835    0.5883 H   0  0  0  0  0  0  0  0  0  0  0  0
    0.6733   -0.2797   -1.5291 C   0  0  0  0  0  0  0  0  0  0  0  0
   -0.1480   -0.1435   -2.2373 H   0  0  0  0  0  0  0  0  0  0  0  0
    1.3716    0.5495   -1.6779 H   0  0  0  0  0  0  0  0  0  0  0  0
    1.4231   -1.5581   -1.8874 C   0  0  0  0  0  0  0  0  0  0  0  0
    1.1001   -2.6275   -1.3176 O   0  5  0  0  0  0  0  0  0  0  0  0
    2.3135   -1.4588   -2.7651 O   0  0  0  0  0  0  0  0  0  0  0  0
    0.1070    1.2462    0.3648 C   0  0  0  0  0  0  0  0  0  0  0  0
   -0.7237    2.0352   -0.0808 O   0  0  0  0  0  0  0  0  0  0  0  0
    1.0451    1.7012    1.2735 N   0  0  0  0  0  0  0  0  0  0  0  0
    1.7043    1.0165    1.6326 H   0  0  0  0  0  0  0  0  0  0  0  0
    1.1129    3.0738    1.7509 C   0  0  0  0  0  0  0  0  0  0  0  0
    0.1861    3.3455    2.2660 H   0  0  0  0  0  0  0  0  0  0  0  0
    1.9452    3.1859    2.4519 H   0  0  0  0  0  0  0  0  0  0  0  0
    1.2698    3.7621    0.9142 H   0  0  0  0  0  0  0  0  0  0  0  0
  1  2  1  0  0  0  0
  2  3  1  0  0  0  0
  2  4  1  0  0  0  0
  2  5  1  0  0  0  0
  5  6  2  0  0  0  0
  5  7  1  0  0  0  0
  7  8  1  0  0  0  0
  7  9  1  0  0  0  0
  9 10  1  0  0  0  0
  9 11  1  0  0  0  0
  9 17  1  0  0  0  0
 11 12  1  0  0  0  0
 11 13  1  0  0  0  0
 11 14  1  0  0  0  0
 14 15  1  0  0  0  0
 14 16  2  0  0  0  0
 17 18  2  0  0  0  0
 17 19  1  0  0  0  0
 19 20  1  0  0  0  0
 19 21  1  0  0  0  0
 21 22  1  0  0  0  0
 21 23  1  0  0  0  0
 21 24  1  0  0  0  0
M  CHG  1  15  -1
M  END
$$$$

  -OEChem-03222214023D

 24 23  0     1  0  0  0  0  0999 V2000
   -2.5258   -3.9093    0.4423 H   0  0  0  0  0  0  0  0  0  0  0  0
   -2.4250   -3.0032   -0.1611 C   0  0  0  0  0  0  0  0  0  0  0  0
   -3.3996   -2.5158   -0.2375 H   0  0  0  0  0  0  0  0  0  0  0  0
   -2.0832   -3.2848   -1.1609 H   0  0  0  0  0  0  0  0  0  0  0  0
   -1.4159   -2.0623    0.4719 C   0  0  0  0  0  0  0  0  0  0  0  0
   -0.9117   -2.3416    1.5523 O   0  0  0  0  0  0  0  0  0  0  0  0
   -1.2100   -0.8134   -0.0744 N   0  0  0  0  0  0  0  0  0  0  0  0
   -1.7341   -0.6488   -0.9253 H   0  0  0  0  0  0  0  0  0  0  0  0
    0.1374   -0.2329   -0.0824 C   0  0  1  0  0  0  0  0  0  0  0  0
    0.8162   -0.7837    0.5787 H   0  0  0  0  0  0  0  0  0  0  0  0
    0.6740   -0.2705   -1.5322 C   0  0  0  0  0  0  0  0  0  0  0  0
   -0.1460   -0.1430   -2.2435 H   0  0  0  0  0  0  0  0  0  0  0  0
    1.3664    0.5635   -1.6825 H   0  0  0  0  0  0  0  0  0  0  0  0
    1.4274   -1.5508   -1.8710 C   0  0  0  0  0  0  0  0  0  0  0  0
    0.9232   -2.6444   -1.5190 O   0  5  0  0  0  0  0  0  0  0  0  0
    2.5064   -1.4298   -2.4992 O   0  0  0  0  0  0  0  0  0  0  0  0
    0.1006    1.2437    0.3682 C   0  0  0  0  0  0  0  0  0  0  0  0
   -0.7398    2.0293   -0.0653 O   0  0  0  0  0  0  0  0  0  0  0  0
    1.0402    1.6991    1.2751 N   0  0  0  0  0  0  0  0  0  0  0  0
    1.7239    1.0238    1.6053 H   0  0  0  0  0  0  0  0  0  0  0  0
    1.1115    3.0734    1.7465 C   0  0  0  0  0  0  0  0  0  0  0  0
    0.1827    3.3521    2.2541 H   0  0  0  0  0  0  0  0  0  0  0  0
    1.9394    3.1849    2.4528 H   0  0  0  0  0  0  0  0  0  0  0  0
    1.2768    3.7566    0.9073 H   0  0  0  0  0  0  0  0  0  0  0  0
  1  2  1  0  0  0  0
  2  3  1  0  0  0  0
  2  4  1  0  0  0  0
  2  5  1  0  0  0  0
  5  6  2  0  0  0  0
  5  7  1  0  0  0  0
  7  8  1  0  0  0  0
  7  9  1  0  0  0  0
  9 10  1  0  0  0  0
  9 11  1  0  0  0  0
  9 17  1  0  0  0  0
 11 12  1  0  0  0  0
 11 13  1  0  0  0  0
 11 14  1  0  0  0  0
 14 15  1  0  0  0  0
 14 16  2  0  0  0  0
 17 18  2  0  0  0  0
 17 19  1  0  0  0  0
 19 20  1  0  0  0  0
 19 21  1  0  0  0  0
 21 22  1  0  0  0  0
 21 23  1  0  0  0  0
 21 24  1  0  0  0  0
M  CHG  1  15  -1
M  END
$$$$

  -OEChem-03222214023D

 24 23  0     1  0  0  0  0  0999 V2000
   -2.5214   -3.9143    0.4377 H   0  0  0  0  0  0  0  0  0  0  0  0
   -2.4266   -3.0058   -0.1631 C   0  0  0  0  0  0  0  0  0  0  0  0
   -3.4008   -2.5156   -0.2234 H   0  0  0  0  0  0  0  0  0  0  0  0
   -2.0999   -3.2842   -1.1689 H   0  0  0  0  0  0  0  0  0  0  0  0
   -1.4064   -2.0702    0.4595 C   0  0  0  0  0  0  0  0  0  0  0  0
   -0.8748   -2.3649    1.5225 O   0  0  0  0  0  0  0  0  0  0  0  0
   -1.2076   -0.8173   -0.0805 N   0  0  0  0  0  0  0  0  0  0  0  0
   -1.7337   -0.6525   -0.9303 H   0  0  0  0  0  0  0  0  0  0  0  0
    0.1362   -0.2290   -0.0870 C   0  0  1  0  0  0  0  0  0  0  0  0
    0.8203   -0.7785    0.5698 H   0  0  0  0  0  0  0  0  0  0  0  0
    0.6666   -0.2625   -1.5365 C   0  0  0  0  0  0  0  0  0  0  0  0
   -0.1532   -0.1408   -2.2491 H   0  0  0  0  0  0  0  0  0  0  0  0
    1.3576    0.5717   -1.6932 H   0  0  0  0  0  0  0  0  0  0  0  0
    1.4185   -1.5472   -1.8506 C   0  0  0  0  0  0  0  0  0  0  0  0
    0.7869   -2.6271   -1.7459 O   0  5  0  0  0  0  0  0  0  0  0  0
    2.6231   -1.4485   -2.1864 O   0  0  0  0  0  0  0  0  0  0  0  0
    0.0966    1.2455    0.3701 C   0  0  0  0  0  0  0  0  0  0  0  0
   -0.7458    2.0310   -0.0596 O   0  0  0  0  0  0  0  0  0  0  0  0
    1.0370    1.6993    1.2770 N   0  0  0  0  0  0  0  0  0  0  0  0
    1.7304    1.0267    1.5924 H   0  0  0  0  0  0  0  0  0  0  0  0
    1.1149    3.0747    1.7446 C   0  0  0  0  0  0  0  0  0  0  0  0
    0.1851    3.3615    2.2462 H   0  0  0  0  0  0  0  0  0  0  0  0
    1.9394    3.1828    2.4553 H   0  0  0  0  0  0  0  0  0  0  0  0
    1.2900    3.7543    0.9045 H   0  0  0  0  0  0  0  0  0  0  0  0
  1  2  1  0  0  0  0
  2  3  1  0  0  0  0
  2  4  1  0  0  0  0
  2  5  1  0  0  0  0
  5  6  2  0  0  0  0
  5  7  1  0  0  0  0
  7  8  1  0  0  0  0
  7  9  1  0  0  0  0
  9 10  1  0  0  0  0
  9 11  1  0  0  0  0
  9 17  1  0  0  0  0
 11 12  1  0  0  0  0
 11 13  1  0  0  0  0
 11 14  1  0  0  0  0
 14 15  1  0  0  0  0
 14 16  2  0  0  0  0
 17 18  2  0  0  0  0
 17 19  1  0  0  0  0
 19 20  1  0  0  0  0
 19 21  1  0  0  0  0
 21 22  1  0  0  0  0
 21 23  1  0  0  0  0
 21 24  1  0  0  0  0
M  CHG  1  15  -1
M  END
$$$$

  -OEChem-03222214023D

 24 23  0     1  0  0  0  0  0999 V2000
   -2.5356   -3.9138    0.4332 H   0  0  0  0  0  0  0  0  0  0  0  0
   -2.4303   -3.0082   -0.1703 C   0  0  0  0  0  0  0  0  0  0  0  0
   -3.3977   -2.5042   -0.2273 H   0  0  0  0  0  0  0  0  0  0  0  0
   -2.1128   -3.2928   -1.1774 H   0  0  0  0  0  0  0  0  0  0  0  0
   -1.3937   -2.0857    0.4450 C   0  0  0  0  0  0  0  0  0  0  0  0
   -0.8289   -2.4062    1.4825 O   0  0  0  0  0  0  0  0  0  0  0  0
   -1.2014   -0.8271   -0.0839 N   0  0  0  0  0  0  0  0  0  0  0  0
   -1.7384   -0.6511   -0.9250 H   0  0  0  0  0  0  0  0  0  0  0  0
    0.1353   -0.2230   -0.0887 C   0  0  1  0  0  0  0  0  0  0  0  0
    0.8257   -0.7686    0.5648 H   0  0  0  0  0  0  0  0  0  0  0  0
    0.6560   -0.2572   -1.5386 C   0  0  0  0  0  0  0  0  0  0  0  0
   -0.1653   -0.1486   -2.2520 H   0  0  0  0  0  0  0  0  0  0  0  0
    1.3430    0.5778   -1.7066 H   0  0  0  0  0  0  0  0  0  0  0  0
    1.4129   -1.5428   -1.8225 C   0  0  0  0  0  0  0  0  0  0  0  0
    0.7297   -2.5851   -1.9788 O   0  5  0  0  0  0  0  0  0  0  0  0
    2.6658   -1.4880   -1.8567 O   0  0  0  0  0  0  0  0  0  0  0  0
    0.0907    1.2482    0.3770 C   0  0  0  0  0  0  0  0  0  0  0  0
   -0.7609    2.0300   -0.0411 O   0  0  0  0  0  0  0  0  0  0  0  0
    1.0328    1.7011    1.2826 N   0  0  0  0  0  0  0  0  0  0  0  0
    1.7480    1.0371    1.5670 H   0  0  0  0  0  0  0  0  0  0  0  0
    1.1194    3.0794    1.7401 C   0  0  0  0  0  0  0  0  0  0  0  0
    0.1911    3.3758    2.2388 H   0  0  0  0  0  0  0  0  0  0  0  0
    1.9437    3.1872    2.4510 H   0  0  0  0  0  0  0  0  0  0  0  0
    1.2999    3.7516    0.8951 H   0  0  0  0  0  0  0  0  0  0  0  0
  1  2  1  0  0  0  0
  2  3  1  0  0  0  0
  2  4  1  0  0  0  0
  2  5  1  0  0  0  0
  5  6  2  0  0  0  0
  5  7  1  0  0  0  0
  7  8  1  0  0  0  0
  7  9  1  0  0  0  0
  9 10  1  0  0  0  0
  9 11  1  0  0  0  0
  9 17  1  0  0  0  0
 11 12  1  0  0  0  0
 11 13  1  0  0  0  0
 11 14  1  0  0  0  0
 14 15  1  0  0  0  0
 14 16  2  0  0  0  0
 17 18  2  0  0  0  0
 17 19  1  0  0  0  0
 19 20  1  0  0  0  0
 19 21  1  0  0  0  0
 21 22  1  0  0  0  0
 21 23  1  0  0  0  0
 21 24  1  0  0  0  0
M  CHG  1  15  -1
M  END
$$$$

  -OEChem-03222214023D

 24 23  0     1  0  0  0  0  0999 V2000
   -2.5200   -3.9254    0.3986 H   0  0  0  0  0  0  0  0  0  0  0  0
   -2.4481   -2.9936   -0.1687 C   0  0  0  0  0  0  0  0  0  0  0  0
   -3.4182   -2.4919   -0.1534 H   0  0  0  0  0  0  0  0  0  0  0  0
   -2.1824   -3.2323   -1.2024 H   0  0  0  0  0  0  0  0  0  0  0  0
   -1.3837   -2.0942    0.4329 C   0  0  0  0  0  0  0  0  0  0  0  0
   -0.7887   -2.4430    1.4432 O   0  0  0  0  0  0  0  0  0  0  0  0
   -1.1850   -0.8350   -0.0906 N   0  0  0  0  0  0  0  0  0  0  0  0
   -1.7403   -0.6366   -0.9150 H   0  0  0  0  0  0  0  0  0  0  0  0
    0.1468   -0.2199   -0.0950 C   0  0  1  0  0  0  0  0  0  0  0  0
    0.8401   -0.7589    0.5616 H   0  0  0  0  0  0  0  0  0  0  0  0
    0.6601   -0.2674   -1.5449 C   0  0  0  0  0  0  0  0  0  0  0  0
   -0.1623   -0.1698   -2.2590 H   0  0  0  0  0  0  0  0  0  0  0  0
    1.3470    0.5646   -1.7264 H   0  0  0  0  0  0  0  0  0  0  0  0
    1.4211   -1.5551   -1.8000 C   0  0  0  0  0  0  0  0  0  0  0  0
    0.7581   -2.5373   -2.2165 O   0  5  0  0  0  0  0  0  0  0  0  0
    2.6523   -1.5617   -1.5577 O   0  0  0  0  0  0  0  0  0  0  0  0
    0.0968    1.2505    0.3704 C   0  0  0  0  0  0  0  0  0  0  0  0
   -0.7671    2.0242   -0.0376 O   0  0  0  0  0  0  0  0  0  0  0  0
    1.0378    1.7077    1.2745 N   0  0  0  0  0  0  0  0  0  0  0  0
    1.7663    1.0517    1.5446 H   0  0  0  0  0  0  0  0  0  0  0  0
    1.1079    3.0828    1.7442 C   0  0  0  0  0  0  0  0  0  0  0  0
    0.1721    3.3668    2.2361 H   0  0  0  0  0  0  0  0  0  0  0  0
    1.9240    3.1916    2.4645 H   0  0  0  0  0  0  0  0  0  0  0  0
    1.2900    3.7641    0.9069 H   0  0  0  0  0  0  0  0  0  0  0  0
  1  2  1  0  0  0  0
  2  3  1  0  0  0  0
  2  4  1  0  0  0  0
  2  5  1  0  0  0  0
  5  6  2  0  0  0  0
  5  7  1  0  0  0  0
  7  8  1  0  0  0  0
  7  9  1  0  0  0  0
  9 10  1  0  0  0  0
  9 11  1  0  0  0  0
  9 17  1  0  0  0  0
 11 12  1  0  0  0  0
 11 13  1  0  0  0  0
 11 14  1  0  0  0  0
 14 15  1  0  0  0  0
 14 16  2  0  0  0  0
 17 18  2  0  0  0  0
 17 19  1  0  0  0  0
 19 20  1  0  0  0  0
 19 21  1  0  0  0  0
 21 22  1  0  0  0  0
 21 23  1  0  0  0  0
 21 24  1  0  0  0  0
M  CHG  1  15  -1
M  END
$$$$

  -OEChem-03222214023D

 24 23  0     1  0  0  0  0  0999 V2000
   -2.5540   -3.9202    0.3985 H   0  0  0  0  0  0  0  0  0  0  0  0
   -2.4940   -2.9748   -0.1476 C   0  0  0  0  0  0  0  0  0  0  0  0
   -3.4496   -2.4530   -0.0599 H   0  0  0  0  0  0  0  0  0  0  0  0
   -2.2970   -3.1906   -1.2014 H   0  0  0  0  0  0  0  0  0  0  0  0
   -1.3762   -2.1155    0.4145 C   0  0  0  0  0  0  0  0  0  0  0  0
   -0.7461   -2.5001    1.3888 O   0  0  0  0  0  0  0  0  0  0  0  0
   -1.1654   -0.8555   -0.1021 N   0  0  0  0  0  0  0  0  0  0  0  0
   -1.7452   -0.6217   -0.9003 H   0  0  0  0  0  0  0  0  0  0  0  0
    0.1601   -0.2262   -0.0999 C   0  0  1  0  0  0  0  0  0  0  0  0
    0.8519   -0.7580    0.5641 H   0  0  0  0  0  0  0  0  0  0  0  0
    0.6841   -0.2740   -1.5458 C   0  0  0  0  0  0  0  0  0  0  0  0
   -0.1352   -0.1841   -2.2646 H   0  0  0  0  0  0  0  0  0  0  0  0
    1.3648    0.5631   -1.7258 H   0  0  0  0  0  0  0  0  0  0  0  0
    1.4628   -1.5524   -1.7953 C   0  0  0  0  0  0  0  0  0  0  0  0
    0.8995   -2.4460   -2.4744 O   0  5  0  0  0  0  0  0  0  0  0  0
    2.6203   -1.6275   -1.3153 O   0  0  0  0  0  0  0  0  0  0  0  0
    0.0963    1.2432    0.3649 C   0  0  0  0  0  0  0  0  0  0  0  0
   -0.7787    2.0065   -0.0389 O   0  0  0  0  0  0  0  0  0  0  0  0
    1.0307    1.7064    1.2726 N   0  0  0  0  0  0  0  0  0  0  0  0
    1.7676    1.0573    1.5369 H   0  0  0  0  0  0  0  0  0  0  0  0
    1.0918    3.0818    1.7419 C   0  0  0  0  0  0  0  0  0  0  0  0
    0.1555    3.3589    2.2367 H   0  0  0  0  0  0  0  0  0  0  0  0
    1.9093    3.1969    2.4596 H   0  0  0  0  0  0  0  0  0  0  0  0
    1.2665    3.7638    0.9037 H   0  0  0  0  0  0  0  0  0  0  0  0
  1  2  1  0  0  0  0
  2  3  1  0  0  0  0
  2  4  1  0  0  0  0
  2  5  1  0  0  0  0
  5  6  2  0  0  0  0
  5  7  1  0  0  0  0
  7  8  1  0  0  0  0
  7  9  1  0  0  0  0
  9 10  1  0  0  0  0
  9 11  1  0  0  0  0
  9 17  1  0  0  0  0
 11 12  1  0  0  0  0
 11 13  1  0  0  0  0
 11 14  1  0  0  0  0
 14 15  1  0  0  0  0
 14 16  2  0  0  0  0
 17 18  2  0  0  0  0
 17 19  1  0  0  0  0
 19 20  1  0  0  0  0
 19 21  1  0  0  0  0
 21 22  1  0  0  0  0
 21 23  1  0  0  0  0
 21 24  1  0  0  0  0
M  CHG  1  15  -1
M  END
$$$$

  -OEChem-03222214023D

 24 23  0     1  0  0  0  0  0999 V2000
   -2.6136   -3.9035    0.4108 H   0  0  0  0  0  0  0  0  0  0  0  0
   -2.5399   -2.9549   -0.1282 C   0  0  0  0  0  0  0  0  0  0  0  0
   -3.4745   -2.4031   -0.0040 H   0  0  0  0  0  0  0  0  0  0  0  0
   -2.3856   -3.1661   -1.1897 H   0  0  0  0  0  0  0  0  0  0  0  0
   -1.3764   -2.1377    0.4040 C   0  0  0  0  0  0  0  0  0  0  0  0
   -0.7197   -2.5599    1.3435 O   0  0  0  0  0  0  0  0  0  0  0  0
   -1.1486   -0.8778   -0.1052 N   0  0  0  0  0  0  0  0  0  0  0  0
   -1.7559   -0.6030   -0.8692 H   0  0  0  0  0  0  0  0  0  0  0  0
    0.1726   -0.2382   -0.0986 C   0  0  1  0  0  0  0  0  0  0  0  0
    0.8601   -0.7643    0.5734 H   0  0  0  0  0  0  0  0  0  0  0  0
    0.7097   -0.2836   -1.5414 C   0  0  0  0  0  0  0  0  0  0  0  0
   -0.1081   -0.1970   -2.2625 H   0  0  0  0  0  0  0  0  0  0  0  0
    1.3834    0.5601   -1.7154 H   0  0  0  0  0  0  0  0  0  0  0  0
    1.5075   -1.5495   -1.8039 C   0  0  0  0  0  0  0  0  0  0  0  0
    1.0964   -2.3123   -2.7123 O   0  5  0  0  0  0  0  0  0  0  0  0
    2.5632   -1.7139   -1.1446 O   0  0  0  0  0  0  0  0  0  0  0  0
    0.0950    1.2300    0.3662 C   0  0  0  0  0  0  0  0  0  0  0  0
   -0.7913    1.9819   -0.0344 O   0  0  0  0  0  0  0  0  0  0  0  0
    1.0218    1.7019    1.2770 N   0  0  0  0  0  0  0  0  0  0  0  0
    1.7710    1.0631    1.5328 H   0  0  0  0  0  0  0  0  0  0  0  0
    1.0746    3.0812    1.7363 C   0  0  0  0  0  0  0  0  0  0  0  0
    0.1398    3.3534    2.2367 H   0  0  0  0  0  0  0  0  0  0  0  0
    1.8971    3.2091    2.4463 H   0  0  0  0  0  0  0  0  0  0  0  0
    1.2363    3.7591    0.8919 H   0  0  0  0  0  0  0  0  0  0  0  0
  1  2  1  0  0  0  0
  2  3  1  0  0  0  0
  2  4  1  0  0  0  0
  2  5  1  0  0  0  0
  5  6  2  0  0  0  0
  5  7  1  0  0  0  0
  7  8  1  0  0  0  0
  7  9  1  0  0  0  0
  9 10  1  0  0  0  0
  9 11  1  0  0  0  0
  9 17  1  0  0  0  0
 11 12  1  0  0  0  0
 11 13  1  0  0  0  0
 11 14  1  0  0  0  0
 14 15  1  0  0  0  0
 14 16  2  0  0  0  0
 17 18  2  0  0  0  0
 17 19  1  0  0  0  0
 19 20  1  0  0  0  0
 19 21  1  0  0  0  0
 21 22  1  0  0  0  0
 21 23  1  0  0  0  0
 21 24  1  0  0  0  0
M  CHG  1  15  -1
M  END
$$$$

  -OEChem-03222214023D

 24 23  0     1  0  0  0  0  0999 V2000
   -2.6403   -3.8965    0.4024 H   0  0  0  0  0  0  0  0  0  0  0  0
   -2.5799   -2.9289   -0.1035 C   0  0  0  0  0  0  0  0  0  0  0  0
   -3.4979   -2.3695    0.0908 H   0  0  0  0  0  0  0  0  0  0  0  0
   -2.4847   -3.1011   -1.1789 H   0  0  0  0  0  0  0  0  0  0  0  0
   -1.3785   -2.1488    0.3995 C   0  0  0  0  0  0  0  0  0  0  0  0
   -0.7105   -2.5952    1.3189 O   0  0  0  0  0  0  0  0  0  0  0  0
   -1.1321   -0.8933   -0.1114 N   0  0  0  0  0  0  0  0  0  0  0  0
   -1.7574   -0.5883   -0.8491 H   0  0  0  0  0  0  0  0  0  0  0  0
    0.1883   -0.2514   -0.1012 C   0  0  1  0  0  0  0  0  0  0  0  0
    0.8680   -0.7706    0.5839 H   0  0  0  0  0  0  0  0  0  0  0  0
    0.7388   -0.3002   -1.5414 C   0  0  0  0  0  0  0  0  0  0  0  0
   -0.0776   -0.2148   -2.2642 H   0  0  0  0  0  0  0  0  0  0  0  0
    1.4070    0.5484   -1.7105 H   0  0  0  0  0  0  0  0  0  0  0  0
    1.5497   -1.5557   -1.8250 C   0  0  0  0  0  0  0  0  0  0  0  0
    1.3227   -2.1477   -2.9084 O   0  5  0  0  0  0  0  0  0  0  0  0
    2.4726   -1.8480   -1.0260 O   0  0  0  0  0  0  0  0  0  0  0  0
    0.1005    1.2187    0.3547 C   0  0  0  0  0  0  0  0  0  0  0  0
   -0.7936    1.9602   -0.0479 O   0  0  0  0  0  0  0  0  0  0  0  0
    1.0188    1.7007    1.2687 N   0  0  0  0  0  0  0  0  0  0  0  0
    1.7686    1.0670    1.5353 H   0  0  0  0  0  0  0  0  0  0  0  0
    1.0491    3.0777    1.7369 C   0  0  0  0  0  0  0  0  0  0  0  0
    0.1103    3.3313    2.2398 H   0  0  0  0  0  0  0  0  0  0  0  0
    1.8701    3.2141    2.4469 H   0  0  0  0  0  0  0  0  0  0  0  0
    1.1986    3.7639    0.8971 H   0  0  0  0  0  0  0  0  0  0  0  0
  1  2  1  0  0  0  0
  2  3  1  0  0  0  0
  2  4  1  0  0  0  0
  2  5  1  0  0  0  0
  5  6  2  0  0  0  0
  5  7  1  0  0  0  0
  7  8  1  0  0  0  0
  7  9  1  0  0  0  0
  9 10  1  0  0  0  0
  9 11  1  0  0  0  0
  9 17  1  0  0  0  0
 11 12  1  0  0  0  0
 11 13  1  0  0  0  0
 11 14  1  0  0  0  0
 14 15  1  0  0  0  0
 14 16  2  0  0  0  0
 17 18  2  0  0  0  0
 17 19  1  0  0  0  0
 19 20  1  0  0  0  0
 19 21  1  0  0  0  0
 21 22  1  0  0  0  0
 21 23  1  0  0  0  0
 21 24  1  0  0  0  0
M  CHG  1  15  -1
M  END
$$$$

  -OEChem-03222214023D

 24 23  0     1  0  0  0  0  0999 V2000
   -2.6576   -3.8856    0.4197 H   0  0  0  0  0  0  0  0  0  0  0  0
   -2.5866   -2.9243   -0.0967 C   0  0  0  0  0  0  0  0  0  0  0  0
   -3.5041   -2.3582    0.0804 H   0  0  0  0  0  0  0  0  0  0  0  0
   -2.4800   -3.1093   -1.1687 H   0  0  0  0  0  0  0  0  0  0  0  0
   -1.3866   -2.1449    0.4107 C   0  0  0  0  0  0  0  0  0  0  0  0
   -0.7395   -2.5803    1.3498 O   0  0  0  0  0  0  0  0  0  0  0  0
   -1.1302   -0.8943   -0.1074 N   0  0  0  0  0  0  0  0  0  0  0  0
   -1.7521   -0.5881   -0.8473 H   0  0  0  0  0  0  0  0  0  0  0  0
    0.1935   -0.2587   -0.0966 C   0  0  1  0  0  0  0  0  0  0  0  0
    0.8681   -0.7749    0.5950 H   0  0  0  0  0  0  0  0  0  0  0  0
    0.7481   -0.3090   -1.5386 C   0  0  0  0  0  0  0  0  0  0  0  0
   -0.0707   -0.2160   -2.2579 H   0  0  0  0  0  0  0  0  0  0  0  0
    1.4157    0.5412   -1.7024 H   0  0  0  0  0  0  0  0  0  0  0  0
    1.5615   -1.5574   -1.8570 C   0  0  0  0  0  0  0  0  0  0  0  0
    1.5365   -1.9485   -3.0493 O   0  5  0  0  0  0  0  0  0  0  0  0
    2.3046   -2.0329   -0.9650 O   0  0  0  0  0  0  0  0  0  0  0  0
    0.1040    1.2143    0.3502 C   0  0  0  0  0  0  0  0  0  0  0  0
   -0.7870    1.9545   -0.0615 O   0  0  0  0  0  0  0  0  0  0  0  0
    1.0183    1.7003    1.2662 N   0  0  0  0  0  0  0  0  0  0  0  0
    1.7561    1.0619    1.5538 H   0  0  0  0  0  0  0  0  0  0  0  0
    1.0417    3.0762    1.7376 C   0  0  0  0  0  0  0  0  0  0  0  0
    0.1033    3.3228    2.2447 H   0  0  0  0  0  0  0  0  0  0  0  0
    1.8644    3.2157    2.4450 H   0  0  0  0  0  0  0  0  0  0  0  0
    1.1847    3.7651    0.8988 H   0  0  0  0  0  0  0  0  0  0  0  0
  1  2  1  0  0  0  0
  2  3  1  0  0  0  0
  2  4  1  0  0  0  0
  2  5  1  0  0  0  0
  5  6  2  0  0  0  0
  5  7  1  0  0  0  0
  7  8  1  0  0  0  0
  7  9  1  0  0  0  0
  9 10  1  0  0  0  0
  9 11  1  0  0  0  0
  9 17  1  0  0  0  0
 11 12  1  0  0  0  0
 11 13  1  0  0  0  0
 11 14  1  0  0  0  0
 14 15  1  0  0  0  0
 14 16  2  0  0  0  0
 17 18  2  0  0  0  0
 17 19  1  0  0  0  0
 19 20  1  0  0  0  0
 19 21  1  0  0  0  0
 21 22  1  0  0  0  0
 21 23  1  0  0  0  0
 21 24  1  0  0  0  0
M  CHG  1  15  -1
M  END
$$$$

  -OEChem-03222214023D

 24 23  0     1  0  0  0  0  0999 V2000
   -2.6258   -3.8866    0.4320 H   0  0  0  0  0  0  0  0  0  0  0  0
   -2.5435   -2.9426   -0.1137 C   0  0  0  0  0  0  0  0  0  0  0  0
   -3.4836   -2.3943   -0.0183 H   0  0  0  0  0  0  0  0  0  0  0  0
   -2.3614   -3.1630   -1.1688 H   0  0  0  0  0  0  0  0  0  0  0  0
   -1.3988   -2.1146    0.4420 C   0  0  0  0  0  0  0  0  0  0  0  0
   -0.8112   -2.4923    1.4439 O   0  0  0  0  0  0  0  0  0  0  0  0
   -1.1470   -0.8701   -0.0928 N   0  0  0  0  0  0  0  0  0  0  0  0
   -1.7378   -0.6051   -0.8725 H   0  0  0  0  0  0  0  0  0  0  0  0
    0.1858   -0.2543   -0.0873 C   0  0  1  0  0  0  0  0  0  0  0  0
    0.8589   -0.7742    0.6031 H   0  0  0  0  0  0  0  0  0  0  0  0
    0.7308   -0.3119   -1.5353 C   0  0  0  0  0  0  0  0  0  0  0  0
   -0.0916   -0.2018   -2.2477 H   0  0  0  0  0  0  0  0  0  0  0  0
    1.4081    0.5312   -1.6974 H   0  0  0  0  0  0  0  0  0  0  0  0
    1.5271   -1.5640   -1.8884 C   0  0  0  0  0  0  0  0  0  0  0  0
    1.7179   -1.7615   -3.1128 O   0  5  0  0  0  0  0  0  0  0  0  0
    2.0112   -2.2675   -0.9708 O   0  0  0  0  0  0  0  0  0  0  0  0
    0.1124    1.2237    0.3489 C   0  0  0  0  0  0  0  0  0  0  0  0
   -0.7599    1.9766   -0.0796 O   0  0  0  0  0  0  0  0  0  0  0  0
    1.0313    1.7059    1.2625 N   0  0  0  0  0  0  0  0  0  0  0  0
    1.7367    1.0503    1.5890 H   0  0  0  0  0  0  0  0  0  0  0  0
    1.0542    3.0781    1.7447 C   0  0  0  0  0  0  0  0  0  0  0  0
    0.1153    3.3204    2.2527 H   0  0  0  0  0  0  0  0  0  0  0  0
    1.8764    3.2125    2.4537 H   0  0  0  0  0  0  0  0  0  0  0  0
    1.1976    3.7734    0.9115 H   0  0  0  0  0  0  0  0  0  0  0  0
  1  2  1  0  0  0  0
  2  3  1  0  0  0  0
  2  4  1  0  0  0  0
  2  5  1  0  0  0  0
  5  6  2  0  0  0  0
  5  7  1  0  0  0  0
  7  8  1  0  0  0  0
  7  9  1  0  0  0  0
  9 10  1  0  0  0  0
  9 11  1  0  0  0  0
  9 17  1  0  0  0  0
 11 12  1  0  0  0  0
 11 13  1  0  0  0  0
 11 14  1  0  0  0  0
 14 15  1  0  0  0  0
 14 16  2  0  0  0  0
 17 18  2  0  0  0  0
 17 19  1  0  0  0  0
 19 20  1  0  0  0  0
 19 21  1  0  0  0  0
 21 22  1  0  0  0  0
 21 23  1  0  0  0  0
 21 24  1  0  0  0  0
M  CHG  1  15  -1
M  END
$$$$

  -OEChem-03222214023D

 24 23  0     1  0  0  0  0  0999 V2000
   -2.5395   -3.8982    0.4671 H   0  0  0  0  0  0  0  0  0  0  0  0
   -2.4201   -3.0062   -0.1535 C   0  0  0  0  0  0  0  0  0  0  0  0
   -3.3936   -2.5276   -0.2809 H   0  0  0  0  0  0  0  0  0  0  0  0
   -2.0369   -3.3095   -1.1317 H   0  0  0  0  0  0  0  0  0  0  0  0
   -1.4430   -2.0433    0.4962 C   0  0  0  0  0  0  0  0  0  0  0  0
   -0.9904   -2.2847    1.6084 O   0  0  0  0  0  0  0  0  0  0  0  0
   -1.2182   -0.8080   -0.0731 N   0  0  0  0  0  0  0  0  0  0  0  0
   -1.7203   -0.6645   -0.9413 H   0  0  0  0  0  0  0  0  0  0  0  0
    0.1360   -0.2427   -0.0726 C   0  0  1  0  0  0  0  0  0  0  0  0
    0.8005   -0.7967    0.6002 H   0  0  0  0  0  0  0  0  0  0  0  0
    0.6848   -0.3025   -1.5177 C   0  0  0  0  0  0  0  0  0  0  0  0
   -0.0636    0.0947   -2.2091 H   0  0  0  0  0  0  0  0  0  0  0  0
    1.5638    0.3450   -1.5842 H   0  0  0  0  0  0  0  0  0  0  0  0
    1.1202   -1.6767   -2.0190 C   0  0  0  0  0  0  0  0  0  0  0  0
    1.5635   -1.7131   -3.1914 O   0  5  0  0  0  0  0  0  0  0  0  0
    0.9773   -2.6813   -1.2830 O   0  0  0  0  0  0  0  0  0  0  0  0
    0.1182    1.2433    0.3475 C   0  0  0  0  0  0  0  0  0  0  0  0
   -0.6967    2.0376   -0.1170 O   0  0  0  0  0  0  0  0  0  0  0  0
    1.0540    1.7003    1.2580 N   0  0  0  0  0  0  0  0  0  0  0  0
    1.6784    1.0063    1.6587 H   0  0  0  0  0  0  0  0  0  0  0  0
    1.1126    3.0725    1.7386 C   0  0  0  0  0  0  0  0  0  0  0  0
    0.1857    3.3352    2.2586 H   0  0  0  0  0  0  0  0  0  0  0  0
    1.9474    3.1907    2.4356 H   0  0  0  0  0  0  0  0  0  0  0  0
    1.2597    3.7644    0.9030 H   0  0  0  0  0  0  0  0  0  0  0  0
  1  2  1  0  0  0  0
  2  3  1  0  0  0  0
  2  4  1  0  0  0  0
  2  5  1  0  0  0  0
  5  6  2  0  0  0  0
  5  7  1  0  0  0  0
  7  8  1  0  0  0  0
  7  9  1  0  0  0  0
  9 10  1  0  0  0  0
  9 11  1  0  0  0  0
  9 17  1  0  0  0  0
 11 12  1  0  0  0  0
 11 13  1  0  0  0  0
 11 14  1  0  0  0  0
 14 15  1  0  0  0  0
 14 16  2  0  0  0  0
 17 18  2  0  0  0  0
 17 19  1  0  0  0  0
 19 20  1  0  0  0  0
 19 21  1  0  0  0  0
 21 22  1  0  0  0  0
 21 23  1  0  0  0  0
 21 24  1  0  0  0  0
M  CHG  1  15  -1
M  END
$$$$

  -OEChem-03222214023D

 24 23  0     1  0  0  0  0  0999 V2000
   -2.5868   -3.8816    0.5024 H   0  0  0  0  0  0  0  0  0  0  0  0
   -2.4558   -2.9986   -0.1285 C   0  0  0  0  0  0  0  0  0  0  0  0
   -3.4181   -2.4945   -0.2401 H   0  0  0  0  0  0  0  0  0  0  0  0
   -2.1009   -3.3203   -1.1114 H   0  0  0  0  0  0  0  0  0  0  0  0
   -1.4397   -2.0575    0.4926 C   0  0  0  0  0  0  0  0  0  0  0  0
   -0.9590   -2.3127    1.5905 O   0  0  0  0  0  0  0  0  0  0  0  0
   -1.2137   -0.8210   -0.0751 N   0  0  0  0  0  0  0  0  0  0  0  0
   -1.7165   -0.6792   -0.9431 H   0  0  0  0  0  0  0  0  0  0  0  0
    0.1398   -0.2533   -0.0757 C   0  0  1  0  0  0  0  0  0  0  0  0
    0.8044   -0.8066    0.5967 H   0  0  0  0  0  0  0  0  0  0  0  0
    0.7075   -0.2957   -1.5152 C   0  0  0  0  0  0  0  0  0  0  0  0
   -0.0322    0.1058   -2.2130 H   0  0  0  0  0  0  0  0  0  0  0  0
    1.5831    0.3587   -1.5596 H   0  0  0  0  0  0  0  0  0  0  0  0
    1.1582   -1.6594   -2.0320 C   0  0  0  0  0  0  0  0  0  0  0  0
    1.8748   -1.6435   -3.0611 O   0  5  0  0  0  0  0  0  0  0  0  0
    0.7389   -2.7020   -1.4761 O   0  0  0  0  0  0  0  0  0  0  0  0
    0.1109    1.2319    0.3473 C   0  0  0  0  0  0  0  0  0  0  0  0
   -0.7102    2.0215   -0.1142 O   0  0  0  0  0  0  0  0  0  0  0  0
    1.0436    1.6930    1.2589 N   0  0  0  0  0  0  0  0  0  0  0  0
    1.6808    1.0050    1.6496 H   0  0  0  0  0  0  0  0  0  0  0  0
    1.1035    3.0680    1.7310 C   0  0  0  0  0  0  0  0  0  0  0  0
    0.1767    3.3354    2.2486 H   0  0  0  0  0  0  0  0  0  0  0  0
    1.9379    3.1888    2.4280 H   0  0  0  0  0  0  0  0  0  0  0  0
    1.2521    3.7541    0.8910 H   0  0  0  0  0  0  0  0  0  0  0  0
  1  2  1  0  0  0  0
  2  3  1  0  0  0  0
  2  4  1  0  0  0  0
  2  5  1  0  0  0  0
  5  6  2  0  0  0  0
  5  7  1  0  0  0  0
  7  8  1  0  0  0  0
  7  9  1  0  0  0  0
  9 10  1  0  0  0  0
  9 11  1  0  0  0  0
  9 17  1  0  0  0  0
 11 12  1  0  0  0  0
 11 13  1  0  0  0  0
 11 14  1  0  0  0  0
 14 15  1  0  0  0  0
 14 16  2  0  0  0  0
 17 18  2  0  0  0  0
 17 19  1  0  0  0  0
 19 20  1  0  0  0  0
 19 21  1  0  0  0  0
 21 22  1  0  0  0  0
 21 23  1  0  0  0  0
 21 24  1  0  0  0  0
M  CHG  1  15  -1
M  END
$$$$

  -OEChem-03222214023D

 24 23  0     1  0  0  0  0  0999 V2000
   -2.5836   -3.8901    0.4957 H   0  0  0  0  0  0  0  0  0  0  0  0
   -2.4841   -2.9870   -0.1121 C   0  0  0  0  0  0  0  0  0  0  0  0
   -3.4485   -2.4756   -0.1526 H   0  0  0  0  0  0  0  0  0  0  0  0
   -2.1877   -3.2773   -1.1239 H   0  0  0  0  0  0  0  0  0  0  0  0
   -1.4301   -2.0698    0.4818 C   0  0  0  0  0  0  0  0  0  0  0  0
   -0.9114   -2.3481    1.5568 O   0  0  0  0  0  0  0  0  0  0  0  0
   -1.2041   -0.8313   -0.0821 N   0  0  0  0  0  0  0  0  0  0  0  0
   -1.7069   -0.6919   -0.9507 H   0  0  0  0  0  0  0  0  0  0  0  0
    0.1469   -0.2576   -0.0820 C   0  0  1  0  0  0  0  0  0  0  0  0
    0.8130   -0.8077    0.5915 H   0  0  0  0  0  0  0  0  0  0  0  0
    0.7243   -0.2928   -1.5174 C   0  0  0  0  0  0  0  0  0  0  0  0
   -0.0116    0.1039   -2.2219 H   0  0  0  0  0  0  0  0  0  0  0  0
    1.5952    0.3687   -1.5542 H   0  0  0  0  0  0  0  0  0  0  0  0
    1.1825   -1.6580   -2.0240 C   0  0  0  0  0  0  0  0  0  0  0  0
    2.1265   -1.6537   -2.8499 O   0  5  0  0  0  0  0  0  0  0  0  0
    0.5301   -2.6784   -1.6970 O   0  0  0  0  0  0  0  0  0  0  0  0
    0.1093    1.2269    0.3445 C   0  0  0  0  0  0  0  0  0  0  0  0
   -0.7193    2.0119   -0.1115 O   0  0  0  0  0  0  0  0  0  0  0  0
    1.0391    1.6923    1.2571 N   0  0  0  0  0  0  0  0  0  0  0  0
    1.6893    1.0109    1.6375 H   0  0  0  0  0  0  0  0  0  0  0  0
    1.0905    3.0670    1.7310 C   0  0  0  0  0  0  0  0  0  0  0  0
    0.1574    3.3311    2.2389 H   0  0  0  0  0  0  0  0  0  0  0  0
    1.9169    3.1897    2.4372 H   0  0  0  0  0  0  0  0  0  0  0  0
    1.2461    3.7549    0.8936 H   0  0  0  0  0  0  0  0  0  0  0  0
  1  2  1  0  0  0  0
  2  3  1  0  0  0  0
  2  4  1  0  0  0  0
  2  5  1  0  0  0  0
  5  6  2  0  0  0  0
  5  7  1  0  0  0  0
  7  8  1  0  0  0  0
  7  9  1  0  0  0  0
  9 10  1  0  0  0  0
  9 11  1  0  0  0  0
  9 17  1  0  0  0  0
 11 12  1  0  0  0  0
 11 13  1  0  0  0  0
 11 14  1  0  0  0  0
 14 15  1  0  0  0  0
 14 16  2  0  0  0  0
 17 18  2  0  0  0  0
 17 19  1  0  0  0  0
 19 20  1  0  0  0  0
 19 21  1  0  0  0  0
 21 22  1  0  0  0  0
 21 23  1  0  0  0  0
 21 24  1  0  0  0  0
M  CHG  1  15  -1
M  END
$$$$

  -OEChem-03222214023D

 24 23  0     1  0  0  0  0  0999 V2000
   -2.5635   -3.9046    0.4729 H   0  0  0  0  0  0  0  0  0  0  0  0
   -2.5009   -2.9781   -0.1039 C   0  0  0  0  0  0  0  0  0  0  0  0
   -3.4664   -2.4689   -0.0672 H   0  0  0  0  0  0  0  0  0  0  0  0
   -2.2656   -3.2282   -1.1420 H   0  0  0  0  0  0  0  0  0  0  0  0
   -1.4147   -2.0814    0.4631 C   0  0  0  0  0  0  0  0  0  0  0  0
   -0.8589   -2.3848    1.5123 O   0  0  0  0  0  0  0  0  0  0  0  0
   -1.1925   -0.8390   -0.0936 N   0  0  0  0  0  0  0  0  0  0  0  0
   -1.6994   -0.6957   -0.9599 H   0  0  0  0  0  0  0  0  0  0  0  0
    0.1539   -0.2554   -0.0900 C   0  0  1  0  0  0  0  0  0  0  0  0
    0.8238   -0.8008    0.5834 H   0  0  0  0  0  0  0  0  0  0  0  0
    0.7306   -0.2888   -1.5230 C   0  0  0  0  0  0  0  0  0  0  0  0
   -0.0078    0.0953   -2.2317 H   0  0  0  0  0  0  0  0  0  0  0  0
    1.5971    0.3781   -1.5664 H   0  0  0  0  0  0  0  0  0  0  0  0
    1.1882   -1.6632   -1.9992 C   0  0  0  0  0  0  0  0  0  0  0  0
    2.2984   -1.7194   -2.5805 O   0  5  0  0  0  0  0  0  0  0  0  0
    0.3770   -2.6182   -1.9170 O   0  0  0  0  0  0  0  0  0  0  0  0
    0.1072    1.2269    0.3424 C   0  0  0  0  0  0  0  0  0  0  0  0
   -0.7289    2.0071   -0.1078 O   0  0  0  0  0  0  0  0  0  0  0  0
    1.0337    1.6941    1.2572 N   0  0  0  0  0  0  0  0  0  0  0  0
    1.7009    1.0194    1.6196 H   0  0  0  0  0  0  0  0  0  0  0  0
    1.0810    3.0681    1.7333 C   0  0  0  0  0  0  0  0  0  0  0  0
    0.1441    3.3316    2.2342 H   0  0  0  0  0  0  0  0  0  0  0  0
    1.9015    3.1895    2.4465 H   0  0  0  0  0  0  0  0  0  0  0  0
    1.2433    3.7567    0.8979 H   0  0  0  0  0  0  0  0  0  0  0  0
  1  2  1  0  0  0  0
  2  3  1  0  0  0  0
  2  4  1  0  0  0  0
  2  5  1  0  0  0  0
  5  6  2  0  0  0  0
  5  7  1  0  0  0  0
  7  8  1  0  0  0  0
  7  9  1  0  0  0  0
  9 10  1  0  0  0  0
  9 11  1  0  0  0  0
  9 17  1  0  0  0  0
 11 12  1  0  0  0  0
 11 13  1  0  0  0  0
 11 14  1  0  0  0  0
 14 15  1  0  0  0  0
 14 16  2  0  0  0  0
 17 18  2  0  0  0  0
 17 19  1  0  0  0  0
 19 20  1  0  0  0  0
 19 21  1  0  0  0  0
 21 22  1  0  0  0  0
 21 23  1  0  0  0  0
 21 24  1  0  0  0  0
M  CHG  1  15  -1
M  END
$$$$

  -OEChem-03222214023D

 24 23  0     1  0  0  0  0  0999 V2000
   -2.5504   -3.9135    0.4500 H   0  0  0  0  0  0  0  0  0  0  0  0
   -2.4959   -2.9800   -0.1164 C   0  0  0  0  0  0  0  0  0  0  0  0
   -3.4609   -2.4716   -0.0598 H   0  0  0  0  0  0  0  0  0  0  0  0
   -2.2759   -3.2175   -1.1609 H   0  0  0  0  0  0  0  0  0  0  0  0
   -1.4025   -2.0891    0.4456 C   0  0  0  0  0  0  0  0  0  0  0  0
   -0.8244   -2.4106    1.4768 O   0  0  0  0  0  0  0  0  0  0  0  0
   -1.1879   -0.8413   -0.1017 N   0  0  0  0  0  0  0  0  0  0  0  0
   -1.6975   -0.6951   -0.9663 H   0  0  0  0  0  0  0  0  0  0  0  0
    0.1534   -0.2461   -0.0945 C   0  0  1  0  0  0  0  0  0  0  0  0
    0.8297   -0.7898    0.5742 H   0  0  0  0  0  0  0  0  0  0  0  0
    0.7173   -0.2818   -1.5294 C   0  0  0  0  0  0  0  0  0  0  0  0
   -0.0272    0.0892   -2.2388 H   0  0  0  0  0  0  0  0  0  0  0  0
    1.5823    0.3858   -1.5897 H   0  0  0  0  0  0  0  0  0  0  0  0
    1.1680   -1.6685   -1.9676 C   0  0  0  0  0  0  0  0  0  0  0  0
    2.3736   -1.8104   -2.2843 O   0  5  0  0  0  0  0  0  0  0  0  0
    0.2813   -2.5488   -2.1030 O   0  0  0  0  0  0  0  0  0  0  0  0
    0.1044    1.2334    0.3462 C   0  0  0  0  0  0  0  0  0  0  0  0
   -0.7348    2.0139   -0.0978 O   0  0  0  0  0  0  0  0  0  0  0  0
    1.0318    1.6977    1.2616 N   0  0  0  0  0  0  0  0  0  0  0  0
    1.7096    1.0253    1.6090 H   0  0  0  0  0  0  0  0  0  0  0  0
    1.0851    3.0720    1.7363 C   0  0  0  0  0  0  0  0  0  0  0  0
    0.1495    3.3404    2.2374 H   0  0  0  0  0  0  0  0  0  0  0  0
    1.9062    3.1905    2.4493 H   0  0  0  0  0  0  0  0  0  0  0  0
    1.2506    3.7591    0.9003 H   0  0  0  0  0  0  0  0  0  0  0  0
  1  2  1  0  0  0  0
  2  3  1  0  0  0  0
  2  4  1  0  0  0  0
  2  5  1  0  0  0  0
  5  6  2  0  0  0  0
  5  7  1  0  0  0  0
  7  8  1  0  0  0  0
  7  9  1  0  0  0  0
  9 10  1  0  0  0  0
  9 11  1  0  0  0  0
  9 17  1  0  0  0  0
 11 12  1  0  0  0  0
 11 13  1  0  0  0  0
 11 14  1  0  0  0  0
 14 15  1  0  0  0  0
 14 16  2  0  0  0  0
 17 18  2  0  0  0  0
 17 19  1  0  0  0  0
 19 20  1  0  0  0  0
 19 21  1  0  0  0  0
 21 22  1  0  0  0  0
 21 23  1  0  0  0  0
 21 24  1  0  0  0  0
M  CHG  1  15  -1
M  END
$$$$

  -OEChem-03222214023D

 24 23  0     1  0  0  0  0  0999 V2000
   -2.5416   -3.9195    0.4284 H   0  0  0  0  0  0  0  0  0  0  0  0
   -2.4802   -2.9870   -0.1389 C   0  0  0  0  0  0  0  0  0  0  0  0
   -3.4459   -2.4786   -0.0945 H   0  0  0  0  0  0  0  0  0  0  0  0
   -2.2474   -3.2262   -1.1803 H   0  0  0  0  0  0  0  0  0  0  0  0
   -1.3935   -2.0947    0.4337 C   0  0  0  0  0  0  0  0  0  0  0  0
   -0.8041   -2.4285    1.4539 O   0  0  0  0  0  0  0  0  0  0  0  0
   -1.1851   -0.8422   -0.1041 N   0  0  0  0  0  0  0  0  0  0  0  0
   -1.7016   -0.6882   -0.9637 H   0  0  0  0  0  0  0  0  0  0  0  0
    0.1511   -0.2354   -0.0960 C   0  0  1  0  0  0  0  0  0  0  0  0
    0.8341   -0.7791    0.5660 H   0  0  0  0  0  0  0  0  0  0  0  0
    0.6957   -0.2744   -1.5352 C   0  0  0  0  0  0  0  0  0  0  0  0
   -0.0587    0.0856   -2.2403 H   0  0  0  0  0  0  0  0  0  0  0  0
    1.5593    0.3923   -1.6152 H   0  0  0  0  0  0  0  0  0  0  0  0
    1.1402   -1.6697   -1.9430 C   0  0  0  0  0  0  0  0  0  0  0  0
    2.3725   -1.8994   -1.9897 O   0  5  0  0  0  0  0  0  0  0  0  0
    0.2400   -2.4837   -2.2708 O   0  0  0  0  0  0  0  0  0  0  0  0
    0.1029    1.2411    0.3524 C   0  0  0  0  0  0  0  0  0  0  0  0
   -0.7401    2.0220   -0.0831 O   0  0  0  0  0  0  0  0  0  0  0  0
    1.0339    1.7017    1.2658 N   0  0  0  0  0  0  0  0  0  0  0  0
    1.7211    1.0307    1.5974 H   0  0  0  0  0  0  0  0  0  0  0  0
    1.0950    3.0763    1.7386 C   0  0  0  0  0  0  0  0  0  0  0  0
    0.1632    3.3481    2.2447 H   0  0  0  0  0  0  0  0  0  0  0  0
    1.9208    3.1929    2.4466 H   0  0  0  0  0  0  0  0  0  0  0  0
    1.2581    3.7618    0.9009 H   0  0  0  0  0  0  0  0  0  0  0  0
  1  2  1  0  0  0  0
  2  3  1  0  0  0  0
  2  4  1  0  0  0  0
  2  5  1  0  0  0  0
  5  6  2  0  0  0  0
  5  7  1  0  0  0  0
  7  8  1  0  0  0  0
  7  9  1  0  0  0  0
  9 10  1  0  0  0  0
  9 11  1  0  0  0  0
  9 17  1  0  0  0  0
 11 12  1  0  0  0  0
 11 13  1  0  0  0  0
 11 14  1  0  0  0  0
 14 15  1  0  0  0  0
 14 16  2  0  0  0  0
 17 18  2  0  0  0  0
 17 19  1  0  0  0  0
 19 20  1  0  0  0  0
 19 21  1  0  0  0  0
 21 22  1  0  0  0  0
 21 23  1  0  0  0  0
 21 24  1  0  0  0  0
M  CHG  1  15  -1
M  END
$$$$

  -OEChem-03222214023D

 24 23  0     1  0  0  0  0  0999 V2000
   -2.5203   -3.9228    0.4072 H   0  0  0  0  0  0  0  0  0  0  0  0
   -2.4554   -2.9922   -0.1627 C   0  0  0  0  0  0  0  0  0  0  0  0
   -3.4265   -2.4928   -0.1413 H   0  0  0  0  0  0  0  0  0  0  0  0
   -2.1986   -3.2330   -1.1982 H   0  0  0  0  0  0  0  0  0  0  0  0
   -1.3890   -2.0884    0.4289 C   0  0  0  0  0  0  0  0  0  0  0  0
   -0.8049   -2.4209    1.4520 O   0  0  0  0  0  0  0  0  0  0  0  0
   -1.1843   -0.8345   -0.1063 N   0  0  0  0  0  0  0  0  0  0  0  0
   -1.7047   -0.6759   -0.9629 H   0  0  0  0  0  0  0  0  0  0  0  0
    0.1498   -0.2231   -0.0994 C   0  0  1  0  0  0  0  0  0  0  0  0
    0.8371   -0.7672    0.5584 H   0  0  0  0  0  0  0  0  0  0  0  0
    0.6752   -0.2732   -1.5436 C   0  0  0  0  0  0  0  0  0  0  0  0
   -0.0871    0.0802   -2.2440 H   0  0  0  0  0  0  0  0  0  0  0  0
    1.5417    0.3869   -1.6431 H   0  0  0  0  0  0  0  0  0  0  0  0
    1.1100   -1.6771   -1.9247 C   0  0  0  0  0  0  0  0  0  0  0  0
    2.3023   -1.9996   -1.7065 O   0  5  0  0  0  0  0  0  0  0  0  0
    0.2365   -2.4268   -2.4297 O   0  0  0  0  0  0  0  0  0  0  0  0
    0.1067    1.2523    0.3504 C   0  0  0  0  0  0  0  0  0  0  0  0
   -0.7355    2.0361   -0.0815 O   0  0  0  0  0  0  0  0  0  0  0  0
    1.0427    1.7075    1.2611 N   0  0  0  0  0  0  0  0  0  0  0  0
    1.7268    1.0320    1.5905 H   0  0  0  0  0  0  0  0  0  0  0  0
    1.1039    3.0778    1.7455 C   0  0  0  0  0  0  0  0  0  0  0  0
    0.1712    3.3459    2.2518 H   0  0  0  0  0  0  0  0  0  0  0  0
    1.9280    3.1875    2.4565 H   0  0  0  0  0  0  0  0  0  0  0  0
    1.2692    3.7699    0.9136 H   0  0  0  0  0  0  0  0  0  0  0  0
  1  2  1  0  0  0  0
  2  3  1  0  0  0  0
  2  4  1  0  0  0  0
  2  5  1  0  0  0  0
  5  6  2  0  0  0  0
  5  7  1  0  0  0  0
  7  8  1  0  0  0  0
  7  9  1  0  0  0  0
  9 10  1  0  0  0  0
  9 11  1  0  0  0  0
  9 17  1  0  0  0  0
 11 12  1  0  0  0  0
 11 13  1  0  0  0  0
 11 14  1  0  0  0  0
 14 15  1  0  0  0  0
 14 16  2  0  0  0  0
 17 18  2  0  0  0  0
 17 19  1  0  0  0  0
 19 20  1  0  0  0  0
 19 21  1  0  0  0  0
 21 22  1  0  0  0  0
 21 23  1  0  0  0  0
 21 24  1  0  0  0  0
M  CHG  1  15  -1
M  END
$$$$

  -OEChem-03222214023D

 24 23  0     1  0  0  0  0  0999 V2000
   -2.4951   -3.9331    0.3786 H   0  0  0  0  0  0  0  0  0  0  0  0
   -2.4324   -2.9982   -0.1847 C   0  0  0  0  0  0  0  0  0  0  0  0
   -3.4101   -2.5112   -0.1767 H   0  0  0  0  0  0  0  0  0  0  0  0
   -2.1546   -3.2293   -1.2172 H   0  0  0  0  0  0  0  0  0  0  0  0
   -1.3883   -2.0841    0.4300 C   0  0  0  0  0  0  0  0  0  0  0  0
   -0.8181   -2.4130    1.4614 O   0  0  0  0  0  0  0  0  0  0  0  0
   -1.1837   -0.8300   -0.1035 N   0  0  0  0  0  0  0  0  0  0  0  0
   -1.7080   -0.6652   -0.9566 H   0  0  0  0  0  0  0  0  0  0  0  0
    0.1494   -0.2163   -0.0970 C   0  0  1  0  0  0  0  0  0  0  0  0
    0.8385   -0.7615    0.5582 H   0  0  0  0  0  0  0  0  0  0  0  0
    0.6596   -0.2742   -1.5458 C   0  0  0  0  0  0  0  0  0  0  0  0
   -0.1073    0.0800   -2.2408 H   0  0  0  0  0  0  0  0  0  0  0  0
    1.5294    0.3795   -1.6557 H   0  0  0  0  0  0  0  0  0  0  0  0
    1.0895   -1.6818   -1.9187 C   0  0  0  0  0  0  0  0  0  0  0  0
    2.1785   -2.1012   -1.4592 O   0  5  0  0  0  0  0  0  0  0  0  0
    0.2873   -2.3568   -2.6115 O   0  0  0  0  0  0  0  0  0  0  0  0
    0.1107    1.2589    0.3528 C   0  0  0  0  0  0  0  0  0  0  0  0
   -0.7298    2.0447   -0.0791 O   0  0  0  0  0  0  0  0  0  0  0  0
    1.0492    1.7125    1.2617 N   0  0  0  0  0  0  0  0  0  0  0  0
    1.7283    1.0336    1.5947 H   0  0  0  0  0  0  0  0  0  0  0  0
    1.1122    3.0820    1.7484 C   0  0  0  0  0  0  0  0  0  0  0  0
    0.1839    3.3473    2.2645 H   0  0  0  0  0  0  0  0  0  0  0  0
    1.9432    3.1921    2.4514 H   0  0  0  0  0  0  0  0  0  0  0  0
    1.2678    3.7762    0.9165 H   0  0  0  0  0  0  0  0  0  0  0  0
  1  2  1  0  0  0  0
  2  3  1  0  0  0  0
  2  4  1  0  0  0  0
  2  5  1  0  0  0  0
  5  6  2  0  0  0  0
  5  7  1  0  0  0  0
  7  8  1  0  0  0  0
  7  9  1  0  0  0  0
  9 10  1  0  0  0  0
  9 11  1  0  0  0  0
  9 17  1  0  0  0  0
 11 12  1  0  0  0  0
 11 13  1  0  0  0  0
 11 14  1  0  0  0  0
 14 15  1  0  0  0  0
 14 16  2  0  0  0  0
 17 18  2  0  0  0  0
 17 19  1  0  0  0  0
 19 20  1  0  0  0  0
 19 21  1  0  0  0  0
 21 22  1  0  0  0  0
 21 23  1  0  0  0  0
 21 24  1  0  0  0  0
M  CHG  1  15  -1
M  END
$$$$

  -OEChem-03222214023D

 24 23  0     1  0  0  0  0  0999 V2000
   -2.4839   -3.9364    0.3645 H   0  0  0  0  0  0  0  0  0  0  0  0
   -2.4196   -2.9996   -0.1954 C   0  0  0  0  0  0  0  0  0  0  0  0
   -3.4013   -2.5207   -0.2016 H   0  0  0  0  0  0  0  0  0  0  0  0
   -2.1232   -3.2256   -1.2238 H   0  0  0  0  0  0  0  0  0  0  0  0
   -1.3928   -2.0787    0.4378 C   0  0  0  0  0  0  0  0  0  0  0  0
   -0.8416   -2.4015    1.4808 O   0  0  0  0  0  0  0  0  0  0  0  0
   -1.1828   -0.8270   -0.0987 N   0  0  0  0  0  0  0  0  0  0  0  0
   -1.7089   -0.6559   -0.9494 H   0  0  0  0  0  0  0  0  0  0  0  0
    0.1511   -0.2152   -0.0912 C   0  0  1  0  0  0  0  0  0  0  0  0
    0.8365   -0.7590    0.5689 H   0  0  0  0  0  0  0  0  0  0  0  0
    0.6567   -0.2812   -1.5428 C   0  0  0  0  0  0  0  0  0  0  0  0
   -0.1109    0.0792   -2.2343 H   0  0  0  0  0  0  0  0  0  0  0  0
    1.5289    0.3688   -1.6532 H   0  0  0  0  0  0  0  0  0  0  0  0
    1.0871   -1.6869   -1.9273 C   0  0  0  0  0  0  0  0  0  0  0  0
    2.0128   -2.2191   -1.2697 O   0  5  0  0  0  0  0  0  0  0  0  0
    0.4179   -2.2585   -2.8230 O   0  0  0  0  0  0  0  0  0  0  0  0
    0.1153    1.2615    0.3534 C   0  0  0  0  0  0  0  0  0  0  0  0
   -0.7245    2.0467   -0.0807 O   0  0  0  0  0  0  0  0  0  0  0  0
    1.0532    1.7162    1.2626 N   0  0  0  0  0  0  0  0  0  0  0  0
    1.7253    1.0347    1.6045 H   0  0  0  0  0  0  0  0  0  0  0  0
    1.1136    3.0854    1.7509 C   0  0  0  0  0  0  0  0  0  0  0  0
    0.1881    3.3453    2.2746 H   0  0  0  0  0  0  0  0  0  0  0  0
    1.9496    3.1988    2.4472 H   0  0  0  0  0  0  0  0  0  0  0  0
    1.2593    3.7817    0.9189 H   0  0  0  0  0  0  0  0  0  0  0  0
  1  2  1  0  0  0  0
  2  3  1  0  0  0  0
  2  4  1  0  0  0  0
  2  5  1  0  0  0  0
  5  6  2  0  0  0  0
  5  7  1  0  0  0  0
  7  8  1  0  0  0  0
  7  9  1  0  0  0  0
  9 10  1  0  0  0  0
  9 11  1  0  0  0  0
  9 17  1  0  0  0  0
 11 12  1  0  0  0  0
 11 13  1  0  0  0  0
 11 14  1  0  0  0  0
 14 15  1  0  0  0  0
 14 16  2  0  0  0  0
 17 18  2  0  0  0  0
 17 19  1  0  0  0  0
 19 20  1  0  0  0  0
 19 21  1  0  0  0  0
 21 22  1  0  0  0  0
 21 23  1  0  0  0  0
 21 24  1  0  0  0  0
M  CHG  1  15  -1
M  END
$$$$

  -OEChem-03222214023D

 24 23  0     1  0  0  0  0  0999 V2000
   -2.4984   -3.9268    0.3821 H   0  0  0  0  0  0  0  0  0  0  0  0
   -2.4244   -2.9954   -0.1857 C   0  0  0  0  0  0  0  0  0  0  0  0
   -3.4044   -2.5133   -0.2083 H   0  0  0  0  0  0  0  0  0  0  0  0
   -2.1167   -3.2319   -1.2082 H   0  0  0  0  0  0  0  0  0  0  0  0
   -1.4025   -2.0721    0.4523 C   0  0  0  0  0  0  0  0  0  0  0  0
   -0.8772   -2.3803    1.5127 O   0  0  0  0  0  0  0  0  0  0  0  0
   -1.1818   -0.8259   -0.0924 N   0  0  0  0  0  0  0  0  0  0  0  0
   -1.7108   -0.6471   -0.9394 H   0  0  0  0  0  0  0  0  0  0  0  0
    0.1558   -0.2225   -0.0851 C   0  0  1  0  0  0  0  0  0  0  0  0
    0.8352   -0.7643    0.5828 H   0  0  0  0  0  0  0  0  0  0  0  0
    0.6684   -0.2920   -1.5370 C   0  0  0  0  0  0  0  0  0  0  0  0
   -0.0969    0.0789   -2.2254 H   0  0  0  0  0  0  0  0  0  0  0  0
    1.5427    0.3562   -1.6380 H   0  0  0  0  0  0  0  0  0  0  0  0
    1.1029   -1.6901   -1.9541 C   0  0  0  0  0  0  0  0  0  0  0  0
    1.8127   -2.3558   -1.1638 O   0  5  0  0  0  0  0  0  0  0  0  0
    0.6514   -2.1168   -3.0446 O   0  0  0  0  0  0  0  0  0  0  0  0
    0.1212    1.2574    0.3497 C   0  0  0  0  0  0  0  0  0  0  0  0
   -0.7133    2.0423   -0.0953 O   0  0  0  0  0  0  0  0  0  0  0  0
    1.0559    1.7157    1.2600 N   0  0  0  0  0  0  0  0  0  0  0  0
    1.7123    1.0306    1.6244 H   0  0  0  0  0  0  0  0  0  0  0  0
    1.1074    3.0845    1.7501 C   0  0  0  0  0  0  0  0  0  0  0  0
    0.1809    3.3372    2.2754 H   0  0  0  0  0  0  0  0  0  0  0  0
    1.9438    3.2029    2.4451 H   0  0  0  0  0  0  0  0  0  0  0  0
    1.2468    3.7833    0.9189 H   0  0  0  0  0  0  0  0  0  0  0  0
  1  2  1  0  0  0  0
  2  3  1  0  0  0  0
  2  4  1  0  0  0  0
  2  5  1  0  0  0  0
  5  6  2  0  0  0  0
  5  7  1  0  0  0  0
  7  8  1  0  0  0  0
  7  9  1  0  0  0  0
  9 10  1  0  0  0  0
  9 11  1  0  0  0  0
  9 17  1  0  0  0  0
 11 12  1  0  0  0  0
 11 13  1  0  0  0  0
 11 14  1  0  0  0  0
 14 15  1  0  0  0  0
 14 16  2  0  0  0  0
 17 18  2  0  0  0  0
 17 19  1  0  0  0  0
 19 20  1  0  0  0  0
 19 21  1  0  0  0  0
 21 22  1  0  0  0  0
 21 23  1  0  0  0  0
 21 24  1  0  0  0  0
M  CHG  1  15  -1
M  END
$$$$

  -OEChem-03222214023D

 24 23  0     1  0  0  0  0  0999 V2000
   -2.4890   -3.9263    0.3980 H   0  0  0  0  0  0  0  0  0  0  0  0
   -2.4190   -2.9985   -0.1761 C   0  0  0  0  0  0  0  0  0  0  0  0
   -3.4042   -2.5283   -0.2153 H   0  0  0  0  0  0  0  0  0  0  0  0
   -2.0947   -3.2398   -1.1922 H   0  0  0  0  0  0  0  0  0  0  0  0
   -1.4163   -2.0590    0.4683 C   0  0  0  0  0  0  0  0  0  0  0  0
   -0.9257   -2.3388    1.5533 O   0  0  0  0  0  0  0  0  0  0  0  0
   -1.1934   -0.8177   -0.0872 N   0  0  0  0  0  0  0  0  0  0  0  0
   -1.7136   -0.6478   -0.9408 H   0  0  0  0  0  0  0  0  0  0  0  0
    0.1498   -0.2276   -0.0802 C   0  0  1  0  0  0  0  0  0  0  0  0
    0.8216   -0.7704    0.5944 H   0  0  0  0  0  0  0  0  0  0  0  0
    0.6751   -0.2991   -1.5304 C   0  0  0  0  0  0  0  0  0  0  0  0
   -0.0850    0.0816   -2.2193 H   0  0  0  0  0  0  0  0  0  0  0  0
    1.5528    0.3465   -1.6192 H   0  0  0  0  0  0  0  0  0  0  0  0
    1.1103   -1.6899   -1.9773 C   0  0  0  0  0  0  0  0  0  0  0  0
    1.5625   -2.4892   -1.1245 O   0  5  0  0  0  0  0  0  0  0  0  0
    0.9335   -1.9642   -3.1887 O   0  0  0  0  0  0  0  0  0  0  0  0
    0.1213    1.2550    0.3461 C   0  0  0  0  0  0  0  0  0  0  0  0
   -0.7042    2.0435   -0.1089 O   0  0  0  0  0  0  0  0  0  0  0  0
    1.0556    1.7121    1.2577 N   0  0  0  0  0  0  0  0  0  0  0  0
    1.6927    1.0203    1.6430 H   0  0  0  0  0  0  0  0  0  0  0  0
    1.1085    3.0809    1.7476 C   0  0  0  0  0  0  0  0  0  0  0  0
    0.1847    3.3327    2.2781 H   0  0  0  0  0  0  0  0  0  0  0  0
    1.9490    3.1995    2.4378 H   0  0  0  0  0  0  0  0  0  0  0  0
    1.2429    3.7798    0.9157 H   0  0  0  0  0  0  0  0  0  0  0  0
  1  2  1  0  0  0  0
  2  3  1  0  0  0  0
  2  4  1  0  0  0  0
  2  5  1  0  0  0  0
  5  6  2  0  0  0  0
  5  7  1  0  0  0  0
  7  8  1  0  0  0  0
  7  9  1  0  0  0  0
  9 10  1  0  0  0  0
  9 11  1  0  0  0  0
  9 17  1  0  0  0  0
 11 12  1  0  0  0  0
 11 13  1  0  0  0  0
 11 14  1  0  0  0  0
 14 15  1  0  0  0  0
 14 16  2  0  0  0  0
 17 18  2  0  0  0  0
 17 19  1  0  0  0  0
 19 20  1  0  0  0  0
 19 21  1  0  0  0  0
 21 22  1  0  0  0  0
 21 23  1  0  0  0  0
 21 24  1  0  0  0  0
M  CHG  1  15  -1
M  END
$$$$

  -OEChem-03222214023D

 24 23  0     1  0  0  0  0  0999 V2000
   -2.5112   -3.9090    0.4391 H   0  0  0  0  0  0  0  0  0  0  0  0
   -2.4003   -3.0110   -0.1745 C   0  0  0  0  0  0  0  0  0  0  0  0
   -3.3782   -2.5403   -0.2981 H   0  0  0  0  0  0  0  0  0  0  0  0
   -2.0141   -3.3030   -1.1550 H   0  0  0  0  0  0  0  0  0  0  0  0
   -1.4334   -2.0445    0.4843 C   0  0  0  0  0  0  0  0  0  0  0  0
   -0.9796   -2.2928    1.5935 O   0  0  0  0  0  0  0  0  0  0  0  0
   -1.2137   -0.8058   -0.0792 N   0  0  0  0  0  0  0  0  0  0  0  0
   -1.7209   -0.6531   -0.9433 H   0  0  0  0  0  0  0  0  0  0  0  0
    0.1359   -0.2306   -0.0744 C   0  0  1  0  0  0  0  0  0  0  0  0
    0.8028   -0.7797    0.5999 H   0  0  0  0  0  0  0  0  0  0  0  0
    0.6713   -0.2984   -1.5226 C   0  0  0  0  0  0  0  0  0  0  0  0
   -0.0832    0.0920   -2.2117 H   0  0  0  0  0  0  0  0  0  0  0  0
    1.5522    0.3446   -1.5995 H   0  0  0  0  0  0  0  0  0  0  0  0
    1.1027   -1.6826   -1.9963 C   0  0  0  0  0  0  0  0  0  0  0  0
    1.2771   -2.5963   -1.1564 O   0  5  0  0  0  0  0  0  0  0  0  0
    1.2176   -1.8259   -3.2368 O   0  0  0  0  0  0  0  0  0  0  0  0
    0.1178    1.2536    0.3491 C   0  0  0  0  0  0  0  0  0  0  0  0
   -0.6986    2.0487   -0.1111 O   0  0  0  0  0  0  0  0  0  0  0  0
    1.0549    1.7058    1.2603 N   0  0  0  0  0  0  0  0  0  0  0  0
    1.6806    1.0088    1.6544 H   0  0  0  0  0  0  0  0  0  0  0  0
    1.1196    3.0761    1.7447 C   0  0  0  0  0  0  0  0  0  0  0  0
    0.1976    3.3388    2.2730 H   0  0  0  0  0  0  0  0  0  0  0  0
    1.9603    3.1898    2.4353 H   0  0  0  0  0  0  0  0  0  0  0  0
    1.2615    3.7704    0.9102 H   0  0  0  0  0  0  0  0  0  0  0  0
  1  2  1  0  0  0  0
  2  3  1  0  0  0  0
  2  4  1  0  0  0  0
  2  5  1  0  0  0  0
  5  6  2  0  0  0  0
  5  7  1  0  0  0  0
  7  8  1  0  0  0  0
  7  9  1  0  0  0  0
  9 10  1  0  0  0  0
  9 11  1  0  0  0  0
  9 17  1  0  0  0  0
 11 12  1  0  0  0  0
 11 13  1  0  0  0  0
 11 14  1  0  0  0  0
 14 15  1  0  0  0  0
 14 16  2  0  0  0  0
 17 18  2  0  0  0  0
 17 19  1  0  0  0  0
 19 20  1  0  0  0  0
 19 21  1  0  0  0  0
 21 22  1  0  0  0  0
 21 23  1  0  0  0  0
 21 24  1  0  0  0  0
M  CHG  1  15  -1
M  END
$$$$

  -OEChem-03222214023D

 24 23  0     1  0  0  0  0  0999 V2000
   -2.5417   -3.8940    0.4713 H   0  0  0  0  0  0  0  0  0  0  0  0
   -2.4184   -3.0053   -0.1534 C   0  0  0  0  0  0  0  0  0  0  0  0
   -3.3900   -2.5235   -0.2833 H   0  0  0  0  0  0  0  0  0  0  0  0
   -2.0356   -3.3146   -1.1298 H   0  0  0  0  0  0  0  0  0  0  0  0
   -1.4381   -2.0435    0.4926 C   0  0  0  0  0  0  0  0  0  0  0  0
   -0.9838   -2.2850    1.6040 O   0  0  0  0  0  0  0  0  0  0  0  0
   -1.2153   -0.8073   -0.0757 N   0  0  0  0  0  0  0  0  0  0  0  0
   -1.7221   -0.6594   -0.9405 H   0  0  0  0  0  0  0  0  0  0  0  0
    0.1382   -0.2400   -0.0769 C   0  0  1  0  0  0  0  0  0  0  0  0
    0.8036   -0.7925    0.5960 H   0  0  0  0  0  0  0  0  0  0  0  0
    0.6862   -0.2987   -1.5226 C   0  0  0  0  0  0  0  0  0  0  0  0
   -0.0649    0.0962   -2.2123 H   0  0  0  0  0  0  0  0  0  0  0  0
    1.5658    0.3480   -1.5870 H   0  0  0  0  0  0  0  0  0  0  0  0
    1.1223   -1.6739   -2.0201 C   0  0  0  0  0  0  0  0  0  0  0  0
    1.0230   -2.6688   -1.2643 O   0  5  0  0  0  0  0  0  0  0  0  0
    1.5337   -1.7198   -3.2037 O   0  0  0  0  0  0  0  0  0  0  0  0
    0.1190    1.2453    0.3445 C   0  0  0  0  0  0  0  0  0  0  0  0
   -0.6998    2.0387   -0.1148 O   0  0  0  0  0  0  0  0  0  0  0  0
    1.0566    1.7004    1.2540 N   0  0  0  0  0  0  0  0  0  0  0  0
    1.6834    1.0055    1.6498 H   0  0  0  0  0  0  0  0  0  0  0  0
    1.1117    3.0694    1.7434 C   0  0  0  0  0  0  0  0  0  0  0  0
    0.1808    3.3291    2.2577 H   0  0  0  0  0  0  0  0  0  0  0  0
    1.9409    3.1822    2.4480 H   0  0  0  0  0  0  0  0  0  0  0  0
    1.2654    3.7666    0.9134 H   0  0  0  0  0  0  0  0  0  0  0  0
  1  2  1  0  0  0  0
  2  3  1  0  0  0  0
  2  4  1  0  0  0  0
  2  5  1  0  0  0  0
  5  6  2  0  0  0  0
  5  7  1  0  0  0  0
  7  8  1  0  0  0  0
  7  9  1  0  0  0  0
  9 10  1  0  0  0  0
  9 11  1  0  0  0  0
  9 17  1  0  0  0  0
 11 12  1  0  0  0  0
 11 13  1  0  0  0  0
 11 14  1  0  0  0  0
 14 15  1  0  0  0  0
 14 16  2  0  0  0  0
 17 18  2  0  0  0  0
 17 19  1  0  0  0  0
 19 20  1  0  0  0  0
 19 21  1  0  0  0  0
 21 22  1  0  0  0  0
 21 23  1  0  0  0  0
 21 24  1  0  0  0  0
M  CHG  1  15  -1
M  END
$$$$

  -OEChem-03222214023D

 24 23  0     1  0  0  0  0  0999 V2000
   -2.5573   -3.8980    0.4740 H   0  0  0  0  0  0  0  0  0  0  0  0
   -2.4529   -2.9972   -0.1364 C   0  0  0  0  0  0  0  0  0  0  0  0
   -3.4251   -2.5059   -0.2169 H   0  0  0  0  0  0  0  0  0  0  0  0
   -2.1123   -3.2883   -1.1338 H   0  0  0  0  0  0  0  0  0  0  0  0
   -1.4400   -2.0556    0.4897 C   0  0  0  0  0  0  0  0  0  0  0  0
   -0.9653   -2.3092    1.5903 O   0  0  0  0  0  0  0  0  0  0  0  0
   -1.2123   -0.8191   -0.0770 N   0  0  0  0  0  0  0  0  0  0  0  0
   -1.7176   -0.6728   -0.9427 H   0  0  0  0  0  0  0  0  0  0  0  0
    0.1412   -0.2512   -0.0769 C   0  0  1  0  0  0  0  0  0  0  0  0
    0.8053   -0.8044    0.5964 H   0  0  0  0  0  0  0  0  0  0  0  0
    0.7075   -0.2955   -1.5168 C   0  0  0  0  0  0  0  0  0  0  0  0
   -0.0399    0.0989   -2.2103 H   0  0  0  0  0  0  0  0  0  0  0  0
    1.5811    0.3611   -1.5656 H   0  0  0  0  0  0  0  0  0  0  0  0
    1.1570   -1.6610   -2.0303 C   0  0  0  0  0  0  0  0  0  0  0  0
    0.8048   -2.7000   -1.4238 O   0  5  0  0  0  0  0  0  0  0  0  0
    1.8450   -1.6501   -3.0788 O   0  0  0  0  0  0  0  0  0  0  0  0
    0.1133    1.2338    0.3464 C   0  0  0  0  0  0  0  0  0  0  0  0
   -0.7088    2.0232   -0.1137 O   0  0  0  0  0  0  0  0  0  0  0  0
    1.0461    1.6943    1.2582 N   0  0  0  0  0  0  0  0  0  0  0  0
    1.6841    1.0062    1.6473 H   0  0  0  0  0  0  0  0  0  0  0  0
    1.1035    3.0678    1.7347 C   0  0  0  0  0  0  0  0  0  0  0  0
    0.1746    3.3324    2.2499 H   0  0  0  0  0  0  0  0  0  0  0  0
    1.9353    3.1872    2.4351 H   0  0  0  0  0  0  0  0  0  0  0  0
    1.2545    3.7570    0.8977 H   0  0  0  0  0  0  0  0  0  0  0  0
  1  2  1  0  0  0  0
  2  3  1  0  0  0  0
  2  4  1  0  0  0  0
  2  5  1  0  0  0  0
  5  6  2  0  0  0  0
  5  7  1  0  0  0  0
  7  8  1  0  0  0  0
  7  9  1  0  0  0  0
  9 10  1  0  0  0  0
  9 11  1  0  0  0  0
  9 17  1  0  0  0  0
 11 12  1  0  0  0  0
 11 13  1  0  0  0  0
 11 14  1  0  0  0  0
 14 15  1  0  0  0  0
 14 16  2  0  0  0  0
 17 18  2  0  0  0  0
 17 19  1  0  0  0  0
 19 20  1  0  0  0  0
 19 21  1  0  0  0  0
 21 22  1  0  0  0  0
 21 23  1  0  0  0  0
 21 24  1  0  0  0  0
M  CHG  1  15  -1
M  END
$$$$

  -OEChem-03222214023D

 24 23  0     1  0  0  0  0  0999 V2000
   -2.5715   -3.8953    0.4852 H   0  0  0  0  0  0  0  0  0  0  0  0
   -2.4759   -2.9905   -0.1207 C   0  0  0  0  0  0  0  0  0  0  0  0
   -3.4449   -2.4887   -0.1679 H   0  0  0  0  0  0  0  0  0  0  0  0
   -2.1692   -3.2772   -1.1304 H   0  0  0  0  0  0  0  0  0  0  0  0
   -1.4349   -2.0646    0.4822 C   0  0  0  0  0  0  0  0  0  0  0  0
   -0.9321   -2.3333    1.5670 O   0  0  0  0  0  0  0  0  0  0  0  0
   -1.2095   -0.8261   -0.0817 N   0  0  0  0  0  0  0  0  0  0  0  0
   -1.7145   -0.6837   -0.9485 H   0  0  0  0  0  0  0  0  0  0  0  0
    0.1432   -0.2559   -0.0827 C   0  0  1  0  0  0  0  0  0  0  0  0
    0.8086   -0.8087    0.5892 H   0  0  0  0  0  0  0  0  0  0  0  0
    0.7197   -0.2889   -1.5190 C   0  0  0  0  0  0  0  0  0  0  0  0
   -0.0252    0.1040   -2.2160 H   0  0  0  0  0  0  0  0  0  0  0  0
    1.5889    0.3745   -1.5590 H   0  0  0  0  0  0  0  0  0  0  0  0
    1.1755   -1.6523   -2.0333 C   0  0  0  0  0  0  0  0  0  0  0  0
    0.6033   -2.6884   -1.6187 O   0  5  0  0  0  0  0  0  0  0  0  0
    2.0979   -1.6422   -2.8831 O   0  0  0  0  0  0  0  0  0  0  0  0
    0.1095    1.2281    0.3450 C   0  0  0  0  0  0  0  0  0  0  0  0
   -0.7173    2.0154   -0.1103 O   0  0  0  0  0  0  0  0  0  0  0  0
    1.0414    1.6902    1.2570 N   0  0  0  0  0  0  0  0  0  0  0  0
    1.6898    1.0064    1.6361 H   0  0  0  0  0  0  0  0  0  0  0  0
    1.0965    3.0638    1.7333 C   0  0  0  0  0  0  0  0  0  0  0  0
    0.1647    3.3295    2.2426 H   0  0  0  0  0  0  0  0  0  0  0  0
    1.9238    3.1831    2.4390 H   0  0  0  0  0  0  0  0  0  0  0  0
    1.2533    3.7524    0.8967 H   0  0  0  0  0  0  0  0  0  0  0  0
  1  2  1  0  0  0  0
  2  3  1  0  0  0  0
  2  4  1  0  0  0  0
  2  5  1  0  0  0  0
  5  6  2  0  0  0  0
  5  7  1  0  0  0  0
  7  8  1  0  0  0  0
  7  9  1  0  0  0  0
  9 10  1  0  0  0  0
  9 11  1  0  0  0  0
  9 17  1  0  0  0  0
 11 12  1  0  0  0  0
 11 13  1  0  0  0  0
 11 14  1  0  0  0  0
 14 15  1  0  0  0  0
 14 16  2  0  0  0  0
 17 18  2  0  0  0  0
 17 19  1  0  0  0  0
 19 20  1  0  0  0  0
 19 21  1  0  0  0  0
 21 22  1  0  0  0  0
 21 23  1  0  0  0  0
 21 24  1  0  0  0  0
M  CHG  1  15  -1
M  END
$$$$

  -OEChem-03222214023D

 24 23  0     1  0  0  0  0  0999 V2000
   -2.5555   -3.9085    0.4653 H   0  0  0  0  0  0  0  0  0  0  0  0
   -2.4918   -2.9833   -0.1137 C   0  0  0  0  0  0  0  0  0  0  0  0
   -3.4627   -2.4831   -0.0958 H   0  0  0  0  0  0  0  0  0  0  0  0
   -2.2359   -3.2351   -1.1466 H   0  0  0  0  0  0  0  0  0  0  0  0
   -1.4232   -2.0745    0.4679 C   0  0  0  0  0  0  0  0  0  0  0  0
   -0.8867   -2.3655    1.5306 O   0  0  0  0  0  0  0  0  0  0  0  0
   -1.2014   -0.8325   -0.0900 N   0  0  0  0  0  0  0  0  0  0  0  0
   -1.7091   -0.6893   -0.9553 H   0  0  0  0  0  0  0  0  0  0  0  0
    0.1479   -0.2541   -0.0912 C   0  0  1  0  0  0  0  0  0  0  0  0
    0.8170   -0.8036    0.5797 H   0  0  0  0  0  0  0  0  0  0  0  0
    0.7261   -0.2836   -1.5254 C   0  0  0  0  0  0  0  0  0  0  0  0
   -0.0204    0.0988   -2.2264 H   0  0  0  0  0  0  0  0  0  0  0  0
    1.5900    0.3867   -1.5697 H   0  0  0  0  0  0  0  0  0  0  0  0
    1.1840   -1.6531   -2.0182 C   0  0  0  0  0  0  0  0  0  0  0  0
    0.4404   -2.6445   -1.8200 O   0  5  0  0  0  0  0  0  0  0  0  0
    2.2838   -1.6965   -2.6199 O   0  0  0  0  0  0  0  0  0  0  0  0
    0.1068    1.2280    0.3426 C   0  0  0  0  0  0  0  0  0  0  0  0
   -0.7282    2.0116   -0.1041 O   0  0  0  0  0  0  0  0  0  0  0  0
    1.0380    1.6916    1.2546 N   0  0  0  0  0  0  0  0  0  0  0  0
    1.7015    1.0133    1.6175 H   0  0  0  0  0  0  0  0  0  0  0  0
    1.0875    3.0638    1.7357 C   0  0  0  0  0  0  0  0  0  0  0  0
    0.1513    3.3269    2.2384 H   0  0  0  0  0  0  0  0  0  0  0  0
    1.9087    3.1809    2.4489 H   0  0  0  0  0  0  0  0  0  0  0  0
    1.2505    3.7550    0.9025 H   0  0  0  0  0  0  0  0  0  0  0  0
  1  2  1  0  0  0  0
  2  3  1  0  0  0  0
  2  4  1  0  0  0  0
  2  5  1  0  0  0  0
  5  6  2  0  0  0  0
  5  7  1  0  0  0  0
  7  8  1  0  0  0  0
  7  9  1  0  0  0  0
  9 10  1  0  0  0  0
  9 11  1  0  0  0  0
  9 17  1  0  0  0  0
 11 12  1  0  0  0  0
 11 13  1  0  0  0  0
 11 14  1  0  0  0  0
 14 15  1  0  0  0  0
 14 16  2  0  0  0  0
 17 18  2  0  0  0  0
 17 19  1  0  0  0  0
 19 20  1  0  0  0  0
 19 21  1  0  0  0  0
 21 22  1  0  0  0  0
 21 23  1  0  0  0  0
 21 24  1  0  0  0  0
M  CHG  1  15  -1
M  END
$$$$

  -OEChem-03222214023D

 24 23  0     1  0  0  0  0  0999 V2000
   -2.5475   -3.9129    0.4524 H   0  0  0  0  0  0  0  0  0  0  0  0
   -2.4892   -2.9834   -0.1198 C   0  0  0  0  0  0  0  0  0  0  0  0
   -3.4571   -2.4788   -0.0809 H   0  0  0  0  0  0  0  0  0  0  0  0
   -2.2527   -3.2275   -1.1591 H   0  0  0  0  0  0  0  0  0  0  0  0
   -1.4075   -2.0839    0.4512 C   0  0  0  0  0  0  0  0  0  0  0  0
   -0.8447   -2.3934    1.4946 O   0  0  0  0  0  0  0  0  0  0  0  0
   -1.1926   -0.8372   -0.0988 N   0  0  0  0  0  0  0  0  0  0  0  0
   -1.7008   -0.6940   -0.9644 H   0  0  0  0  0  0  0  0  0  0  0  0
    0.1513   -0.2475   -0.0956 C   0  0  1  0  0  0  0  0  0  0  0  0
    0.8267   -0.7942    0.5711 H   0  0  0  0  0  0  0  0  0  0  0  0
    0.7177   -0.2771   -1.5315 C   0  0  0  0  0  0  0  0  0  0  0  0
   -0.0331    0.0957   -2.2333 H   0  0  0  0  0  0  0  0  0  0  0  0
    1.5800    0.3940   -1.5893 H   0  0  0  0  0  0  0  0  0  0  0  0
    1.1702   -1.6571   -1.9920 C   0  0  0  0  0  0  0  0  0  0  0  0
    0.3138   -2.5756   -2.0258 O   0  5  0  0  0  0  0  0  0  0  0  0
    2.3739   -1.7871   -2.3203 O   0  0  0  0  0  0  0  0  0  0  0  0
    0.1054    1.2323    0.3446 C   0  0  0  0  0  0  0  0  0  0  0  0
   -0.7311    2.0151   -0.1005 O   0  0  0  0  0  0  0  0  0  0  0  0
    1.0351    1.6955    1.2582 N   0  0  0  0  0  0  0  0  0  0  0  0
    1.7060    1.0196    1.6119 H   0  0  0  0  0  0  0  0  0  0  0  0
    1.0858    3.0679    1.7390 C   0  0  0  0  0  0  0  0  0  0  0  0
    0.1483    3.3329    2.2381 H   0  0  0  0  0  0  0  0  0  0  0  0
    1.9046    3.1843    2.4551 H   0  0  0  0  0  0  0  0  0  0  0  0
    1.2531    3.7590    0.9067 H   0  0  0  0  0  0  0  0  0  0  0  0
  1  2  1  0  0  0  0
  2  3  1  0  0  0  0
  2  4  1  0  0  0  0
  2  5  1  0  0  0  0
  5  6  2  0  0  0  0
  5  7  1  0  0  0  0
  7  8  1  0  0  0  0
  7  9  1  0  0  0  0
  9 10  1  0  0  0  0
  9 11  1  0  0  0  0
  9 17  1  0  0  0  0
 11 12  1  0  0  0  0
 11 13  1  0  0  0  0
 11 14  1  0  0  0  0
 14 15  1  0  0  0  0
 14 16  2  0  0  0  0
 17 18  2  0  0  0  0
 17 19  1  0  0  0  0
 19 20  1  0  0  0  0
 19 21  1  0  0  0  0
 21 22  1  0  0  0  0
 21 23  1  0  0  0  0
 21 24  1  0  0  0  0
M  CHG  1  15  -1
M  END
$$$$

  -OEChem-03222214023D

 24 23  0     1  0  0  0  0  0999 V2000
   -2.5358   -3.9202    0.4313 H   0  0  0  0  0  0  0  0  0  0  0  0
   -2.4745   -2.9906   -0.1405 C   0  0  0  0  0  0  0  0  0  0  0  0
   -3.4429   -2.4867   -0.1070 H   0  0  0  0  0  0  0  0  0  0  0  0
   -2.2323   -3.2344   -1.1786 H   0  0  0  0  0  0  0  0  0  0  0  0
   -1.3962   -2.0905    0.4359 C   0  0  0  0  0  0  0  0  0  0  0  0
   -0.8180   -2.4137    1.4661 O   0  0  0  0  0  0  0  0  0  0  0  0
   -1.1895   -0.8386   -0.1045 N   0  0  0  0  0  0  0  0  0  0  0  0
   -1.7008   -0.6910   -0.9683 H   0  0  0  0  0  0  0  0  0  0  0  0
    0.1485   -0.2353   -0.0962 C   0  0  1  0  0  0  0  0  0  0  0  0
    0.8299   -0.7805    0.5663 H   0  0  0  0  0  0  0  0  0  0  0  0
    0.6989   -0.2707   -1.5342 C   0  0  0  0  0  0  0  0  0  0  0  0
   -0.0560    0.0913   -2.2379 H   0  0  0  0  0  0  0  0  0  0  0  0
    1.5625    0.3964   -1.6098 H   0  0  0  0  0  0  0  0  0  0  0  0
    1.1445   -1.6632   -1.9511 C   0  0  0  0  0  0  0  0  0  0  0  0
    0.2445   -2.4968   -2.2254 O   0  5  0  0  0  0  0  0  0  0  0  0
    2.3771   -1.8919   -1.9961 O   0  0  0  0  0  0  0  0  0  0  0  0
    0.1019    1.2413    0.3511 C   0  0  0  0  0  0  0  0  0  0  0  0
   -0.7367    2.0250   -0.0881 O   0  0  0  0  0  0  0  0  0  0  0  0
    1.0332    1.6998    1.2652 N   0  0  0  0  0  0  0  0  0  0  0  0
    1.7145    1.0255    1.6023 H   0  0  0  0  0  0  0  0  0  0  0  0
    1.0953    3.0738    1.7392 C   0  0  0  0  0  0  0  0  0  0  0  0
    0.1631    3.3461    2.2441 H   0  0  0  0  0  0  0  0  0  0  0  0
    1.9201    3.1890    2.4485 H   0  0  0  0  0  0  0  0  0  0  0  0
    1.2597    3.7598    0.9022 H   0  0  0  0  0  0  0  0  0  0  0  0
  1  2  1  0  0  0  0
  2  3  1  0  0  0  0
  2  4  1  0  0  0  0
  2  5  1  0  0  0  0
  5  6  2  0  0  0  0
  5  7  1  0  0  0  0
  7  8  1  0  0  0  0
  7  9  1  0  0  0  0
  9 10  1  0  0  0  0
  9 11  1  0  0  0  0
  9 17  1  0  0  0  0
 11 12  1  0  0  0  0
 11 13  1  0  0  0  0
 11 14  1  0  0  0  0
 14 15  1  0  0  0  0
 14 16  2  0  0  0  0
 17 18  2  0  0  0  0
 17 19  1  0  0  0  0
 19 20  1  0  0  0  0
 19 21  1  0  0  0  0
 21 22  1  0  0  0  0
 21 23  1  0  0  0  0
 21 24  1  0  0  0  0
M  CHG  1  15  -1
M  END
$$$$

  -OEChem-03222214023D

 24 23  0     1  0  0  0  0  0999 V2000
   -2.5200   -3.9279    0.4011 H   0  0  0  0  0  0  0  0  0  0  0  0
   -2.4564   -2.9942   -0.1640 C   0  0  0  0  0  0  0  0  0  0  0  0
   -3.4276   -2.4951   -0.1379 H   0  0  0  0  0  0  0  0  0  0  0  0
   -2.2014   -3.2295   -1.2012 H   0  0  0  0  0  0  0  0  0  0  0  0
   -1.3889   -2.0927    0.4295 C   0  0  0  0  0  0  0  0  0  0  0  0
   -0.8041   -2.4285    1.4510 O   0  0  0  0  0  0  0  0  0  0  0  0
   -1.1834   -0.8382   -0.1039 N   0  0  0  0  0  0  0  0  0  0  0  0
   -1.7030   -0.6786   -0.9607 H   0  0  0  0  0  0  0  0  0  0  0  0
    0.1499   -0.2252   -0.0939 C   0  0  1  0  0  0  0  0  0  0  0  0
    0.8369   -0.7690    0.5644 H   0  0  0  0  0  0  0  0  0  0  0  0
    0.6776   -0.2738   -1.5371 C   0  0  0  0  0  0  0  0  0  0  0  0
   -0.0853    0.0784   -2.2373 H   0  0  0  0  0  0  0  0  0  0  0  0
    1.5429    0.3878   -1.6366 H   0  0  0  0  0  0  0  0  0  0  0  0
    1.1147   -1.6772   -1.9183 C   0  0  0  0  0  0  0  0  0  0  0  0
    0.2449   -2.4255   -2.4320 O   0  5  0  0  0  0  0  0  0  0  0  0
    2.3070   -1.9984   -1.6980 O   0  0  0  0  0  0  0  0  0  0  0  0
    0.1045    1.2501    0.3569 C   0  0  0  0  0  0  0  0  0  0  0  0
   -0.7372    2.0331   -0.0776 O   0  0  0  0  0  0  0  0  0  0  0  0
    1.0375    1.7077    1.2696 N   0  0  0  0  0  0  0  0  0  0  0  0
    1.7247    1.0348    1.5978 H   0  0  0  0  0  0  0  0  0  0  0  0
    1.1032    3.0822    1.7421 C   0  0  0  0  0  0  0  0  0  0  0  0
    0.1740    3.3560    2.2520 H   0  0  0  0  0  0  0  0  0  0  0  0
    1.9321    3.1975    2.4466 H   0  0  0  0  0  0  0  0  0  0  0  0
    1.2633    3.7675    0.9035 H   0  0  0  0  0  0  0  0  0  0  0  0
  1  2  1  0  0  0  0
  2  3  1  0  0  0  0
  2  4  1  0  0  0  0
  2  5  1  0  0  0  0
  5  6  2  0  0  0  0
  5  7  1  0  0  0  0
  7  8  1  0  0  0  0
  7  9  1  0  0  0  0
  9 10  1  0  0  0  0
  9 11  1  0  0  0  0
  9 17  1  0  0  0  0
 11 12  1  0  0  0  0
 11 13  1  0  0  0  0
 11 14  1  0  0  0  0
 14 15  1  0  0  0  0
 14 16  2  0  0  0  0
 17 18  2  0  0  0  0
 17 19  1  0  0  0  0
 19 20  1  0  0  0  0
 19 21  1  0  0  0  0
 21 22  1  0  0  0  0
 21 23  1  0  0  0  0
 21 24  1  0  0  0  0
M  CHG  1  15  -1
M  END
$$$$

  -OEChem-03222214023D

 24 23  0     1  0  0  0  0  0999 V2000
   -2.5171   -3.9258    0.3935 H   0  0  0  0  0  0  0  0  0  0  0  0
   -2.4428   -2.9958   -0.1764 C   0  0  0  0  0  0  0  0  0  0  0  0
   -3.4150   -2.4978   -0.1737 H   0  0  0  0  0  0  0  0  0  0  0  0
   -2.1652   -3.2369   -1.2066 H   0  0  0  0  0  0  0  0  0  0  0  0
   -1.3898   -2.0891    0.4336 C   0  0  0  0  0  0  0  0  0  0  0  0
   -0.8098   -2.4266    1.4563 O   0  0  0  0  0  0  0  0  0  0  0  0
   -1.1818   -0.8355   -0.0999 N   0  0  0  0  0  0  0  0  0  0  0  0
   -1.7125   -0.6628   -0.9476 H   0  0  0  0  0  0  0  0  0  0  0  0
    0.1502   -0.2187   -0.0926 C   0  0  1  0  0  0  0  0  0  0  0  0
    0.8386   -0.7613    0.5653 H   0  0  0  0  0  0  0  0  0  0  0  0
    0.6628   -0.2807   -1.5401 C   0  0  0  0  0  0  0  0  0  0  0  0
   -0.1051    0.0680   -2.2370 H   0  0  0  0  0  0  0  0  0  0  0  0
    1.5298    0.3756   -1.6546 H   0  0  0  0  0  0  0  0  0  0  0  0
    1.0958   -1.6893   -1.9049 C   0  0  0  0  0  0  0  0  0  0  0  0
    0.3282   -2.3466   -2.6514 O   0  5  0  0  0  0  0  0  0  0  0  0
    2.1943   -2.0970   -1.4574 O   0  0  0  0  0  0  0  0  0  0  0  0
    0.1088    1.2571    0.3552 C   0  0  0  0  0  0  0  0  0  0  0  0
   -0.7368    2.0387   -0.0740 O   0  0  0  0  0  0  0  0  0  0  0  0
    1.0457    1.7138    1.2643 N   0  0  0  0  0  0  0  0  0  0  0  0
    1.7327    1.0394    1.5901 H   0  0  0  0  0  0  0  0  0  0  0  0
    1.1079    3.0847    1.7474 C   0  0  0  0  0  0  0  0  0  0  0  0
    0.1788    3.3516    2.2608 H   0  0  0  0  0  0  0  0  0  0  0  0
    1.9374    3.1965    2.4518 H   0  0  0  0  0  0  0  0  0  0  0  0
    1.2653    3.7771    0.9142 H   0  0  0  0  0  0  0  0  0  0  0  0
  1  2  1  0  0  0  0
  2  3  1  0  0  0  0
  2  4  1  0  0  0  0
  2  5  1  0  0  0  0
  5  6  2  0  0  0  0
  5  7  1  0  0  0  0
  7  8  1  0  0  0  0
  7  9  1  0  0  0  0
  9 10  1  0  0  0  0
  9 11  1  0  0  0  0
  9 17  1  0  0  0  0
 11 12  1  0  0  0  0
 11 13  1  0  0  0  0
 11 14  1  0  0  0  0
 14 15  1  0  0  0  0
 14 16  2  0  0  0  0
 17 18  2  0  0  0  0
 17 19  1  0  0  0  0
 19 20  1  0  0  0  0
 19 21  1  0  0  0  0
 21 22  1  0  0  0  0
 21 23  1  0  0  0  0
 21 24  1  0  0  0  0
M  CHG  1  15  -1
M  END
$$$$

  -OEChem-03222214023D

 24 23  0     1  0  0  0  0  0999 V2000
   -2.5386   -3.9170    0.3969 H   0  0  0  0  0  0  0  0  0  0  0  0
   -2.4594   -2.9846   -0.1686 C   0  0  0  0  0  0  0  0  0  0  0  0
   -3.4270   -2.4776   -0.1559 H   0  0  0  0  0  0  0  0  0  0  0  0
   -2.1920   -3.2225   -1.2022 H   0  0  0  0  0  0  0  0  0  0  0  0
   -1.3931   -2.0915    0.4386 C   0  0  0  0  0  0  0  0  0  0  0  0
   -0.8148   -2.4371    1.4588 O   0  0  0  0  0  0  0  0  0  0  0  0
   -1.1729   -0.8409   -0.0962 N   0  0  0  0  0  0  0  0  0  0  0  0
   -1.7197   -0.6439   -0.9280 H   0  0  0  0  0  0  0  0  0  0  0  0
    0.1593   -0.2250   -0.0910 C   0  0  1  0  0  0  0  0  0  0  0  0
    0.8455   -0.7644    0.5720 H   0  0  0  0  0  0  0  0  0  0  0  0
    0.6724   -0.2910   -1.5397 C   0  0  0  0  0  0  0  0  0  0  0  0
   -0.0976    0.0602   -2.2331 H   0  0  0  0  0  0  0  0  0  0  0  0
    1.5385    0.3663   -1.6547 H   0  0  0  0  0  0  0  0  0  0  0  0
    1.1112   -1.6950   -1.9205 C   0  0  0  0  0  0  0  0  0  0  0  0
    0.5141   -2.2391   -2.8818 O   0  5  0  0  0  0  0  0  0  0  0  0
    2.0709   -2.1991   -1.2898 O   0  0  0  0  0  0  0  0  0  0  0  0
    0.1147    1.2518    0.3519 C   0  0  0  0  0  0  0  0  0  0  0  0
   -0.7361    2.0279   -0.0772 O   0  0  0  0  0  0  0  0  0  0  0  0
    1.0494    1.7139    1.2602 N   0  0  0  0  0  0  0  0  0  0  0  0
    1.7334    1.0405    1.5948 H   0  0  0  0  0  0  0  0  0  0  0  0
    1.0977    3.0836    1.7481 C   0  0  0  0  0  0  0  0  0  0  0  0
    0.1649    3.3398    2.2606 H   0  0  0  0  0  0  0  0  0  0  0  0
    1.9245    3.2014    2.4545 H   0  0  0  0  0  0  0  0  0  0  0  0
    1.2498    3.7798    0.9172 H   0  0  0  0  0  0  0  0  0  0  0  0
  1  2  1  0  0  0  0
  2  3  1  0  0  0  0
  2  4  1  0  0  0  0
  2  5  1  0  0  0  0
  5  6  2  0  0  0  0
  5  7  1  0  0  0  0
  7  8  1  0  0  0  0
  7  9  1  0  0  0  0
  9 10  1  0  0  0  0
  9 11  1  0  0  0  0
  9 17  1  0  0  0  0
 11 12  1  0  0  0  0
 11 13  1  0  0  0  0
 11 14  1  0  0  0  0
 14 15  1  0  0  0  0
 14 16  2  0  0  0  0
 17 18  2  0  0  0  0
 17 19  1  0  0  0  0
 19 20  1  0  0  0  0
 19 21  1  0  0  0  0
 21 22  1  0  0  0  0
 21 23  1  0  0  0  0
 21 24  1  0  0  0  0
M  CHG  1  15  -1
M  END
$$$$

  -OEChem-03222214023D

 24 23  0     1  0  0  0  0  0999 V2000
   -2.5432   -3.9157    0.4040 H   0  0  0  0  0  0  0  0  0  0  0  0
   -2.4761   -2.9771   -0.1528 C   0  0  0  0  0  0  0  0  0  0  0  0
   -3.4438   -2.4717   -0.1156 H   0  0  0  0  0  0  0  0  0  0  0  0
   -2.2288   -3.2042   -1.1935 H   0  0  0  0  0  0  0  0  0  0  0  0
   -1.4001   -2.0893    0.4455 C   0  0  0  0  0  0  0  0  0  0  0  0
   -0.8382   -2.4251    1.4778 O   0  0  0  0  0  0  0  0  0  0  0  0
   -1.1706   -0.8432   -0.0964 N   0  0  0  0  0  0  0  0  0  0  0  0
   -1.7231   -0.6357   -0.9214 H   0  0  0  0  0  0  0  0  0  0  0  0
    0.1642   -0.2328   -0.0909 C   0  0  1  0  0  0  0  0  0  0  0  0
    0.8442   -0.7694    0.5803 H   0  0  0  0  0  0  0  0  0  0  0  0
    0.6876   -0.2999   -1.5387 C   0  0  0  0  0  0  0  0  0  0  0  0
   -0.0805    0.0585   -2.2307 H   0  0  0  0  0  0  0  0  0  0  0  0
    1.5536    0.3588   -1.6453 H   0  0  0  0  0  0  0  0  0  0  0  0
    1.1342   -1.6954   -1.9489 C   0  0  0  0  0  0  0  0  0  0  0  0
    0.7596   -2.1013   -3.0759 O   0  5  0  0  0  0  0  0  0  0  0  0
    1.8975   -2.3241   -1.1782 O   0  0  0  0  0  0  0  0  0  0  0  0
    0.1187    1.2466    0.3432 C   0  0  0  0  0  0  0  0  0  0  0  0
   -0.7310    2.0206   -0.0920 O   0  0  0  0  0  0  0  0  0  0  0  0
    1.0504    1.7124    1.2528 N   0  0  0  0  0  0  0  0  0  0  0  0
    1.7232    1.0360    1.6038 H   0  0  0  0  0  0  0  0  0  0  0  0
    1.0884    3.0798    1.7478 C   0  0  0  0  0  0  0  0  0  0  0  0
    0.1554    3.3251    2.2652 H   0  0  0  0  0  0  0  0  0  0  0  0
    1.9171    3.2005    2.4516 H   0  0  0  0  0  0  0  0  0  0  0  0
    1.2313    3.7820    0.9203 H   0  0  0  0  0  0  0  0  0  0  0  0
  1  2  1  0  0  0  0
  2  3  1  0  0  0  0
  2  4  1  0  0  0  0
  2  5  1  0  0  0  0
  5  6  2  0  0  0  0
  5  7  1  0  0  0  0
  7  8  1  0  0  0  0
  7  9  1  0  0  0  0
  9 10  1  0  0  0  0
  9 11  1  0  0  0  0
  9 17  1  0  0  0  0
 11 12  1  0  0  0  0
 11 13  1  0  0  0  0
 11 14  1  0  0  0  0
 14 15  1  0  0  0  0
 14 16  2  0  0  0  0
 17 18  2  0  0  0  0
 17 19  1  0  0  0  0
 19 20  1  0  0  0  0
 19 21  1  0  0  0  0
 21 22  1  0  0  0  0
 21 23  1  0  0  0  0
 21 24  1  0  0  0  0
M  CHG  1  15  -1
M  END
$$$$

  -OEChem-03222214023D

 24 23  0     1  0  0  0  0  0999 V2000
   -2.5247   -3.9166    0.4130 H   0  0  0  0  0  0  0  0  0  0  0  0
   -2.4556   -2.9846   -0.1545 C   0  0  0  0  0  0  0  0  0  0  0  0
   -3.4320   -2.4947   -0.1546 H   0  0  0  0  0  0  0  0  0  0  0  0
   -2.1721   -3.2218   -1.1835 H   0  0  0  0  0  0  0  0  0  0  0  0
   -1.4128   -2.0715    0.4641 C   0  0  0  0  0  0  0  0  0  0  0  0
   -0.8974   -2.3703    1.5320 O   0  0  0  0  0  0  0  0  0  0  0  0
   -1.1831   -0.8303   -0.0891 N   0  0  0  0  0  0  0  0  0  0  0  0
   -1.7210   -0.6397   -0.9273 H   0  0  0  0  0  0  0  0  0  0  0  0
    0.1583   -0.2354   -0.0848 C   0  0  1  0  0  0  0  0  0  0  0  0
    0.8323   -0.7746    0.5905 H   0  0  0  0  0  0  0  0  0  0  0  0
    0.6866   -0.3055   -1.5334 C   0  0  0  0  0  0  0  0  0  0  0  0
   -0.0791    0.0640   -2.2220 H   0  0  0  0  0  0  0  0  0  0  0  0
    1.5558    0.3498   -1.6328 H   0  0  0  0  0  0  0  0  0  0  0  0
    1.1286   -1.6945   -1.9780 C   0  0  0  0  0  0  0  0  0  0  0  0
    1.0058   -1.9529   -3.1995 O   0  5  0  0  0  0  0  0  0  0  0  0
    1.6172   -2.4768   -1.1295 O   0  0  0  0  0  0  0  0  0  0  0  0
    0.1221    1.2470    0.3414 C   0  0  0  0  0  0  0  0  0  0  0  0
   -0.7161    2.0270   -0.1052 O   0  0  0  0  0  0  0  0  0  0  0  0
    1.0543    1.7107    1.2516 N   0  0  0  0  0  0  0  0  0  0  0  0
    1.7055    1.0262    1.6261 H   0  0  0  0  0  0  0  0  0  0  0  0
    1.0933    3.0777    1.7474 C   0  0  0  0  0  0  0  0  0  0  0  0
    0.1614    3.3223    2.2669 H   0  0  0  0  0  0  0  0  0  0  0  0
    1.9238    3.1984    2.4492 H   0  0  0  0  0  0  0  0  0  0  0  0
    1.2341    3.7806    0.9202 H   0  0  0  0  0  0  0  0  0  0  0  0
  1  2  1  0  0  0  0
  2  3  1  0  0  0  0
  2  4  1  0  0  0  0
  2  5  1  0  0  0  0
  5  6  2  0  0  0  0
  5  7  1  0  0  0  0
  7  8  1  0  0  0  0
  7  9  1  0  0  0  0
  9 10  1  0  0  0  0
  9 11  1  0  0  0  0
  9 17  1  0  0  0  0
 11 12  1  0  0  0  0
 11 13  1  0  0  0  0
 11 14  1  0  0  0  0
 14 15  1  0  0  0  0
 14 16  2  0  0  0  0
 17 18  2  0  0  0  0
 17 19  1  0  0  0  0
 19 20  1  0  0  0  0
 19 21  1  0  0  0  0
 21 22  1  0  0  0  0
 21 23  1  0  0  0  0
 21 24  1  0  0  0  0
M  CHG  1  15  -1
M  END
$$$$

  -OEChem-03222214023D

 24 23  0     1  0  0  0  0  0999 V2000
   -2.5265   -3.9033    0.4495 H   0  0  0  0  0  0  0  0  0  0  0  0
   -2.4178   -3.0030   -0.1612 C   0  0  0  0  0  0  0  0  0  0  0  0
   -3.3939   -2.5239   -0.2658 H   0  0  0  0  0  0  0  0  0  0  0  0
   -2.0506   -3.2926   -1.1496 H   0  0  0  0  0  0  0  0  0  0  0  0
   -1.4317   -2.0481    0.4864 C   0  0  0  0  0  0  0  0  0  0  0  0
   -0.9695   -2.3012    1.5912 O   0  0  0  0  0  0  0  0  0  0  0  0
   -1.2074   -0.8107   -0.0780 N   0  0  0  0  0  0  0  0  0  0  0  0
   -1.7216   -0.6505   -0.9365 H   0  0  0  0  0  0  0  0  0  0  0  0
    0.1427   -0.2362   -0.0768 C   0  0  1  0  0  0  0  0  0  0  0  0
    0.8108   -0.7845    0.5972 H   0  0  0  0  0  0  0  0  0  0  0  0
    0.6781   -0.3038   -1.5252 C   0  0  0  0  0  0  0  0  0  0  0  0
   -0.0791    0.0833   -2.2130 H   0  0  0  0  0  0  0  0  0  0  0  0
    1.5548    0.3439   -1.6105 H   0  0  0  0  0  0  0  0  0  0  0  0
    1.1101   -1.6869   -2.0019 C   0  0  0  0  0  0  0  0  0  0  0  0
    1.2655   -1.8164   -3.2396 O   0  5  0  0  0  0  0  0  0  0  0  0
    1.2692   -2.6067   -1.1656 O   0  0  0  0  0  0  0  0  0  0  0  0
    0.1213    1.2483    0.3450 C   0  0  0  0  0  0  0  0  0  0  0  0
   -0.7030    2.0382   -0.1101 O   0  0  0  0  0  0  0  0  0  0  0  0
    1.0574    1.7059    1.2546 N   0  0  0  0  0  0  0  0  0  0  0  0
    1.6944    1.0149    1.6409 H   0  0  0  0  0  0  0  0  0  0  0  0
    1.1076    3.0745    1.7455 C   0  0  0  0  0  0  0  0  0  0  0  0
    0.1756    3.3306    2.2594 H   0  0  0  0  0  0  0  0  0  0  0  0
    1.9357    3.1898    2.4510 H   0  0  0  0  0  0  0  0  0  0  0  0
    1.2598    3.7727    0.9161 H   0  0  0  0  0  0  0  0  0  0  0  0
  1  2  1  0  0  0  0
  2  3  1  0  0  0  0
  2  4  1  0  0  0  0
  2  5  1  0  0  0  0
  5  6  2  0  0  0  0
  5  7  1  0  0  0  0
  7  8  1  0  0  0  0
  7  9  1  0  0  0  0
  9 10  1  0  0  0  0
  9 11  1  0  0  0  0
  9 17  1  0  0  0  0
 11 12  1  0  0  0  0
 11 13  1  0  0  0  0
 11 14  1  0  0  0  0
 14 15  1  0  0  0  0
 14 16  2  0  0  0  0
 17 18  2  0  0  0  0
 17 19  1  0  0  0  0
 19 20  1  0  0  0  0
 19 21  1  0  0  0  0
 21 22  1  0  0  0  0
 21 23  1  0  0  0  0
 21 24  1  0  0  0  0
M  CHG  1  15  -1
M  END
$$$$

  -OEChem-03222214023D

 24 23  0     1  0  0  0  0  0999 V2000
   -2.5971   -3.8960    0.5038 H   0  0  0  0  0  0  0  0  0  0  0  0
   -2.5121   -2.9850   -0.0942 C   0  0  0  0  0  0  0  0  0  0  0  0
   -3.4801   -2.4795   -0.1152 H   0  0  0  0  0  0  0  0  0  0  0  0
   -2.2286   -3.2623   -1.1132 H   0  0  0  0  0  0  0  0  0  0  0  0
   -1.4548   -2.0683    0.4953 C   0  0  0  0  0  0  0  0  0  0  0  0
   -0.9481   -2.3351    1.5792 O   0  0  0  0  0  0  0  0  0  0  0  0
   -1.2196   -0.8357   -0.0786 N   0  0  0  0  0  0  0  0  0  0  0  0
   -1.7291   -0.6933   -0.9431 H   0  0  0  0  0  0  0  0  0  0  0  0
    0.1338   -0.2650   -0.0850 C   0  0  1  0  0  0  0  0  0  0  0  0
    0.7884   -0.8182    0.5966 H   0  0  0  0  0  0  0  0  0  0  0  0
    0.7362   -0.3145   -1.5124 C   0  0  0  0  0  0  0  0  0  0  0  0
    0.1150    0.2946   -2.1754 H   0  0  0  0  0  0  0  0  0  0  0  0
    1.7276    0.1457   -1.4824 H   0  0  0  0  0  0  0  0  0  0  0  0
    0.9001   -1.6778   -2.1833 C   0  0  0  0  0  0  0  0  0  0  0  0
    1.3927   -1.6530   -3.3362 O   0  5  0  0  0  0  0  0  0  0  0  0
    0.5195   -2.7199   -1.6005 O   0  0  0  0  0  0  0  0  0  0  0  0
    0.1099    1.2235    0.3277 C   0  0  0  0  0  0  0  0  0  0  0  0
   -0.7187    2.0102   -0.1247 O   0  0  0  0  0  0  0  0  0  0  0  0
    1.0468    1.6884    1.2334 N   0  0  0  0  0  0  0  0  0  0  0  0
    1.6796    1.0005    1.6307 H   0  0  0  0  0  0  0  0  0  0  0  0
    1.0957    3.0609    1.7144 C   0  0  0  0  0  0  0  0  0  0  0  0
    0.1700    3.3145    2.2406 H   0  0  0  0  0  0  0  0  0  0  0  0
    1.9341    3.1867    2.4058 H   0  0  0  0  0  0  0  0  0  0  0  0
    1.2302    3.7546    0.8782 H   0  0  0  0  0  0  0  0  0  0  0  0
  1  2  1  0  0  0  0
  2  3  1  0  0  0  0
  2  4  1  0  0  0  0
  2  5  1  0  0  0  0
  5  6  2  0  0  0  0
  5  7  1  0  0  0  0
  7  8  1  0  0  0  0
  7  9  1  0  0  0  0
  9 10  1  0  0  0  0
  9 11  1  0  0  0  0
  9 17  1  0  0  0  0
 11 12  1  0  0  0  0
 11 13  1  0  0  0  0
 11 14  1  0  0  0  0
 14 15  1  0  0  0  0
 14 16  2  0  0  0  0
 17 18  2  0  0  0  0
 17 19  1  0  0  0  0
 19 20  1  0  0  0  0
 19 21  1  0  0  0  0
 21 22  1  0  0  0  0
 21 23  1  0  0  0  0
 21 24  1  0  0  0  0
M  CHG  1  15  -1
M  END
$$$$

  -OEChem-03222214023D

 24 23  0     1  0  0  0  0  0999 V2000
   -2.6112   -3.8925    0.5186 H   0  0  0  0  0  0  0  0  0  0  0  0
   -2.5545   -2.9640   -0.0555 C   0  0  0  0  0  0  0  0  0  0  0  0
   -3.5143   -2.4466    0.0061 H   0  0  0  0  0  0  0  0  0  0  0  0
   -2.3466   -3.2121   -1.0998 H   0  0  0  0  0  0  0  0  0  0  0  0
   -1.4470   -2.0787    0.4886 C   0  0  0  0  0  0  0  0  0  0  0  0
   -0.8988   -2.3693    1.5461 O   0  0  0  0  0  0  0  0  0  0  0  0
   -1.2089   -0.8470   -0.0868 N   0  0  0  0  0  0  0  0  0  0  0  0
   -1.7136   -0.7146   -0.9561 H   0  0  0  0  0  0  0  0  0  0  0  0
    0.1440   -0.2755   -0.0940 C   0  0  1  0  0  0  0  0  0  0  0  0
    0.7976   -0.8235    0.5923 H   0  0  0  0  0  0  0  0  0  0  0  0
    0.7651   -0.3165   -1.5145 C   0  0  0  0  0  0  0  0  0  0  0  0
    0.1537    0.2954   -2.1836 H   0  0  0  0  0  0  0  0  0  0  0  0
    1.7539    0.1481   -1.4634 H   0  0  0  0  0  0  0  0  0  0  0  0
    0.9451   -1.6723   -2.1976 C   0  0  0  0  0  0  0  0  0  0  0  0
    1.7066   -1.6725   -3.1941 O   0  5  0  0  0  0  0  0  0  0  0  0
    0.2753   -2.6633   -1.8212 O   0  0  0  0  0  0  0  0  0  0  0  0
    0.1102    1.2136    0.3171 C   0  0  0  0  0  0  0  0  0  0  0  0
   -0.7249    1.9946   -0.1334 O   0  0  0  0  0  0  0  0  0  0  0  0
    1.0430    1.6845    1.2241 N   0  0  0  0  0  0  0  0  0  0  0  0
    1.6850    1.0022    1.6163 H   0  0  0  0  0  0  0  0  0  0  0  0
    1.0745    3.0543    1.7143 C   0  0  0  0  0  0  0  0  0  0  0  0
    0.1376    3.2991    2.2249 H   0  0  0  0  0  0  0  0  0  0  0  0
    1.8987    3.1803    2.4224 H   0  0  0  0  0  0  0  0  0  0  0  0
    1.2206    3.7541    0.8850 H   0  0  0  0  0  0  0  0  0  0  0  0
  1  2  1  0  0  0  0
  2  3  1  0  0  0  0
  2  4  1  0  0  0  0
  2  5  1  0  0  0  0
  5  6  2  0  0  0  0
  5  7  1  0  0  0  0
  7  8  1  0  0  0  0
  7  9  1  0  0  0  0
  9 10  1  0  0  0  0
  9 11  1  0  0  0  0
  9 17  1  0  0  0  0
 11 12  1  0  0  0  0
 11 13  1  0  0  0  0
 11 14  1  0  0  0  0
 14 15  1  0  0  0  0
 14 16  2  0  0  0  0
 17 18  2  0  0  0  0
 17 19  1  0  0  0  0
 19 20  1  0  0  0  0
 19 21  1  0  0  0  0
 21 22  1  0  0  0  0
 21 23  1  0  0  0  0
 21 24  1  0  0  0  0
M  CHG  1  15  -1
M  END
$$$$

  -OEChem-03222214023D

 24 23  0     1  0  0  0  0  0999 V2000
   -2.6303   -3.8872    0.5263 H   0  0  0  0  0  0  0  0  0  0  0  0
   -2.5741   -2.9558   -0.0431 C   0  0  0  0  0  0  0  0  0  0  0  0
   -3.5209   -2.4200    0.0548 H   0  0  0  0  0  0  0  0  0  0  0  0
   -2.4076   -3.2000   -1.0959 H   0  0  0  0  0  0  0  0  0  0  0  0
   -1.4333   -2.0950    0.4713 C   0  0  0  0  0  0  0  0  0  0  0  0
   -0.8483   -2.4141    1.5005 O   0  0  0  0  0  0  0  0  0  0  0  0
   -1.1998   -0.8584   -0.0952 N   0  0  0  0  0  0  0  0  0  0  0  0
   -1.7006   -0.7312   -0.9686 H   0  0  0  0  0  0  0  0  0  0  0  0
    0.1486   -0.2771   -0.0977 C   0  0  1  0  0  0  0  0  0  0  0  0
    0.8054   -0.8213    0.5885 H   0  0  0  0  0  0  0  0  0  0  0  0
    0.7748   -0.3094   -1.5150 C   0  0  0  0  0  0  0  0  0  0  0  0
    0.1636    0.2968   -2.1893 H   0  0  0  0  0  0  0  0  0  0  0  0
    1.7602    0.1624   -1.4596 H   0  0  0  0  0  0  0  0  0  0  0  0
    0.9584   -1.6710   -2.1842 C   0  0  0  0  0  0  0  0  0  0  0  0
    1.9254   -1.7618   -2.9780 O   0  5  0  0  0  0  0  0  0  0  0  0
    0.0736   -2.5505   -2.0443 O   0  0  0  0  0  0  0  0  0  0  0  0
    0.1048    1.2092    0.3219 C   0  0  0  0  0  0  0  0  0  0  0  0
   -0.7349    1.9873   -0.1246 O   0  0  0  0  0  0  0  0  0  0  0  0
    1.0334    1.6817    1.2321 N   0  0  0  0  0  0  0  0  0  0  0  0
    1.6920    1.0064    1.6083 H   0  0  0  0  0  0  0  0  0  0  0  0
    1.0669    3.0541    1.7148 C   0  0  0  0  0  0  0  0  0  0  0  0
    0.1308    3.3027    2.2251 H   0  0  0  0  0  0  0  0  0  0  0  0
    1.8921    3.1839    2.4211 H   0  0  0  0  0  0  0  0  0  0  0  0
    1.2123    3.7487    0.8812 H   0  0  0  0  0  0  0  0  0  0  0  0
  1  2  1  0  0  0  0
  2  3  1  0  0  0  0
  2  4  1  0  0  0  0
  2  5  1  0  0  0  0
  5  6  2  0  0  0  0
  5  7  1  0  0  0  0
  7  8  1  0  0  0  0
  7  9  1  0  0  0  0
  9 10  1  0  0  0  0
  9 11  1  0  0  0  0
  9 17  1  0  0  0  0
 11 12  1  0  0  0  0
 11 13  1  0  0  0  0
 11 14  1  0  0  0  0
 14 15  1  0  0  0  0
 14 16  2  0  0  0  0
 17 18  2  0  0  0  0
 17 19  1  0  0  0  0
 19 20  1  0  0  0  0
 19 21  1  0  0  0  0
 21 22  1  0  0  0  0
 21 23  1  0  0  0  0
 21 24  1  0  0  0  0
M  CHG  1  15  -1
M  END
$$$$

  -OEChem-03222214023D

 24 23  0     1  0  0  0  0  0999 V2000
   -2.6080   -3.8971    0.5022 H   0  0  0  0  0  0  0  0  0  0  0  0
   -2.5678   -2.9553   -0.0513 C   0  0  0  0  0  0  0  0  0  0  0  0
   -3.5145   -2.4256    0.0760 H   0  0  0  0  0  0  0  0  0  0  0  0
   -2.4234   -3.1801   -1.1113 H   0  0  0  0  0  0  0  0  0  0  0  0
   -1.4196   -2.0989    0.4538 C   0  0  0  0  0  0  0  0  0  0  0  0
   -0.8127   -2.4346    1.4644 O   0  0  0  0  0  0  0  0  0  0  0  0
   -1.1929   -0.8581   -0.1057 N   0  0  0  0  0  0  0  0  0  0  0  0
   -1.6882   -0.7369   -0.9840 H   0  0  0  0  0  0  0  0  0  0  0  0
    0.1508   -0.2667   -0.1033 C   0  0  1  0  0  0  0  0  0  0  0  0
    0.8125   -0.8084    0.5802 H   0  0  0  0  0  0  0  0  0  0  0  0
    0.7671   -0.3030   -1.5221 C   0  0  0  0  0  0  0  0  0  0  0  0
    0.1484    0.2902   -2.2011 H   0  0  0  0  0  0  0  0  0  0  0  0
    1.7515    0.1729   -1.4828 H   0  0  0  0  0  0  0  0  0  0  0  0
    0.9374   -1.6834   -2.1517 C   0  0  0  0  0  0  0  0  0  0  0  0
    2.0356   -1.9110   -2.7136 O   0  5  0  0  0  0  0  0  0  0  0  0
   -0.0688   -2.4330   -2.2259 O   0  0  0  0  0  0  0  0  0  0  0  0
    0.1034    1.2177    0.3220 C   0  0  0  0  0  0  0  0  0  0  0  0
   -0.7369    1.9967   -0.1218 O   0  0  0  0  0  0  0  0  0  0  0  0
    1.0316    1.6871    1.2344 N   0  0  0  0  0  0  0  0  0  0  0  0
    1.6940    1.0115    1.6035 H   0  0  0  0  0  0  0  0  0  0  0  0
    1.0653    3.0571    1.7236 C   0  0  0  0  0  0  0  0  0  0  0  0
    0.1267    3.3055    2.2291 H   0  0  0  0  0  0  0  0  0  0  0  0
    1.8859    3.1806    2.4364 H   0  0  0  0  0  0  0  0  0  0  0  0
    1.2180    3.7555    0.8946 H   0  0  0  0  0  0  0  0  0  0  0  0
  1  2  1  0  0  0  0
  2  3  1  0  0  0  0
  2  4  1  0  0  0  0
  2  5  1  0  0  0  0
  5  6  2  0  0  0  0
  5  7  1  0  0  0  0
  7  8  1  0  0  0  0
  7  9  1  0  0  0  0
  9 10  1  0  0  0  0
  9 11  1  0  0  0  0
  9 17  1  0  0  0  0
 11 12  1  0  0  0  0
 11 13  1  0  0  0  0
 11 14  1  0  0  0  0
 14 15  1  0  0  0  0
 14 16  2  0  0  0  0
 17 18  2  0  0  0  0
 17 19  1  0  0  0  0
 19 20  1  0  0  0  0
 19 21  1  0  0  0  0
 21 22  1  0  0  0  0
 21 23  1  0  0  0  0
 21 24  1  0  0  0  0
M  CHG  1  15  -1
M  END
$$$$

  -OEChem-03222214023D

 24 23  0     1  0  0  0  0  0999 V2000
   -2.5942   -3.8976    0.4860 H   0  0  0  0  0  0  0  0  0  0  0  0
   -2.5474   -2.9597   -0.0737 C   0  0  0  0  0  0  0  0  0  0  0  0
   -3.4957   -2.4295    0.0388 H   0  0  0  0  0  0  0  0  0  0  0  0
   -2.3907   -3.1911   -1.1307 H   0  0  0  0  0  0  0  0  0  0  0  0
   -1.4061   -2.0990    0.4393 C   0  0  0  0  0  0  0  0  0  0  0  0
   -0.7917   -2.4418    1.4426 O   0  0  0  0  0  0  0  0  0  0  0  0
   -1.1851   -0.8543   -0.1132 N   0  0  0  0  0  0  0  0  0  0  0  0
   -1.6792   -0.7331   -0.9931 H   0  0  0  0  0  0  0  0  0  0  0  0
    0.1550   -0.2547   -0.1072 C   0  0  1  0  0  0  0  0  0  0  0  0
    0.8233   -0.7976    0.5691 H   0  0  0  0  0  0  0  0  0  0  0  0
    0.7486   -0.2954   -1.5323 C   0  0  0  0  0  0  0  0  0  0  0  0
    0.1188    0.2883   -2.2096 H   0  0  0  0  0  0  0  0  0  0  0  0
    1.7350    0.1775   -1.5176 H   0  0  0  0  0  0  0  0  0  0  0  0
    0.8963   -1.6927   -2.1222 C   0  0  0  0  0  0  0  0  0  0  0  0
    2.0517   -2.0650   -2.4380 O   0  5  0  0  0  0  0  0  0  0  0  0
   -0.1578   -2.3285   -2.3805 O   0  0  0  0  0  0  0  0  0  0  0  0
    0.1086    1.2278    0.3239 C   0  0  0  0  0  0  0  0  0  0  0  0
   -0.7311    2.0086   -0.1175 O   0  0  0  0  0  0  0  0  0  0  0  0
    1.0377    1.6940    1.2370 N   0  0  0  0  0  0  0  0  0  0  0  0
    1.6994    1.0168    1.6047 H   0  0  0  0  0  0  0  0  0  0  0  0
    1.0680    3.0609    1.7349 C   0  0  0  0  0  0  0  0  0  0  0  0
    0.1267    3.3055    2.2377 H   0  0  0  0  0  0  0  0  0  0  0  0
    1.8851    3.1811    2.4523 H   0  0  0  0  0  0  0  0  0  0  0  0
    1.2241    3.7645    0.9109 H   0  0  0  0  0  0  0  0  0  0  0  0
  1  2  1  0  0  0  0
  2  3  1  0  0  0  0
  2  4  1  0  0  0  0
  2  5  1  0  0  0  0
  5  6  2  0  0  0  0
  5  7  1  0  0  0  0
  7  8  1  0  0  0  0
  7  9  1  0  0  0  0
  9 10  1  0  0  0  0
  9 11  1  0  0  0  0
  9 17  1  0  0  0  0
 11 12  1  0  0  0  0
 11 13  1  0  0  0  0
 11 14  1  0  0  0  0
 14 15  1  0  0  0  0
 14 16  2  0  0  0  0
 17 18  2  0  0  0  0
 17 19  1  0  0  0  0
 19 20  1  0  0  0  0
 19 21  1  0  0  0  0
 21 22  1  0  0  0  0
 21 23  1  0  0  0  0
 21 24  1  0  0  0  0
M  CHG  1  15  -1
M  END
$$$$

  -OEChem-03222214023D

 24 23  0     1  0  0  0  0  0999 V2000
   -2.5750   -3.9046    0.4581 H   0  0  0  0  0  0  0  0  0  0  0  0
   -2.5234   -2.9681   -0.1034 C   0  0  0  0  0  0  0  0  0  0  0  0
   -3.4771   -2.4437   -0.0102 H   0  0  0  0  0  0  0  0  0  0  0  0
   -2.3454   -3.2013   -1.1567 H   0  0  0  0  0  0  0  0  0  0  0  0
   -1.3966   -2.0993    0.4272 C   0  0  0  0  0  0  0  0  0  0  0  0
   -0.7860   -2.4433    1.4317 O   0  0  0  0  0  0  0  0  0  0  0  0
   -1.1799   -0.8511   -0.1182 N   0  0  0  0  0  0  0  0  0  0  0  0
   -1.6763   -0.7244   -0.9964 H   0  0  0  0  0  0  0  0  0  0  0  0
    0.1570   -0.2437   -0.1088 C   0  0  1  0  0  0  0  0  0  0  0  0
    0.8313   -0.7890    0.5601 H   0  0  0  0  0  0  0  0  0  0  0  0
    0.7288   -0.2865   -1.5396 C   0  0  0  0  0  0  0  0  0  0  0  0
    0.0900    0.2921   -2.2130 H   0  0  0  0  0  0  0  0  0  0  0  0
    1.7178    0.1806   -1.5464 H   0  0  0  0  0  0  0  0  0  0  0  0
    0.8588   -1.6960   -2.0974 C   0  0  0  0  0  0  0  0  0  0  0  0
    2.0065   -2.1978   -2.1573 O   0  5  0  0  0  0  0  0  0  0  0  0
   -0.1927   -2.2460   -2.5156 O   0  0  0  0  0  0  0  0  0  0  0  0
    0.1116    1.2367    0.3284 C   0  0  0  0  0  0  0  0  0  0  0  0
   -0.7298    2.0186   -0.1077 O   0  0  0  0  0  0  0  0  0  0  0  0
    1.0418    1.6997    1.2418 N   0  0  0  0  0  0  0  0  0  0  0  0
    1.7080    1.0223    1.6013 H   0  0  0  0  0  0  0  0  0  0  0  0
    1.0751    3.0661    1.7410 C   0  0  0  0  0  0  0  0  0  0  0  0
    0.1360    3.3109    2.2475 H   0  0  0  0  0  0  0  0  0  0  0  0
    1.8952    3.1845    2.4552 H   0  0  0  0  0  0  0  0  0  0  0  0
    1.2286    3.7703    0.9171 H   0  0  0  0  0  0  0  0  0  0  0  0
  1  2  1  0  0  0  0
  2  3  1  0  0  0  0
  2  4  1  0  0  0  0
  2  5  1  0  0  0  0
  5  6  2  0  0  0  0
  5  7  1  0  0  0  0
  7  8  1  0  0  0  0
  7  9  1  0  0  0  0
  9 10  1  0  0  0  0
  9 11  1  0  0  0  0
  9 17  1  0  0  0  0
 11 12  1  0  0  0  0
 11 13  1  0  0  0  0
 11 14  1  0  0  0  0
 14 15  1  0  0  0  0
 14 16  2  0  0  0  0
 17 18  2  0  0  0  0
 17 19  1  0  0  0  0
 19 20  1  0  0  0  0
 19 21  1  0  0  0  0
 21 22  1  0  0  0  0
 21 23  1  0  0  0  0
 21 24  1  0  0  0  0
M  CHG  1  15  -1
M  END
$$$$

  -OEChem-03222214023D

 24 23  0     1  0  0  0  0  0999 V2000
   -2.5524   -3.9100    0.4334 H   0  0  0  0  0  0  0  0  0  0  0  0
   -2.4901   -2.9793   -0.1366 C   0  0  0  0  0  0  0  0  0  0  0  0
   -3.4513   -2.4631   -0.0821 H   0  0  0  0  0  0  0  0  0  0  0  0
   -2.2736   -3.2224   -1.1806 H   0  0  0  0  0  0  0  0  0  0  0  0
   -1.3902   -2.0939    0.4215 C   0  0  0  0  0  0  0  0  0  0  0  0
   -0.7963   -2.4290    1.4385 O   0  0  0  0  0  0  0  0  0  0  0  0
   -1.1783   -0.8436   -0.1202 N   0  0  0  0  0  0  0  0  0  0  0  0
   -1.6772   -0.7123   -0.9965 H   0  0  0  0  0  0  0  0  0  0  0  0
    0.1566   -0.2314   -0.1099 C   0  0  1  0  0  0  0  0  0  0  0  0
    0.8359   -0.7798    0.5519 H   0  0  0  0  0  0  0  0  0  0  0  0
    0.7071   -0.2803   -1.5471 C   0  0  0  0  0  0  0  0  0  0  0  0
    0.0598    0.2942   -2.2163 H   0  0  0  0  0  0  0  0  0  0  0  0
    1.6987    0.1801   -1.5742 H   0  0  0  0  0  0  0  0  0  0  0  0
    0.8211   -1.6999   -2.0772 C   0  0  0  0  0  0  0  0  0  0  0  0
    1.8971   -2.3138   -1.8853 O   0  5  0  0  0  0  0  0  0  0  0  0
   -0.1943   -2.1785   -2.6446 O   0  0  0  0  0  0  0  0  0  0  0  0
    0.1159    1.2476    0.3303 C   0  0  0  0  0  0  0  0  0  0  0  0
   -0.7221    2.0336   -0.1051 O   0  0  0  0  0  0  0  0  0  0  0  0
    1.0498    1.7052    1.2425 N   0  0  0  0  0  0  0  0  0  0  0  0
    1.7058    1.0212    1.6083 H   0  0  0  0  0  0  0  0  0  0  0  0
    1.0875    3.0695    1.7466 C   0  0  0  0  0  0  0  0  0  0  0  0
    0.1504    3.3145    2.2568 H   0  0  0  0  0  0  0  0  0  0  0  0
    1.9101    3.1836    2.4587 H   0  0  0  0  0  0  0  0  0  0  0  0
    1.2401    3.7763    0.9247 H   0  0  0  0  0  0  0  0  0  0  0  0
  1  2  1  0  0  0  0
  2  3  1  0  0  0  0
  2  4  1  0  0  0  0
  2  5  1  0  0  0  0
  5  6  2  0  0  0  0
  5  7  1  0  0  0  0
  7  8  1  0  0  0  0
  7  9  1  0  0  0  0
  9 10  1  0  0  0  0
  9 11  1  0  0  0  0
  9 17  1  0  0  0  0
 11 12  1  0  0  0  0
 11 13  1  0  0  0  0
 11 14  1  0  0  0  0
 14 15  1  0  0  0  0
 14 16  2  0  0  0  0
 17 18  2  0  0  0  0
 17 19  1  0  0  0  0
 19 20  1  0  0  0  0
 19 21  1  0  0  0  0
 21 22  1  0  0  0  0
 21 23  1  0  0  0  0
 21 24  1  0  0  0  0
M  CHG  1  15  -1
M  END
$$$$

  -OEChem-03222214023D

 24 23  0     1  0  0  0  0  0999 V2000
   -2.5058   -3.9262    0.3992 H   0  0  0  0  0  0  0  0  0  0  0  0
   -2.4417   -2.9990   -0.1763 C   0  0  0  0  0  0  0  0  0  0  0  0
   -3.4191   -2.5115   -0.1773 H   0  0  0  0  0  0  0  0  0  0  0  0
   -2.1631   -3.2442   -1.2051 H   0  0  0  0  0  0  0  0  0  0  0  0
   -1.3990   -2.0766    0.4289 C   0  0  0  0  0  0  0  0  0  0  0  0
   -0.8467   -2.3833    1.4776 O   0  0  0  0  0  0  0  0  0  0  0  0
   -1.1910   -0.8275   -0.1167 N   0  0  0  0  0  0  0  0  0  0  0  0
   -1.6843   -0.7000   -0.9966 H   0  0  0  0  0  0  0  0  0  0  0  0
    0.1461   -0.2194   -0.1047 C   0  0  1  0  0  0  0  0  0  0  0  0
    0.8235   -0.7725    0.5555 H   0  0  0  0  0  0  0  0  0  0  0  0
    0.6832   -0.2795   -1.5460 C   0  0  0  0  0  0  0  0  0  0  0  0
    0.0363    0.2978   -2.2135 H   0  0  0  0  0  0  0  0  0  0  0  0
    1.6799    0.1685   -1.5834 H   0  0  0  0  0  0  0  0  0  0  0  0
    0.7814   -1.7061   -2.0587 C   0  0  0  0  0  0  0  0  0  0  0  0
    1.7198   -2.4193   -1.6326 O   0  5  0  0  0  0  0  0  0  0  0  0
   -0.1576   -2.1095   -2.7906 O   0  0  0  0  0  0  0  0  0  0  0  0
    0.1190    1.2606    0.3319 C   0  0  0  0  0  0  0  0  0  0  0  0
   -0.7063    2.0558   -0.1111 O   0  0  0  0  0  0  0  0  0  0  0  0
    1.0577    1.7095    1.2434 N   0  0  0  0  0  0  0  0  0  0  0  0
    1.6975    1.0152    1.6188 H   0  0  0  0  0  0  0  0  0  0  0  0
    1.1092    3.0729    1.7485 C   0  0  0  0  0  0  0  0  0  0  0  0
    0.1801    3.3220    2.2711 H   0  0  0  0  0  0  0  0  0  0  0  0
    1.9418    3.1815    2.4497 H   0  0  0  0  0  0  0  0  0  0  0  0
    1.2550    3.7803    0.9257 H   0  0  0  0  0  0  0  0  0  0  0  0
  1  2  1  0  0  0  0
  2  3  1  0  0  0  0
  2  4  1  0  0  0  0
  2  5  1  0  0  0  0
  5  6  2  0  0  0  0
  5  7  1  0  0  0  0
  7  8  1  0  0  0  0
  7  9  1  0  0  0  0
  9 10  1  0  0  0  0
  9 11  1  0  0  0  0
  9 17  1  0  0  0  0
 11 12  1  0  0  0  0
 11 13  1  0  0  0  0
 11 14  1  0  0  0  0
 14 15  1  0  0  0  0
 14 16  2  0  0  0  0
 17 18  2  0  0  0  0
 17 19  1  0  0  0  0
 19 20  1  0  0  0  0
 19 21  1  0  0  0  0
 21 22  1  0  0  0  0
 21 23  1  0  0  0  0
 21 24  1  0  0  0  0
M  CHG  1  15  -1
M  END
$$$$

  -OEChem-03222214023D

 24 23  0     1  0  0  0  0  0999 V2000
   -2.4811   -3.9296    0.3811 H   0  0  0  0  0  0  0  0  0  0  0  0
   -2.4007   -3.0095   -0.2034 C   0  0  0  0  0  0  0  0  0  0  0  0
   -3.3853   -2.5411   -0.2676 H   0  0  0  0  0  0  0  0  0  0  0  0
   -2.0584   -3.2628   -1.2111 H   0  0  0  0  0  0  0  0  0  0  0  0
   -1.4104   -2.0599    0.4454 C   0  0  0  0  0  0  0  0  0  0  0  0
   -0.9011   -2.3432    1.5220 O   0  0  0  0  0  0  0  0  0  0  0  0
   -1.2009   -0.8136   -0.1051 N   0  0  0  0  0  0  0  0  0  0  0  0
   -1.6956   -0.6824   -0.9829 H   0  0  0  0  0  0  0  0  0  0  0  0
    0.1394   -0.2143   -0.0967 C   0  0  1  0  0  0  0  0  0  0  0  0
    0.8130   -0.7699    0.5654 H   0  0  0  0  0  0  0  0  0  0  0  0
    0.6664   -0.2881   -1.5419 C   0  0  0  0  0  0  0  0  0  0  0  0
    0.0204    0.2947   -2.2057 H   0  0  0  0  0  0  0  0  0  0  0  0
    1.6670    0.1495   -1.5859 H   0  0  0  0  0  0  0  0  0  0  0  0
    0.7543   -1.7170   -2.0547 C   0  0  0  0  0  0  0  0  0  0  0  0
    1.4966   -2.5174   -1.4393 O   0  5  0  0  0  0  0  0  0  0  0  0
   -0.0413   -2.0365   -2.9723 O   0  0  0  0  0  0  0  0  0  0  0  0
    0.1239    1.2669    0.3354 C   0  0  0  0  0  0  0  0  0  0  0  0
   -0.6975    2.0657   -0.1082 O   0  0  0  0  0  0  0  0  0  0  0  0
    1.0668    1.7130    1.2438 N   0  0  0  0  0  0  0  0  0  0  0  0
    1.6987    1.0148    1.6251 H   0  0  0  0  0  0  0  0  0  0  0  0
    1.1235    3.0764    1.7487 C   0  0  0  0  0  0  0  0  0  0  0  0
    0.1952    3.3294    2.2710 H   0  0  0  0  0  0  0  0  0  0  0  0
    1.9564    3.1818    2.4500 H   0  0  0  0  0  0  0  0  0  0  0  0
    1.2725    3.7831    0.9261 H   0  0  0  0  0  0  0  0  0  0  0  0
  1  2  1  0  0  0  0
  2  3  1  0  0  0  0
  2  4  1  0  0  0  0
  2  5  1  0  0  0  0
  5  6  2  0  0  0  0
  5  7  1  0  0  0  0
  7  8  1  0  0  0  0
  7  9  1  0  0  0  0
  9 10  1  0  0  0  0
  9 11  1  0  0  0  0
  9 17  1  0  0  0  0
 11 12  1  0  0  0  0
 11 13  1  0  0  0  0
 11 14  1  0  0  0  0
 14 15  1  0  0  0  0
 14 16  2  0  0  0  0
 17 18  2  0  0  0  0
 17 19  1  0  0  0  0
 19 20  1  0  0  0  0
 19 21  1  0  0  0  0
 21 22  1  0  0  0  0
 21 23  1  0  0  0  0
 21 24  1  0  0  0  0
M  CHG  1  15  -1
M  END
$$$$

  -OEChem-03222214023D

 24 23  0     1  0  0  0  0  0999 V2000
   -2.4788   -3.9298    0.3923 H   0  0  0  0  0  0  0  0  0  0  0  0
   -2.3895   -3.0174   -0.2030 C   0  0  0  0  0  0  0  0  0  0  0  0
   -3.3760   -2.5598   -0.3049 H   0  0  0  0  0  0  0  0  0  0  0  0
   -2.0119   -3.2819   -1.1951 H   0  0  0  0  0  0  0  0  0  0  0  0
   -1.4291   -2.0491    0.4626 C   0  0  0  0  0  0  0  0  0  0  0  0
   -0.9566   -2.3080    1.5621 O   0  0  0  0  0  0  0  0  0  0  0  0
   -1.2171   -0.8062   -0.0947 N   0  0  0  0  0  0  0  0  0  0  0  0
   -1.7135   -0.6705   -0.9699 H   0  0  0  0  0  0  0  0  0  0  0  0
    0.1277   -0.2176   -0.0871 C   0  0  1  0  0  0  0  0  0  0  0  0
    0.7937   -0.7751    0.5810 H   0  0  0  0  0  0  0  0  0  0  0  0
    0.6664   -0.2961   -1.5302 C   0  0  0  0  0  0  0  0  0  0  0  0
    0.0269    0.2949   -2.1932 H   0  0  0  0  0  0  0  0  0  0  0  0
    1.6683    0.1390   -1.5615 H   0  0  0  0  0  0  0  0  0  0  0  0
    0.7611   -1.7171   -2.0704 C   0  0  0  0  0  0  0  0  0  0  0  0
    1.2523   -2.6030   -1.3327 O   0  5  0  0  0  0  0  0  0  0  0  0
    0.2305   -1.9316   -3.1869 O   0  0  0  0  0  0  0  0  0  0  0  0
    0.1192    1.2654    0.3397 C   0  0  0  0  0  0  0  0  0  0  0  0
   -0.6952    2.0675   -0.1105 O   0  0  0  0  0  0  0  0  0  0  0  0
    1.0632    1.7088    1.2483 N   0  0  0  0  0  0  0  0  0  0  0  0
    1.6859    1.0069    1.6379 H   0  0  0  0  0  0  0  0  0  0  0  0
    1.1337    3.0756    1.7417 C   0  0  0  0  0  0  0  0  0  0  0  0
    0.2145    3.3373    2.2753 H   0  0  0  0  0  0  0  0  0  0  0  0
    1.9773    3.1828    2.4297 H   0  0  0  0  0  0  0  0  0  0  0  0
    1.2741    3.7751    0.9115 H   0  0  0  0  0  0  0  0  0  0  0  0
  1  2  1  0  0  0  0
  2  3  1  0  0  0  0
  2  4  1  0  0  0  0
  2  5  1  0  0  0  0
  5  6  2  0  0  0  0
  5  7  1  0  0  0  0
  7  8  1  0  0  0  0
  7  9  1  0  0  0  0
  9 10  1  0  0  0  0
  9 11  1  0  0  0  0
  9 17  1  0  0  0  0
 11 12  1  0  0  0  0
 11 13  1  0  0  0  0
 11 14  1  0  0  0  0
 14 15  1  0  0  0  0
 14 16  2  0  0  0  0
 17 18  2  0  0  0  0
 17 19  1  0  0  0  0
 19 20  1  0  0  0  0
 19 21  1  0  0  0  0
 21 22  1  0  0  0  0
 21 23  1  0  0  0  0
 21 24  1  0  0  0  0
M  CHG  1  15  -1
M  END
$$$$

  -OEChem-03222214023D

 24 23  0     1  0  0  0  0  0999 V2000
   -2.5227   -3.9099    0.4433 H   0  0  0  0  0  0  0  0  0  0  0  0
   -2.4136   -3.0119   -0.1705 C   0  0  0  0  0  0  0  0  0  0  0  0
   -3.3909   -2.5379   -0.2857 H   0  0  0  0  0  0  0  0  0  0  0  0
   -2.0372   -3.3044   -1.1550 H   0  0  0  0  0  0  0  0  0  0  0  0
   -1.4370   -2.0486    0.4792 C   0  0  0  0  0  0  0  0  0  0  0  0
   -0.9725   -2.2962    1.5853 O   0  0  0  0  0  0  0  0  0  0  0  0
   -1.2185   -0.8098   -0.0862 N   0  0  0  0  0  0  0  0  0  0  0  0
   -1.7215   -0.6691   -0.9559 H   0  0  0  0  0  0  0  0  0  0  0  0
    0.1308   -0.2311   -0.0858 C   0  0  1  0  0  0  0  0  0  0  0  0
    0.7931   -0.7887    0.5858 H   0  0  0  0  0  0  0  0  0  0  0  0
    0.6833   -0.3038   -1.5271 C   0  0  0  0  0  0  0  0  0  0  0  0
    0.0489    0.2971   -2.1859 H   0  0  0  0  0  0  0  0  0  0  0  0
    1.6847    0.1333   -1.5414 H   0  0  0  0  0  0  0  0  0  0  0  0
    0.7928   -1.7080   -2.1133 C   0  0  0  0  0  0  0  0  0  0  0  0
    1.0045   -2.6739   -1.3432 O   0  5  0  0  0  0  0  0  0  0  0  0
    0.5927   -1.8135   -3.3469 O   0  0  0  0  0  0  0  0  0  0  0  0
    0.1218    1.2542    0.3348 C   0  0  0  0  0  0  0  0  0  0  0  0
   -0.6976    2.0520   -0.1144 O   0  0  0  0  0  0  0  0  0  0  0  0
    1.0654    1.7043    1.2409 N   0  0  0  0  0  0  0  0  0  0  0  0
    1.6878    1.0057    1.6366 H   0  0  0  0  0  0  0  0  0  0  0  0
    1.1211    3.0704    1.7390 C   0  0  0  0  0  0  0  0  0  0  0  0
    0.1966    3.3220    2.2686 H   0  0  0  0  0  0  0  0  0  0  0  0
    1.9600    3.1832    2.4322 H   0  0  0  0  0  0  0  0  0  0  0  0
    1.2594    3.7738    0.9116 H   0  0  0  0  0  0  0  0  0  0  0  0
  1  2  1  0  0  0  0
  2  3  1  0  0  0  0
  2  4  1  0  0  0  0
  2  5  1  0  0  0  0
  5  6  2  0  0  0  0
  5  7  1  0  0  0  0
  7  8  1  0  0  0  0
  7  9  1  0  0  0  0
  9 10  1  0  0  0  0
  9 11  1  0  0  0  0
  9 17  1  0  0  0  0
 11 12  1  0  0  0  0
 11 13  1  0  0  0  0
 11 14  1  0  0  0  0
 14 15  1  0  0  0  0
 14 16  2  0  0  0  0
 17 18  2  0  0  0  0
 17 19  1  0  0  0  0
 19 20  1  0  0  0  0
 19 21  1  0  0  0  0
 21 22  1  0  0  0  0
 21 23  1  0  0  0  0
 21 24  1  0  0  0  0
M  CHG  1  15  -1
M  END
$$$$

  -OEChem-03222214023D

 24 23  0     1  0  0  0  0  0999 V2000
   -2.5480   -3.9054    0.4718 H   0  0  0  0  0  0  0  0  0  0  0  0
   -2.4575   -2.9991   -0.1327 C   0  0  0  0  0  0  0  0  0  0  0  0
   -3.4344   -2.5154   -0.1997 H   0  0  0  0  0  0  0  0  0  0  0  0
   -2.1250   -3.2801   -1.1359 H   0  0  0  0  0  0  0  0  0  0  0  0
   -1.4462   -2.0537    0.4897 C   0  0  0  0  0  0  0  0  0  0  0  0
   -0.9701   -2.3019    1.5911 O   0  0  0  0  0  0  0  0  0  0  0  0
   -1.2188   -0.8196   -0.0826 N   0  0  0  0  0  0  0  0  0  0  0  0
   -1.7263   -0.6771   -0.9485 H   0  0  0  0  0  0  0  0  0  0  0  0
    0.1331   -0.2463   -0.0869 C   0  0  1  0  0  0  0  0  0  0  0  0
    0.7911   -0.8015    0.5905 H   0  0  0  0  0  0  0  0  0  0  0  0
    0.7106   -0.3108   -1.5217 C   0  0  0  0  0  0  0  0  0  0  0  0
    0.0807    0.2928   -2.1820 H   0  0  0  0  0  0  0  0  0  0  0  0
    1.7076    0.1370   -1.5138 H   0  0  0  0  0  0  0  0  0  0  0  0
    0.8469   -1.6952   -2.1514 C   0  0  0  0  0  0  0  0  0  0  0  0
    0.7717   -2.7173   -1.4301 O   0  5  0  0  0  0  0  0  0  0  0  0
    0.9934   -1.7163   -3.3966 O   0  0  0  0  0  0  0  0  0  0  0  0
    0.1187    1.2413    0.3269 C   0  0  0  0  0  0  0  0  0  0  0  0
   -0.7060    2.0336   -0.1228 O   0  0  0  0  0  0  0  0  0  0  0  0
    1.0602    1.6981    1.2318 N   0  0  0  0  0  0  0  0  0  0  0  0
    1.6839    1.0029    1.6310 H   0  0  0  0  0  0  0  0  0  0  0  0
    1.1060    3.0638    1.7316 C   0  0  0  0  0  0  0  0  0  0  0  0
    0.1787    3.3089    2.2592 H   0  0  0  0  0  0  0  0  0  0  0  0
    1.9423    3.1809    2.4271 H   0  0  0  0  0  0  0  0  0  0  0  0
    1.2421    3.7687    0.9052 H   0  0  0  0  0  0  0  0  0  0  0  0
  1  2  1  0  0  0  0
  2  3  1  0  0  0  0
  2  4  1  0  0  0  0
  2  5  1  0  0  0  0
  5  6  2  0  0  0  0
  5  7  1  0  0  0  0
  7  8  1  0  0  0  0
  7  9  1  0  0  0  0
  9 10  1  0  0  0  0
  9 11  1  0  0  0  0
  9 17  1  0  0  0  0
 11 12  1  0  0  0  0
 11 13  1  0  0  0  0
 11 14  1  0  0  0  0
 14 15  1  0  0  0  0
 14 16  2  0  0  0  0
 17 18  2  0  0  0  0
 17 19  1  0  0  0  0
 19 20  1  0  0  0  0
 19 21  1  0  0  0  0
 21 22  1  0  0  0  0
 21 23  1  0  0  0  0
 21 24  1  0  0  0  0
M  CHG  1  15  -1
M  END
$$$$

  -OEChem-03222214023D

 24 23  0     1  0  0  0  0  0999 V2000
   -2.6035   -3.8868    0.5106 H   0  0  0  0  0  0  0  0  0  0  0  0
   -2.5045   -2.9846   -0.0986 C   0  0  0  0  0  0  0  0  0  0  0  0
   -3.4691   -2.4739   -0.1402 H   0  0  0  0  0  0  0  0  0  0  0  0
   -2.2085   -3.2771   -1.1098 H   0  0  0  0  0  0  0  0  0  0  0  0
   -1.4499   -2.0663    0.4934 C   0  0  0  0  0  0  0  0  0  0  0  0
   -0.9444   -2.3323    1.5780 O   0  0  0  0  0  0  0  0  0  0  0  0
   -1.2155   -0.8335   -0.0801 N   0  0  0  0  0  0  0  0  0  0  0  0
   -1.7260   -0.6898   -0.9438 H   0  0  0  0  0  0  0  0  0  0  0  0
    0.1378   -0.2627   -0.0876 C   0  0  1  0  0  0  0  0  0  0  0  0
    0.7936   -0.8165    0.5926 H   0  0  0  0  0  0  0  0  0  0  0  0
    0.7362   -0.3124   -1.5165 C   0  0  0  0  0  0  0  0  0  0  0  0
    0.1101    0.2949   -2.1764 H   0  0  0  0  0  0  0  0  0  0  0  0
    1.7284    0.1463   -1.4872 H   0  0  0  0  0  0  0  0  0  0  0  0
    0.8960   -1.6779   -2.1836 C   0  0  0  0  0  0  0  0  0  0  0  0
    0.5490   -2.7209   -1.5817 O   0  5  0  0  0  0  0  0  0  0  0  0
    1.3561   -1.6551   -3.3498 O   0  0  0  0  0  0  0  0  0  0  0  0
    0.1148    1.2256    0.3257 C   0  0  0  0  0  0  0  0  0  0  0  0
   -0.7148    2.0123   -0.1250 O   0  0  0  0  0  0  0  0  0  0  0  0
    1.0526    1.6900    1.2306 N   0  0  0  0  0  0  0  0  0  0  0  0
    1.6820    1.0003    1.6302 H   0  0  0  0  0  0  0  0  0  0  0  0
    1.0937    3.0592    1.7215 C   0  0  0  0  0  0  0  0  0  0  0  0
    0.1643    3.3055    2.2449 H   0  0  0  0  0  0  0  0  0  0  0  0
    1.9279    3.1826    2.4183 H   0  0  0  0  0  0  0  0  0  0  0  0
    1.2300    3.7596    0.8912 H   0  0  0  0  0  0  0  0  0  0  0  0
  1  2  1  0  0  0  0
  2  3  1  0  0  0  0
  2  4  1  0  0  0  0
  2  5  1  0  0  0  0
  5  6  2  0  0  0  0
  5  7  1  0  0  0  0
  7  8  1  0  0  0  0
  7  9  1  0  0  0  0
  9 10  1  0  0  0  0
  9 11  1  0  0  0  0
  9 17  1  0  0  0  0
 11 12  1  0  0  0  0
 11 13  1  0  0  0  0
 11 14  1  0  0  0  0
 14 15  1  0  0  0  0
 14 16  2  0  0  0  0
 17 18  2  0  0  0  0
 17 19  1  0  0  0  0
 19 20  1  0  0  0  0
 19 21  1  0  0  0  0
 21 22  1  0  0  0  0
 21 23  1  0  0  0  0
 21 24  1  0  0  0  0
M  CHG  1  15  -1
M  END
$$$$

  -OEChem-03222214023D

 24 23  0     1  0  0  0  0  0999 V2000
   -2.6286   -3.8846    0.5242 H   0  0  0  0  0  0  0  0  0  0  0  0
   -2.5470   -2.9703   -0.0695 C   0  0  0  0  0  0  0  0  0  0  0  0
   -3.5036   -2.4437   -0.0471 H   0  0  0  0  0  0  0  0  0  0  0  0
   -2.3112   -3.2441   -1.1016 H   0  0  0  0  0  0  0  0  0  0  0  0
   -1.4479   -2.0814    0.4859 C   0  0  0  0  0  0  0  0  0  0  0  0
   -0.9095   -2.3686    1.5492 O   0  0  0  0  0  0  0  0  0  0  0  0
   -1.2118   -0.8475   -0.0851 N   0  0  0  0  0  0  0  0  0  0  0  0
   -1.7226   -0.7059   -0.9490 H   0  0  0  0  0  0  0  0  0  0  0  0
    0.1400   -0.2731   -0.0925 C   0  0  1  0  0  0  0  0  0  0  0  0
    0.7951   -0.8229    0.5913 H   0  0  0  0  0  0  0  0  0  0  0  0
    0.7584   -0.3095   -1.5143 C   0  0  0  0  0  0  0  0  0  0  0  0
    0.1346    0.2966   -2.1773 H   0  0  0  0  0  0  0  0  0  0  0  0
    1.7447    0.1612   -1.4674 H   0  0  0  0  0  0  0  0  0  0  0  0
    0.9396   -1.6640   -2.1996 C   0  0  0  0  0  0  0  0  0  0  0  0
    0.3513   -2.6806   -1.7613 O   0  5  0  0  0  0  0  0  0  0  0  0
    1.6758   -1.6566   -3.2150 O   0  0  0  0  0  0  0  0  0  0  0  0
    0.1064    1.2145    0.3236 C   0  0  0  0  0  0  0  0  0  0  0  0
   -0.7301    1.9964   -0.1229 O   0  0  0  0  0  0  0  0  0  0  0  0
    1.0410    1.6825    1.2301 N   0  0  0  0  0  0  0  0  0  0  0  0
    1.6888    1.0005    1.6129 H   0  0  0  0  0  0  0  0  0  0  0  0
    1.0827    3.0536    1.7155 C   0  0  0  0  0  0  0  0  0  0  0  0
    0.1528    3.3031    2.2365 H   0  0  0  0  0  0  0  0  0  0  0  0
    1.9158    3.1791    2.4133 H   0  0  0  0  0  0  0  0  0  0  0  0
    1.2217    3.7499    0.8824 H   0  0  0  0  0  0  0  0  0  0  0  0
  1  2  1  0  0  0  0
  2  3  1  0  0  0  0
  2  4  1  0  0  0  0
  2  5  1  0  0  0  0
  5  6  2  0  0  0  0
  5  7  1  0  0  0  0
  7  8  1  0  0  0  0
  7  9  1  0  0  0  0
  9 10  1  0  0  0  0
  9 11  1  0  0  0  0
  9 17  1  0  0  0  0
 11 12  1  0  0  0  0
 11 13  1  0  0  0  0
 11 14  1  0  0  0  0
 14 15  1  0  0  0  0
 14 16  2  0  0  0  0
 17 18  2  0  0  0  0
 17 19  1  0  0  0  0
 19 20  1  0  0  0  0
 19 21  1  0  0  0  0
 21 22  1  0  0  0  0
 21 23  1  0  0  0  0
 21 24  1  0  0  0  0
M  CHG  1  15  -1
M  END
$$$$

  -OEChem-03222214023D

 24 23  0     1  0  0  0  0  0999 V2000
   -2.6359   -3.8837    0.5269 H   0  0  0  0  0  0  0  0  0  0  0  0
   -2.5668   -2.9617   -0.0562 C   0  0  0  0  0  0  0  0  0  0  0  0
   -3.5174   -2.4277    0.0060 H   0  0  0  0  0  0  0  0  0  0  0  0
   -2.3698   -3.2225   -1.0994 H   0  0  0  0  0  0  0  0  0  0  0  0
   -1.4423   -2.0893    0.4745 C   0  0  0  0  0  0  0  0  0  0  0  0
   -0.8747   -2.3976    1.5165 O   0  0  0  0  0  0  0  0  0  0  0  0
   -1.2081   -0.8526   -0.0921 N   0  0  0  0  0  0  0  0  0  0  0  0
   -1.7134   -0.7190   -0.9611 H   0  0  0  0  0  0  0  0  0  0  0  0
    0.1427   -0.2759   -0.0973 C   0  0  1  0  0  0  0  0  0  0  0  0
    0.7985   -0.8243    0.5867 H   0  0  0  0  0  0  0  0  0  0  0  0
    0.7680   -0.3045   -1.5160 C   0  0  0  0  0  0  0  0  0  0  0  0
    0.1449    0.2997   -2.1809 H   0  0  0  0  0  0  0  0  0  0  0  0
    1.7512    0.1723   -1.4636 H   0  0  0  0  0  0  0  0  0  0  0  0
    0.9518   -1.6597   -2.1999 C   0  0  0  0  0  0  0  0  0  0  0  0
    0.1599   -2.6003   -1.9501 O   0  5  0  0  0  0  0  0  0  0  0  0
    1.9000   -1.7315   -3.0179 O   0  0  0  0  0  0  0  0  0  0  0  0
    0.1037    1.2103    0.3244 C   0  0  0  0  0  0  0  0  0  0  0  0
   -0.7342    1.9911   -0.1213 O   0  0  0  0  0  0  0  0  0  0  0  0
    1.0356    1.6794    1.2331 N   0  0  0  0  0  0  0  0  0  0  0  0
    1.6923    1.0012    1.6077 H   0  0  0  0  0  0  0  0  0  0  0  0
    1.0770    3.0515    1.7160 C   0  0  0  0  0  0  0  0  0  0  0  0
    0.1451    3.3030    2.2323 H   0  0  0  0  0  0  0  0  0  0  0  0
    1.9072    3.1775    2.4173 H   0  0  0  0  0  0  0  0  0  0  0  0
    1.2198    3.7463    0.8821 H   0  0  0  0  0  0  0  0  0  0  0  0
  1  2  1  0  0  0  0
  2  3  1  0  0  0  0
  2  4  1  0  0  0  0
  2  5  1  0  0  0  0
  5  6  2  0  0  0  0
  5  7  1  0  0  0  0
  7  8  1  0  0  0  0
  7  9  1  0  0  0  0
  9 10  1  0  0  0  0
  9 11  1  0  0  0  0
  9 17  1  0  0  0  0
 11 12  1  0  0  0  0
 11 13  1  0  0  0  0
 11 14  1  0  0  0  0
 14 15  1  0  0  0  0
 14 16  2  0  0  0  0
 17 18  2  0  0  0  0
 17 19  1  0  0  0  0
 19 20  1  0  0  0  0
 19 21  1  0  0  0  0
 21 22  1  0  0  0  0
 21 23  1  0  0  0  0
 21 24  1  0  0  0  0
M  CHG  1  15  -1
M  END
$$$$

  -OEChem-03222214023D

 24 23  0     1  0  0  0  0  0999 V2000
   -2.6213   -3.8968    0.5018 H   0  0  0  0  0  0  0  0  0  0  0  0
   -2.5701   -2.9606   -0.0601 C   0  0  0  0  0  0  0  0  0  0  0  0
   -3.5185   -2.4293    0.0449 H   0  0  0  0  0  0  0  0  0  0  0  0
   -2.4061   -3.1956   -1.1150 H   0  0  0  0  0  0  0  0  0  0  0  0
   -1.4306   -2.0997    0.4570 C   0  0  0  0  0  0  0  0  0  0  0  0
   -0.8403   -2.4265    1.4804 O   0  0  0  0  0  0  0  0  0  0  0  0
   -1.2027   -0.8582   -0.1014 N   0  0  0  0  0  0  0  0  0  0  0  0
   -1.7004   -0.7327   -0.9770 H   0  0  0  0  0  0  0  0  0  0  0  0
    0.1434   -0.2713   -0.1001 C   0  0  1  0  0  0  0  0  0  0  0  0
    0.8028   -0.8178    0.5816 H   0  0  0  0  0  0  0  0  0  0  0  0
    0.7675   -0.2945   -1.5176 C   0  0  0  0  0  0  0  0  0  0  0  0
    0.1421    0.3031   -2.1865 H   0  0  0  0  0  0  0  0  0  0  0  0
    1.7487    0.1871   -1.4693 H   0  0  0  0  0  0  0  0  0  0  0  0
    0.9478   -1.6600   -2.1785 C   0  0  0  0  0  0  0  0  0  0  0  0
    0.0069   -2.4907   -2.1329 O   0  5  0  0  0  0  0  0  0  0  0  0
    2.0401   -1.8553   -2.7634 O   0  0  0  0  0  0  0  0  0  0  0  0
    0.0979    1.2123    0.3288 C   0  0  0  0  0  0  0  0  0  0  0  0
   -0.7387    1.9939   -0.1178 O   0  0  0  0  0  0  0  0  0  0  0  0
    1.0270    1.6797    1.2414 N   0  0  0  0  0  0  0  0  0  0  0  0
    1.6891    1.0030    1.6091 H   0  0  0  0  0  0  0  0  0  0  0  0
    1.0752    3.0539    1.7173 C   0  0  0  0  0  0  0  0  0  0  0  0
    0.1461    3.3119    2.2353 H   0  0  0  0  0  0  0  0  0  0  0  0
    1.9081    3.1801    2.4153 H   0  0  0  0  0  0  0  0  0  0  0  0
    1.2185    3.7437    0.8794 H   0  0  0  0  0  0  0  0  0  0  0  0
  1  2  1  0  0  0  0
  2  3  1  0  0  0  0
  2  4  1  0  0  0  0
  2  5  1  0  0  0  0
  5  6  2  0  0  0  0
  5  7  1  0  0  0  0
  7  8  1  0  0  0  0
  7  9  1  0  0  0  0
  9 10  1  0  0  0  0
  9 11  1  0  0  0  0
  9 17  1  0  0  0  0
 11 12  1  0  0  0  0
 11 13  1  0  0  0  0
 11 14  1  0  0  0  0
 14 15  1  0  0  0  0
 14 16  2  0  0  0  0
 17 18  2  0  0  0  0
 17 19  1  0  0  0  0
 19 20  1  0  0  0  0
 19 21  1  0  0  0  0
 21 22  1  0  0  0  0
 21 23  1  0  0  0  0
 21 24  1  0  0  0  0
M  CHG  1  15  -1
M  END
$$$$

  -OEChem-03222214023D

 24 23  0     1  0  0  0  0  0999 V2000
   -2.6050   -3.8982    0.4916 H   0  0  0  0  0  0  0  0  0  0  0  0
   -2.5526   -2.9652   -0.0755 C   0  0  0  0  0  0  0  0  0  0  0  0
   -3.5018   -2.4339    0.0234 H   0  0  0  0  0  0  0  0  0  0  0  0
   -2.3860   -3.2059   -1.1288 H   0  0  0  0  0  0  0  0  0  0  0  0
   -1.4152   -2.1009    0.4407 C   0  0  0  0  0  0  0  0  0  0  0  0
   -0.8131   -2.4351    1.4545 O   0  0  0  0  0  0  0  0  0  0  0  0
   -1.1947   -0.8556   -0.1116 N   0  0  0  0  0  0  0  0  0  0  0  0
   -1.6848   -0.7381   -0.9936 H   0  0  0  0  0  0  0  0  0  0  0  0
    0.1469   -0.2587   -0.1045 C   0  0  1  0  0  0  0  0  0  0  0  0
    0.8124   -0.8045    0.5725 H   0  0  0  0  0  0  0  0  0  0  0  0
    0.7541   -0.2866   -1.5260 C   0  0  0  0  0  0  0  0  0  0  0  0
    0.1212    0.3004   -2.1972 H   0  0  0  0  0  0  0  0  0  0  0  0
    1.7366    0.1937   -1.4990 H   0  0  0  0  0  0  0  0  0  0  0  0
    0.9160   -1.6706   -2.1458 C   0  0  0  0  0  0  0  0  0  0  0  0
   -0.1152   -2.3711   -2.3096 O   0  5  0  0  0  0  0  0  0  0  0  0
    2.0752   -2.0160   -2.4779 O   0  0  0  0  0  0  0  0  0  0  0  0
    0.1003    1.2231    0.3289 C   0  0  0  0  0  0  0  0  0  0  0  0
   -0.7352    2.0067   -0.1157 O   0  0  0  0  0  0  0  0  0  0  0  0
    1.0294    1.6863    1.2434 N   0  0  0  0  0  0  0  0  0  0  0  0
    1.6879    1.0063    1.6119 H   0  0  0  0  0  0  0  0  0  0  0  0
    1.0765    3.0575    1.7276 C   0  0  0  0  0  0  0  0  0  0  0  0
    0.1457    3.3125    2.2440 H   0  0  0  0  0  0  0  0  0  0  0  0
    1.9072    3.1787    2.4291 H   0  0  0  0  0  0  0  0  0  0  0  0
    1.2227    3.7525    0.8944 H   0  0  0  0  0  0  0  0  0  0  0  0
  1  2  1  0  0  0  0
  2  3  1  0  0  0  0
  2  4  1  0  0  0  0
  2  5  1  0  0  0  0
  5  6  2  0  0  0  0
  5  7  1  0  0  0  0
  7  8  1  0  0  0  0
  7  9  1  0  0  0  0
  9 10  1  0  0  0  0
  9 11  1  0  0  0  0
  9 17  1  0  0  0  0
 11 12  1  0  0  0  0
 11 13  1  0  0  0  0
 11 14  1  0  0  0  0
 14 15  1  0  0  0  0
 14 16  2  0  0  0  0
 17 18  2  0  0  0  0
 17 19  1  0  0  0  0
 19 20  1  0  0  0  0
 19 21  1  0  0  0  0
 21 22  1  0  0  0  0
 21 23  1  0  0  0  0
 21 24  1  0  0  0  0
M  CHG  1  15  -1
M  END
$$$$

  -OEChem-03222214023D

 24 23  0     1  0  0  0  0  0999 V2000
   -2.5742   -3.9072    0.4623 H   0  0  0  0  0  0  0  0  0  0  0  0
   -2.5192   -2.9762   -0.1078 C   0  0  0  0  0  0  0  0  0  0  0  0
   -3.4760   -2.4548   -0.0324 H   0  0  0  0  0  0  0  0  0  0  0  0
   -2.3272   -3.2200   -1.1561 H   0  0  0  0  0  0  0  0  0  0  0  0
   -1.4026   -2.0977    0.4287 C   0  0  0  0  0  0  0  0  0  0  0  0
   -0.8008   -2.4329    1.4418 O   0  0  0  0  0  0  0  0  0  0  0  0
   -1.1889   -0.8494   -0.1182 N   0  0  0  0  0  0  0  0  0  0  0  0
   -1.6774   -0.7314   -1.0019 H   0  0  0  0  0  0  0  0  0  0  0  0
    0.1482   -0.2424   -0.1053 C   0  0  1  0  0  0  0  0  0  0  0  0
    0.8196   -0.7881    0.5662 H   0  0  0  0  0  0  0  0  0  0  0  0
    0.7302   -0.2824   -1.5329 C   0  0  0  0  0  0  0  0  0  0  0  0
    0.0907    0.2951   -2.2067 H   0  0  0  0  0  0  0  0  0  0  0  0
    1.7171    0.1890   -1.5332 H   0  0  0  0  0  0  0  0  0  0  0  0
    0.8675   -1.6883   -2.0988 C   0  0  0  0  0  0  0  0  0  0  0  0
   -0.1859   -2.2625   -2.4777 O   0  5  0  0  0  0  0  0  0  0  0  0
    2.0188   -2.1807   -2.1645 O   0  0  0  0  0  0  0  0  0  0  0  0
    0.1042    1.2383    0.3309 C   0  0  0  0  0  0  0  0  0  0  0  0
   -0.7302    2.0244   -0.1111 O   0  0  0  0  0  0  0  0  0  0  0  0
    1.0344    1.6968    1.2465 N   0  0  0  0  0  0  0  0  0  0  0  0
    1.6921    1.0143    1.6116 H   0  0  0  0  0  0  0  0  0  0  0  0
    1.0838    3.0656    1.7371 C   0  0  0  0  0  0  0  0  0  0  0  0
    0.1529    3.3205    2.2535 H   0  0  0  0  0  0  0  0  0  0  0  0
    1.9137    3.1820    2.4402 H   0  0  0  0  0  0  0  0  0  0  0  0
    1.2329    3.7638    0.9072 H   0  0  0  0  0  0  0  0  0  0  0  0
  1  2  1  0  0  0  0
  2  3  1  0  0  0  0
  2  4  1  0  0  0  0
  2  5  1  0  0  0  0
  5  6  2  0  0  0  0
  5  7  1  0  0  0  0
  7  8  1  0  0  0  0
  7  9  1  0  0  0  0
  9 10  1  0  0  0  0
  9 11  1  0  0  0  0
  9 17  1  0  0  0  0
 11 12  1  0  0  0  0
 11 13  1  0  0  0  0
 11 14  1  0  0  0  0
 14 15  1  0  0  0  0
 14 16  2  0  0  0  0
 17 18  2  0  0  0  0
 17 19  1  0  0  0  0
 19 20  1  0  0  0  0
 19 21  1  0  0  0  0
 21 22  1  0  0  0  0
 21 23  1  0  0  0  0
 21 24  1  0  0  0  0
M  CHG  1  15  -1
M  END
$$$$

  -OEChem-03222214023D

 24 23  0     1  0  0  0  0  0999 V2000
   -2.5610   -3.9059    0.4417 H   0  0  0  0  0  0  0  0  0  0  0  0
   -2.4822   -2.9851   -0.1422 C   0  0  0  0  0  0  0  0  0  0  0  0
   -3.4433   -2.4665   -0.1211 H   0  0  0  0  0  0  0  0  0  0  0  0
   -2.2396   -3.2457   -1.1762 H   0  0  0  0  0  0  0  0  0  0  0  0
   -1.3947   -2.0922    0.4280 C   0  0  0  0  0  0  0  0  0  0  0  0
   -0.8036   -2.4254    1.4473 O   0  0  0  0  0  0  0  0  0  0  0  0
   -1.1826   -0.8424   -0.1147 N   0  0  0  0  0  0  0  0  0  0  0  0
   -1.6817   -0.7102   -0.9907 H   0  0  0  0  0  0  0  0  0  0  0  0
    0.1522   -0.2298   -0.1036 C   0  0  1  0  0  0  0  0  0  0  0  0
    0.8303   -0.7773    0.5601 H   0  0  0  0  0  0  0  0  0  0  0  0
    0.7025   -0.2846   -1.5401 C   0  0  0  0  0  0  0  0  0  0  0  0
    0.0541    0.2864   -2.2111 H   0  0  0  0  0  0  0  0  0  0  0  0
    1.6937    0.1758   -1.5707 H   0  0  0  0  0  0  0  0  0  0  0  0
    0.8151   -1.7077   -2.0608 C   0  0  0  0  0  0  0  0  0  0  0  0
   -0.1883   -2.1756   -2.6577 O   0  5  0  0  0  0  0  0  0  0  0  0
    1.8934   -2.3190   -1.8735 O   0  0  0  0  0  0  0  0  0  0  0  0
    0.1130    1.2499    0.3347 C   0  0  0  0  0  0  0  0  0  0  0  0
   -0.7243    2.0362   -0.1011 O   0  0  0  0  0  0  0  0  0  0  0  0
    1.0471    1.7072    1.2469 N   0  0  0  0  0  0  0  0  0  0  0  0
    1.7074    1.0244    1.6074 H   0  0  0  0  0  0  0  0  0  0  0  0
    1.0917    3.0735    1.7455 C   0  0  0  0  0  0  0  0  0  0  0  0
    0.1581    3.3235    2.2598 H   0  0  0  0  0  0  0  0  0  0  0  0
    1.9185    3.1875    2.4528 H   0  0  0  0  0  0  0  0  0  0  0  0
    1.2423    3.7768    0.9201 H   0  0  0  0  0  0  0  0  0  0  0  0
  1  2  1  0  0  0  0
  2  3  1  0  0  0  0
  2  4  1  0  0  0  0
  2  5  1  0  0  0  0
  5  6  2  0  0  0  0
  5  7  1  0  0  0  0
  7  8  1  0  0  0  0
  7  9  1  0  0  0  0
  9 10  1  0  0  0  0
  9 11  1  0  0  0  0
  9 17  1  0  0  0  0
 11 12  1  0  0  0  0
 11 13  1  0  0  0  0
 11 14  1  0  0  0  0
 14 15  1  0  0  0  0
 14 16  2  0  0  0  0
 17 18  2  0  0  0  0
 17 19  1  0  0  0  0
 19 20  1  0  0  0  0
 19 21  1  0  0  0  0
 21 22  1  0  0  0  0
 21 23  1  0  0  0  0
 21 24  1  0  0  0  0
M  CHG  1  15  -1
M  END
$$$$

  -OEChem-03222214023D

 24 23  0     1  0  0  0  0  0999 V2000
   -2.5133   -3.9274    0.3926 H   0  0  0  0  0  0  0  0  0  0  0  0
   -2.4505   -2.9940   -0.1729 C   0  0  0  0  0  0  0  0  0  0  0  0
   -3.4272   -2.5048   -0.1632 H   0  0  0  0  0  0  0  0  0  0  0  0
   -2.1772   -3.2276   -1.2060 H   0  0  0  0  0  0  0  0  0  0  0  0
   -1.4027   -2.0808    0.4366 C   0  0  0  0  0  0  0  0  0  0  0  0
   -0.8398   -2.4012    1.4751 O   0  0  0  0  0  0  0  0  0  0  0  0
   -1.1887   -0.8324   -0.1072 N   0  0  0  0  0  0  0  0  0  0  0  0
   -1.6978   -0.6856   -0.9748 H   0  0  0  0  0  0  0  0  0  0  0  0
    0.1467   -0.2214   -0.0979 C   0  0  1  0  0  0  0  0  0  0  0  0
    0.8247   -0.7712    0.5643 H   0  0  0  0  0  0  0  0  0  0  0  0
    0.6814   -0.2909   -1.5387 C   0  0  0  0  0  0  0  0  0  0  0  0
    0.0294    0.2783   -2.2083 H   0  0  0  0  0  0  0  0  0  0  0  0
    1.6759    0.1607   -1.5861 H   0  0  0  0  0  0  0  0  0  0  0  0
    0.7804   -1.7228   -2.0370 C   0  0  0  0  0  0  0  0  0  0  0  0
   -0.0943   -2.1036   -2.8548 O   0  5  0  0  0  0  0  0  0  0  0  0
    1.7259   -2.4275   -1.6124 O   0  0  0  0  0  0  0  0  0  0  0  0
    0.1170    1.2586    0.3375 C   0  0  0  0  0  0  0  0  0  0  0  0
   -0.7177    2.0473   -0.0990 O   0  0  0  0  0  0  0  0  0  0  0  0
    1.0553    1.7125    1.2468 N   0  0  0  0  0  0  0  0  0  0  0  0
    1.7092    1.0253    1.6107 H   0  0  0  0  0  0  0  0  0  0  0  0
    1.1065    3.0785    1.7449 C   0  0  0  0  0  0  0  0  0  0  0  0
    0.1780    3.3298    2.2674 H   0  0  0  0  0  0  0  0  0  0  0  0
    1.9398    3.1913    2.4446 H   0  0  0  0  0  0  0  0  0  0  0  0
    1.2509    3.7817    0.9185 H   0  0  0  0  0  0  0  0  0  0  0  0
  1  2  1  0  0  0  0
  2  3  1  0  0  0  0
  2  4  1  0  0  0  0
  2  5  1  0  0  0  0
  5  6  2  0  0  0  0
  5  7  1  0  0  0  0
  7  8  1  0  0  0  0
  7  9  1  0  0  0  0
  9 10  1  0  0  0  0
  9 11  1  0  0  0  0
  9 17  1  0  0  0  0
 11 12  1  0  0  0  0
 11 13  1  0  0  0  0
 11 14  1  0  0  0  0
 14 15  1  0  0  0  0
 14 16  2  0  0  0  0
 17 18  2  0  0  0  0
 17 19  1  0  0  0  0
 19 20  1  0  0  0  0
 19 21  1  0  0  0  0
 21 22  1  0  0  0  0
 21 23  1  0  0  0  0
 21 24  1  0  0  0  0
M  CHG  1  15  -1
M  END
$$$$

  -OEChem-03222214023D

 24 23  0     1  0  0  0  0  0999 V2000
   -2.4834   -3.9347    0.3852 H   0  0  0  0  0  0  0  0  0  0  0  0
   -2.4301   -3.0001   -0.1795 C   0  0  0  0  0  0  0  0  0  0  0  0
   -3.4170   -2.5321   -0.1883 H   0  0  0  0  0  0  0  0  0  0  0  0
   -2.1315   -3.2279   -1.2070 H   0  0  0  0  0  0  0  0  0  0  0  0
   -1.4134   -2.0658    0.4501 C   0  0  0  0  0  0  0  0  0  0  0  0
   -0.8840   -2.3612    1.5131 O   0  0  0  0  0  0  0  0  0  0  0  0
   -1.1985   -0.8207   -0.1010 N   0  0  0  0  0  0  0  0  0  0  0  0
   -1.7141   -0.6664   -0.9626 H   0  0  0  0  0  0  0  0  0  0  0  0
    0.1413   -0.2193   -0.0966 C   0  0  1  0  0  0  0  0  0  0  0  0
    0.8156   -0.7711    0.5680 H   0  0  0  0  0  0  0  0  0  0  0  0
    0.6733   -0.2984   -1.5396 C   0  0  0  0  0  0  0  0  0  0  0  0
    0.0235    0.2770   -2.2061 H   0  0  0  0  0  0  0  0  0  0  0  0
    1.6707    0.1461   -1.5894 H   0  0  0  0  0  0  0  0  0  0  0  0
    0.7670   -1.7288   -2.0474 C   0  0  0  0  0  0  0  0  0  0  0  0
    0.0895   -2.0200   -3.0632 O   0  5  0  0  0  0  0  0  0  0  0  0
    1.5167   -2.5229   -1.4328 O   0  0  0  0  0  0  0  0  0  0  0  0
    0.1218    1.2626    0.3330 C   0  0  0  0  0  0  0  0  0  0  0  0
   -0.7074    2.0552   -0.1070 O   0  0  0  0  0  0  0  0  0  0  0  0
    1.0645    1.7135    1.2393 N   0  0  0  0  0  0  0  0  0  0  0  0
    1.7006    1.0183    1.6192 H   0  0  0  0  0  0  0  0  0  0  0  0
    1.1134    3.0761    1.7471 C   0  0  0  0  0  0  0  0  0  0  0  0
    0.1859    3.3210    2.2745 H   0  0  0  0  0  0  0  0  0  0  0  0
    1.9488    3.1862    2.4447 H   0  0  0  0  0  0  0  0  0  0  0  0
    1.2531    3.7859    0.9255 H   0  0  0  0  0  0  0  0  0  0  0  0
  1  2  1  0  0  0  0
  2  3  1  0  0  0  0
  2  4  1  0  0  0  0
  2  5  1  0  0  0  0
  5  6  2  0  0  0  0
  5  7  1  0  0  0  0
  7  8  1  0  0  0  0
  7  9  1  0  0  0  0
  9 10  1  0  0  0  0
  9 11  1  0  0  0  0
  9 17  1  0  0  0  0
 11 12  1  0  0  0  0
 11 13  1  0  0  0  0
 11 14  1  0  0  0  0
 14 15  1  0  0  0  0
 14 16  2  0  0  0  0
 17 18  2  0  0  0  0
 17 19  1  0  0  0  0
 19 20  1  0  0  0  0
 19 21  1  0  0  0  0
 21 22  1  0  0  0  0
 21 23  1  0  0  0  0
 21 24  1  0  0  0  0
M  CHG  1  15  -1
M  END
$$$$

  -OEChem-03222214023D

 24 23  0     1  0  0  0  0  0999 V2000
   -2.4963   -3.9248    0.4099 H   0  0  0  0  0  0  0  0  0  0  0  0
   -2.4079   -3.0121   -0.1854 C   0  0  0  0  0  0  0  0  0  0  0  0
   -3.3920   -2.5463   -0.2731 H   0  0  0  0  0  0  0  0  0  0  0  0
   -2.0461   -3.2782   -1.1829 H   0  0  0  0  0  0  0  0  0  0  0  0
   -1.4307   -2.0529    0.4690 C   0  0  0  0  0  0  0  0  0  0  0  0
   -0.9420   -2.3209    1.5588 O   0  0  0  0  0  0  0  0  0  0  0  0
   -1.2168   -0.8103   -0.0885 N   0  0  0  0  0  0  0  0  0  0  0  0
   -1.7303   -0.6581   -0.9507 H   0  0  0  0  0  0  0  0  0  0  0  0
    0.1277   -0.2209   -0.0885 C   0  0  1  0  0  0  0  0  0  0  0  0
    0.7964   -0.7760    0.5791 H   0  0  0  0  0  0  0  0  0  0  0  0
    0.6650   -0.3018   -1.5318 C   0  0  0  0  0  0  0  0  0  0  0  0
    0.0167    0.2816   -2.1930 H   0  0  0  0  0  0  0  0  0  0  0  0
    1.6628    0.1418   -1.5756 H   0  0  0  0  0  0  0  0  0  0  0  0
    0.7618   -1.7230   -2.0708 C   0  0  0  0  0  0  0  0  0  0  0  0
    0.3363   -1.9177   -3.2347 O   0  5  0  0  0  0  0  0  0  0  0  0
    1.2581   -2.6075   -1.3347 O   0  0  0  0  0  0  0  0  0  0  0  0
    0.1184    1.2621    0.3377 C   0  0  0  0  0  0  0  0  0  0  0  0
   -0.7043    2.0598   -0.1054 O   0  0  0  0  0  0  0  0  0  0  0  0
    1.0655    1.7088    1.2415 N   0  0  0  0  0  0  0  0  0  0  0  0
    1.6926    1.0089    1.6276 H   0  0  0  0  0  0  0  0  0  0  0  0
    1.1270    3.0735    1.7425 C   0  0  0  0  0  0  0  0  0  0  0  0
    0.2074    3.3246    2.2805 H   0  0  0  0  0  0  0  0  0  0  0  0
    1.9721    3.1828    2.4285 H   0  0  0  0  0  0  0  0  0  0  0  0
    1.2593    3.7792    0.9161 H   0  0  0  0  0  0  0  0  0  0  0  0
  1  2  1  0  0  0  0
  2  3  1  0  0  0  0
  2  4  1  0  0  0  0
  2  5  1  0  0  0  0
  5  6  2  0  0  0  0
  5  7  1  0  0  0  0
  7  8  1  0  0  0  0
  7  9  1  0  0  0  0
  9 10  1  0  0  0  0
  9 11  1  0  0  0  0
  9 17  1  0  0  0  0
 11 12  1  0  0  0  0
 11 13  1  0  0  0  0
 11 14  1  0  0  0  0
 14 15  1  0  0  0  0
 14 16  2  0  0  0  0
 17 18  2  0  0  0  0
 17 19  1  0  0  0  0
 19 20  1  0  0  0  0
 19 21  1  0  0  0  0
 21 22  1  0  0  0  0
 21 23  1  0  0  0  0
 21 24  1  0  0  0  0
M  CHG  1  15  -1
M  END
$$$$

  -OEChem-03222214023D

 24 23  0     1  0  0  0  0  0999 V2000
   -2.5405   -3.9044    0.4542 H   0  0  0  0  0  0  0  0  0  0  0  0
   -2.4213   -3.0114   -0.1649 C   0  0  0  0  0  0  0  0  0  0  0  0
   -3.3943   -2.5308   -0.2888 H   0  0  0  0  0  0  0  0  0  0  0  0
   -2.0417   -3.3134   -1.1453 H   0  0  0  0  0  0  0  0  0  0  0  0
   -1.4409   -2.0511    0.4838 C   0  0  0  0  0  0  0  0  0  0  0  0
   -0.9687   -2.3040    1.5851 O   0  0  0  0  0  0  0  0  0  0  0  0
   -1.2219   -0.8122   -0.0808 N   0  0  0  0  0  0  0  0  0  0  0  0
   -1.7328   -0.6639   -0.9443 H   0  0  0  0  0  0  0  0  0  0  0  0
    0.1270   -0.2330   -0.0840 C   0  0  1  0  0  0  0  0  0  0  0  0
    0.7909   -0.7899    0.5867 H   0  0  0  0  0  0  0  0  0  0  0  0
    0.6782   -0.3059   -1.5256 C   0  0  0  0  0  0  0  0  0  0  0  0
    0.0363    0.2886   -2.1829 H   0  0  0  0  0  0  0  0  0  0  0  0
    1.6755    0.1400   -1.5516 H   0  0  0  0  0  0  0  0  0  0  0  0
    0.7883   -1.7094   -2.1123 C   0  0  0  0  0  0  0  0  0  0  0  0
    0.6556   -1.8055   -3.3555 O   0  5  0  0  0  0  0  0  0  0  0  0
    1.0025   -2.6758   -1.3436 O   0  0  0  0  0  0  0  0  0  0  0  0
    0.1174    1.2519    0.3377 C   0  0  0  0  0  0  0  0  0  0  0  0
   -0.7052    2.0482   -0.1086 O   0  0  0  0  0  0  0  0  0  0  0  0
    1.0627    1.7027    1.2414 N   0  0  0  0  0  0  0  0  0  0  0  0
    1.6883    1.0050    1.6335 H   0  0  0  0  0  0  0  0  0  0  0  0
    1.1215    3.0698    1.7363 C   0  0  0  0  0  0  0  0  0  0  0  0
    0.1996    3.3230    2.2697 H   0  0  0  0  0  0  0  0  0  0  0  0
    1.9638    3.1834    2.4250 H   0  0  0  0  0  0  0  0  0  0  0  0
    1.2562    3.7714    0.9068 H   0  0  0  0  0  0  0  0  0  0  0  0
  1  2  1  0  0  0  0
  2  3  1  0  0  0  0
  2  4  1  0  0  0  0
  2  5  1  0  0  0  0
  5  6  2  0  0  0  0
  5  7  1  0  0  0  0
  7  8  1  0  0  0  0
  7  9  1  0  0  0  0
  9 10  1  0  0  0  0
  9 11  1  0  0  0  0
  9 17  1  0  0  0  0
 11 12  1  0  0  0  0
 11 13  1  0  0  0  0
 11 14  1  0  0  0  0
 14 15  1  0  0  0  0
 14 16  2  0  0  0  0
 17 18  2  0  0  0  0
 17 19  1  0  0  0  0
 19 20  1  0  0  0  0
 19 21  1  0  0  0  0
 21 22  1  0  0  0  0
 21 23  1  0  0  0  0
 21 24  1  0  0  0  0
M  CHG  1  15  -1
M  END
$$$$

  -OEChem-03222214023D

 24 23  0     1  0  0  0  0  0999 V2000
   -2.5878   -3.8897    0.4929 H   0  0  0  0  0  0  0  0  0  0  0  0
   -2.4649   -3.0003   -0.1307 C   0  0  0  0  0  0  0  0  0  0  0  0
   -3.4304   -2.4998   -0.2331 H   0  0  0  0  0  0  0  0  0  0  0  0
   -2.1144   -3.3115   -1.1188 H   0  0  0  0  0  0  0  0  0  0  0  0
   -1.4495   -2.0594    0.4925 C   0  0  0  0  0  0  0  0  0  0  0  0
   -0.9679   -2.3146    1.5900 O   0  0  0  0  0  0  0  0  0  0  0  0
   -1.2215   -0.8239   -0.0769 N   0  0  0  0  0  0  0  0  0  0  0  0
   -1.7330   -0.6763   -0.9396 H   0  0  0  0  0  0  0  0  0  0  0  0
    0.1301   -0.2501   -0.0824 C   0  0  1  0  0  0  0  0  0  0  0  0
    0.7895   -0.8066    0.5925 H   0  0  0  0  0  0  0  0  0  0  0  0
    0.7056   -0.3099   -1.5180 C   0  0  0  0  0  0  0  0  0  0  0  0
    0.0718    0.2925   -2.1755 H   0  0  0  0  0  0  0  0  0  0  0  0
    1.6997    0.1445   -1.5178 H   0  0  0  0  0  0  0  0  0  0  0  0
    0.8424   -1.6916   -2.1534 C   0  0  0  0  0  0  0  0  0  0  0  0
    1.0261   -1.7061   -3.3937 O   0  5  0  0  0  0  0  0  0  0  0  0
    0.7639   -2.7170   -1.4373 O   0  0  0  0  0  0  0  0  0  0  0  0
    0.1142    1.2366    0.3347 C   0  0  0  0  0  0  0  0  0  0  0  0
   -0.7107    2.0283   -0.1157 O   0  0  0  0  0  0  0  0  0  0  0  0
    1.0554    1.6948    1.2390 N   0  0  0  0  0  0  0  0  0  0  0  0
    1.6843    1.0022    1.6344 H   0  0  0  0  0  0  0  0  0  0  0  0
    1.1097    3.0653    1.7247 C   0  0  0  0  0  0  0  0  0  0  0  0
    0.1869    3.3191    2.2559 H   0  0  0  0  0  0  0  0  0  0  0  0
    1.9512    3.1865    2.4130 H   0  0  0  0  0  0  0  0  0  0  0  0
    1.2426    3.7616    0.8905 H   0  0  0  0  0  0  0  0  0  0  0  0
  1  2  1  0  0  0  0
  2  3  1  0  0  0  0
  2  4  1  0  0  0  0
  2  5  1  0  0  0  0
  5  6  2  0  0  0  0
  5  7  1  0  0  0  0
  7  8  1  0  0  0  0
  7  9  1  0  0  0  0
  9 10  1  0  0  0  0
  9 11  1  0  0  0  0
  9 17  1  0  0  0  0
 11 12  1  0  0  0  0
 11 13  1  0  0  0  0
 11 14  1  0  0  0  0
 14 15  1  0  0  0  0
 14 16  2  0  0  0  0
 17 18  2  0  0  0  0
 17 19  1  0  0  0  0
 19 20  1  0  0  0  0
 19 21  1  0  0  0  0
 21 22  1  0  0  0  0
 21 23  1  0  0  0  0
 21 24  1  0  0  0  0
M  CHG  1  15  -1
M  END
$$$$

  -OEChem-03222214023D

 24 23  0     1  0  0  0  0  0999 V2000
   -2.6438   -3.8950    0.5360 H   0  0  0  0  0  0  0  0  0  0  0  0
   -2.6059   -2.9529   -0.0171 C   0  0  0  0  0  0  0  0  0  0  0  0
   -3.5529   -2.4243    0.1110 H   0  0  0  0  0  0  0  0  0  0  0  0
   -2.4611   -3.1769   -1.0774 H   0  0  0  0  0  0  0  0  0  0  0  0
   -1.4584   -2.0951    0.4874 C   0  0  0  0  0  0  0  0  0  0  0  0
   -0.8739   -2.4089    1.5188 O   0  0  0  0  0  0  0  0  0  0  0  0
   -1.2240   -0.8605   -0.0846 N   0  0  0  0  0  0  0  0  0  0  0  0
   -1.7411   -0.7252   -0.9469 H   0  0  0  0  0  0  0  0  0  0  0  0
    0.1263   -0.2818   -0.1047 C   0  0  1  0  0  0  0  0  0  0  0  0
    0.7750   -0.8290    0.5865 H   0  0  0  0  0  0  0  0  0  0  0  0
    0.7780   -0.3272   -1.5157 C   0  0  0  0  0  0  0  0  0  0  0  0
    0.3234    0.4588   -2.1260 H   0  0  0  0  0  0  0  0  0  0  0  0
    1.8369   -0.0787   -1.4056 H   0  0  0  0  0  0  0  0  0  0  0  0
    0.6983   -1.6005   -2.3617 C   0  0  0  0  0  0  0  0  0  0  0  0
    1.2585   -1.5251   -3.4811 O   0  5  0  0  0  0  0  0  0  0  0  0
    0.0562   -2.6009   -1.9634 O   0  0  0  0  0  0  0  0  0  0  0  0
    0.0931    1.2065    0.3115 C   0  0  0  0  0  0  0  0  0  0  0  0
   -0.7542    1.9857   -0.1183 O   0  0  0  0  0  0  0  0  0  0  0  0
    1.0356    1.6764    1.2090 N   0  0  0  0  0  0  0  0  0  0  0  0
    1.6888    0.9961    1.5852 H   0  0  0  0  0  0  0  0  0  0  0  0
    1.0767    3.0471    1.6963 C   0  0  0  0  0  0  0  0  0  0  0  0
    0.1562    3.2885    2.2376 H   0  0  0  0  0  0  0  0  0  0  0  0
    1.9236    3.1785    2.3762 H   0  0  0  0  0  0  0  0  0  0  0  0
    1.1920    3.7462    0.8617 H   0  0  0  0  0  0  0  0  0  0  0  0
  1  2  1  0  0  0  0
  2  3  1  0  0  0  0
  2  4  1  0  0  0  0
  2  5  1  0  0  0  0
  5  6  2  0  0  0  0
  5  7  1  0  0  0  0
  7  8  1  0  0  0  0
  7  9  1  0  0  0  0
  9 10  1  0  0  0  0
  9 11  1  0  0  0  0
  9 17  1  0  0  0  0
 11 12  1  0  0  0  0
 11 13  1  0  0  0  0
 11 14  1  0  0  0  0
 14 15  1  0  0  0  0
 14 16  2  0  0  0  0
 17 18  2  0  0  0  0
 17 19  1  0  0  0  0
 19 20  1  0  0  0  0
 19 21  1  0  0  0  0
 21 22  1  0  0  0  0
 21 23  1  0  0  0  0
 21 24  1  0  0  0  0
M  CHG  1  15  -1
M  END
$$$$

  -OEChem-03222214023D

 24 23  0     1  0  0  0  0  0999 V2000
   -2.6666   -3.8828    0.5627 H   0  0  0  0  0  0  0  0  0  0  0  0
   -2.6248   -2.9433    0.0058 C   0  0  0  0  0  0  0  0  0  0  0  0
   -3.5587   -2.3972    0.1560 H   0  0  0  0  0  0  0  0  0  0  0  0
   -2.5126   -3.1729   -1.0571 H   0  0  0  0  0  0  0  0  0  0  0  0
   -1.4499   -2.1045    0.4792 C   0  0  0  0  0  0  0  0  0  0  0  0
   -0.8325   -2.4415    1.4839 O   0  0  0  0  0  0  0  0  0  0  0  0
   -1.2189   -0.8680   -0.0902 N   0  0  0  0  0  0  0  0  0  0  0  0
   -1.7205   -0.7544   -0.9661 H   0  0  0  0  0  0  0  0  0  0  0  0
    0.1293   -0.2855   -0.1080 C   0  0  1  0  0  0  0  0  0  0  0  0
    0.7789   -0.8290    0.5849 H   0  0  0  0  0  0  0  0  0  0  0  0
    0.7889   -0.3255   -1.5159 C   0  0  0  0  0  0  0  0  0  0  0  0
    0.3391    0.4600   -2.1300 H   0  0  0  0  0  0  0  0  0  0  0  0
    1.8460   -0.0738   -1.3945 H   0  0  0  0  0  0  0  0  0  0  0  0
    0.7171   -1.5979   -2.3647 C   0  0  0  0  0  0  0  0  0  0  0  0
    1.5147   -1.6330   -3.3319 O   0  5  0  0  0  0  0  0  0  0  0  0
   -0.1849   -2.4477   -2.1660 O   0  0  0  0  0  0  0  0  0  0  0  0
    0.0902    1.2020    0.3111 C   0  0  0  0  0  0  0  0  0  0  0  0
   -0.7560    1.9810   -0.1211 O   0  0  0  0  0  0  0  0  0  0  0  0
    1.0300    1.6735    1.2107 N   0  0  0  0  0  0  0  0  0  0  0  0
    1.6848    0.9953    1.5876 H   0  0  0  0  0  0  0  0  0  0  0  0
    1.0679    3.0446    1.6968 C   0  0  0  0  0  0  0  0  0  0  0  0
    0.1461    3.2838    2.2367 H   0  0  0  0  0  0  0  0  0  0  0  0
    1.9138    3.1783    2.3774 H   0  0  0  0  0  0  0  0  0  0  0  0
    1.1824    3.7432    0.8616 H   0  0  0  0  0  0  0  0  0  0  0  0
  1  2  1  0  0  0  0
  2  3  1  0  0  0  0
  2  4  1  0  0  0  0
  2  5  1  0  0  0  0
  5  6  2  0  0  0  0
  5  7  1  0  0  0  0
  7  8  1  0  0  0  0
  7  9  1  0  0  0  0
  9 10  1  0  0  0  0
  9 11  1  0  0  0  0
  9 17  1  0  0  0  0
 11 12  1  0  0  0  0
 11 13  1  0  0  0  0
 11 14  1  0  0  0  0
 14 15  1  0  0  0  0
 14 16  2  0  0  0  0
 17 18  2  0  0  0  0
 17 19  1  0  0  0  0
 19 20  1  0  0  0  0
 19 21  1  0  0  0  0
 21 22  1  0  0  0  0
 21 23  1  0  0  0  0
 21 24  1  0  0  0  0
M  CHG  1  15  -1
M  END
$$$$

  -OEChem-03222214023D

 24 23  0     1  0  0  0  0  0999 V2000
   -2.6903   -3.8614    0.5928 H   0  0  0  0  0  0  0  0  0  0  0  0
   -2.6184   -2.9459   -0.0001 C   0  0  0  0  0  0  0  0  0  0  0  0
   -3.5453   -2.3781    0.1070 H   0  0  0  0  0  0  0  0  0  0  0  0
   -2.4880   -3.2195   -1.0504 H   0  0  0  0  0  0  0  0  0  0  0  0
   -1.4394   -2.1089    0.4663 C   0  0  0  0  0  0  0  0  0  0  0  0
   -0.8033   -2.4613    1.4536 O   0  0  0  0  0  0  0  0  0  0  0  0
   -1.2143   -0.8686   -0.0963 N   0  0  0  0  0  0  0  0  0  0  0  0
   -1.7017   -0.7705   -0.9841 H   0  0  0  0  0  0  0  0  0  0  0  0
    0.1305   -0.2790   -0.1094 C   0  0  1  0  0  0  0  0  0  0  0  0
    0.7839   -0.8221    0.5803 H   0  0  0  0  0  0  0  0  0  0  0  0
    0.7833   -0.3167   -1.5187 C   0  0  0  0  0  0  0  0  0  0  0  0
    0.3304    0.4638   -2.1368 H   0  0  0  0  0  0  0  0  0  0  0  0
    1.8412   -0.0634   -1.4045 H   0  0  0  0  0  0  0  0  0  0  0  0
    0.6956   -1.6024   -2.3434 C   0  0  0  0  0  0  0  0  0  0  0  0
    1.6528   -1.8093   -3.1270 O   0  5  0  0  0  0  0  0  0  0  0  0
   -0.3733   -2.2638   -2.3447 O   0  0  0  0  0  0  0  0  0  0  0  0
    0.0891    1.2064    0.3161 C   0  0  0  0  0  0  0  0  0  0  0  0
   -0.7586    1.9863   -0.1108 O   0  0  0  0  0  0  0  0  0  0  0  0
    1.0284    1.6746    1.2178 N   0  0  0  0  0  0  0  0  0  0  0  0
    1.6894    0.9971    1.5852 H   0  0  0  0  0  0  0  0  0  0  0  0
    1.0683    3.0447    1.7061 C   0  0  0  0  0  0  0  0  0  0  0  0
    0.1507    3.2820    2.2537 H   0  0  0  0  0  0  0  0  0  0  0  0
    1.9196    3.1781    2.3800 H   0  0  0  0  0  0  0  0  0  0  0  0
    1.1752    3.7451    0.8716 H   0  0  0  0  0  0  0  0  0  0  0  0
  1  2  1  0  0  0  0
  2  3  1  0  0  0  0
  2  4  1  0  0  0  0
  2  5  1  0  0  0  0
  5  6  2  0  0  0  0
  5  7  1  0  0  0  0
  7  8  1  0  0  0  0
  7  9  1  0  0  0  0
  9 10  1  0  0  0  0
  9 11  1  0  0  0  0
  9 17  1  0  0  0  0
 11 12  1  0  0  0  0
 11 13  1  0  0  0  0
 11 14  1  0  0  0  0
 14 15  1  0  0  0  0
 14 16  2  0  0  0  0
 17 18  2  0  0  0  0
 17 19  1  0  0  0  0
 19 20  1  0  0  0  0
 19 21  1  0  0  0  0
 21 22  1  0  0  0  0
 21 23  1  0  0  0  0
 21 24  1  0  0  0  0
M  CHG  1  15  -1
M  END
$$$$

  -OEChem-03222214023D

 24 23  0     1  0  0  0  0  0999 V2000
   -2.6895   -3.8484    0.5938 H   0  0  0  0  0  0  0  0  0  0  0  0
   -2.5933   -2.9528   -0.0254 C   0  0  0  0  0  0  0  0  0  0  0  0
   -3.5211   -2.3793    0.0325 H   0  0  0  0  0  0  0  0  0  0  0  0
   -2.4290   -3.2594   -1.0616 H   0  0  0  0  0  0  0  0  0  0  0  0
   -1.4266   -2.1057    0.4531 C   0  0  0  0  0  0  0  0  0  0  0  0
   -0.7834   -2.4641    1.4331 O   0  0  0  0  0  0  0  0  0  0  0  0
   -1.2069   -0.8622   -0.1039 N   0  0  0  0  0  0  0  0  0  0  0  0
   -1.6853   -0.7720   -0.9994 H   0  0  0  0  0  0  0  0  0  0  0  0
    0.1345   -0.2647   -0.1123 C   0  0  1  0  0  0  0  0  0  0  0  0
    0.7938   -0.8078    0.5717 H   0  0  0  0  0  0  0  0  0  0  0  0
    0.7662   -0.3081   -1.5282 C   0  0  0  0  0  0  0  0  0  0  0  0
    0.3028    0.4630   -2.1500 H   0  0  0  0  0  0  0  0  0  0  0  0
    1.8266   -0.0556   -1.4384 H   0  0  0  0  0  0  0  0  0  0  0  0
    0.6468   -1.6152   -2.3101 C   0  0  0  0  0  0  0  0  0  0  0  0
    1.6845   -2.0199   -2.8867 O   0  5  0  0  0  0  0  0  0  0  0  0
   -0.4997   -2.1049   -2.4824 O   0  0  0  0  0  0  0  0  0  0  0  0
    0.0952    1.2195    0.3171 C   0  0  0  0  0  0  0  0  0  0  0  0
   -0.7510    2.0023   -0.1070 O   0  0  0  0  0  0  0  0  0  0  0  0
    1.0357    1.6832    1.2202 N   0  0  0  0  0  0  0  0  0  0  0  0
    1.6943    1.0025    1.5862 H   0  0  0  0  0  0  0  0  0  0  0  0
    1.0697    3.0480    1.7242 C   0  0  0  0  0  0  0  0  0  0  0  0
    0.1461    3.2787    2.2648 H   0  0  0  0  0  0  0  0  0  0  0  0
    1.9133    3.1741    2.4092 H   0  0  0  0  0  0  0  0  0  0  0  0
    1.1853    3.7581    0.8990 H   0  0  0  0  0  0  0  0  0  0  0  0
  1  2  1  0  0  0  0
  2  3  1  0  0  0  0
  2  4  1  0  0  0  0
  2  5  1  0  0  0  0
  5  6  2  0  0  0  0
  5  7  1  0  0  0  0
  7  8  1  0  0  0  0
  7  9  1  0  0  0  0
  9 10  1  0  0  0  0
  9 11  1  0  0  0  0
  9 17  1  0  0  0  0
 11 12  1  0  0  0  0
 11 13  1  0  0  0  0
 11 14  1  0  0  0  0
 14 15  1  0  0  0  0
 14 16  2  0  0  0  0
 17 18  2  0  0  0  0
 17 19  1  0  0  0  0
 19 20  1  0  0  0  0
 19 21  1  0  0  0  0
 21 22  1  0  0  0  0
 21 23  1  0  0  0  0
 21 24  1  0  0  0  0
M  CHG  1  15  -1
M  END
$$$$

  -OEChem-03222214023D

 24 23  0     1  0  0  0  0  0999 V2000
   -2.6862   -3.8426    0.5755 H   0  0  0  0  0  0  0  0  0  0  0  0
   -2.5582   -2.9678   -0.0674 C   0  0  0  0  0  0  0  0  0  0  0  0
   -3.4885   -2.3952   -0.0777 H   0  0  0  0  0  0  0  0  0  0  0  0
   -2.3391   -3.3077   -1.0832 H   0  0  0  0  0  0  0  0  0  0  0  0
   -1.4190   -2.1021    0.4424 C   0  0  0  0  0  0  0  0  0  0  0  0
   -0.7856   -2.4561    1.4299 O   0  0  0  0  0  0  0  0  0  0  0  0
   -1.2050   -0.8552   -0.1075 N   0  0  0  0  0  0  0  0  0  0  0  0
   -1.6801   -0.7643   -1.0057 H   0  0  0  0  0  0  0  0  0  0  0  0
    0.1336   -0.2506   -0.1100 C   0  0  1  0  0  0  0  0  0  0  0  0
    0.7984   -0.7978    0.5656 H   0  0  0  0  0  0  0  0  0  0  0  0
    0.7426   -0.2956   -1.5328 C   0  0  0  0  0  0  0  0  0  0  0  0
    0.2689    0.4698   -2.1543 H   0  0  0  0  0  0  0  0  0  0  0  0
    1.8057   -0.0475   -1.4678 H   0  0  0  0  0  0  0  0  0  0  0  0
    0.5925   -1.6193   -2.2755 C   0  0  0  0  0  0  0  0  0  0  0  0
    1.6432   -2.2081   -2.6239 O   0  5  0  0  0  0  0  0  0  0  0  0
   -0.5715   -1.9810   -2.5921 O   0  0  0  0  0  0  0  0  0  0  0  0
    0.0979    1.2316    0.3255 C   0  0  0  0  0  0  0  0  0  0  0  0
   -0.7441    2.0192   -0.0980 O   0  0  0  0  0  0  0  0  0  0  0  0
    1.0395    1.6895    1.2303 N   0  0  0  0  0  0  0  0  0  0  0  0
    1.6939    1.0050    1.5969 H   0  0  0  0  0  0  0  0  0  0  0  0
    1.0828    3.0548    1.7320 C   0  0  0  0  0  0  0  0  0  0  0  0
    0.1638    3.2905    2.2781 H   0  0  0  0  0  0  0  0  0  0  0  0
    1.9316    3.1784    2.4108 H   0  0  0  0  0  0  0  0  0  0  0  0
    1.1961    3.7627    0.9046 H   0  0  0  0  0  0  0  0  0  0  0  0
  1  2  1  0  0  0  0
  2  3  1  0  0  0  0
  2  4  1  0  0  0  0
  2  5  1  0  0  0  0
  5  6  2  0  0  0  0
  5  7  1  0  0  0  0
  7  8  1  0  0  0  0
  7  9  1  0  0  0  0
  9 10  1  0  0  0  0
  9 11  1  0  0  0  0
  9 17  1  0  0  0  0
 11 12  1  0  0  0  0
 11 13  1  0  0  0  0
 11 14  1  0  0  0  0
 14 15  1  0  0  0  0
 14 16  2  0  0  0  0
 17 18  2  0  0  0  0
 17 19  1  0  0  0  0
 19 20  1  0  0  0  0
 19 21  1  0  0  0  0
 21 22  1  0  0  0  0
 21 23  1  0  0  0  0
 21 24  1  0  0  0  0
M  CHG  1  15  -1
M  END
$$$$

  -OEChem-03222214023D

 24 23  0     1  0  0  0  0  0999 V2000
   -2.6408   -3.8647    0.5236 H   0  0  0  0  0  0  0  0  0  0  0  0
   -2.5282   -2.9749   -0.1012 C   0  0  0  0  0  0  0  0  0  0  0  0
   -3.4698   -2.4213   -0.1046 H   0  0  0  0  0  0  0  0  0  0  0  0
   -2.2969   -3.2904   -1.1222 H   0  0  0  0  0  0  0  0  0  0  0  0
   -1.4101   -2.0956    0.4304 C   0  0  0  0  0  0  0  0  0  0  0  0
   -0.7920   -2.4397    1.4306 O   0  0  0  0  0  0  0  0  0  0  0  0
   -1.1998   -0.8468   -0.1164 N   0  0  0  0  0  0  0  0  0  0  0  0
   -1.6773   -0.7488   -1.0128 H   0  0  0  0  0  0  0  0  0  0  0  0
    0.1368   -0.2369   -0.1142 C   0  0  1  0  0  0  0  0  0  0  0  0
    0.8048   -0.7863    0.5569 H   0  0  0  0  0  0  0  0  0  0  0  0
    0.7274   -0.2899   -1.5421 C   0  0  0  0  0  0  0  0  0  0  0  0
    0.2452    0.4685   -2.1658 H   0  0  0  0  0  0  0  0  0  0  0  0
    1.7927   -0.0474   -1.4993 H   0  0  0  0  0  0  0  0  0  0  0  0
    0.5533   -1.6292   -2.2459 C   0  0  0  0  0  0  0  0  0  0  0  0
    1.5566   -2.3735   -2.3485 O   0  5  0  0  0  0  0  0  0  0  0  0
   -0.5925   -1.8971   -2.6940 O   0  0  0  0  0  0  0  0  0  0  0  0
    0.1040    1.2445    0.3229 C   0  0  0  0  0  0  0  0  0  0  0  0
   -0.7319    2.0365   -0.1044 O   0  0  0  0  0  0  0  0  0  0  0  0
    1.0465    1.6974    1.2292 N   0  0  0  0  0  0  0  0  0  0  0  0
    1.6917    1.0071    1.6015 H   0  0  0  0  0  0  0  0  0  0  0  0
    1.0891    3.0589    1.7409 C   0  0  0  0  0  0  0  0  0  0  0  0
    0.1651    3.2944    2.2788 H   0  0  0  0  0  0  0  0  0  0  0  0
    1.9310    3.1740    2.4298 H   0  0  0  0  0  0  0  0  0  0  0  0
    1.2139    3.7725    0.9201 H   0  0  0  0  0  0  0  0  0  0  0  0
  1  2  1  0  0  0  0
  2  3  1  0  0  0  0
  2  4  1  0  0  0  0
  2  5  1  0  0  0  0
  5  6  2  0  0  0  0
  5  7  1  0  0  0  0
  7  8  1  0  0  0  0
  7  9  1  0  0  0  0
  9 10  1  0  0  0  0
  9 11  1  0  0  0  0
  9 17  1  0  0  0  0
 11 12  1  0  0  0  0
 11 13  1  0  0  0  0
 11 14  1  0  0  0  0
 14 15  1  0  0  0  0
 14 16  2  0  0  0  0
 17 18  2  0  0  0  0
 17 19  1  0  0  0  0
 19 20  1  0  0  0  0
 19 21  1  0  0  0  0
 21 22  1  0  0  0  0
 21 23  1  0  0  0  0
 21 24  1  0  0  0  0
M  CHG  1  15  -1
M  END
$$$$

  -OEChem-03222214023D

 24 23  0     1  0  0  0  0  0999 V2000
   -2.5924   -3.8864    0.4683 H   0  0  0  0  0  0  0  0  0  0  0  0
   -2.4875   -2.9862   -0.1427 C   0  0  0  0  0  0  0  0  0  0  0  0
   -3.4435   -2.4584   -0.1664 H   0  0  0  0  0  0  0  0  0  0  0  0
   -2.2186   -3.2820   -1.1605 H   0  0  0  0  0  0  0  0  0  0  0  0
   -1.4083   -2.0840    0.4290 C   0  0  0  0  0  0  0  0  0  0  0  0
   -0.8201   -2.4109    1.4528 O   0  0  0  0  0  0  0  0  0  0  0  0
   -1.1994   -0.8352   -0.1179 N   0  0  0  0  0  0  0  0  0  0  0  0
   -1.6777   -0.7327   -1.0133 H   0  0  0  0  0  0  0  0  0  0  0  0
    0.1385   -0.2273   -0.1134 C   0  0  1  0  0  0  0  0  0  0  0  0
    0.8075   -0.7815    0.5532 H   0  0  0  0  0  0  0  0  0  0  0  0
    0.7108   -0.2877   -1.5469 C   0  0  0  0  0  0  0  0  0  0  0  0
    0.2279    0.4708   -2.1703 H   0  0  0  0  0  0  0  0  0  0  0  0
    1.7795   -0.0594   -1.5214 H   0  0  0  0  0  0  0  0  0  0  0  0
    0.5105   -1.6366   -2.2210 C   0  0  0  0  0  0  0  0  0  0  0  0
    1.4036   -2.5043   -2.0818 O   0  5  0  0  0  0  0  0  0  0  0  0
   -0.5918   -1.8219   -2.7993 O   0  0  0  0  0  0  0  0  0  0  0  0
    0.1128    1.2539    0.3235 C   0  0  0  0  0  0  0  0  0  0  0  0
   -0.7175    2.0502   -0.1067 O   0  0  0  0  0  0  0  0  0  0  0  0
    1.0565    1.7034    1.2303 N   0  0  0  0  0  0  0  0  0  0  0  0
    1.6922    1.0085    1.6106 H   0  0  0  0  0  0  0  0  0  0  0  0
    1.0998    3.0641    1.7445 C   0  0  0  0  0  0  0  0  0  0  0  0
    0.1749    3.2995    2.2807 H   0  0  0  0  0  0  0  0  0  0  0  0
    1.9401    3.1775    2.4356 H   0  0  0  0  0  0  0  0  0  0  0  0
    1.2269    3.7787    0.9250 H   0  0  0  0  0  0  0  0  0  0  0  0
  1  2  1  0  0  0  0
  2  3  1  0  0  0  0
  2  4  1  0  0  0  0
  2  5  1  0  0  0  0
  5  6  2  0  0  0  0
  5  7  1  0  0  0  0
  7  8  1  0  0  0  0
  7  9  1  0  0  0  0
  9 10  1  0  0  0  0
  9 11  1  0  0  0  0
  9 17  1  0  0  0  0
 11 12  1  0  0  0  0
 11 13  1  0  0  0  0
 11 14  1  0  0  0  0
 14 15  1  0  0  0  0
 14 16  2  0  0  0  0
 17 18  2  0  0  0  0
 17 19  1  0  0  0  0
 19 20  1  0  0  0  0
 19 21  1  0  0  0  0
 21 22  1  0  0  0  0
 21 23  1  0  0  0  0
 21 24  1  0  0  0  0
M  CHG  1  15  -1
M  END
$$$$

  -OEChem-03222214023D

 24 23  0     1  0  0  0  0  0999 V2000
   -2.5357   -3.9112    0.4178 H   0  0  0  0  0  0  0  0  0  0  0  0
   -2.4444   -3.0011   -0.1806 C   0  0  0  0  0  0  0  0  0  0  0  0
   -3.4172   -2.5068   -0.2286 H   0  0  0  0  0  0  0  0  0  0  0  0
   -2.1338   -3.2762   -1.1925 H   0  0  0  0  0  0  0  0  0  0  0  0
   -1.4146   -2.0693    0.4323 C   0  0  0  0  0  0  0  0  0  0  0  0
   -0.8682   -2.3688    1.4872 O   0  0  0  0  0  0  0  0  0  0  0  0
   -1.2087   -0.8211   -0.1170 N   0  0  0  0  0  0  0  0  0  0  0  0
   -1.6883   -0.7132   -1.0101 H   0  0  0  0  0  0  0  0  0  0  0  0
    0.1314   -0.2174   -0.1102 C   0  0  1  0  0  0  0  0  0  0  0  0
    0.7973   -0.7757    0.5561 H   0  0  0  0  0  0  0  0  0  0  0  0
    0.6950   -0.2907   -1.5460 C   0  0  0  0  0  0  0  0  0  0  0  0
    0.2149    0.4677   -2.1718 H   0  0  0  0  0  0  0  0  0  0  0  0
    1.7661   -0.0737   -1.5295 H   0  0  0  0  0  0  0  0  0  0  0  0
    0.4793   -1.6472   -2.1989 C   0  0  0  0  0  0  0  0  0  0  0  0
    1.2064   -2.5983   -1.8298 O   0  5  0  0  0  0  0  0  0  0  0  0
   -0.5350   -1.7617   -2.9326 O   0  0  0  0  0  0  0  0  0  0  0  0
    0.1168    1.2642    0.3245 C   0  0  0  0  0  0  0  0  0  0  0  0
   -0.7021    2.0678   -0.1138 O   0  0  0  0  0  0  0  0  0  0  0  0
    1.0633    1.7067    1.2315 N   0  0  0  0  0  0  0  0  0  0  0  0
    1.6819    1.0034    1.6243 H   0  0  0  0  0  0  0  0  0  0  0  0
    1.1184    3.0677    1.7436 C   0  0  0  0  0  0  0  0  0  0  0  0
    0.1973    3.3110    2.2827 H   0  0  0  0  0  0  0  0  0  0  0  0
    1.9623    3.1756    2.4313 H   0  0  0  0  0  0  0  0  0  0  0  0
    1.2483    3.7799    0.9224 H   0  0  0  0  0  0  0  0  0  0  0  0
  1  2  1  0  0  0  0
  2  3  1  0  0  0  0
  2  4  1  0  0  0  0
  2  5  1  0  0  0  0
  5  6  2  0  0  0  0
  5  7  1  0  0  0  0
  7  8  1  0  0  0  0
  7  9  1  0  0  0  0
  9 10  1  0  0  0  0
  9 11  1  0  0  0  0
  9 17  1  0  0  0  0
 11 12  1  0  0  0  0
 11 13  1  0  0  0  0
 11 14  1  0  0  0  0
 14 15  1  0  0  0  0
 14 16  2  0  0  0  0
 17 18  2  0  0  0  0
 17 19  1  0  0  0  0
 19 20  1  0  0  0  0
 19 21  1  0  0  0  0
 21 22  1  0  0  0  0
 21 23  1  0  0  0  0
 21 24  1  0  0  0  0
M  CHG  1  15  -1
M  END
$$$$

  -OEChem-03222214023D

 24 23  0     1  0  0  0  0  0999 V2000
   -2.4966   -3.9277    0.3908 H   0  0  0  0  0  0  0  0  0  0  0  0
   -2.4264   -3.0055   -0.1919 C   0  0  0  0  0  0  0  0  0  0  0  0
   -3.4116   -2.5359   -0.2385 H   0  0  0  0  0  0  0  0  0  0  0  0
   -2.1005   -3.2557   -1.2060 H   0  0  0  0  0  0  0  0  0  0  0  0
   -1.4254   -2.0580    0.4438 C   0  0  0  0  0  0  0  0  0  0  0  0
   -0.9124   -2.3365    1.5211 O   0  0  0  0  0  0  0  0  0  0  0  0
   -1.2163   -0.8128   -0.1109 N   0  0  0  0  0  0  0  0  0  0  0  0
   -1.7058   -0.6919   -0.9951 H   0  0  0  0  0  0  0  0  0  0  0  0
    0.1267   -0.2166   -0.1062 C   0  0  1  0  0  0  0  0  0  0  0  0
    0.7864   -0.7760    0.5658 H   0  0  0  0  0  0  0  0  0  0  0  0
    0.6943   -0.3019   -1.5405 C   0  0  0  0  0  0  0  0  0  0  0  0
    0.2219    0.4604   -2.1679 H   0  0  0  0  0  0  0  0  0  0  0  0
    1.7666   -0.0925   -1.5177 H   0  0  0  0  0  0  0  0  0  0  0  0
    0.4802   -1.6588   -2.1978 C   0  0  0  0  0  0  0  0  0  0  0  0
    0.9850   -2.6644   -1.6463 O   0  5  0  0  0  0  0  0  0  0  0  0
   -0.3474   -1.7028   -3.1408 O   0  0  0  0  0  0  0  0  0  0  0  0
    0.1194    1.2666    0.3229 C   0  0  0  0  0  0  0  0  0  0  0  0
   -0.6991    2.0706   -0.1154 O   0  0  0  0  0  0  0  0  0  0  0  0
    1.0678    1.7082    1.2285 N   0  0  0  0  0  0  0  0  0  0  0  0
    1.6826    1.0034    1.6245 H   0  0  0  0  0  0  0  0  0  0  0  0
    1.1236    3.0688    1.7413 C   0  0  0  0  0  0  0  0  0  0  0  0
    0.2018    3.3124    2.2792 H   0  0  0  0  0  0  0  0  0  0  0  0
    1.9667    3.1758    2.4303 H   0  0  0  0  0  0  0  0  0  0  0  0
    1.2551    3.7816    0.9209 H   0  0  0  0  0  0  0  0  0  0  0  0
  1  2  1  0  0  0  0
  2  3  1  0  0  0  0
  2  4  1  0  0  0  0
  2  5  1  0  0  0  0
  5  6  2  0  0  0  0
  5  7  1  0  0  0  0
  7  8  1  0  0  0  0
  7  9  1  0  0  0  0
  9 10  1  0  0  0  0
  9 11  1  0  0  0  0
  9 17  1  0  0  0  0
 11 12  1  0  0  0  0
 11 13  1  0  0  0  0
 11 14  1  0  0  0  0
 14 15  1  0  0  0  0
 14 16  2  0  0  0  0
 17 18  2  0  0  0  0
 17 19  1  0  0  0  0
 19 20  1  0  0  0  0
 19 21  1  0  0  0  0
 21 22  1  0  0  0  0
 21 23  1  0  0  0  0
 21 24  1  0  0  0  0
M  CHG  1  15  -1
M  END
$$$$

  -OEChem-03222214023D

 24 23  0     1  0  0  0  0  0999 V2000
   -2.5189   -3.9197    0.4226 H   0  0  0  0  0  0  0  0  0  0  0  0
   -2.4555   -2.9962   -0.1587 C   0  0  0  0  0  0  0  0  0  0  0  0
   -3.4395   -2.5229   -0.1868 H   0  0  0  0  0  0  0  0  0  0  0  0
   -2.1474   -3.2454   -1.1783 H   0  0  0  0  0  0  0  0  0  0  0  0
   -1.4394   -2.0554    0.4625 C   0  0  0  0  0  0  0  0  0  0  0  0
   -0.9350   -2.3239    1.5467 O   0  0  0  0  0  0  0  0  0  0  0  0
   -1.2212   -0.8151   -0.1006 N   0  0  0  0  0  0  0  0  0  0  0  0
   -1.7305   -0.6743   -0.9682 H   0  0  0  0  0  0  0  0  0  0  0  0
    0.1258   -0.2286   -0.1048 C   0  0  1  0  0  0  0  0  0  0  0  0
    0.7795   -0.7865    0.5740 H   0  0  0  0  0  0  0  0  0  0  0  0
    0.7121   -0.3152   -1.5342 C   0  0  0  0  0  0  0  0  0  0  0  0
    0.2475    0.4546   -2.1582 H   0  0  0  0  0  0  0  0  0  0  0  0
    1.7830   -0.1036   -1.4917 H   0  0  0  0  0  0  0  0  0  0  0  0
    0.5236   -1.6581   -2.2331 C   0  0  0  0  0  0  0  0  0  0  0  0
    0.7589   -2.7066   -1.5877 O   0  5  0  0  0  0  0  0  0  0  0  0
    0.0335   -1.6299   -3.3873 O   0  0  0  0  0  0  0  0  0  0  0  0
    0.1186    1.2569    0.3167 C   0  0  0  0  0  0  0  0  0  0  0  0
   -0.7079    2.0548   -0.1180 O   0  0  0  0  0  0  0  0  0  0  0  0
    1.0681    1.7042    1.2182 N   0  0  0  0  0  0  0  0  0  0  0  0
    1.6846    1.0019    1.6161 H   0  0  0  0  0  0  0  0  0  0  0  0
    1.1142    3.0638    1.7346 C   0  0  0  0  0  0  0  0  0  0  0  0
    0.1917    3.2986    2.2751 H   0  0  0  0  0  0  0  0  0  0  0  0
    1.9578    3.1759    2.4221 H   0  0  0  0  0  0  0  0  0  0  0  0
    1.2379    3.7799    0.9158 H   0  0  0  0  0  0  0  0  0  0  0  0
  1  2  1  0  0  0  0
  2  3  1  0  0  0  0
  2  4  1  0  0  0  0
  2  5  1  0  0  0  0
  5  6  2  0  0  0  0
  5  7  1  0  0  0  0
  7  8  1  0  0  0  0
  7  9  1  0  0  0  0
  9 10  1  0  0  0  0
  9 11  1  0  0  0  0
  9 17  1  0  0  0  0
 11 12  1  0  0  0  0
 11 13  1  0  0  0  0
 11 14  1  0  0  0  0
 14 15  1  0  0  0  0
 14 16  2  0  0  0  0
 17 18  2  0  0  0  0
 17 19  1  0  0  0  0
 19 20  1  0  0  0  0
 19 21  1  0  0  0  0
 21 22  1  0  0  0  0
 21 23  1  0  0  0  0
 21 24  1  0  0  0  0
M  CHG  1  15  -1
M  END
$$$$

  -OEChem-03222214023D

 24 23  0     1  0  0  0  0  0999 V2000
   -2.6022   -3.8926    0.4979 H   0  0  0  0  0  0  0  0  0  0  0  0
   -2.5064   -2.9879   -0.1080 C   0  0  0  0  0  0  0  0  0  0  0  0
   -3.4696   -2.4738   -0.1367 H   0  0  0  0  0  0  0  0  0  0  0  0
   -2.2226   -3.2759   -1.1242 H   0  0  0  0  0  0  0  0  0  0  0  0
   -1.4429   -2.0754    0.4765 C   0  0  0  0  0  0  0  0  0  0  0  0
   -0.9150   -2.3556    1.5468 O   0  0  0  0  0  0  0  0  0  0  0  0
   -1.2203   -0.8359   -0.0879 N   0  0  0  0  0  0  0  0  0  0  0  0
   -1.7459   -0.6823   -0.9421 H   0  0  0  0  0  0  0  0  0  0  0  0
    0.1269   -0.2498   -0.1020 C   0  0  1  0  0  0  0  0  0  0  0  0
    0.7820   -0.8049    0.5775 H   0  0  0  0  0  0  0  0  0  0  0  0
    0.7325   -0.3143   -1.5279 C   0  0  0  0  0  0  0  0  0  0  0  0
    0.2678    0.4653   -2.1395 H   0  0  0  0  0  0  0  0  0  0  0  0
    1.7994   -0.0884   -1.4615 H   0  0  0  0  0  0  0  0  0  0  0  0
    0.5860   -1.6290   -2.2923 C   0  0  0  0  0  0  0  0  0  0  0  0
    0.5399   -2.7093   -1.6585 O   0  5  0  0  0  0  0  0  0  0  0  0
    0.4709   -1.5344   -3.5375 O   0  0  0  0  0  0  0  0  0  0  0  0
    0.1071    1.2357    0.3206 C   0  0  0  0  0  0  0  0  0  0  0  0
   -0.7322    2.0240   -0.1076 O   0  0  0  0  0  0  0  0  0  0  0  0
    1.0555    1.6932    1.2181 N   0  0  0  0  0  0  0  0  0  0  0  0
    1.6897    1.0007    1.6051 H   0  0  0  0  0  0  0  0  0  0  0  0
    1.1001    3.0578    1.7214 C   0  0  0  0  0  0  0  0  0  0  0  0
    0.1850    3.2908    2.2751 H   0  0  0  0  0  0  0  0  0  0  0  0
    1.9542    3.1819    2.3934 H   0  0  0  0  0  0  0  0  0  0  0  0
    1.2056    3.7672    0.8942 H   0  0  0  0  0  0  0  0  0  0  0  0
  1  2  1  0  0  0  0
  2  3  1  0  0  0  0
  2  4  1  0  0  0  0
  2  5  1  0  0  0  0
  5  6  2  0  0  0  0
  5  7  1  0  0  0  0
  7  8  1  0  0  0  0
  7  9  1  0  0  0  0
  9 10  1  0  0  0  0
  9 11  1  0  0  0  0
  9 17  1  0  0  0  0
 11 12  1  0  0  0  0
 11 13  1  0  0  0  0
 11 14  1  0  0  0  0
 14 15  1  0  0  0  0
 14 16  2  0  0  0  0
 17 18  2  0  0  0  0
 17 19  1  0  0  0  0
 19 20  1  0  0  0  0
 19 21  1  0  0  0  0
 21 22  1  0  0  0  0
 21 23  1  0  0  0  0
 21 24  1  0  0  0  0
M  CHG  1  15  -1
M  END
$$$$

  -OEChem-03222214023D

 24 23  0     1  0  0  0  0  0999 V2000
   -2.6159   -3.8956    0.5180 H   0  0  0  0  0  0  0  0  0  0  0  0
   -2.5587   -2.9690   -0.0591 C   0  0  0  0  0  0  0  0  0  0  0  0
   -3.5187   -2.4515   -0.0008 H   0  0  0  0  0  0  0  0  0  0  0  0
   -2.3488   -3.2203   -1.1024 H   0  0  0  0  0  0  0  0  0  0  0  0
   -1.4523   -2.0821    0.4847 C   0  0  0  0  0  0  0  0  0  0  0  0
   -0.9008   -2.3733    1.5405 O   0  0  0  0  0  0  0  0  0  0  0  0
   -1.2212   -0.8467   -0.0862 N   0  0  0  0  0  0  0  0  0  0  0  0
   -1.7477   -0.6964   -0.9400 H   0  0  0  0  0  0  0  0  0  0  0  0
    0.1289   -0.2668   -0.1050 C   0  0  1  0  0  0  0  0  0  0  0  0
    0.7797   -0.8180    0.5812 H   0  0  0  0  0  0  0  0  0  0  0  0
    0.7590   -0.3229   -1.5238 C   0  0  0  0  0  0  0  0  0  0  0  0
    0.2975    0.4599   -2.1334 H   0  0  0  0  0  0  0  0  0  0  0  0
    1.8222   -0.0864   -1.4337 H   0  0  0  0  0  0  0  0  0  0  0  0
    0.6480   -1.6149   -2.3349 C   0  0  0  0  0  0  0  0  0  0  0  0
    0.3170   -2.6877   -1.7777 O   0  5  0  0  0  0  0  0  0  0  0  0
    0.8863   -1.5021   -3.5609 O   0  0  0  0  0  0  0  0  0  0  0  0
    0.1028    1.2209    0.3118 C   0  0  0  0  0  0  0  0  0  0  0  0
   -0.7396    2.0043   -0.1195 O   0  0  0  0  0  0  0  0  0  0  0  0
    1.0485    1.6854    1.2088 N   0  0  0  0  0  0  0  0  0  0  0  0
    1.6841    0.9966    1.5999 H   0  0  0  0  0  0  0  0  0  0  0  0
    1.0850    3.0510    1.7102 C   0  0  0  0  0  0  0  0  0  0  0  0
    0.1632    3.2839    2.2528 H   0  0  0  0  0  0  0  0  0  0  0  0
    1.9309    3.1775    2.3923 H   0  0  0  0  0  0  0  0  0  0  0  0
    1.1990    3.7590    0.8830 H   0  0  0  0  0  0  0  0  0  0  0  0
  1  2  1  0  0  0  0
  2  3  1  0  0  0  0
  2  4  1  0  0  0  0
  2  5  1  0  0  0  0
  5  6  2  0  0  0  0
  5  7  1  0  0  0  0
  7  8  1  0  0  0  0
  7  9  1  0  0  0  0
  9 10  1  0  0  0  0
  9 11  1  0  0  0  0
  9 17  1  0  0  0  0
 11 12  1  0  0  0  0
 11 13  1  0  0  0  0
 11 14  1  0  0  0  0
 14 15  1  0  0  0  0
 14 16  2  0  0  0  0
 17 18  2  0  0  0  0
 17 19  1  0  0  0  0
 19 20  1  0  0  0  0
 19 21  1  0  0  0  0
 21 22  1  0  0  0  0
 21 23  1  0  0  0  0
 21 24  1  0  0  0  0
M  CHG  1  15  -1
M  END
$$$$

  -OEChem-03222214023D

 24 23  0     1  0  0  0  0  0999 V2000
   -2.6392   -3.8957    0.5299 H   0  0  0  0  0  0  0  0  0  0  0  0
   -2.5977   -2.9557   -0.0265 C   0  0  0  0  0  0  0  0  0  0  0  0
   -3.5481   -2.4299    0.0883 H   0  0  0  0  0  0  0  0  0  0  0  0
   -2.4401   -3.1837   -1.0842 H   0  0  0  0  0  0  0  0  0  0  0  0
   -1.4575   -2.0931    0.4866 C   0  0  0  0  0  0  0  0  0  0  0  0
   -0.8783   -2.4044    1.5217 O   0  0  0  0  0  0  0  0  0  0  0  0
   -1.2234   -0.8580   -0.0843 N   0  0  0  0  0  0  0  0  0  0  0  0
   -1.7458   -0.7163   -0.9420 H   0  0  0  0  0  0  0  0  0  0  0  0
    0.1270   -0.2791   -0.1057 C   0  0  1  0  0  0  0  0  0  0  0  0
    0.7760   -0.8274    0.5843 H   0  0  0  0  0  0  0  0  0  0  0  0
    0.7750   -0.3246   -1.5183 C   0  0  0  0  0  0  0  0  0  0  0  0
    0.3152    0.4600   -2.1263 H   0  0  0  0  0  0  0  0  0  0  0  0
    1.8344   -0.0780   -1.4093 H   0  0  0  0  0  0  0  0  0  0  0  0
    0.6909   -1.5998   -2.3607 C   0  0  0  0  0  0  0  0  0  0  0  0
    0.1029   -2.6199   -1.9304 O   0  5  0  0  0  0  0  0  0  0  0  0
    1.2310   -1.5230   -3.4900 O   0  0  0  0  0  0  0  0  0  0  0  0
    0.0960    1.2089    0.3116 C   0  0  0  0  0  0  0  0  0  0  0  0
   -0.7521    1.9882   -0.1166 O   0  0  0  0  0  0  0  0  0  0  0  0
    1.0401    1.6781    1.2078 N   0  0  0  0  0  0  0  0  0  0  0  0
    1.6923    0.9971    1.5844 H   0  0  0  0  0  0  0  0  0  0  0  0
    1.0780    3.0470    1.6999 C   0  0  0  0  0  0  0  0  0  0  0  0
    0.1561    3.2840    2.2404 H   0  0  0  0  0  0  0  0  0  0  0  0
    1.9235    3.1773    2.3817 H   0  0  0  0  0  0  0  0  0  0  0  0
    1.1933    3.7500    0.8685 H   0  0  0  0  0  0  0  0  0  0  0  0
  1  2  1  0  0  0  0
  2  3  1  0  0  0  0
  2  4  1  0  0  0  0
  2  5  1  0  0  0  0
  5  6  2  0  0  0  0
  5  7  1  0  0  0  0
  7  8  1  0  0  0  0
  7  9  1  0  0  0  0
  9 10  1  0  0  0  0
  9 11  1  0  0  0  0
  9 17  1  0  0  0  0
 11 12  1  0  0  0  0
 11 13  1  0  0  0  0
 11 14  1  0  0  0  0
 14 15  1  0  0  0  0
 14 16  2  0  0  0  0
 17 18  2  0  0  0  0
 17 19  1  0  0  0  0
 19 20  1  0  0  0  0
 19 21  1  0  0  0  0
 21 22  1  0  0  0  0
 21 23  1  0  0  0  0
 21 24  1  0  0  0  0
M  CHG  1  15  -1
M  END
$$$$

  -OEChem-03222214023D

 24 23  0     1  0  0  0  0  0999 V2000
   -2.6818   -3.8703    0.5684 H   0  0  0  0  0  0  0  0  0  0  0  0
   -2.6234   -2.9402   -0.0027 C   0  0  0  0  0  0  0  0  0  0  0  0
   -3.5563   -2.3860    0.1210 H   0  0  0  0  0  0  0  0  0  0  0  0
   -2.4921   -3.1872   -1.0595 H   0  0  0  0  0  0  0  0  0  0  0  0
   -1.4515   -2.1019    0.4787 C   0  0  0  0  0  0  0  0  0  0  0  0
   -0.8437   -2.4354    1.4902 O   0  0  0  0  0  0  0  0  0  0  0  0
   -1.2170   -0.8653   -0.0889 N   0  0  0  0  0  0  0  0  0  0  0  0
   -1.7317   -0.7350   -0.9539 H   0  0  0  0  0  0  0  0  0  0  0  0
    0.1328   -0.2859   -0.1115 C   0  0  1  0  0  0  0  0  0  0  0  0
    0.7837   -0.8327    0.5777 H   0  0  0  0  0  0  0  0  0  0  0  0
    0.7874   -0.3233   -1.5221 C   0  0  0  0  0  0  0  0  0  0  0  0
    0.3256    0.4609   -2.1289 H   0  0  0  0  0  0  0  0  0  0  0  0
    1.8445   -0.0689   -1.4068 H   0  0  0  0  0  0  0  0  0  0  0  0
    0.7116   -1.5919   -2.3763 C   0  0  0  0  0  0  0  0  0  0  0  0
   -0.0965   -2.5100   -2.0975 O   0  5  0  0  0  0  0  0  0  0  0  0
    1.4875   -1.6126   -3.3615 O   0  0  0  0  0  0  0  0  0  0  0  0
    0.0952    1.2008    0.3109 C   0  0  0  0  0  0  0  0  0  0  0  0
   -0.7566    1.9777   -0.1142 O   0  0  0  0  0  0  0  0  0  0  0  0
    1.0371    1.6734    1.2079 N   0  0  0  0  0  0  0  0  0  0  0  0
    1.6965    0.9966    1.5795 H   0  0  0  0  0  0  0  0  0  0  0  0
    1.0666    3.0416    1.7033 C   0  0  0  0  0  0  0  0  0  0  0  0
    0.1422    3.2728    2.2424 H   0  0  0  0  0  0  0  0  0  0  0  0
    1.9099    3.1757    2.3871 H   0  0  0  0  0  0  0  0  0  0  0  0
    1.1792    3.7463    0.8731 H   0  0  0  0  0  0  0  0  0  0  0  0
  1  2  1  0  0  0  0
  2  3  1  0  0  0  0
  2  4  1  0  0  0  0
  2  5  1  0  0  0  0
  5  6  2  0  0  0  0
  5  7  1  0  0  0  0
  7  8  1  0  0  0  0
  7  9  1  0  0  0  0
  9 10  1  0  0  0  0
  9 11  1  0  0  0  0
  9 17  1  0  0  0  0
 11 12  1  0  0  0  0
 11 13  1  0  0  0  0
 11 14  1  0  0  0  0
 14 15  1  0  0  0  0
 14 16  2  0  0  0  0
 17 18  2  0  0  0  0
 17 19  1  0  0  0  0
 19 20  1  0  0  0  0
 19 21  1  0  0  0  0
 21 22  1  0  0  0  0
 21 23  1  0  0  0  0
 21 24  1  0  0  0  0
M  CHG  1  15  -1
M  END
$$$$

  -OEChem-03222214023D

 24 23  0     1  0  0  0  0  0999 V2000
   -2.6369   -3.9047    0.5096 H   0  0  0  0  0  0  0  0  0  0  0  0
   -2.6295   -2.9395   -0.0033 C   0  0  0  0  0  0  0  0  0  0  0  0
   -3.5653   -2.4162    0.2061 H   0  0  0  0  0  0  0  0  0  0  0  0
   -2.5532   -3.1181   -1.0791 H   0  0  0  0  0  0  0  0  0  0  0  0
   -1.4503   -2.1047    0.4667 C   0  0  0  0  0  0  0  0  0  0  0  0
   -0.8284   -2.4489    1.4658 O   0  0  0  0  0  0  0  0  0  0  0  0
   -1.2199   -0.8658   -0.0977 N   0  0  0  0  0  0  0  0  0  0  0  0
   -1.7152   -0.7569   -0.9784 H   0  0  0  0  0  0  0  0  0  0  0  0
    0.1279   -0.2817   -0.1116 C   0  0  1  0  0  0  0  0  0  0  0  0
    0.7770   -0.8266    0.5805 H   0  0  0  0  0  0  0  0  0  0  0  0
    0.7893   -0.3176   -1.5182 C   0  0  0  0  0  0  0  0  0  0  0  0
    0.3267    0.4613   -2.1308 H   0  0  0  0  0  0  0  0  0  0  0  0
    1.8447   -0.0566   -1.3994 H   0  0  0  0  0  0  0  0  0  0  0  0
    0.7130   -1.5933   -2.3609 C   0  0  0  0  0  0  0  0  0  0  0  0
   -0.2695   -2.3678   -2.2514 O   0  5  0  0  0  0  0  0  0  0  0  0
    1.6640   -1.7686   -3.1598 O   0  0  0  0  0  0  0  0  0  0  0  0
    0.0892    1.2044    0.3126 C   0  0  0  0  0  0  0  0  0  0  0  0
   -0.7557    1.9853   -0.1187 O   0  0  0  0  0  0  0  0  0  0  0  0
    1.0285    1.6727    1.2145 N   0  0  0  0  0  0  0  0  0  0  0  0
    1.6903    0.9953    1.5811 H   0  0  0  0  0  0  0  0  0  0  0  0
    1.0698    3.0433    1.7017 C   0  0  0  0  0  0  0  0  0  0  0  0
    0.1412    3.2908    2.2260 H   0  0  0  0  0  0  0  0  0  0  0  0
    1.9048    3.1694    2.3972 H   0  0  0  0  0  0  0  0  0  0  0  0
    1.2046    3.7413    0.8690 H   0  0  0  0  0  0  0  0  0  0  0  0
  1  2  1  0  0  0  0
  2  3  1  0  0  0  0
  2  4  1  0  0  0  0
  2  5  1  0  0  0  0
  5  6  2  0  0  0  0
  5  7  1  0  0  0  0
  7  8  1  0  0  0  0
  7  9  1  0  0  0  0
  9 10  1  0  0  0  0
  9 11  1  0  0  0  0
  9 17  1  0  0  0  0
 11 12  1  0  0  0  0
 11 13  1  0  0  0  0
 11 14  1  0  0  0  0
 14 15  1  0  0  0  0
 14 16  2  0  0  0  0
 17 18  2  0  0  0  0
 17 19  1  0  0  0  0
 19 20  1  0  0  0  0
 19 21  1  0  0  0  0
 21 22  1  0  0  0  0
 21 23  1  0  0  0  0
 21 24  1  0  0  0  0
M  CHG  1  15  -1
M  END
$$$$

  -OEChem-03222214023D

 24 23  0     1  0  0  0  0  0999 V2000
   -2.6876   -3.8590    0.5800 H   0  0  0  0  0  0  0  0  0  0  0  0
   -2.6070   -2.9505   -0.0225 C   0  0  0  0  0  0  0  0  0  0  0  0
   -3.5364   -2.3831    0.0631 H   0  0  0  0  0  0  0  0  0  0  0  0
   -2.4592   -3.2364   -1.0671 H   0  0  0  0  0  0  0  0  0  0  0  0
   -1.4368   -2.1061    0.4532 C   0  0  0  0  0  0  0  0  0  0  0  0
   -0.8060   -2.4564    1.4443 O   0  0  0  0  0  0  0  0  0  0  0  0
   -1.2153   -0.8629   -0.1046 N   0  0  0  0  0  0  0  0  0  0  0  0
   -1.6948   -0.7714   -0.9981 H   0  0  0  0  0  0  0  0  0  0  0  0
    0.1288   -0.2711   -0.1128 C   0  0  1  0  0  0  0  0  0  0  0  0
    0.7842   -0.8172    0.5727 H   0  0  0  0  0  0  0  0  0  0  0  0
    0.7755   -0.3029   -1.5242 C   0  0  0  0  0  0  0  0  0  0  0  0
    0.3067    0.4724   -2.1366 H   0  0  0  0  0  0  0  0  0  0  0  0
    1.8327   -0.0425   -1.4212 H   0  0  0  0  0  0  0  0  0  0  0  0
    0.6761   -1.5919   -2.3410 C   0  0  0  0  0  0  0  0  0  0  0  0
   -0.4253   -2.1953   -2.4057 O   0  5  0  0  0  0  0  0  0  0  0  0
    1.7199   -1.9558   -2.9334 O   0  0  0  0  0  0  0  0  0  0  0  0
    0.0897    1.2129    0.3182 C   0  0  0  0  0  0  0  0  0  0  0  0
   -0.7520    1.9980   -0.1115 O   0  0  0  0  0  0  0  0  0  0  0  0
    1.0292    1.6756    1.2228 N   0  0  0  0  0  0  0  0  0  0  0  0
    1.6865    0.9940    1.5899 H   0  0  0  0  0  0  0  0  0  0  0  0
    1.0729    3.0437    1.7171 C   0  0  0  0  0  0  0  0  0  0  0  0
    0.1550    3.2820    2.2640 H   0  0  0  0  0  0  0  0  0  0  0  0
    1.9232    3.1709    2.3936 H   0  0  0  0  0  0  0  0  0  0  0  0
    1.1841    3.7474    0.8858 H   0  0  0  0  0  0  0  0  0  0  0  0
  1  2  1  0  0  0  0
  2  3  1  0  0  0  0
  2  4  1  0  0  0  0
  2  5  1  0  0  0  0
  5  6  2  0  0  0  0
  5  7  1  0  0  0  0
  7  8  1  0  0  0  0
  7  9  1  0  0  0  0
  9 10  1  0  0  0  0
  9 11  1  0  0  0  0
  9 17  1  0  0  0  0
 11 12  1  0  0  0  0
 11 13  1  0  0  0  0
 11 14  1  0  0  0  0
 14 15  1  0  0  0  0
 14 16  2  0  0  0  0
 17 18  2  0  0  0  0
 17 19  1  0  0  0  0
 19 20  1  0  0  0  0
 19 21  1  0  0  0  0
 21 22  1  0  0  0  0
 21 23  1  0  0  0  0
 21 24  1  0  0  0  0
M  CHG  1  15  -1
M  END
$$$$

  -OEChem-03222214023D

 24 23  0     1  0  0  0  0  0999 V2000
   -2.7155   -3.8214    0.6036 H   0  0  0  0  0  0  0  0  0  0  0  0
   -2.5671   -2.9647   -0.0589 C   0  0  0  0  0  0  0  0  0  0  0  0
   -3.4890   -2.3798   -0.0946 H   0  0  0  0  0  0  0  0  0  0  0  0
   -2.3406   -3.3329   -1.0630 H   0  0  0  0  0  0  0  0  0  0  0  0
   -1.4221   -2.1021    0.4436 C   0  0  0  0  0  0  0  0  0  0  0  0
   -0.7933   -2.4521    1.4357 O   0  0  0  0  0  0  0  0  0  0  0  0
   -1.2073   -0.8557   -0.1081 N   0  0  0  0  0  0  0  0  0  0  0  0
   -1.6788   -0.7699   -1.0082 H   0  0  0  0  0  0  0  0  0  0  0  0
    0.1331   -0.2555   -0.1119 C   0  0  1  0  0  0  0  0  0  0  0  0
    0.7959   -0.8031    0.5653 H   0  0  0  0  0  0  0  0  0  0  0  0
    0.7516   -0.2930   -1.5327 C   0  0  0  0  0  0  0  0  0  0  0  0
    0.2727    0.4746   -2.1471 H   0  0  0  0  0  0  0  0  0  0  0  0
    1.8127   -0.0381   -1.4599 H   0  0  0  0  0  0  0  0  0  0  0  0
    0.6144   -1.6046   -2.3012 C   0  0  0  0  0  0  0  0  0  0  0  0
   -0.5452   -2.0306   -2.5436 O   0  5  0  0  0  0  0  0  0  0  0  0
    1.6731   -2.1688   -2.6657 O   0  0  0  0  0  0  0  0  0  0  0  0
    0.0967    1.2270    0.3236 C   0  0  0  0  0  0  0  0  0  0  0  0
   -0.7435    2.0154   -0.1025 O   0  0  0  0  0  0  0  0  0  0  0  0
    1.0380    1.6847    1.2287 N   0  0  0  0  0  0  0  0  0  0  0  0
    1.6915    0.9996    1.5960 H   0  0  0  0  0  0  0  0  0  0  0  0
    1.0801    3.0493    1.7327 C   0  0  0  0  0  0  0  0  0  0  0  0
    0.1625    3.2817    2.2826 H   0  0  0  0  0  0  0  0  0  0  0  0
    1.9311    3.1736    2.4087 H   0  0  0  0  0  0  0  0  0  0  0  0
    1.1885    3.7594    0.9066 H   0  0  0  0  0  0  0  0  0  0  0  0
  1  2  1  0  0  0  0
  2  3  1  0  0  0  0
  2  4  1  0  0  0  0
  2  5  1  0  0  0  0
  5  6  2  0  0  0  0
  5  7  1  0  0  0  0
  7  8  1  0  0  0  0
  7  9  1  0  0  0  0
  9 10  1  0  0  0  0
  9 11  1  0  0  0  0
  9 17  1  0  0  0  0
 11 12  1  0  0  0  0
 11 13  1  0  0  0  0
 11 14  1  0  0  0  0
 14 15  1  0  0  0  0
 14 16  2  0  0  0  0
 17 18  2  0  0  0  0
 17 19  1  0  0  0  0
 19 20  1  0  0  0  0
 19 21  1  0  0  0  0
 21 22  1  0  0  0  0
 21 23  1  0  0  0  0
 21 24  1  0  0  0  0
M  CHG  1  15  -1
M  END
$$$$

  -OEChem-03222214023D

 24 23  0     1  0  0  0  0  0999 V2000
   -2.6338   -3.8712    0.5165 H   0  0  0  0  0  0  0  0  0  0  0  0
   -2.5276   -2.9765   -0.1021 C   0  0  0  0  0  0  0  0  0  0  0  0
   -3.4722   -2.4282   -0.0999 H   0  0  0  0  0  0  0  0  0  0  0  0
   -2.2970   -3.2836   -1.1257 H   0  0  0  0  0  0  0  0  0  0  0  0
   -1.4126   -2.0955    0.4337 C   0  0  0  0  0  0  0  0  0  0  0  0
   -0.7956   -2.4403    1.4344 O   0  0  0  0  0  0  0  0  0  0  0  0
   -1.2005   -0.8473   -0.1140 N   0  0  0  0  0  0  0  0  0  0  0  0
   -1.6764   -0.7505   -1.0115 H   0  0  0  0  0  0  0  0  0  0  0  0
    0.1370   -0.2388   -0.1113 C   0  0  1  0  0  0  0  0  0  0  0  0
    0.8031   -0.7881    0.5617 H   0  0  0  0  0  0  0  0  0  0  0  0
    0.7316   -0.2913   -1.5378 C   0  0  0  0  0  0  0  0  0  0  0  0
    0.2480    0.4665   -2.1613 H   0  0  0  0  0  0  0  0  0  0  0  0
    1.7968   -0.0479   -1.4936 H   0  0  0  0  0  0  0  0  0  0  0  0
    0.5580   -1.6302   -2.2424 C   0  0  0  0  0  0  0  0  0  0  0  0
   -0.5900   -1.9031   -2.6821 O   0  5  0  0  0  0  0  0  0  0  0  0
    1.5625   -2.3727   -2.3473 O   0  0  0  0  0  0  0  0  0  0  0  0
    0.1043    1.2429    0.3245 C   0  0  0  0  0  0  0  0  0  0  0  0
   -0.7333    2.0335   -0.1022 O   0  0  0  0  0  0  0  0  0  0  0  0
    1.0455    1.6976    1.2313 N   0  0  0  0  0  0  0  0  0  0  0  0
    1.6973    1.0107    1.5984 H   0  0  0  0  0  0  0  0  0  0  0  0
    1.0869    3.0604    1.7399 C   0  0  0  0  0  0  0  0  0  0  0  0
    0.1632    3.2956    2.2783 H   0  0  0  0  0  0  0  0  0  0  0  0
    1.9294    3.1782    2.4278 H   0  0  0  0  0  0  0  0  0  0  0  0
    1.2096    3.7721    0.9171 H   0  0  0  0  0  0  0  0  0  0  0  0
  1  2  1  0  0  0  0
  2  3  1  0  0  0  0
  2  4  1  0  0  0  0
  2  5  1  0  0  0  0
  5  6  2  0  0  0  0
  5  7  1  0  0  0  0
  7  8  1  0  0  0  0
  7  9  1  0  0  0  0
  9 10  1  0  0  0  0
  9 11  1  0  0  0  0
  9 17  1  0  0  0  0
 11 12  1  0  0  0  0
 11 13  1  0  0  0  0
 11 14  1  0  0  0  0
 14 15  1  0  0  0  0
 14 16  2  0  0  0  0
 17 18  2  0  0  0  0
 17 19  1  0  0  0  0
 19 20  1  0  0  0  0
 19 21  1  0  0  0  0
 21 22  1  0  0  0  0
 21 23  1  0  0  0  0
 21 24  1  0  0  0  0
M  CHG  1  15  -1
M  END
$$$$

  -OEChem-03222214023D

 24 23  0     1  0  0  0  0  0999 V2000
   -2.5770   -3.9019    0.4514 H   0  0  0  0  0  0  0  0  0  0  0  0
   -2.4880   -2.9898   -0.1443 C   0  0  0  0  0  0  0  0  0  0  0  0
   -3.4497   -2.4717   -0.1479 H   0  0  0  0  0  0  0  0  0  0  0  0
   -2.2272   -3.2648   -1.1703 H   0  0  0  0  0  0  0  0  0  0  0  0
   -1.4118   -2.0874    0.4323 C   0  0  0  0  0  0  0  0  0  0  0  0
   -0.8209   -2.4178    1.4529 O   0  0  0  0  0  0  0  0  0  0  0  0
   -1.2006   -0.8384   -0.1131 N   0  0  0  0  0  0  0  0  0  0  0  0
   -1.6897   -0.7211   -1.0004 H   0  0  0  0  0  0  0  0  0  0  0  0
    0.1361   -0.2266   -0.1073 C   0  0  1  0  0  0  0  0  0  0  0  0
    0.8041   -0.7788    0.5620 H   0  0  0  0  0  0  0  0  0  0  0  0
    0.7090   -0.2937   -1.5392 C   0  0  0  0  0  0  0  0  0  0  0  0
    0.2233    0.4594   -2.1669 H   0  0  0  0  0  0  0  0  0  0  0  0
    1.7774   -0.0631   -1.5175 H   0  0  0  0  0  0  0  0  0  0  0  0
    0.5079   -1.6501   -2.1970 C   0  0  0  0  0  0  0  0  0  0  0  0
   -0.5545   -1.8106   -2.8514 O   0  5  0  0  0  0  0  0  0  0  0  0
    1.3961   -2.5203   -2.0423 O   0  0  0  0  0  0  0  0  0  0  0  0
    0.1104    1.2548    0.3285 C   0  0  0  0  0  0  0  0  0  0  0  0
   -0.7235    2.0483   -0.0997 O   0  0  0  0  0  0  0  0  0  0  0  0
    1.0535    1.7058    1.2350 N   0  0  0  0  0  0  0  0  0  0  0  0
    1.6974    1.0146    1.6081 H   0  0  0  0  0  0  0  0  0  0  0  0
    1.1022    3.0697    1.7401 C   0  0  0  0  0  0  0  0  0  0  0  0
    0.1807    3.3099    2.2800 H   0  0  0  0  0  0  0  0  0  0  0  0
    1.9470    3.1863    2.4252 H   0  0  0  0  0  0  0  0  0  0  0  0
    1.2259    3.7791    0.9154 H   0  0  0  0  0  0  0  0  0  0  0  0
  1  2  1  0  0  0  0
  2  3  1  0  0  0  0
  2  4  1  0  0  0  0
  2  5  1  0  0  0  0
  5  6  2  0  0  0  0
  5  7  1  0  0  0  0
  7  8  1  0  0  0  0
  7  9  1  0  0  0  0
  9 10  1  0  0  0  0
  9 11  1  0  0  0  0
  9 17  1  0  0  0  0
 11 12  1  0  0  0  0
 11 13  1  0  0  0  0
 11 14  1  0  0  0  0
 14 15  1  0  0  0  0
 14 16  2  0  0  0  0
 17 18  2  0  0  0  0
 17 19  1  0  0  0  0
 19 20  1  0  0  0  0
 19 21  1  0  0  0  0
 21 22  1  0  0  0  0
 21 23  1  0  0  0  0
 21 24  1  0  0  0  0
M  CHG  1  15  -1
M  END
$$$$

  -OEChem-03222214023D

 24 23  0     1  0  0  0  0  0999 V2000
   -2.4886   -3.9420    0.3728 H   0  0  0  0  0  0  0  0  0  0  0  0
   -2.4578   -2.9941   -0.1709 C   0  0  0  0  0  0  0  0  0  0  0  0
   -3.4446   -2.5274   -0.1325 H   0  0  0  0  0  0  0  0  0  0  0  0
   -2.1983   -3.1973   -1.2140 H   0  0  0  0  0  0  0  0  0  0  0  0
   -1.4204   -2.0712    0.4417 C   0  0  0  0  0  0  0  0  0  0  0  0
   -0.8665   -2.3790    1.4896 O   0  0  0  0  0  0  0  0  0  0  0  0
   -1.2085   -0.8244   -0.1079 N   0  0  0  0  0  0  0  0  0  0  0  0
   -1.7136   -0.6884   -0.9818 H   0  0  0  0  0  0  0  0  0  0  0  0
    0.1308   -0.2187   -0.1068 C   0  0  1  0  0  0  0  0  0  0  0  0
    0.7954   -0.7732    0.5642 H   0  0  0  0  0  0  0  0  0  0  0  0
    0.6966   -0.3047   -1.5403 C   0  0  0  0  0  0  0  0  0  0  0  0
    0.2134    0.4463   -2.1726 H   0  0  0  0  0  0  0  0  0  0  0  0
    1.7669   -0.0842   -1.5287 H   0  0  0  0  0  0  0  0  0  0  0  0
    0.4828   -1.6700   -2.1766 C   0  0  0  0  0  0  0  0  0  0  0  0
   -0.4167   -1.7593   -3.0489 O   0  5  0  0  0  0  0  0  0  0  0  0
    1.1937   -2.6220   -1.7791 O   0  0  0  0  0  0  0  0  0  0  0  0
    0.1152    1.2636    0.3247 C   0  0  0  0  0  0  0  0  0  0  0  0
   -0.7158    2.0595   -0.1043 O   0  0  0  0  0  0  0  0  0  0  0  0
    1.0634    1.7113    1.2275 N   0  0  0  0  0  0  0  0  0  0  0  0
    1.6941    1.0135    1.6109 H   0  0  0  0  0  0  0  0  0  0  0  0
    1.1131    3.0724    1.7399 C   0  0  0  0  0  0  0  0  0  0  0  0
    0.1916    3.3109    2.2806 H   0  0  0  0  0  0  0  0  0  0  0  0
    1.9574    3.1843    2.4265 H   0  0  0  0  0  0  0  0  0  0  0  0
    1.2385    3.7861    0.9192 H   0  0  0  0  0  0  0  0  0  0  0  0
  1  2  1  0  0  0  0
  2  3  1  0  0  0  0
  2  4  1  0  0  0  0
  2  5  1  0  0  0  0
  5  6  2  0  0  0  0
  5  7  1  0  0  0  0
  7  8  1  0  0  0  0
  7  9  1  0  0  0  0
  9 10  1  0  0  0  0
  9 11  1  0  0  0  0
  9 17  1  0  0  0  0
 11 12  1  0  0  0  0
 11 13  1  0  0  0  0
 11 14  1  0  0  0  0
 14 15  1  0  0  0  0
 14 16  2  0  0  0  0
 17 18  2  0  0  0  0
 17 19  1  0  0  0  0
 19 20  1  0  0  0  0
 19 21  1  0  0  0  0
 21 22  1  0  0  0  0
 21 23  1  0  0  0  0
 21 24  1  0  0  0  0
M  CHG  1  15  -1
M  END
$$$$

  -OEChem-03222214023D

 24 23  0     1  0  0  0  0  0999 V2000
   -2.5212   -3.9254    0.4103 H   0  0  0  0  0  0  0  0  0  0  0  0
   -2.4432   -3.0055   -0.1749 C   0  0  0  0  0  0  0  0  0  0  0  0
   -3.4244   -2.5279   -0.2216 H   0  0  0  0  0  0  0  0  0  0  0  0
   -2.1206   -3.2614   -1.1885 H   0  0  0  0  0  0  0  0  0  0  0  0
   -1.4331   -2.0649    0.4565 C   0  0  0  0  0  0  0  0  0  0  0  0
   -0.9085   -2.3516    1.5256 O   0  0  0  0  0  0  0  0  0  0  0  0
   -1.2231   -0.8187   -0.0960 N   0  0  0  0  0  0  0  0  0  0  0  0
   -1.7391   -0.6704   -0.9594 H   0  0  0  0  0  0  0  0  0  0  0  0
    0.1192   -0.2210   -0.1013 C   0  0  1  0  0  0  0  0  0  0  0  0
    0.7813   -0.7792    0.5693 H   0  0  0  0  0  0  0  0  0  0  0  0
    0.6887   -0.3056   -1.5344 C   0  0  0  0  0  0  0  0  0  0  0  0
    0.2084    0.4534   -2.1597 H   0  0  0  0  0  0  0  0  0  0  0  0
    1.7590   -0.0863   -1.5175 H   0  0  0  0  0  0  0  0  0  0  0  0
    0.4818   -1.6618   -2.1957 C   0  0  0  0  0  0  0  0  0  0  0  0
   -0.1873   -1.6858   -3.2568 O   0  5  0  0  0  0  0  0  0  0  0  0
    0.9703   -2.6713   -1.6365 O   0  0  0  0  0  0  0  0  0  0  0  0
    0.1103    1.2612    0.3307 C   0  0  0  0  0  0  0  0  0  0  0  0
   -0.7214    2.0589   -0.0943 O   0  0  0  0  0  0  0  0  0  0  0  0
    1.0634    1.7062    1.2295 N   0  0  0  0  0  0  0  0  0  0  0  0
    1.6971    1.0076    1.6065 H   0  0  0  0  0  0  0  0  0  0  0  0
    1.1252    3.0694    1.7348 C   0  0  0  0  0  0  0  0  0  0  0  0
    0.2130    3.3135    2.2885 H   0  0  0  0  0  0  0  0  0  0  0  0
    1.9805    3.1811    2.4075 H   0  0  0  0  0  0  0  0  0  0  0  0
    1.2402    3.7789    0.9090 H   0  0  0  0  0  0  0  0  0  0  0  0
  1  2  1  0  0  0  0
  2  3  1  0  0  0  0
  2  4  1  0  0  0  0
  2  5  1  0  0  0  0
  5  6  2  0  0  0  0
  5  7  1  0  0  0  0
  7  8  1  0  0  0  0
  7  9  1  0  0  0  0
  9 10  1  0  0  0  0
  9 11  1  0  0  0  0
  9 17  1  0  0  0  0
 11 12  1  0  0  0  0
 11 13  1  0  0  0  0
 11 14  1  0  0  0  0
 14 15  1  0  0  0  0
 14 16  2  0  0  0  0
 17 18  2  0  0  0  0
 17 19  1  0  0  0  0
 19 20  1  0  0  0  0
 19 21  1  0  0  0  0
 21 22  1  0  0  0  0
 21 23  1  0  0  0  0
 21 24  1  0  0  0  0
M  CHG  1  15  -1
M  END
$$$$

  -OEChem-03222214023D

 24 23  0     1  0  0  0  0  0999 V2000
   -2.5544   -3.9085    0.4511 H   0  0  0  0  0  0  0  0  0  0  0  0
   -2.4667   -2.9970   -0.1459 C   0  0  0  0  0  0  0  0  0  0  0  0
   -3.4419   -2.5076   -0.1950 H   0  0  0  0  0  0  0  0  0  0  0  0
   -2.1503   -3.2697   -1.1568 H   0  0  0  0  0  0  0  0  0  0  0  0
   -1.4413   -2.0627    0.4706 C   0  0  0  0  0  0  0  0  0  0  0  0
   -0.9256   -2.3392    1.5470 O   0  0  0  0  0  0  0  0  0  0  0  0
   -1.2242   -0.8208   -0.0899 N   0  0  0  0  0  0  0  0  0  0  0  0
   -1.7482   -0.6667   -0.9459 H   0  0  0  0  0  0  0  0  0  0  0  0
    0.1219   -0.2321   -0.1024 C   0  0  1  0  0  0  0  0  0  0  0  0
    0.7805   -0.7899    0.5718 H   0  0  0  0  0  0  0  0  0  0  0  0
    0.7032   -0.3136   -1.5340 C   0  0  0  0  0  0  0  0  0  0  0  0
    0.2266    0.4533   -2.1527 H   0  0  0  0  0  0  0  0  0  0  0  0
    1.7724   -0.0906   -1.5043 H   0  0  0  0  0  0  0  0  0  0  0  0
    0.5157   -1.6543   -2.2370 C   0  0  0  0  0  0  0  0  0  0  0  0
    0.1287   -1.6208   -3.4295 O   0  5  0  0  0  0  0  0  0  0  0  0
    0.7588   -2.7050   -1.5980 O   0  0  0  0  0  0  0  0  0  0  0  0
    0.1129    1.2522    0.3230 C   0  0  0  0  0  0  0  0  0  0  0  0
   -0.7225    2.0461   -0.1022 O   0  0  0  0  0  0  0  0  0  0  0  0
    1.0663    1.7022    1.2190 N   0  0  0  0  0  0  0  0  0  0  0  0
    1.6965    1.0045    1.6033 H   0  0  0  0  0  0  0  0  0  0  0  0
    1.1142    3.0629    1.7325 C   0  0  0  0  0  0  0  0  0  0  0  0
    0.1960    3.2969    2.2805 H   0  0  0  0  0  0  0  0  0  0  0  0
    1.9636    3.1779    2.4124 H   0  0  0  0  0  0  0  0  0  0  0  0
    1.2293    3.7776    0.9112 H   0  0  0  0  0  0  0  0  0  0  0  0
  1  2  1  0  0  0  0
  2  3  1  0  0  0  0
  2  4  1  0  0  0  0
  2  5  1  0  0  0  0
  5  6  2  0  0  0  0
  5  7  1  0  0  0  0
  7  8  1  0  0  0  0
  7  9  1  0  0  0  0
  9 10  1  0  0  0  0
  9 11  1  0  0  0  0
  9 17  1  0  0  0  0
 11 12  1  0  0  0  0
 11 13  1  0  0  0  0
 11 14  1  0  0  0  0
 14 15  1  0  0  0  0
 14 16  2  0  0  0  0
 17 18  2  0  0  0  0
 17 19  1  0  0  0  0
 19 20  1  0  0  0  0
 19 21  1  0  0  0  0
 21 22  1  0  0  0  0
 21 23  1  0  0  0  0
 21 24  1  0  0  0  0
M  CHG  1  15  -1
M  END
$$$$

  -OEChem-03222214023D

 24 23  0     1  0  0  0  0  0999 V2000
   -2.6245   -3.8822    0.5115 H   0  0  0  0  0  0  0  0  0  0  0  0
   -2.5117   -2.9877   -0.1063 C   0  0  0  0  0  0  0  0  0  0  0  0
   -3.4696   -2.4654   -0.1563 H   0  0  0  0  0  0  0  0  0  0  0  0
   -2.2165   -3.2934   -1.1139 H   0  0  0  0  0  0  0  0  0  0  0  0
   -1.4479   -2.0767    0.4798 C   0  0  0  0  0  0  0  0  0  0  0  0
   -0.9190   -2.3600    1.5487 O   0  0  0  0  0  0  0  0  0  0  0  0
   -1.2244   -0.8366   -0.0829 N   0  0  0  0  0  0  0  0  0  0  0  0
   -1.7556   -0.6764   -0.9322 H   0  0  0  0  0  0  0  0  0  0  0  0
    0.1230   -0.2508   -0.1001 C   0  0  1  0  0  0  0  0  0  0  0  0
    0.7794   -0.8065    0.5778 H   0  0  0  0  0  0  0  0  0  0  0  0
    0.7251   -0.3152   -1.5271 C   0  0  0  0  0  0  0  0  0  0  0  0
    0.2507    0.4601   -2.1368 H   0  0  0  0  0  0  0  0  0  0  0  0
    1.7907   -0.0798   -1.4741 H   0  0  0  0  0  0  0  0  0  0  0  0
    0.5753   -1.6301   -2.2896 C   0  0  0  0  0  0  0  0  0  0  0  0
    0.5061   -1.5419   -3.5386 O   0  5  0  0  0  0  0  0  0  0  0  0
    0.5520   -2.7104   -1.6543 O   0  0  0  0  0  0  0  0  0  0  0  0
    0.1041    1.2342    0.3246 C   0  0  0  0  0  0  0  0  0  0  0  0
   -0.7378    2.0216   -0.1001 O   0  0  0  0  0  0  0  0  0  0  0  0
    1.0543    1.6922    1.2200 N   0  0  0  0  0  0  0  0  0  0  0  0
    1.6949    1.0017    1.6000 H   0  0  0  0  0  0  0  0  0  0  0  0
    1.1028    3.0581    1.7197 C   0  0  0  0  0  0  0  0  0  0  0  0
    0.1890    3.2948    2.2741 H   0  0  0  0  0  0  0  0  0  0  0  0
    1.9582    3.1819    2.3903 H   0  0  0  0  0  0  0  0  0  0  0  0
    1.2086    3.7653    0.8907 H   0  0  0  0  0  0  0  0  0  0  0  0
  1  2  1  0  0  0  0
  2  3  1  0  0  0  0
  2  4  1  0  0  0  0
  2  5  1  0  0  0  0
  5  6  2  0  0  0  0
  5  7  1  0  0  0  0
  7  8  1  0  0  0  0
  7  9  1  0  0  0  0
  9 10  1  0  0  0  0
  9 11  1  0  0  0  0
  9 17  1  0  0  0  0
 11 12  1  0  0  0  0
 11 13  1  0  0  0  0
 11 14  1  0  0  0  0
 14 15  1  0  0  0  0
 14 16  2  0  0  0  0
 17 18  2  0  0  0  0
 17 19  1  0  0  0  0
 19 20  1  0  0  0  0
 19 21  1  0  0  0  0
 21 22  1  0  0  0  0
 21 23  1  0  0  0  0
 21 24  1  0  0  0  0
M  CHG  1  15  -1
M  END
$$$$

  -OEChem-03222214023D

 24 23  0     1  0  0  0  0  0999 V2000
   -2.6275   -3.8911    0.5228 H   0  0  0  0  0  0  0  0  0  0  0  0
   -2.5590   -2.9696   -0.0612 C   0  0  0  0  0  0  0  0  0  0  0  0
   -3.5177   -2.4481   -0.0203 H   0  0  0  0  0  0  0  0  0  0  0  0
   -2.3360   -3.2303   -1.0995 H   0  0  0  0  0  0  0  0  0  0  0  0
   -1.4566   -2.0819    0.4889 C   0  0  0  0  0  0  0  0  0  0  0  0
   -0.9060   -2.3744    1.5447 O   0  0  0  0  0  0  0  0  0  0  0  0
   -1.2250   -0.8464   -0.0812 N   0  0  0  0  0  0  0  0  0  0  0  0
   -1.7517   -0.6954   -0.9346 H   0  0  0  0  0  0  0  0  0  0  0  0
    0.1252   -0.2675   -0.1015 C   0  0  1  0  0  0  0  0  0  0  0  0
    0.7767   -0.8198    0.5833 H   0  0  0  0  0  0  0  0  0  0  0  0
    0.7514   -0.3246   -1.5217 C   0  0  0  0  0  0  0  0  0  0  0  0
    0.2858    0.4568   -2.1301 H   0  0  0  0  0  0  0  0  0  0  0  0
    1.8140   -0.0820   -1.4413 H   0  0  0  0  0  0  0  0  0  0  0  0
    0.6375   -1.6161   -2.3329 C   0  0  0  0  0  0  0  0  0  0  0  0
    0.8945   -1.5079   -3.5555 O   0  5  0  0  0  0  0  0  0  0  0  0
    0.3120   -2.6897   -1.7739 O   0  0  0  0  0  0  0  0  0  0  0  0
    0.1007    1.2200    0.3162 C   0  0  0  0  0  0  0  0  0  0  0  0
   -0.7440    2.0024   -0.1125 O   0  0  0  0  0  0  0  0  0  0  0  0
    1.0473    1.6853    1.2119 N   0  0  0  0  0  0  0  0  0  0  0  0
    1.6910    0.9994    1.5947 H   0  0  0  0  0  0  0  0  0  0  0  0
    1.0877    3.0528    1.7076 C   0  0  0  0  0  0  0  0  0  0  0  0
    0.1693    3.2885    2.2547 H   0  0  0  0  0  0  0  0  0  0  0  0
    1.9377    3.1811    2.3842 H   0  0  0  0  0  0  0  0  0  0  0  0
    1.1975    3.7577    0.8771 H   0  0  0  0  0  0  0  0  0  0  0  0
  1  2  1  0  0  0  0
  2  3  1  0  0  0  0
  2  4  1  0  0  0  0
  2  5  1  0  0  0  0
  5  6  2  0  0  0  0
  5  7  1  0  0  0  0
  7  8  1  0  0  0  0
  7  9  1  0  0  0  0
  9 10  1  0  0  0  0
  9 11  1  0  0  0  0
  9 17  1  0  0  0  0
 11 12  1  0  0  0  0
 11 13  1  0  0  0  0
 11 14  1  0  0  0  0
 14 15  1  0  0  0  0
 14 16  2  0  0  0  0
 17 18  2  0  0  0  0
 17 19  1  0  0  0  0
 19 20  1  0  0  0  0
 19 21  1  0  0  0  0
 21 22  1  0  0  0  0
 21 23  1  0  0  0  0
 21 24  1  0  0  0  0
M  CHG  1  15  -1
M  END
$$$$

  -OEChem-03222214023D

 24 23  0     1  0  0  0  0  0999 V2000
   -2.7043   -3.8610    0.6193 H   0  0  0  0  0  0  0  0  0  0  0  0
   -2.6548   -2.9309    0.0472 C   0  0  0  0  0  0  0  0  0  0  0  0
   -3.5723   -2.3618    0.2118 H   0  0  0  0  0  0  0  0  0  0  0  0
   -2.5747   -3.1778   -1.0146 H   0  0  0  0  0  0  0  0  0  0  0  0
   -1.4508   -2.1109    0.4795 C   0  0  0  0  0  0  0  0  0  0  0  0
   -0.7941   -2.4720    1.4505 O   0  0  0  0  0  0  0  0  0  0  0  0
   -1.2297   -0.8704   -0.0855 N   0  0  0  0  0  0  0  0  0  0  0  0
   -1.7439   -0.7598   -0.9560 H   0  0  0  0  0  0  0  0  0  0  0  0
    0.1167   -0.2842   -0.1262 C   0  0  1  0  0  0  0  0  0  0  0  0
    0.7687   -0.8248    0.5663 H   0  0  0  0  0  0  0  0  0  0  0  0
    0.7867   -0.3321   -1.5345 C   0  0  0  0  0  0  0  0  0  0  0  0
    0.5328    0.5916   -2.0631 H   0  0  0  0  0  0  0  0  0  0  0  0
    1.8698   -0.3271   -1.3872 H   0  0  0  0  0  0  0  0  0  0  0  0
    0.4695   -1.4509   -2.5342 C   0  0  0  0  0  0  0  0  0  0  0  0
    1.0823   -1.3631   -3.6249 O   0  5  0  0  0  0  0  0  0  0  0  0
   -0.4171   -2.3067   -2.2959 O   0  0  0  0  0  0  0  0  0  0  0  0
    0.0777    1.2010    0.3036 C   0  0  0  0  0  0  0  0  0  0  0  0
   -0.7863    1.9764   -0.0980 O   0  0  0  0  0  0  0  0  0  0  0  0
    1.0321    1.6714    1.1885 N   0  0  0  0  0  0  0  0  0  0  0  0
    1.6977    0.9943    1.5480 H   0  0  0  0  0  0  0  0  0  0  0  0
    1.0610    3.0344    1.6974 C   0  0  0  0  0  0  0  0  0  0  0  0
    0.1510    3.2492    2.2667 H   0  0  0  0  0  0  0  0  0  0  0  0
    1.9235    3.1698    2.3566 H   0  0  0  0  0  0  0  0  0  0  0  0
    1.1409    3.7496    0.8722 H   0  0  0  0  0  0  0  0  0  0  0  0
  1  2  1  0  0  0  0
  2  3  1  0  0  0  0
  2  4  1  0  0  0  0
  2  5  1  0  0  0  0
  5  6  2  0  0  0  0
  5  7  1  0  0  0  0
  7  8  1  0  0  0  0
  7  9  1  0  0  0  0
  9 10  1  0  0  0  0
  9 11  1  0  0  0  0
  9 17  1  0  0  0  0
 11 12  1  0  0  0  0
 11 13  1  0  0  0  0
 11 14  1  0  0  0  0
 14 15  1  0  0  0  0
 14 16  2  0  0  0  0
 17 18  2  0  0  0  0
 17 19  1  0  0  0  0
 19 20  1  0  0  0  0
 19 21  1  0  0  0  0
 21 22  1  0  0  0  0
 21 23  1  0  0  0  0
 21 24  1  0  0  0  0
M  CHG  1  15  -1
M  END
$$$$

  -OEChem-03222214023D

 24 23  0     1  0  0  0  0  0999 V2000
   -2.7478   -3.8170    0.6821 H   0  0  0  0  0  0  0  0  0  0  0  0
   -2.6458   -2.9337    0.0462 C   0  0  0  0  0  0  0  0  0  0  0  0
   -3.5555   -2.3337    0.1230 H   0  0  0  0  0  0  0  0  0  0  0  0
   -2.5220   -3.2600   -0.9897 H   0  0  0  0  0  0  0  0  0  0  0  0
   -1.4433   -2.1107    0.4762 C   0  0  0  0  0  0  0  0  0  0  0  0
   -0.7701   -2.4842    1.4308 O   0  0  0  0  0  0  0  0  0  0  0  0
   -1.2277   -0.8687   -0.0864 N   0  0  0  0  0  0  0  0  0  0  0  0
   -1.7197   -0.7853   -0.9759 H   0  0  0  0  0  0  0  0  0  0  0  0
    0.1167   -0.2798   -0.1257 C   0  0  1  0  0  0  0  0  0  0  0  0
    0.7723   -0.8198    0.5640 H   0  0  0  0  0  0  0  0  0  0  0  0
    0.7789   -0.3280   -1.5371 C   0  0  0  0  0  0  0  0  0  0  0  0
    0.5260    0.5937   -2.0693 H   0  0  0  0  0  0  0  0  0  0  0  0
    1.8627   -0.3251   -1.3927 H   0  0  0  0  0  0  0  0  0  0  0  0
    0.4477   -1.4528   -2.5254 C   0  0  0  0  0  0  0  0  0  0  0  0
    1.2442   -1.5574   -3.4884 O   0  5  0  0  0  0  0  0  0  0  0  0
   -0.6423   -2.0741   -2.4453 O   0  0  0  0  0  0  0  0  0  0  0  0
    0.0788    1.2048    0.3067 C   0  0  0  0  0  0  0  0  0  0  0  0
   -0.7829    1.9837   -0.0926 O   0  0  0  0  0  0  0  0  0  0  0  0
    1.0348    1.6717    1.1919 N   0  0  0  0  0  0  0  0  0  0  0  0
    1.7011    0.9932    1.5472 H   0  0  0  0  0  0  0  0  0  0  0  0
    1.0618    3.0319    1.7085 C   0  0  0  0  0  0  0  0  0  0  0  0
    0.1507    3.2425    2.2778 H   0  0  0  0  0  0  0  0  0  0  0  0
    1.9230    3.1648    2.3698 H   0  0  0  0  0  0  0  0  0  0  0  0
    1.1419    3.7514    0.8872 H   0  0  0  0  0  0  0  0  0  0  0  0
  1  2  1  0  0  0  0
  2  3  1  0  0  0  0
  2  4  1  0  0  0  0
  2  5  1  0  0  0  0
  5  6  2  0  0  0  0
  5  7  1  0  0  0  0
  7  8  1  0  0  0  0
  7  9  1  0  0  0  0
  9 10  1  0  0  0  0
  9 11  1  0  0  0  0
  9 17  1  0  0  0  0
 11 12  1  0  0  0  0
 11 13  1  0  0  0  0
 11 14  1  0  0  0  0
 14 15  1  0  0  0  0
 14 16  2  0  0  0  0
 17 18  2  0  0  0  0
 17 19  1  0  0  0  0
 19 20  1  0  0  0  0
 19 21  1  0  0  0  0
 21 22  1  0  0  0  0
 21 23  1  0  0  0  0
 21 24  1  0  0  0  0
M  CHG  1  15  -1
M  END
$$$$

  -OEChem-03222214023D

 24 23  0     1  0  0  0  0  0999 V2000
   -2.7642   -3.7974    0.6812 H   0  0  0  0  0  0  0  0  0  0  0  0
   -2.6149   -2.9507    0.0063 C   0  0  0  0  0  0  0  0  0  0  0  0
   -3.5252   -2.3470   -0.0126 H   0  0  0  0  0  0  0  0  0  0  0  0
   -2.4212   -3.3323   -0.9997 H   0  0  0  0  0  0  0  0  0  0  0  0
   -1.4409   -2.1062    0.4710 C   0  0  0  0  0  0  0  0  0  0  0  0
   -0.7683   -2.4833    1.4241 O   0  0  0  0  0  0  0  0  0  0  0  0
   -1.2297   -0.8611   -0.0845 N   0  0  0  0  0  0  0  0  0  0  0  0
   -1.7099   -0.7855   -0.9841 H   0  0  0  0  0  0  0  0  0  0  0  0
    0.1116   -0.2659   -0.1183 C   0  0  1  0  0  0  0  0  0  0  0  0
    0.7708   -0.8081    0.5661 H   0  0  0  0  0  0  0  0  0  0  0  0
    0.7568   -0.3195   -1.5354 C   0  0  0  0  0  0  0  0  0  0  0  0
    0.4988    0.5957   -2.0757 H   0  0  0  0  0  0  0  0  0  0  0  0
    1.8428   -0.3180   -1.4071 H   0  0  0  0  0  0  0  0  0  0  0  0
    0.3931   -1.4625   -2.4890 C   0  0  0  0  0  0  0  0  0  0  0  0
    1.2912   -1.8007   -3.2961 O   0  5  0  0  0  0  0  0  0  0  0  0
   -0.7994   -1.8616   -2.5518 O   0  0  0  0  0  0  0  0  0  0  0  0
    0.0797    1.2174    0.3192 C   0  0  0  0  0  0  0  0  0  0  0  0
   -0.7757    2.0026   -0.0806 O   0  0  0  0  0  0  0  0  0  0  0  0
    1.0380    1.6776    1.2055 N   0  0  0  0  0  0  0  0  0  0  0  0
    1.6987    0.9942    1.5621 H   0  0  0  0  0  0  0  0  0  0  0  0
    1.0783    3.0394    1.7178 C   0  0  0  0  0  0  0  0  0  0  0  0
    0.1738    3.2572    2.2947 H   0  0  0  0  0  0  0  0  0  0  0  0
    1.9463    3.1691    2.3707 H   0  0  0  0  0  0  0  0  0  0  0  0
    1.1555    3.7563    0.8940 H   0  0  0  0  0  0  0  0  0  0  0  0
  1  2  1  0  0  0  0
  2  3  1  0  0  0  0
  2  4  1  0  0  0  0
  2  5  1  0  0  0  0
  5  6  2  0  0  0  0
  5  7  1  0  0  0  0
  7  8  1  0  0  0  0
  7  9  1  0  0  0  0
  9 10  1  0  0  0  0
  9 11  1  0  0  0  0
  9 17  1  0  0  0  0
 11 12  1  0  0  0  0
 11 13  1  0  0  0  0
 11 14  1  0  0  0  0
 14 15  1  0  0  0  0
 14 16  2  0  0  0  0
 17 18  2  0  0  0  0
 17 19  1  0  0  0  0
 19 20  1  0  0  0  0
 19 21  1  0  0  0  0
 21 22  1  0  0  0  0
 21 23  1  0  0  0  0
 21 24  1  0  0  0  0
M  CHG  1  15  -1
M  END
$$$$

  -OEChem-03222214023D

 24 23  0     1  0  0  0  0  0999 V2000
   -2.7214   -3.8289    0.6133 H   0  0  0  0  0  0  0  0  0  0  0  0
   -2.5908   -2.9569   -0.0325 C   0  0  0  0  0  0  0  0  0  0  0  0
   -3.5134   -2.3719   -0.0303 H   0  0  0  0  0  0  0  0  0  0  0  0
   -2.3909   -3.2995   -1.0513 H   0  0  0  0  0  0  0  0  0  0  0  0
   -1.4337   -2.1046    0.4584 C   0  0  0  0  0  0  0  0  0  0  0  0
   -0.7643   -2.4852    1.4120 O   0  0  0  0  0  0  0  0  0  0  0  0
   -1.2244   -0.8564   -0.0898 N   0  0  0  0  0  0  0  0  0  0  0  0
   -1.7075   -0.7704   -0.9883 H   0  0  0  0  0  0  0  0  0  0  0  0
    0.1130   -0.2518   -0.1174 C   0  0  1  0  0  0  0  0  0  0  0  0
    0.7749   -0.7953    0.5637 H   0  0  0  0  0  0  0  0  0  0  0  0
    0.7447   -0.3118   -1.5373 C   0  0  0  0  0  0  0  0  0  0  0  0
    0.4770    0.5947   -2.0876 H   0  0  0  0  0  0  0  0  0  0  0  0
    1.8326   -0.3086   -1.4265 H   0  0  0  0  0  0  0  0  0  0  0  0
    0.3510   -1.4776   -2.4467 C   0  0  0  0  0  0  0  0  0  0  0  0
    1.2828   -2.0486   -3.0613 O   0  5  0  0  0  0  0  0  0  0  0  0
   -0.8734   -1.7037   -2.6407 O   0  0  0  0  0  0  0  0  0  0  0  0
    0.0820    1.2298    0.3240 C   0  0  0  0  0  0  0  0  0  0  0  0
   -0.7712    2.0174   -0.0753 O   0  0  0  0  0  0  0  0  0  0  0  0
    1.0404    1.6863    1.2121 N   0  0  0  0  0  0  0  0  0  0  0  0
    1.7058    1.0029    1.5600 H   0  0  0  0  0  0  0  0  0  0  0  0
    1.0836    3.0470    1.7268 C   0  0  0  0  0  0  0  0  0  0  0  0
    0.1721    3.2712    2.2900 H   0  0  0  0  0  0  0  0  0  0  0  0
    1.9424    3.1694    2.3932 H   0  0  0  0  0  0  0  0  0  0  0  0
    1.1787    3.7639    0.9049 H   0  0  0  0  0  0  0  0  0  0  0  0
  1  2  1  0  0  0  0
  2  3  1  0  0  0  0
  2  4  1  0  0  0  0
  2  5  1  0  0  0  0
  5  6  2  0  0  0  0
  5  7  1  0  0  0  0
  7  8  1  0  0  0  0
  7  9  1  0  0  0  0
  9 10  1  0  0  0  0
  9 11  1  0  0  0  0
  9 17  1  0  0  0  0
 11 12  1  0  0  0  0
 11 13  1  0  0  0  0
 11 14  1  0  0  0  0
 14 15  1  0  0  0  0
 14 16  2  0  0  0  0
 17 18  2  0  0  0  0
 17 19  1  0  0  0  0
 19 20  1  0  0  0  0
 19 21  1  0  0  0  0
 21 22  1  0  0  0  0
 21 23  1  0  0  0  0
 21 24  1  0  0  0  0
M  CHG  1  15  -1
M  END
$$$$

  -OEChem-03222214023D

 24 23  0     1  0  0  0  0  0999 V2000
   -2.6432   -3.8761    0.5205 H   0  0  0  0  0  0  0  0  0  0  0  0
   -2.5625   -2.9617   -0.0730 C   0  0  0  0  0  0  0  0  0  0  0  0
   -3.5070   -2.4158   -0.0156 H   0  0  0  0  0  0  0  0  0  0  0  0
   -2.3728   -3.2341   -1.1149 H   0  0  0  0  0  0  0  0  0  0  0  0
   -1.4288   -2.0945    0.4455 C   0  0  0  0  0  0  0  0  0  0  0  0
   -0.7763   -2.4646    1.4144 O   0  0  0  0  0  0  0  0  0  0  0  0
   -1.2189   -0.8459   -0.1007 N   0  0  0  0  0  0  0  0  0  0  0  0
   -1.7020   -0.7515   -0.9990 H   0  0  0  0  0  0  0  0  0  0  0  0
    0.1177   -0.2376   -0.1199 C   0  0  1  0  0  0  0  0  0  0  0  0
    0.7792   -0.7826    0.5603 H   0  0  0  0  0  0  0  0  0  0  0  0
    0.7369   -0.3086   -1.5426 C   0  0  0  0  0  0  0  0  0  0  0  0
    0.4621    0.5897   -2.1030 H   0  0  0  0  0  0  0  0  0  0  0  0
    1.8266   -0.3093   -1.4512 H   0  0  0  0  0  0  0  0  0  0  0  0
    0.3106   -1.4940   -2.4065 C   0  0  0  0  0  0  0  0  0  0  0  0
    1.2087   -2.2752   -2.7992 O   0  5  0  0  0  0  0  0  0  0  0  0
   -0.9062   -1.5839   -2.7221 O   0  0  0  0  0  0  0  0  0  0  0  0
    0.0904    1.2441    0.3201 C   0  0  0  0  0  0  0  0  0  0  0  0
   -0.7560    2.0357   -0.0854 O   0  0  0  0  0  0  0  0  0  0  0  0
    1.0472    1.6962    1.2121 N   0  0  0  0  0  0  0  0  0  0  0  0
    1.6975    1.0060    1.5747 H   0  0  0  0  0  0  0  0  0  0  0  0
    1.0877    3.0537    1.7351 C   0  0  0  0  0  0  0  0  0  0  0  0
    0.1667    3.2806    2.2815 H   0  0  0  0  0  0  0  0  0  0  0  0
    1.9337    3.1670    2.4193 H   0  0  0  0  0  0  0  0  0  0  0  0
    1.2035    3.7747    0.9195 H   0  0  0  0  0  0  0  0  0  0  0  0
  1  2  1  0  0  0  0
  2  3  1  0  0  0  0
  2  4  1  0  0  0  0
  2  5  1  0  0  0  0
  5  6  2  0  0  0  0
  5  7  1  0  0  0  0
  7  8  1  0  0  0  0
  7  9  1  0  0  0  0
  9 10  1  0  0  0  0
  9 11  1  0  0  0  0
  9 17  1  0  0  0  0
 11 12  1  0  0  0  0
 11 13  1  0  0  0  0
 11 14  1  0  0  0  0
 14 15  1  0  0  0  0
 14 16  2  0  0  0  0
 17 18  2  0  0  0  0
 17 19  1  0  0  0  0
 19 20  1  0  0  0  0
 19 21  1  0  0  0  0
 21 22  1  0  0  0  0
 21 23  1  0  0  0  0
 21 24  1  0  0  0  0
M  CHG  1  15  -1
M  END
$$$$

  -OEChem-03222214023D

 24 23  0     1  0  0  0  0  0999 V2000
   -2.6203   -3.8801    0.4851 H   0  0  0  0  0  0  0  0  0  0  0  0
   -2.5250   -2.9734   -0.1179 C   0  0  0  0  0  0  0  0  0  0  0  0
   -3.4777   -2.4390   -0.1109 H   0  0  0  0  0  0  0  0  0  0  0  0
   -2.2847   -3.2581   -1.1461 H   0  0  0  0  0  0  0  0  0  0  0  0
   -1.4263   -2.0845    0.4363 C   0  0  0  0  0  0  0  0  0  0  0  0
   -0.7993   -2.4381    1.4279 O   0  0  0  0  0  0  0  0  0  0  0  0
   -1.2195   -0.8344   -0.1073 N   0  0  0  0  0  0  0  0  0  0  0  0
   -1.7036   -0.7336   -1.0044 H   0  0  0  0  0  0  0  0  0  0  0  0
    0.1175   -0.2251   -0.1210 C   0  0  1  0  0  0  0  0  0  0  0  0
    0.7789   -0.7746    0.5559 H   0  0  0  0  0  0  0  0  0  0  0  0
    0.7239   -0.3021   -1.5468 C   0  0  0  0  0  0  0  0  0  0  0  0
    0.4465    0.5924   -2.1123 H   0  0  0  0  0  0  0  0  0  0  0  0
    1.8144   -0.3121   -1.4716 H   0  0  0  0  0  0  0  0  0  0  0  0
    0.2690   -1.4992   -2.3751 C   0  0  0  0  0  0  0  0  0  0  0  0
    1.0773   -2.4438   -2.5324 O   0  5  0  0  0  0  0  0  0  0  0  0
   -0.9159   -1.4881   -2.8029 O   0  0  0  0  0  0  0  0  0  0  0  0
    0.0961    1.2555    0.3211 C   0  0  0  0  0  0  0  0  0  0  0  0
   -0.7446    2.0525   -0.0854 O   0  0  0  0  0  0  0  0  0  0  0  0
    1.0537    1.7014    1.2154 N   0  0  0  0  0  0  0  0  0  0  0  0
    1.6975    1.0065    1.5809 H   0  0  0  0  0  0  0  0  0  0  0  0
    1.0995    3.0577    1.7406 C   0  0  0  0  0  0  0  0  0  0  0  0
    0.1825    3.2841    2.2939 H   0  0  0  0  0  0  0  0  0  0  0  0
    1.9506    3.1684    2.4187 H   0  0  0  0  0  0  0  0  0  0  0  0
    1.2101    3.7801    0.9256 H   0  0  0  0  0  0  0  0  0  0  0  0
  1  2  1  0  0  0  0
  2  3  1  0  0  0  0
  2  4  1  0  0  0  0
  2  5  1  0  0  0  0
  5  6  2  0  0  0  0
  5  7  1  0  0  0  0
  7  8  1  0  0  0  0
  7  9  1  0  0  0  0
  9 10  1  0  0  0  0
  9 11  1  0  0  0  0
  9 17  1  0  0  0  0
 11 12  1  0  0  0  0
 11 13  1  0  0  0  0
 11 14  1  0  0  0  0
 14 15  1  0  0  0  0
 14 16  2  0  0  0  0
 17 18  2  0  0  0  0
 17 19  1  0  0  0  0
 19 20  1  0  0  0  0
 19 21  1  0  0  0  0
 21 22  1  0  0  0  0
 21 23  1  0  0  0  0
 21 24  1  0  0  0  0
M  CHG  1  15  -1
M  END
$$$$

  -OEChem-03222214023D

 24 23  0     1  0  0  0  0  0999 V2000
   -2.5579   -3.9086    0.4184 H   0  0  0  0  0  0  0  0  0  0  0  0
   -2.4890   -2.9826   -0.1581 C   0  0  0  0  0  0  0  0  0  0  0  0
   -3.4599   -2.4822   -0.1474 H   0  0  0  0  0  0  0  0  0  0  0  0
   -2.2270   -3.2302   -1.1908 H   0  0  0  0  0  0  0  0  0  0  0  0
   -1.4274   -2.0723    0.4321 C   0  0  0  0  0  0  0  0  0  0  0  0
   -0.8348   -2.4039    1.4522 O   0  0  0  0  0  0  0  0  0  0  0  0
   -1.2208   -0.8229   -0.1132 N   0  0  0  0  0  0  0  0  0  0  0  0
   -1.7034   -0.7177   -1.0098 H   0  0  0  0  0  0  0  0  0  0  0  0
    0.1186   -0.2171   -0.1206 C   0  0  1  0  0  0  0  0  0  0  0  0
    0.7769   -0.7707    0.5564 H   0  0  0  0  0  0  0  0  0  0  0  0
    0.7156   -0.3049   -1.5486 C   0  0  0  0  0  0  0  0  0  0  0  0
    0.4424    0.5879   -2.1192 H   0  0  0  0  0  0  0  0  0  0  0  0
    1.8065   -0.3291   -1.4842 H   0  0  0  0  0  0  0  0  0  0  0  0
    0.2362   -1.5104   -2.3474 C   0  0  0  0  0  0  0  0  0  0  0  0
    0.8998   -2.5699   -2.2658 O   0  5  0  0  0  0  0  0  0  0  0  0
   -0.8894   -1.4103   -2.9014 O   0  0  0  0  0  0  0  0  0  0  0  0
    0.1049    1.2643    0.3190 C   0  0  0  0  0  0  0  0  0  0  0  0
   -0.7262    2.0667   -0.0966 O   0  0  0  0  0  0  0  0  0  0  0  0
    1.0612    1.7064    1.2166 N   0  0  0  0  0  0  0  0  0  0  0  0
    1.6902    1.0054    1.5959 H   0  0  0  0  0  0  0  0  0  0  0  0
    1.1106    3.0632    1.7409 C   0  0  0  0  0  0  0  0  0  0  0  0
    0.1931    3.2936    2.2919 H   0  0  0  0  0  0  0  0  0  0  0  0
    1.9606    3.1721    2.4208 H   0  0  0  0  0  0  0  0  0  0  0  0
    1.2256    3.7843    0.9252 H   0  0  0  0  0  0  0  0  0  0  0  0
  1  2  1  0  0  0  0
  2  3  1  0  0  0  0
  2  4  1  0  0  0  0
  2  5  1  0  0  0  0
  5  6  2  0  0  0  0
  5  7  1  0  0  0  0
  7  8  1  0  0  0  0
  7  9  1  0  0  0  0
  9 10  1  0  0  0  0
  9 11  1  0  0  0  0
  9 17  1  0  0  0  0
 11 12  1  0  0  0  0
 11 13  1  0  0  0  0
 11 14  1  0  0  0  0
 14 15  1  0  0  0  0
 14 16  2  0  0  0  0
 17 18  2  0  0  0  0
 17 19  1  0  0  0  0
 19 20  1  0  0  0  0
 19 21  1  0  0  0  0
 21 22  1  0  0  0  0
 21 23  1  0  0  0  0
 21 24  1  0  0  0  0
M  CHG  1  15  -1
M  END
$$$$

  -OEChem-03222214023D

 24 23  0     1  0  0  0  0  0999 V2000
   -2.5209   -3.9236    0.3861 H   0  0  0  0  0  0  0  0  0  0  0  0
   -2.4660   -2.9908   -0.1810 C   0  0  0  0  0  0  0  0  0  0  0  0
   -3.4481   -2.5127   -0.1790 H   0  0  0  0  0  0  0  0  0  0  0  0
   -2.1844   -3.2231   -1.2123 H   0  0  0  0  0  0  0  0  0  0  0  0
   -1.4325   -2.0630    0.4313 C   0  0  0  0  0  0  0  0  0  0  0  0
   -0.8741   -2.3707    1.4783 O   0  0  0  0  0  0  0  0  0  0  0  0
   -1.2255   -0.8146   -0.1171 N   0  0  0  0  0  0  0  0  0  0  0  0
   -1.7133   -0.6991   -1.0073 H   0  0  0  0  0  0  0  0  0  0  0  0
    0.1159   -0.2127   -0.1203 C   0  0  1  0  0  0  0  0  0  0  0  0
    0.7691   -0.7683    0.5603 H   0  0  0  0  0  0  0  0  0  0  0  0
    0.7151   -0.3101   -1.5464 C   0  0  0  0  0  0  0  0  0  0  0  0
    0.4499    0.5825   -2.1213 H   0  0  0  0  0  0  0  0  0  0  0  0
    1.8055   -0.3438   -1.4810 H   0  0  0  0  0  0  0  0  0  0  0  0
    0.2289   -1.5209   -2.3328 C   0  0  0  0  0  0  0  0  0  0  0  0
    0.7017   -2.6411   -2.0297 O   0  5  0  0  0  0  0  0  0  0  0  0
   -0.7828   -1.3479   -3.0576 O   0  0  0  0  0  0  0  0  0  0  0  0
    0.1076    1.2692    0.3160 C   0  0  0  0  0  0  0  0  0  0  0  0
   -0.7169    2.0752   -0.1057 O   0  0  0  0  0  0  0  0  0  0  0  0
    1.0634    1.7070    1.2161 N   0  0  0  0  0  0  0  0  0  0  0  0
    1.6820    1.0012    1.6037 H   0  0  0  0  0  0  0  0  0  0  0  0
    1.1206    3.0642    1.7381 C   0  0  0  0  0  0  0  0  0  0  0  0
    0.2073    3.2993    2.2939 H   0  0  0  0  0  0  0  0  0  0  0  0
    1.9750    3.1702    2.4130 H   0  0  0  0  0  0  0  0  0  0  0  0
    1.2346    3.7833    0.9206 H   0  0  0  0  0  0  0  0  0  0  0  0
  1  2  1  0  0  0  0
  2  3  1  0  0  0  0
  2  4  1  0  0  0  0
  2  5  1  0  0  0  0
  5  6  2  0  0  0  0
  5  7  1  0  0  0  0
  7  8  1  0  0  0  0
  7  9  1  0  0  0  0
  9 10  1  0  0  0  0
  9 11  1  0  0  0  0
  9 17  1  0  0  0  0
 11 12  1  0  0  0  0
 11 13  1  0  0  0  0
 11 14  1  0  0  0  0
 14 15  1  0  0  0  0
 14 16  2  0  0  0  0
 17 18  2  0  0  0  0
 17 19  1  0  0  0  0
 19 20  1  0  0  0  0
 19 21  1  0  0  0  0
 21 22  1  0  0  0  0
 21 23  1  0  0  0  0
 21 24  1  0  0  0  0
M  CHG  1  15  -1
M  END
$$$$

  -OEChem-03222214023D

 24 23  0     1  0  0  0  0  0999 V2000
   -2.5283   -3.9268    0.3940 H   0  0  0  0  0  0  0  0  0  0  0  0
   -2.4936   -2.9809   -0.1528 C   0  0  0  0  0  0  0  0  0  0  0  0
   -3.4743   -2.5024   -0.1036 H   0  0  0  0  0  0  0  0  0  0  0  0
   -2.2495   -3.1907   -1.1984 H   0  0  0  0  0  0  0  0  0  0  0  0
   -1.4363   -2.0686    0.4426 C   0  0  0  0  0  0  0  0  0  0  0  0
   -0.8796   -2.3754    1.4908 O   0  0  0  0  0  0  0  0  0  0  0  0
   -1.2218   -0.8225   -0.1096 N   0  0  0  0  0  0  0  0  0  0  0  0
   -1.7403   -0.6760   -0.9735 H   0  0  0  0  0  0  0  0  0  0  0  0
    0.1208   -0.2239   -0.1212 C   0  0  1  0  0  0  0  0  0  0  0  0
    0.7713   -0.7773    0.5637 H   0  0  0  0  0  0  0  0  0  0  0  0
    0.7325   -0.3208   -1.5429 C   0  0  0  0  0  0  0  0  0  0  0  0
    0.4742    0.5781   -2.1114 H   0  0  0  0  0  0  0  0  0  0  0  0
    1.8216   -0.3531   -1.4619 H   0  0  0  0  0  0  0  0  0  0  0  0
    0.2716   -1.5247   -2.3585 C   0  0  0  0  0  0  0  0  0  0  0  0
    0.5079   -2.6690   -1.9044 O   0  5  0  0  0  0  0  0  0  0  0  0
   -0.4724   -1.2921   -3.3413 O   0  0  0  0  0  0  0  0  0  0  0  0
    0.1090    1.2592    0.3112 C   0  0  0  0  0  0  0  0  0  0  0  0
   -0.7291    2.0557   -0.1023 O   0  0  0  0  0  0  0  0  0  0  0  0
    1.0650    1.7055    1.2068 N   0  0  0  0  0  0  0  0  0  0  0  0
    1.6922    1.0053    1.5907 H   0  0  0  0  0  0  0  0  0  0  0  0
    1.1082    3.0617    1.7331 C   0  0  0  0  0  0  0  0  0  0  0  0
    0.1934    3.2842    2.2915 H   0  0  0  0  0  0  0  0  0  0  0  0
    1.9626    3.1756    2.4066 H   0  0  0  0  0  0  0  0  0  0  0  0
    1.2119    3.7857    0.9184 H   0  0  0  0  0  0  0  0  0  0  0  0
  1  2  1  0  0  0  0
  2  3  1  0  0  0  0
  2  4  1  0  0  0  0
  2  5  1  0  0  0  0
  5  6  2  0  0  0  0
  5  7  1  0  0  0  0
  7  8  1  0  0  0  0
  7  9  1  0  0  0  0
  9 10  1  0  0  0  0
  9 11  1  0  0  0  0
  9 17  1  0  0  0  0
 11 12  1  0  0  0  0
 11 13  1  0  0  0  0
 11 14  1  0  0  0  0
 14 15  1  0  0  0  0
 14 16  2  0  0  0  0
 17 18  2  0  0  0  0
 17 19  1  0  0  0  0
 19 20  1  0  0  0  0
 19 21  1  0  0  0  0
 21 22  1  0  0  0  0
 21 23  1  0  0  0  0
 21 24  1  0  0  0  0
M  CHG  1  15  -1
M  END
$$$$

  -OEChem-03222214023D

 24 23  0     1  0  0  0  0  0999 V2000
   -2.5813   -3.9131    0.4548 H   0  0  0  0  0  0  0  0  0  0  0  0
   -2.5519   -2.9639   -0.0864 C   0  0  0  0  0  0  0  0  0  0  0  0
   -3.5144   -2.4593    0.0240 H   0  0  0  0  0  0  0  0  0  0  0  0
   -2.3747   -3.1712   -1.1456 H   0  0  0  0  0  0  0  0  0  0  0  0
   -1.4369   -2.0869    0.4547 C   0  0  0  0  0  0  0  0  0  0  0  0
   -0.8546   -2.4057    1.4856 O   0  0  0  0  0  0  0  0  0  0  0  0
   -1.2166   -0.8425   -0.1004 N   0  0  0  0  0  0  0  0  0  0  0  0
   -1.7602   -0.6738   -0.9420 H   0  0  0  0  0  0  0  0  0  0  0  0
    0.1266   -0.2467   -0.1234 C   0  0  1  0  0  0  0  0  0  0  0  0
    0.7780   -0.7965    0.5634 H   0  0  0  0  0  0  0  0  0  0  0  0
    0.7570   -0.3236   -1.5412 C   0  0  0  0  0  0  0  0  0  0  0  0
    0.5026    0.5882   -2.0910 H   0  0  0  0  0  0  0  0  0  0  0  0
    1.8443   -0.3482   -1.4378 H   0  0  0  0  0  0  0  0  0  0  0  0
    0.3420   -1.5023   -2.4209 C   0  0  0  0  0  0  0  0  0  0  0  0
    0.3074   -2.6512   -1.9198 O   0  5  0  0  0  0  0  0  0  0  0  0
   -0.0150   -1.2315   -3.5921 O   0  0  0  0  0  0  0  0  0  0  0  0
    0.1001    1.2362    0.3092 C   0  0  0  0  0  0  0  0  0  0  0  0
   -0.7554    2.0189   -0.0957 O   0  0  0  0  0  0  0  0  0  0  0  0
    1.0536    1.6951    1.2008 N   0  0  0  0  0  0  0  0  0  0  0  0
    1.7003    1.0065    1.5732 H   0  0  0  0  0  0  0  0  0  0  0  0
    1.0843    3.0534    1.7220 C   0  0  0  0  0  0  0  0  0  0  0  0
    0.1675    3.2699    2.2797 H   0  0  0  0  0  0  0  0  0  0  0  0
    1.9376    3.1778    2.3951 H   0  0  0  0  0  0  0  0  0  0  0  0
    1.1813    3.7745    0.9041 H   0  0  0  0  0  0  0  0  0  0  0  0
  1  2  1  0  0  0  0
  2  3  1  0  0  0  0
  2  4  1  0  0  0  0
  2  5  1  0  0  0  0
  5  6  2  0  0  0  0
  5  7  1  0  0  0  0
  7  8  1  0  0  0  0
  7  9  1  0  0  0  0
  9 10  1  0  0  0  0
  9 11  1  0  0  0  0
  9 17  1  0  0  0  0
 11 12  1  0  0  0  0
 11 13  1  0  0  0  0
 11 14  1  0  0  0  0
 14 15  1  0  0  0  0
 14 16  2  0  0  0  0
 17 18  2  0  0  0  0
 17 19  1  0  0  0  0
 19 20  1  0  0  0  0
 19 21  1  0  0  0  0
 21 22  1  0  0  0  0
 21 23  1  0  0  0  0
 21 24  1  0  0  0  0
M  CHG  1  15  -1
M  END
$$$$

  -OEChem-03222214023D

 24 23  0     1  0  0  0  0  0999 V2000
   -2.6461   -3.8857    0.5330 H   0  0  0  0  0  0  0  0  0  0  0  0
   -2.5973   -2.9494   -0.0290 C   0  0  0  0  0  0  0  0  0  0  0  0
   -3.5399   -2.4108    0.0913 H   0  0  0  0  0  0  0  0  0  0  0  0
   -2.4513   -3.1843   -1.0869 H   0  0  0  0  0  0  0  0  0  0  0  0
   -1.4422   -2.0982    0.4691 C   0  0  0  0  0  0  0  0  0  0  0  0
   -0.8331   -2.4308    1.4802 O   0  0  0  0  0  0  0  0  0  0  0  0
   -1.2185   -0.8560   -0.0905 N   0  0  0  0  0  0  0  0  0  0  0  0
   -1.7690   -0.6889   -0.9267 H   0  0  0  0  0  0  0  0  0  0  0  0
    0.1265   -0.2649   -0.1262 C   0  0  1  0  0  0  0  0  0  0  0  0
    0.7792   -0.8116    0.5613 H   0  0  0  0  0  0  0  0  0  0  0  0
    0.7716   -0.3268   -1.5416 C   0  0  0  0  0  0  0  0  0  0  0  0
    0.5171    0.5934   -2.0769 H   0  0  0  0  0  0  0  0  0  0  0  0
    1.8572   -0.3417   -1.4197 H   0  0  0  0  0  0  0  0  0  0  0  0
    0.3990   -1.4786   -2.4784 C   0  0  0  0  0  0  0  0  0  0  0  0
    0.0846   -2.5967   -2.0057 O   0  5  0  0  0  0  0  0  0  0  0  0
    0.4146   -1.2122   -3.7038 O   0  0  0  0  0  0  0  0  0  0  0  0
    0.0924    1.2189    0.3055 C   0  0  0  0  0  0  0  0  0  0  0  0
   -0.7742    1.9933   -0.0921 O   0  0  0  0  0  0  0  0  0  0  0  0
    1.0473    1.6862    1.1914 N   0  0  0  0  0  0  0  0  0  0  0  0
    1.7074    1.0053    1.5541 H   0  0  0  0  0  0  0  0  0  0  0  0
    1.0685    3.0445    1.7131 C   0  0  0  0  0  0  0  0  0  0  0  0
    0.1535    3.2515    2.2775 H   0  0  0  0  0  0  0  0  0  0  0  0
    1.9253    3.1767    2.3803 H   0  0  0  0  0  0  0  0  0  0  0  0
    1.1523    3.7673    0.8951 H   0  0  0  0  0  0  0  0  0  0  0  0
  1  2  1  0  0  0  0
  2  3  1  0  0  0  0
  2  4  1  0  0  0  0
  2  5  1  0  0  0  0
  5  6  2  0  0  0  0
  5  7  1  0  0  0  0
  7  8  1  0  0  0  0
  7  9  1  0  0  0  0
  9 10  1  0  0  0  0
  9 11  1  0  0  0  0
  9 17  1  0  0  0  0
 11 12  1  0  0  0  0
 11 13  1  0  0  0  0
 11 14  1  0  0  0  0
 14 15  1  0  0  0  0
 14 16  2  0  0  0  0
 17 18  2  0  0  0  0
 17 19  1  0  0  0  0
 19 20  1  0  0  0  0
 19 21  1  0  0  0  0
 21 22  1  0  0  0  0
 21 23  1  0  0  0  0
 21 24  1  0  0  0  0
M  CHG  1  15  -1
M  END
$$$$

  -OEChem-03222214023D

 24 23  0     1  0  0  0  0  0999 V2000
   -2.6661   -3.8805    0.5673 H   0  0  0  0  0  0  0  0  0  0  0  0
   -2.6301   -2.9385    0.0140 C   0  0  0  0  0  0  0  0  0  0  0  0
   -3.5624   -2.3932    0.1765 H   0  0  0  0  0  0  0  0  0  0  0  0
   -2.5288   -3.1632   -1.0510 H   0  0  0  0  0  0  0  0  0  0  0  0
   -1.4491   -2.1027    0.4775 C   0  0  0  0  0  0  0  0  0  0  0  0
   -0.8204   -2.4442    1.4737 O   0  0  0  0  0  0  0  0  0  0  0  0
   -1.2246   -0.8625   -0.0871 N   0  0  0  0  0  0  0  0  0  0  0  0
   -1.7635   -0.7165   -0.9351 H   0  0  0  0  0  0  0  0  0  0  0  0
    0.1228   -0.2771   -0.1278 C   0  0  1  0  0  0  0  0  0  0  0  0
    0.7747   -0.8213    0.5624 H   0  0  0  0  0  0  0  0  0  0  0  0
    0.7819   -0.3301   -1.5398 C   0  0  0  0  0  0  0  0  0  0  0  0
    0.5280    0.5940   -2.0682 H   0  0  0  0  0  0  0  0  0  0  0  0
    1.8660   -0.3377   -1.4023 H   0  0  0  0  0  0  0  0  0  0  0  0
    0.4406   -1.4602   -2.5166 C   0  0  0  0  0  0  0  0  0  0  0  0
   -0.1404   -2.5000   -2.1242 O   0  5  0  0  0  0  0  0  0  0  0  0
    0.7793   -1.2524   -3.7060 O   0  0  0  0  0  0  0  0  0  0  0  0
    0.0861    1.2078    0.3016 C   0  0  0  0  0  0  0  0  0  0  0  0
   -0.7800    1.9813   -0.0989 O   0  0  0  0  0  0  0  0  0  0  0  0
    1.0407    1.6784    1.1860 N   0  0  0  0  0  0  0  0  0  0  0  0
    1.7011    0.9993    1.5509 H   0  0  0  0  0  0  0  0  0  0  0  0
    1.0614    3.0383    1.7038 C   0  0  0  0  0  0  0  0  0  0  0  0
    0.1459    3.2468    2.2667 H   0  0  0  0  0  0  0  0  0  0  0  0
    1.9175    3.1725    2.3714 H   0  0  0  0  0  0  0  0  0  0  0  0
    1.1465    3.7587    0.8838 H   0  0  0  0  0  0  0  0  0  0  0  0
  1  2  1  0  0  0  0
  2  3  1  0  0  0  0
  2  4  1  0  0  0  0
  2  5  1  0  0  0  0
  5  6  2  0  0  0  0
  5  7  1  0  0  0  0
  7  8  1  0  0  0  0
  7  9  1  0  0  0  0
  9 10  1  0  0  0  0
  9 11  1  0  0  0  0
  9 17  1  0  0  0  0
 11 12  1  0  0  0  0
 11 13  1  0  0  0  0
 11 14  1  0  0  0  0
 14 15  1  0  0  0  0
 14 16  2  0  0  0  0
 17 18  2  0  0  0  0
 17 19  1  0  0  0  0
 19 20  1  0  0  0  0
 19 21  1  0  0  0  0
 21 22  1  0  0  0  0
 21 23  1  0  0  0  0
 21 24  1  0  0  0  0
M  CHG  1  15  -1
M  END
$$$$

  -OEChem-03222214023D

 24 23  0     1  0  0  0  0  0999 V2000
   -2.6733   -3.8831    0.5712 H   0  0  0  0  0  0  0  0  0  0  0  0
   -2.6536   -2.9287    0.0388 C   0  0  0  0  0  0  0  0  0  0  0  0
   -3.5758   -2.3830    0.2493 H   0  0  0  0  0  0  0  0  0  0  0  0
   -2.5946   -3.1291   -1.0341 H   0  0  0  0  0  0  0  0  0  0  0  0
   -1.4530   -2.1078    0.4777 C   0  0  0  0  0  0  0  0  0  0  0  0
   -0.8053   -2.4636    1.4566 O   0  0  0  0  0  0  0  0  0  0  0  0
   -1.2301   -0.8676   -0.0872 N   0  0  0  0  0  0  0  0  0  0  0  0
   -1.7512   -0.7472   -0.9514 H   0  0  0  0  0  0  0  0  0  0  0  0
    0.1174   -0.2836   -0.1274 C   0  0  1  0  0  0  0  0  0  0  0  0
    0.7686   -0.8265    0.5642 H   0  0  0  0  0  0  0  0  0  0  0  0
    0.7871   -0.3298   -1.5357 C   0  0  0  0  0  0  0  0  0  0  0  0
    0.5307    0.5945   -2.0620 H   0  0  0  0  0  0  0  0  0  0  0  0
    1.8700   -0.3286   -1.3870 H   0  0  0  0  0  0  0  0  0  0  0  0
    0.4657   -1.4477   -2.5343 C   0  0  0  0  0  0  0  0  0  0  0  0
   -0.3472   -2.3615   -2.2536 O   0  5  0  0  0  0  0  0  0  0  0  0
    1.0700   -1.3589   -3.6297 O   0  0  0  0  0  0  0  0  0  0  0  0
    0.0784    1.2012    0.3030 C   0  0  0  0  0  0  0  0  0  0  0  0
   -0.7853    1.9764   -0.0997 O   0  0  0  0  0  0  0  0  0  0  0  0
    1.0323    1.6711    1.1885 N   0  0  0  0  0  0  0  0  0  0  0  0
    1.7001    0.9944    1.5449 H   0  0  0  0  0  0  0  0  0  0  0  0
    1.0612    3.0344    1.6970 C   0  0  0  0  0  0  0  0  0  0  0  0
    0.1410    3.2569    2.2468 H   0  0  0  0  0  0  0  0  0  0  0  0
    1.9101    3.1640    2.3748 H   0  0  0  0  0  0  0  0  0  0  0  0
    1.1643    3.7477    0.8729 H   0  0  0  0  0  0  0  0  0  0  0  0
  1  2  1  0  0  0  0
  2  3  1  0  0  0  0
  2  4  1  0  0  0  0
  2  5  1  0  0  0  0
  5  6  2  0  0  0  0
  5  7  1  0  0  0  0
  7  8  1  0  0  0  0
  7  9  1  0  0  0  0
  9 10  1  0  0  0  0
  9 11  1  0  0  0  0
  9 17  1  0  0  0  0
 11 12  1  0  0  0  0
 11 13  1  0  0  0  0
 11 14  1  0  0  0  0
 14 15  1  0  0  0  0
 14 16  2  0  0  0  0
 17 18  2  0  0  0  0
 17 19  1  0  0  0  0
 19 20  1  0  0  0  0
 19 21  1  0  0  0  0
 21 22  1  0  0  0  0
 21 23  1  0  0  0  0
 21 24  1  0  0  0  0
M  CHG  1  15  -1
M  END
$$$$

  -OEChem-03222214023D

 24 23  0     1  0  0  0  0  0999 V2000
   -2.7315   -3.8374    0.6456 H   0  0  0  0  0  0  0  0  0  0  0  0
   -2.6527   -2.9320    0.0383 C   0  0  0  0  0  0  0  0  0  0  0  0
   -3.5677   -2.3463    0.1518 H   0  0  0  0  0  0  0  0  0  0  0  0
   -2.5443   -3.2229   -1.0098 H   0  0  0  0  0  0  0  0  0  0  0  0
   -1.4520   -2.1088    0.4741 C   0  0  0  0  0  0  0  0  0  0  0  0
   -0.7924   -2.4744    1.4413 O   0  0  0  0  0  0  0  0  0  0  0  0
   -1.2332   -0.8663   -0.0872 N   0  0  0  0  0  0  0  0  0  0  0  0
   -1.7326   -0.7725   -0.9696 H   0  0  0  0  0  0  0  0  0  0  0  0
    0.1137   -0.2816   -0.1257 C   0  0  1  0  0  0  0  0  0  0  0  0
    0.7673   -0.8254    0.5629 H   0  0  0  0  0  0  0  0  0  0  0  0
    0.7801   -0.3229   -1.5362 C   0  0  0  0  0  0  0  0  0  0  0  0
    0.5199    0.6008   -2.0611 H   0  0  0  0  0  0  0  0  0  0  0  0
    1.8635   -0.3175   -1.3896 H   0  0  0  0  0  0  0  0  0  0  0  0
    0.4546   -1.4373   -2.5382 C   0  0  0  0  0  0  0  0  0  0  0  0
   -0.5456   -2.1807   -2.3816 O   0  5  0  0  0  0  0  0  0  0  0  0
    1.2459   -1.5202   -3.5076 O   0  0  0  0  0  0  0  0  0  0  0  0
    0.0774    1.2025    0.3094 C   0  0  0  0  0  0  0  0  0  0  0  0
   -0.7815    1.9827   -0.0940 O   0  0  0  0  0  0  0  0  0  0  0  0
    1.0326    1.6684    1.1959 N   0  0  0  0  0  0  0  0  0  0  0  0
    1.6971    0.9890    1.5530 H   0  0  0  0  0  0  0  0  0  0  0  0
    1.0678    3.0318    1.7037 C   0  0  0  0  0  0  0  0  0  0  0  0
    0.1588    3.2509    2.2731 H   0  0  0  0  0  0  0  0  0  0  0  0
    1.9308    3.1649    2.3625 H   0  0  0  0  0  0  0  0  0  0  0  0
    1.1501    3.7458    0.8778 H   0  0  0  0  0  0  0  0  0  0  0  0
  1  2  1  0  0  0  0
  2  3  1  0  0  0  0
  2  4  1  0  0  0  0
  2  5  1  0  0  0  0
  5  6  2  0  0  0  0
  5  7  1  0  0  0  0
  7  8  1  0  0  0  0
  7  9  1  0  0  0  0
  9 10  1  0  0  0  0
  9 11  1  0  0  0  0
  9 17  1  0  0  0  0
 11 12  1  0  0  0  0
 11 13  1  0  0  0  0
 11 14  1  0  0  0  0
 14 15  1  0  0  0  0
 14 16  2  0  0  0  0
 17 18  2  0  0  0  0
 17 19  1  0  0  0  0
 19 20  1  0  0  0  0
 19 21  1  0  0  0  0
 21 22  1  0  0  0  0
 21 23  1  0  0  0  0
 21 24  1  0  0  0  0
M  CHG  1  15  -1
M  END
$$$$

  -OEChem-03222214023D

 24 23  0     1  0  0  0  0  0999 V2000
   -2.7767   -3.7890    0.6929 H   0  0  0  0  0  0  0  0  0  0  0  0
   -2.6274   -2.9452    0.0143 C   0  0  0  0  0  0  0  0  0  0  0  0
   -3.5356   -2.3384   -0.0024 H   0  0  0  0  0  0  0  0  0  0  0  0
   -2.4402   -3.3316   -0.9910 H   0  0  0  0  0  0  0  0  0  0  0  0
   -1.4476   -2.1038    0.4709 C   0  0  0  0  0  0  0  0  0  0  0  0
   -0.7839   -2.4722    1.4340 O   0  0  0  0  0  0  0  0  0  0  0  0
   -1.2357   -0.8588   -0.0863 N   0  0  0  0  0  0  0  0  0  0  0  0
   -1.7175   -0.7841   -0.9833 H   0  0  0  0  0  0  0  0  0  0  0  0
    0.1091   -0.2705   -0.1226 C   0  0  1  0  0  0  0  0  0  0  0  0
    0.7668   -0.8163    0.5605 H   0  0  0  0  0  0  0  0  0  0  0  0
    0.7626   -0.3124   -1.5381 C   0  0  0  0  0  0  0  0  0  0  0  0
    0.4959    0.6077   -2.0658 H   0  0  0  0  0  0  0  0  0  0  0  0
    1.8478   -0.3048   -1.4038 H   0  0  0  0  0  0  0  0  0  0  0  0
    0.4145   -1.4364   -2.5210 C   0  0  0  0  0  0  0  0  0  0  0  0
   -0.7210   -1.9769   -2.4933 O   0  5  0  0  0  0  0  0  0  0  0  0
    1.3179   -1.7372   -3.3371 O   0  0  0  0  0  0  0  0  0  0  0  0
    0.0778    1.2122    0.3169 C   0  0  0  0  0  0  0  0  0  0  0  0
   -0.7736    1.9998   -0.0873 O   0  0  0  0  0  0  0  0  0  0  0  0
    1.0368    1.6705    1.2032 N   0  0  0  0  0  0  0  0  0  0  0  0
    1.6952    0.9853    1.5606 H   0  0  0  0  0  0  0  0  0  0  0  0
    1.0790    3.0316    1.7165 C   0  0  0  0  0  0  0  0  0  0  0  0
    0.1705    3.2540    2.2852 H   0  0  0  0  0  0  0  0  0  0  0  0
    1.9418    3.1564    2.3772 H   0  0  0  0  0  0  0  0  0  0  0  0
    1.1674    3.7484    0.8937 H   0  0  0  0  0  0  0  0  0  0  0  0
  1  2  1  0  0  0  0
  2  3  1  0  0  0  0
  2  4  1  0  0  0  0
  2  5  1  0  0  0  0
  5  6  2  0  0  0  0
  5  7  1  0  0  0  0
  7  8  1  0  0  0  0
  7  9  1  0  0  0  0
  9 10  1  0  0  0  0
  9 11  1  0  0  0  0
  9 17  1  0  0  0  0
 11 12  1  0  0  0  0
 11 13  1  0  0  0  0
 11 14  1  0  0  0  0
 14 15  1  0  0  0  0
 14 16  2  0  0  0  0
 17 18  2  0  0  0  0
 17 19  1  0  0  0  0
 19 20  1  0  0  0  0
 19 21  1  0  0  0  0
 21 22  1  0  0  0  0
 21 23  1  0  0  0  0
 21 24  1  0  0  0  0
M  CHG  1  15  -1
M  END
$$$$

  -OEChem-03222214023D

 24 23  0     1  0  0  0  0  0999 V2000
   -2.7376   -3.8113    0.6387 H   0  0  0  0  0  0  0  0  0  0  0  0
   -2.6018   -2.9491   -0.0192 C   0  0  0  0  0  0  0  0  0  0  0  0
   -3.5206   -2.3582   -0.0242 H   0  0  0  0  0  0  0  0  0  0  0  0
   -2.4047   -3.3074   -1.0330 H   0  0  0  0  0  0  0  0  0  0  0  0
   -1.4389   -2.0981    0.4602 C   0  0  0  0  0  0  0  0  0  0  0  0
   -0.7767   -2.4700    1.4225 O   0  0  0  0  0  0  0  0  0  0  0  0
   -1.2283   -0.8521   -0.0931 N   0  0  0  0  0  0  0  0  0  0  0  0
   -1.7042   -0.7777   -0.9957 H   0  0  0  0  0  0  0  0  0  0  0  0
    0.1130   -0.2566   -0.1225 C   0  0  1  0  0  0  0  0  0  0  0  0
    0.7717   -0.8017    0.5603 H   0  0  0  0  0  0  0  0  0  0  0  0
    0.7542   -0.3110   -1.5403 C   0  0  0  0  0  0  0  0  0  0  0  0
    0.4794    0.5992   -2.0809 H   0  0  0  0  0  0  0  0  0  0  0  0
    1.8412   -0.3013   -1.4227 H   0  0  0  0  0  0  0  0  0  0  0  0
    0.3757   -1.4604   -2.4789 C   0  0  0  0  0  0  0  0  0  0  0  0
   -0.8351   -1.7873   -2.5959 O   0  5  0  0  0  0  0  0  0  0  0  0
    1.3187   -2.0018   -3.1032 O   0  0  0  0  0  0  0  0  0  0  0  0
    0.0838    1.2258    0.3167 C   0  0  0  0  0  0  0  0  0  0  0  0
   -0.7664    2.0151   -0.0860 O   0  0  0  0  0  0  0  0  0  0  0  0
    1.0422    1.6811    1.2053 N   0  0  0  0  0  0  0  0  0  0  0  0
    1.6990    0.9943    1.5625 H   0  0  0  0  0  0  0  0  0  0  0  0
    1.0794    3.0386    1.7282 C   0  0  0  0  0  0  0  0  0  0  0  0
    0.1625    3.2587    2.2841 H   0  0  0  0  0  0  0  0  0  0  0  0
    1.9319    3.1572    2.4034 H   0  0  0  0  0  0  0  0  0  0  0  0
    1.1817    3.7606    0.9117 H   0  0  0  0  0  0  0  0  0  0  0  0
  1  2  1  0  0  0  0
  2  3  1  0  0  0  0
  2  4  1  0  0  0  0
  2  5  1  0  0  0  0
  5  6  2  0  0  0  0
  5  7  1  0  0  0  0
  7  8  1  0  0  0  0
  7  9  1  0  0  0  0
  9 10  1  0  0  0  0
  9 11  1  0  0  0  0
  9 17  1  0  0  0  0
 11 12  1  0  0  0  0
 11 13  1  0  0  0  0
 11 14  1  0  0  0  0
 14 15  1  0  0  0  0
 14 16  2  0  0  0  0
 17 18  2  0  0  0  0
 17 19  1  0  0  0  0
 19 20  1  0  0  0  0
 19 21  1  0  0  0  0
 21 22  1  0  0  0  0
 21 23  1  0  0  0  0
 21 24  1  0  0  0  0
M  CHG  1  15  -1
M  END
$$$$

  -OEChem-03222214023D

 24 23  0     1  0  0  0  0  0999 V2000
   -2.6946   -3.8408    0.5665 H   0  0  0  0  0  0  0  0  0  0  0  0
   -2.5612   -2.9653   -0.0741 C   0  0  0  0  0  0  0  0  0  0  0  0
   -3.4930   -2.3954   -0.0961 H   0  0  0  0  0  0  0  0  0  0  0  0
   -2.3274   -3.3022   -1.0878 H   0  0  0  0  0  0  0  0  0  0  0  0
   -1.4320   -2.0955    0.4491 C   0  0  0  0  0  0  0  0  0  0  0  0
   -0.7826   -2.4645    1.4206 O   0  0  0  0  0  0  0  0  0  0  0  0
   -1.2232   -0.8465   -0.0965 N   0  0  0  0  0  0  0  0  0  0  0  0
   -1.7026   -0.7571   -0.9972 H   0  0  0  0  0  0  0  0  0  0  0  0
    0.1140   -0.2404   -0.1165 C   0  0  1  0  0  0  0  0  0  0  0  0
    0.7751   -0.7869    0.5631 H   0  0  0  0  0  0  0  0  0  0  0  0
    0.7370   -0.3065   -1.5387 C   0  0  0  0  0  0  0  0  0  0  0  0
    0.4555    0.5937   -2.0928 H   0  0  0  0  0  0  0  0  0  0  0  0
    1.8264   -0.3017   -1.4448 H   0  0  0  0  0  0  0  0  0  0  0  0
    0.3187   -1.4845   -2.4179 C   0  0  0  0  0  0  0  0  0  0  0  0
   -0.9036   -1.6113   -2.6979 O   0  5  0  0  0  0  0  0  0  0  0  0
    1.2246   -2.2535   -2.8171 O   0  0  0  0  0  0  0  0  0  0  0  0
    0.0866    1.2408    0.3258 C   0  0  0  0  0  0  0  0  0  0  0  0
   -0.7592    2.0334   -0.0793 O   0  0  0  0  0  0  0  0  0  0  0  0
    1.0437    1.6923    1.2178 N   0  0  0  0  0  0  0  0  0  0  0  0
    1.6971    1.0028    1.5766 H   0  0  0  0  0  0  0  0  0  0  0  0
    1.0922    3.0528    1.7326 C   0  0  0  0  0  0  0  0  0  0  0  0
    0.1810    3.2812    2.2948 H   0  0  0  0  0  0  0  0  0  0  0  0
    1.9509    3.1707    2.4001 H   0  0  0  0  0  0  0  0  0  0  0  0
    1.1919    3.7699    0.9113 H   0  0  0  0  0  0  0  0  0  0  0  0
  1  2  1  0  0  0  0
  2  3  1  0  0  0  0
  2  4  1  0  0  0  0
  2  5  1  0  0  0  0
  5  6  2  0  0  0  0
  5  7  1  0  0  0  0
  7  8  1  0  0  0  0
  7  9  1  0  0  0  0
  9 10  1  0  0  0  0
  9 11  1  0  0  0  0
  9 17  1  0  0  0  0
 11 12  1  0  0  0  0
 11 13  1  0  0  0  0
 11 14  1  0  0  0  0
 14 15  1  0  0  0  0
 14 16  2  0  0  0  0
 17 18  2  0  0  0  0
 17 19  1  0  0  0  0
 19 20  1  0  0  0  0
 19 21  1  0  0  0  0
 21 22  1  0  0  0  0
 21 23  1  0  0  0  0
 21 24  1  0  0  0  0
M  CHG  1  15  -1
M  END
$$$$

  -OEChem-03222214023D

 24 23  0     1  0  0  0  0  0999 V2000
   -2.6158   -3.8842    0.4769 H   0  0  0  0  0  0  0  0  0  0  0  0
   -2.5161   -2.9778   -0.1256 C   0  0  0  0  0  0  0  0  0  0  0  0
   -3.4707   -2.4469   -0.1310 H   0  0  0  0  0  0  0  0  0  0  0  0
   -2.2613   -3.2619   -1.1506 H   0  0  0  0  0  0  0  0  0  0  0  0
   -1.4269   -2.0851    0.4409 C   0  0  0  0  0  0  0  0  0  0  0  0
   -0.8015   -2.4399    1.4330 O   0  0  0  0  0  0  0  0  0  0  0  0
   -1.2189   -0.8353   -0.1025 N   0  0  0  0  0  0  0  0  0  0  0  0
   -1.7067   -0.7283   -0.9966 H   0  0  0  0  0  0  0  0  0  0  0  0
    0.1180   -0.2252   -0.1151 C   0  0  1  0  0  0  0  0  0  0  0  0
    0.7790   -0.7742    0.5627 H   0  0  0  0  0  0  0  0  0  0  0  0
    0.7211   -0.3071   -1.5414 C   0  0  0  0  0  0  0  0  0  0  0  0
    0.4387    0.5846   -2.1084 H   0  0  0  0  0  0  0  0  0  0  0  0
    1.8120   -0.3173   -1.4721 H   0  0  0  0  0  0  0  0  0  0  0  0
    0.2584   -1.5098   -2.3562 C   0  0  0  0  0  0  0  0  0  0  0  0
   -0.9103   -1.4711   -2.8240 O   0  5  0  0  0  0  0  0  0  0  0  0
    1.0535   -2.4682   -2.4948 O   0  0  0  0  0  0  0  0  0  0  0  0
    0.0965    1.2556    0.3258 C   0  0  0  0  0  0  0  0  0  0  0  0
   -0.7437    2.0515   -0.0839 O   0  0  0  0  0  0  0  0  0  0  0  0
    1.0528    1.7033    1.2205 N   0  0  0  0  0  0  0  0  0  0  0  0
    1.6981    1.0101    1.5864 H   0  0  0  0  0  0  0  0  0  0  0  0
    1.1016    3.0627    1.7376 C   0  0  0  0  0  0  0  0  0  0  0  0
    0.1891    3.2915    2.2976 H   0  0  0  0  0  0  0  0  0  0  0  0
    1.9589    3.1786    2.4073 H   0  0  0  0  0  0  0  0  0  0  0  0
    1.2041    3.7804    0.9173 H   0  0  0  0  0  0  0  0  0  0  0  0
  1  2  1  0  0  0  0
  2  3  1  0  0  0  0
  2  4  1  0  0  0  0
  2  5  1  0  0  0  0
  5  6  2  0  0  0  0
  5  7  1  0  0  0  0
  7  8  1  0  0  0  0
  7  9  1  0  0  0  0
  9 10  1  0  0  0  0
  9 11  1  0  0  0  0
  9 17  1  0  0  0  0
 11 12  1  0  0  0  0
 11 13  1  0  0  0  0
 11 14  1  0  0  0  0
 14 15  1  0  0  0  0
 14 16  2  0  0  0  0
 17 18  2  0  0  0  0
 17 19  1  0  0  0  0
 19 20  1  0  0  0  0
 19 21  1  0  0  0  0
 21 22  1  0  0  0  0
 21 23  1  0  0  0  0
 21 24  1  0  0  0  0
M  CHG  1  15  -1
M  END
$$$$

  -OEChem-03222214023D

 24 23  0     1  0  0  0  0  0999 V2000
   -2.5277   -3.9282    0.3893 H   0  0  0  0  0  0  0  0  0  0  0  0
   -2.4982   -2.9762   -0.1468 C   0  0  0  0  0  0  0  0  0  0  0  0
   -3.4743   -2.4920   -0.0696 H   0  0  0  0  0  0  0  0  0  0  0  0
   -2.2800   -3.1732   -1.2005 H   0  0  0  0  0  0  0  0  0  0  0  0
   -1.4234   -2.0770    0.4360 C   0  0  0  0  0  0  0  0  0  0  0  0
   -0.8225   -2.4159    1.4484 O   0  0  0  0  0  0  0  0  0  0  0  0
   -1.2122   -0.8283   -0.1093 N   0  0  0  0  0  0  0  0  0  0  0  0
   -1.7198   -0.6945   -0.9861 H   0  0  0  0  0  0  0  0  0  0  0  0
    0.1259   -0.2187   -0.1207 C   0  0  1  0  0  0  0  0  0  0  0  0
    0.7854   -0.7685    0.5582 H   0  0  0  0  0  0  0  0  0  0  0  0
    0.7202   -0.3154   -1.5478 C   0  0  0  0  0  0  0  0  0  0  0  0
    0.4417    0.5719   -2.1244 H   0  0  0  0  0  0  0  0  0  0  0  0
    1.8114   -0.3375   -1.4900 H   0  0  0  0  0  0  0  0  0  0  0  0
    0.2345   -1.5324   -2.3240 C   0  0  0  0  0  0  0  0  0  0  0  0
   -0.8089   -1.3911   -3.0106 O   0  5  0  0  0  0  0  0  0  0  0  0
    0.8713   -2.6044   -2.2017 O   0  0  0  0  0  0  0  0  0  0  0  0
    0.1073    1.2627    0.3166 C   0  0  0  0  0  0  0  0  0  0  0  0
   -0.7353    2.0566   -0.0918 O   0  0  0  0  0  0  0  0  0  0  0  0
    1.0630    1.7108    1.2115 N   0  0  0  0  0  0  0  0  0  0  0  0
    1.7035    1.0156    1.5823 H   0  0  0  0  0  0  0  0  0  0  0  0
    1.1008    3.0658    1.7415 C   0  0  0  0  0  0  0  0  0  0  0  0
    0.1783    3.2890    2.2871 H   0  0  0  0  0  0  0  0  0  0  0  0
    1.9454    3.1764    2.4278 H   0  0  0  0  0  0  0  0  0  0  0  0
    1.2174    3.7910    0.9297 H   0  0  0  0  0  0  0  0  0  0  0  0
  1  2  1  0  0  0  0
  2  3  1  0  0  0  0
  2  4  1  0  0  0  0
  2  5  1  0  0  0  0
  5  6  2  0  0  0  0
  5  7  1  0  0  0  0
  7  8  1  0  0  0  0
  7  9  1  0  0  0  0
  9 10  1  0  0  0  0
  9 11  1  0  0  0  0
  9 17  1  0  0  0  0
 11 12  1  0  0  0  0
 11 13  1  0  0  0  0
 11 14  1  0  0  0  0
 14 15  1  0  0  0  0
 14 16  2  0  0  0  0
 17 18  2  0  0  0  0
 17 19  1  0  0  0  0
 19 20  1  0  0  0  0
 19 21  1  0  0  0  0
 21 22  1  0  0  0  0
 21 23  1  0  0  0  0
 21 24  1  0  0  0  0
M  CHG  1  15  -1
M  END
$$$$

  -OEChem-03222214023D

 24 23  0     1  0  0  0  0  0999 V2000
   -2.5329   -3.9253    0.4009 H   0  0  0  0  0  0  0  0  0  0  0  0
   -2.4873   -2.9849   -0.1544 C   0  0  0  0  0  0  0  0  0  0  0  0
   -3.4656   -2.5005   -0.1182 H   0  0  0  0  0  0  0  0  0  0  0  0
   -2.2352   -3.2047   -1.1960 H   0  0  0  0  0  0  0  0  0  0  0  0
   -1.4305   -2.0733    0.4420 C   0  0  0  0  0  0  0  0  0  0  0  0
   -0.8509   -2.3960    1.4723 O   0  0  0  0  0  0  0  0  0  0  0  0
   -1.2223   -0.8236   -0.1038 N   0  0  0  0  0  0  0  0  0  0  0  0
   -1.7505   -0.6682   -0.9615 H   0  0  0  0  0  0  0  0  0  0  0  0
    0.1175   -0.2181   -0.1196 C   0  0  1  0  0  0  0  0  0  0  0  0
    0.7745   -0.7708    0.5594 H   0  0  0  0  0  0  0  0  0  0  0  0
    0.7155   -0.3165   -1.5449 C   0  0  0  0  0  0  0  0  0  0  0  0
    0.4436    0.5749   -2.1185 H   0  0  0  0  0  0  0  0  0  0  0  0
    1.8062   -0.3435   -1.4829 H   0  0  0  0  0  0  0  0  0  0  0  0
    0.2351   -1.5309   -2.3298 C   0  0  0  0  0  0  0  0  0  0  0  0
   -0.6117   -1.3322   -3.2346 O   0  5  0  0  0  0  0  0  0  0  0  0
    0.6764   -2.6566   -2.0001 O   0  0  0  0  0  0  0  0  0  0  0  0
    0.1041    1.2627    0.3197 C   0  0  0  0  0  0  0  0  0  0  0  0
   -0.7400    2.0572   -0.0847 O   0  0  0  0  0  0  0  0  0  0  0  0
    1.0636    1.7087    1.2115 N   0  0  0  0  0  0  0  0  0  0  0  0
    1.7044    1.0123    1.5794 H   0  0  0  0  0  0  0  0  0  0  0  0
    1.1096    3.0646    1.7379 C   0  0  0  0  0  0  0  0  0  0  0  0
    0.1975    3.2872    2.3006 H   0  0  0  0  0  0  0  0  0  0  0  0
    1.9672    3.1777    2.4075 H   0  0  0  0  0  0  0  0  0  0  0  0
    1.2097    3.7884    0.9228 H   0  0  0  0  0  0  0  0  0  0  0  0
  1  2  1  0  0  0  0
  2  3  1  0  0  0  0
  2  4  1  0  0  0  0
  2  5  1  0  0  0  0
  5  6  2  0  0  0  0
  5  7  1  0  0  0  0
  7  8  1  0  0  0  0
  7  9  1  0  0  0  0
  9 10  1  0  0  0  0
  9 11  1  0  0  0  0
  9 17  1  0  0  0  0
 11 12  1  0  0  0  0
 11 13  1  0  0  0  0
 11 14  1  0  0  0  0
 14 15  1  0  0  0  0
 14 16  2  0  0  0  0
 17 18  2  0  0  0  0
 17 19  1  0  0  0  0
 19 20  1  0  0  0  0
 19 21  1  0  0  0  0
 21 22  1  0  0  0  0
 21 23  1  0  0  0  0
 21 24  1  0  0  0  0
M  CHG  1  15  -1
M  END
$$$$

  -OEChem-03222214023D

 24 23  0     1  0  0  0  0  0999 V2000
   -2.5760   -3.9053    0.4515 H   0  0  0  0  0  0  0  0  0  0  0  0
   -2.5087   -2.9805   -0.1273 C   0  0  0  0  0  0  0  0  0  0  0  0
   -3.4771   -2.4759   -0.1079 H   0  0  0  0  0  0  0  0  0  0  0  0
   -2.2562   -3.2321   -1.1615 H   0  0  0  0  0  0  0  0  0  0  0  0
   -1.4354   -2.0762    0.4510 C   0  0  0  0  0  0  0  0  0  0  0  0
   -0.8611   -2.3903    1.4871 O   0  0  0  0  0  0  0  0  0  0  0  0
   -1.2251   -0.8281   -0.0987 N   0  0  0  0  0  0  0  0  0  0  0  0
   -1.7687   -0.6591   -0.9415 H   0  0  0  0  0  0  0  0  0  0  0  0
    0.1164   -0.2275   -0.1214 C   0  0  1  0  0  0  0  0  0  0  0  0
    0.7721   -0.7802    0.5590 H   0  0  0  0  0  0  0  0  0  0  0  0
    0.7253   -0.3187   -1.5442 C   0  0  0  0  0  0  0  0  0  0  0  0
    0.4563    0.5805   -2.1072 H   0  0  0  0  0  0  0  0  0  0  0  0
    1.8152   -0.3409   -1.4715 H   0  0  0  0  0  0  0  0  0  0  0  0
    0.2691   -1.5199   -2.3664 C   0  0  0  0  0  0  0  0  0  0  0  0
   -0.3217   -1.2853   -3.4476 O   0  5  0  0  0  0  0  0  0  0  0  0
    0.4981   -2.6673   -1.9159 O   0  0  0  0  0  0  0  0  0  0  0  0
    0.1010    1.2537    0.3162 C   0  0  0  0  0  0  0  0  0  0  0  0
   -0.7495    2.0439   -0.0837 O   0  0  0  0  0  0  0  0  0  0  0  0
    1.0620    1.7027    1.2049 N   0  0  0  0  0  0  0  0  0  0  0  0
    1.7029    1.0068    1.5740 H   0  0  0  0  0  0  0  0  0  0  0  0
    1.1031    3.0578    1.7339 C   0  0  0  0  0  0  0  0  0  0  0  0
    0.1936    3.2729    2.3038 H   0  0  0  0  0  0  0  0  0  0  0  0
    1.9649    3.1757    2.3972 H   0  0  0  0  0  0  0  0  0  0  0  0
    1.1923    3.7841    0.9197 H   0  0  0  0  0  0  0  0  0  0  0  0
  1  2  1  0  0  0  0
  2  3  1  0  0  0  0
  2  4  1  0  0  0  0
  2  5  1  0  0  0  0
  5  6  2  0  0  0  0
  5  7  1  0  0  0  0
  7  8  1  0  0  0  0
  7  9  1  0  0  0  0
  9 10  1  0  0  0  0
  9 11  1  0  0  0  0
  9 17  1  0  0  0  0
 11 12  1  0  0  0  0
 11 13  1  0  0  0  0
 11 14  1  0  0  0  0
 14 15  1  0  0  0  0
 14 16  2  0  0  0  0
 17 18  2  0  0  0  0
 17 19  1  0  0  0  0
 19 20  1  0  0  0  0
 19 21  1  0  0  0  0
 21 22  1  0  0  0  0
 21 23  1  0  0  0  0
 21 24  1  0  0  0  0
M  CHG  1  15  -1
M  END
$$$$

  -OEChem-03222214023D

 24 23  0     1  0  0  0  0  0999 V2000
   -2.6176   -3.8959    0.4889 H   0  0  0  0  0  0  0  0  0  0  0  0
   -2.5572   -2.9650   -0.0808 C   0  0  0  0  0  0  0  0  0  0  0  0
   -3.5125   -2.4403   -0.0091 H   0  0  0  0  0  0  0  0  0  0  0  0
   -2.3589   -3.2082   -1.1286 H   0  0  0  0  0  0  0  0  0  0  0  0
   -1.4390   -2.0912    0.4590 C   0  0  0  0  0  0  0  0  0  0  0  0
   -0.8494   -2.4151    1.4838 O   0  0  0  0  0  0  0  0  0  0  0  0
   -1.2212   -0.8451   -0.0931 N   0  0  0  0  0  0  0  0  0  0  0  0
   -1.7762   -0.6663   -0.9246 H   0  0  0  0  0  0  0  0  0  0  0  0
    0.1214   -0.2473   -0.1214 C   0  0  1  0  0  0  0  0  0  0  0  0
    0.7765   -0.7979    0.5611 H   0  0  0  0  0  0  0  0  0  0  0  0
    0.7470   -0.3212   -1.5411 C   0  0  0  0  0  0  0  0  0  0  0  0
    0.4796    0.5881   -2.0888 H   0  0  0  0  0  0  0  0  0  0  0  0
    1.8358   -0.3332   -1.4512 H   0  0  0  0  0  0  0  0  0  0  0  0
    0.3293   -1.5000   -2.4188 C   0  0  0  0  0  0  0  0  0  0  0  0
    0.0388   -1.2409   -3.6109 O   0  5  0  0  0  0  0  0  0  0  0  0
    0.3198   -2.6515   -1.9225 O   0  0  0  0  0  0  0  0  0  0  0  0
    0.0945    1.2343    0.3155 C   0  0  0  0  0  0  0  0  0  0  0  0
   -0.7656    2.0150   -0.0830 O   0  0  0  0  0  0  0  0  0  0  0  0
    1.0513    1.6935    1.2035 N   0  0  0  0  0  0  0  0  0  0  0  0
    1.7064    1.0074    1.5657 H   0  0  0  0  0  0  0  0  0  0  0  0
    1.0869    3.0529    1.7216 C   0  0  0  0  0  0  0  0  0  0  0  0
    0.1771    3.2692    2.2909 H   0  0  0  0  0  0  0  0  0  0  0  0
    1.9488    3.1796    2.3833 H   0  0  0  0  0  0  0  0  0  0  0  0
    1.1725    3.7731    0.9014 H   0  0  0  0  0  0  0  0  0  0  0  0
  1  2  1  0  0  0  0
  2  3  1  0  0  0  0
  2  4  1  0  0  0  0
  2  5  1  0  0  0  0
  5  6  2  0  0  0  0
  5  7  1  0  0  0  0
  7  8  1  0  0  0  0
  7  9  1  0  0  0  0
  9 10  1  0  0  0  0
  9 11  1  0  0  0  0
  9 17  1  0  0  0  0
 11 12  1  0  0  0  0
 11 13  1  0  0  0  0
 11 14  1  0  0  0  0
 14 15  1  0  0  0  0
 14 16  2  0  0  0  0
 17 18  2  0  0  0  0
 17 19  1  0  0  0  0
 19 20  1  0  0  0  0
 19 21  1  0  0  0  0
 21 22  1  0  0  0  0
 21 23  1  0  0  0  0
 21 24  1  0  0  0  0
M  CHG  1  15  -1
M  END
$$$$

  -OEChem-03222214023D

 24 23  0     1  0  0  0  0  0999 V2000
   -2.6454   -3.8870    0.5311 H   0  0  0  0  0  0  0  0  0  0  0  0
   -2.5968   -2.9507   -0.0310 C   0  0  0  0  0  0  0  0  0  0  0  0
   -3.5419   -2.4155    0.0836 H   0  0  0  0  0  0  0  0  0  0  0  0
   -2.4445   -3.1858   -1.0881 H   0  0  0  0  0  0  0  0  0  0  0  0
   -1.4477   -2.0949    0.4731 C   0  0  0  0  0  0  0  0  0  0  0  0
   -0.8428   -2.4244    1.4877 O   0  0  0  0  0  0  0  0  0  0  0  0
   -1.2236   -0.8532   -0.0874 N   0  0  0  0  0  0  0  0  0  0  0  0
   -1.7736   -0.6865   -0.9240 H   0  0  0  0  0  0  0  0  0  0  0  0
    0.1226   -0.2642   -0.1232 C   0  0  1  0  0  0  0  0  0  0  0  0
    0.7754   -0.8120    0.5633 H   0  0  0  0  0  0  0  0  0  0  0  0
    0.7640   -0.3284   -1.5398 C   0  0  0  0  0  0  0  0  0  0  0  0
    0.5011    0.5890   -2.0756 H   0  0  0  0  0  0  0  0  0  0  0  0
    1.8510   -0.3339   -1.4309 H   0  0  0  0  0  0  0  0  0  0  0  0
    0.3848   -1.4810   -2.4724 C   0  0  0  0  0  0  0  0  0  0  0  0
    0.4167   -1.2246   -3.6995 O   0  5  0  0  0  0  0  0  0  0  0  0
    0.0933   -2.6034   -1.9955 O   0  0  0  0  0  0  0  0  0  0  0  0
    0.0914    1.2199    0.3077 C   0  0  0  0  0  0  0  0  0  0  0  0
   -0.7733    1.9957   -0.0914 O   0  0  0  0  0  0  0  0  0  0  0  0
    1.0469    1.6864    1.1934 N   0  0  0  0  0  0  0  0  0  0  0  0
    1.7057    1.0048    1.5571 H   0  0  0  0  0  0  0  0  0  0  0  0
    1.0729    3.0460    1.7119 C   0  0  0  0  0  0  0  0  0  0  0  0
    0.1596    3.2572    2.2774 H   0  0  0  0  0  0  0  0  0  0  0  0
    1.9313    3.1768    2.3773 H   0  0  0  0  0  0  0  0  0  0  0  0
    1.1578    3.7669    0.8923 H   0  0  0  0  0  0  0  0  0  0  0  0
  1  2  1  0  0  0  0
  2  3  1  0  0  0  0
  2  4  1  0  0  0  0
  2  5  1  0  0  0  0
  5  6  2  0  0  0  0
  5  7  1  0  0  0  0
  7  8  1  0  0  0  0
  7  9  1  0  0  0  0
  9 10  1  0  0  0  0
  9 11  1  0  0  0  0
  9 17  1  0  0  0  0
 11 12  1  0  0  0  0
 11 13  1  0  0  0  0
 11 14  1  0  0  0  0
 14 15  1  0  0  0  0
 14 16  2  0  0  0  0
 17 18  2  0  0  0  0
 17 19  1  0  0  0  0
 19 20  1  0  0  0  0
 19 21  1  0  0  0  0
 21 22  1  0  0  0  0
 21 23  1  0  0  0  0
 21 24  1  0  0  0  0
M  CHG  1  15  -1
M  END
$$$$

  -OEChem-03222214023D

 24 23  0     1  0  0  0  0  0999 V2000
   -2.6643   -3.8873    0.5573 H   0  0  0  0  0  0  0  0  0  0  0  0
   -2.6383   -2.9365    0.0190 C   0  0  0  0  0  0  0  0  0  0  0  0
   -3.5683   -2.3950    0.2053 H   0  0  0  0  0  0  0  0  0  0  0  0
   -2.5530   -3.1438   -1.0511 H   0  0  0  0  0  0  0  0  0  0  0  0
   -1.4518   -2.1063    0.4781 C   0  0  0  0  0  0  0  0  0  0  0  0
   -0.8197   -2.4519    1.4708 O   0  0  0  0  0  0  0  0  0  0  0  0
   -1.2273   -0.8658   -0.0858 N   0  0  0  0  0  0  0  0  0  0  0  0
   -1.7658   -0.7203   -0.9342 H   0  0  0  0  0  0  0  0  0  0  0  0
    0.1194   -0.2791   -0.1252 C   0  0  1  0  0  0  0  0  0  0  0  0
    0.7703   -0.8227    0.5663 H   0  0  0  0  0  0  0  0  0  0  0  0
    0.7825   -0.3315   -1.5353 C   0  0  0  0  0  0  0  0  0  0  0  0
    0.5233    0.5907   -2.0646 H   0  0  0  0  0  0  0  0  0  0  0  0
    1.8670   -0.3274   -1.4014 H   0  0  0  0  0  0  0  0  0  0  0  0
    0.4477   -1.4608   -2.5155 C   0  0  0  0  0  0  0  0  0  0  0  0
    0.7974   -1.2525   -3.7018 O   0  5  0  0  0  0  0  0  0  0  0  0
   -0.1554   -2.4916   -2.1326 O   0  0  0  0  0  0  0  0  0  0  0  0
    0.0817    1.2057    0.3044 C   0  0  0  0  0  0  0  0  0  0  0  0
   -0.7841    1.9793   -0.0966 O   0  0  0  0  0  0  0  0  0  0  0  0
    1.0357    1.6762    1.1896 N   0  0  0  0  0  0  0  0  0  0  0  0
    1.7011    0.9990    1.5494 H   0  0  0  0  0  0  0  0  0  0  0  0
    1.0635    3.0393    1.6984 C   0  0  0  0  0  0  0  0  0  0  0  0
    0.1482    3.2567    2.2582 H   0  0  0  0  0  0  0  0  0  0  0  0
    1.9195    3.1727    2.3664 H   0  0  0  0  0  0  0  0  0  0  0  0
    1.1538    3.7537    0.8737 H   0  0  0  0  0  0  0  0  0  0  0  0
  1  2  1  0  0  0  0
  2  3  1  0  0  0  0
  2  4  1  0  0  0  0
  2  5  1  0  0  0  0
  5  6  2  0  0  0  0
  5  7  1  0  0  0  0
  7  8  1  0  0  0  0
  7  9  1  0  0  0  0
  9 10  1  0  0  0  0
  9 11  1  0  0  0  0
  9 17  1  0  0  0  0
 11 12  1  0  0  0  0
 11 13  1  0  0  0  0
 11 14  1  0  0  0  0
 14 15  1  0  0  0  0
 14 16  2  0  0  0  0
 17 18  2  0  0  0  0
 17 19  1  0  0  0  0
 19 20  1  0  0  0  0
 19 21  1  0  0  0  0
 21 22  1  0  0  0  0
 21 23  1  0  0  0  0
 21 24  1  0  0  0  0
M  CHG  1  15  -1
M  END
$$$$

  -OEChem-03222214023D

 24 23  0     1  0  0  0  0  0999 V2000
   -2.7683   -3.7991    0.7186 H   0  0  0  0  0  0  0  0  0  0  0  0
   -2.6463   -2.9374    0.0573 C   0  0  0  0  0  0  0  0  0  0  0  0
   -3.5524   -2.3285    0.0977 H   0  0  0  0  0  0  0  0  0  0  0  0
   -2.5050   -3.2958   -0.9658 H   0  0  0  0  0  0  0  0  0  0  0  0
   -1.4452   -2.1109    0.4841 C   0  0  0  0  0  0  0  0  0  0  0  0
   -0.7449   -2.5031    1.4114 O   0  0  0  0  0  0  0  0  0  0  0  0
   -1.2407   -0.8646   -0.0713 N   0  0  0  0  0  0  0  0  0  0  0  0
   -1.7419   -0.7832   -0.9587 H   0  0  0  0  0  0  0  0  0  0  0  0
    0.1016   -0.2746   -0.1318 C   0  0  1  0  0  0  0  0  0  0  0  0
    0.7652   -0.8109    0.5527 H   0  0  0  0  0  0  0  0  0  0  0  0
    0.7560   -0.3252   -1.5516 C   0  0  0  0  0  0  0  0  0  0  0  0
    0.7469    0.6838   -1.9747 H   0  0  0  0  0  0  0  0  0  0  0  0
    1.8055   -0.5987   -1.4168 H   0  0  0  0  0  0  0  0  0  0  0  0
    0.2021   -1.2234   -2.6679 C   0  0  0  0  0  0  0  0  0  0  0  0
    0.8359   -1.1564   -3.7478 O   0  5  0  0  0  0  0  0  0  0  0  0
   -0.8767   -1.8542   -2.5272 O   0  0  0  0  0  0  0  0  0  0  0  0
    0.0625    1.2064    0.3149 C   0  0  0  0  0  0  0  0  0  0  0  0
   -0.8093    1.9848   -0.0619 O   0  0  0  0  0  0  0  0  0  0  0  0
    1.0317    1.6708    1.1872 N   0  0  0  0  0  0  0  0  0  0  0  0
    1.7093    0.9939    1.5233 H   0  0  0  0  0  0  0  0  0  0  0  0
    1.0672    3.0298    1.7065 C   0  0  0  0  0  0  0  0  0  0  0  0
    0.1695    3.2355    2.2980 H   0  0  0  0  0  0  0  0  0  0  0  0
    1.9439    3.1636    2.3469 H   0  0  0  0  0  0  0  0  0  0  0  0
    1.1252    3.7522    0.8860 H   0  0  0  0  0  0  0  0  0  0  0  0
  1  2  1  0  0  0  0
  2  3  1  0  0  0  0
  2  4  1  0  0  0  0
  2  5  1  0  0  0  0
  5  6  2  0  0  0  0
  5  7  1  0  0  0  0
  7  8  1  0  0  0  0
  7  9  1  0  0  0  0
  9 10  1  0  0  0  0
  9 11  1  0  0  0  0
  9 17  1  0  0  0  0
 11 12  1  0  0  0  0
 11 13  1  0  0  0  0
 11 14  1  0  0  0  0
 14 15  1  0  0  0  0
 14 16  2  0  0  0  0
 17 18  2  0  0  0  0
 17 19  1  0  0  0  0
 19 20  1  0  0  0  0
 19 21  1  0  0  0  0
 21 22  1  0  0  0  0
 21 23  1  0  0  0  0
 21 24  1  0  0  0  0
M  CHG  1  15  -1
M  END
$$$$

  -OEChem-03222214023D

 24 23  0     1  0  0  0  0  0999 V2000
   -2.7305   -3.8360    0.6513 H   0  0  0  0  0  0  0  0  0  0  0  0
   -2.6267   -2.9488    0.0215 C   0  0  0  0  0  0  0  0  0  0  0  0
   -3.5484   -2.3649    0.0752 H   0  0  0  0  0  0  0  0  0  0  0  0
   -2.4689   -3.2671   -1.0124 H   0  0  0  0  0  0  0  0  0  0  0  0
   -1.4508   -2.1067    0.4847 C   0  0  0  0  0  0  0  0  0  0  0  0
   -0.7526   -2.5035    1.4111 O   0  0  0  0  0  0  0  0  0  0  0  0
   -1.2468   -0.8586   -0.0645 N   0  0  0  0  0  0  0  0  0  0  0  0
   -1.7454   -0.7726   -0.9558 H   0  0  0  0  0  0  0  0  0  0  0  0
    0.0922   -0.2628   -0.1219 C   0  0  1  0  0  0  0  0  0  0  0  0
    0.7560   -0.7997    0.5620 H   0  0  0  0  0  0  0  0  0  0  0  0
    0.7396   -0.3250   -1.5429 C   0  0  0  0  0  0  0  0  0  0  0  0
    0.7279    0.6775   -1.9800 H   0  0  0  0  0  0  0  0  0  0  0  0
    1.7899   -0.5973   -1.4090 H   0  0  0  0  0  0  0  0  0  0  0  0
    0.1700   -1.2411   -2.6368 C   0  0  0  0  0  0  0  0  0  0  0  0
    0.9336   -1.4280   -3.6137 O   0  5  0  0  0  0  0  0  0  0  0  0
   -1.0297   -1.6224   -2.5995 O   0  0  0  0  0  0  0  0  0  0  0  0
    0.0595    1.2173    0.3275 C   0  0  0  0  0  0  0  0  0  0  0  0
   -0.8071    2.0013   -0.0489 O   0  0  0  0  0  0  0  0  0  0  0  0
    1.0321    1.6763    1.1991 N   0  0  0  0  0  0  0  0  0  0  0  0
    1.7104    0.9976    1.5299 H   0  0  0  0  0  0  0  0  0  0  0  0
    1.0848    3.0393    1.7065 C   0  0  0  0  0  0  0  0  0  0  0  0
    0.1908    3.2614    2.2978 H   0  0  0  0  0  0  0  0  0  0  0  0
    1.9643    3.1685    2.3441 H   0  0  0  0  0  0  0  0  0  0  0  0
    1.1499    3.7536    0.8793 H   0  0  0  0  0  0  0  0  0  0  0  0
  1  2  1  0  0  0  0
  2  3  1  0  0  0  0
  2  4  1  0  0  0  0
  2  5  1  0  0  0  0
  5  6  2  0  0  0  0
  5  7  1  0  0  0  0
  7  8  1  0  0  0  0
  7  9  1  0  0  0  0
  9 10  1  0  0  0  0
  9 11  1  0  0  0  0
  9 17  1  0  0  0  0
 11 12  1  0  0  0  0
 11 13  1  0  0  0  0
 11 14  1  0  0  0  0
 14 15  1  0  0  0  0
 14 16  2  0  0  0  0
 17 18  2  0  0  0  0
 17 19  1  0  0  0  0
 19 20  1  0  0  0  0
 19 21  1  0  0  0  0
 21 22  1  0  0  0  0
 21 23  1  0  0  0  0
 21 24  1  0  0  0  0
M  CHG  1  15  -1
M  END
$$$$

  -OEChem-03222214023D

 24 23  0     1  0  0  0  0  0999 V2000
   -2.7079   -3.8505    0.5971 H   0  0  0  0  0  0  0  0  0  0  0  0
   -2.6118   -2.9476   -0.0115 C   0  0  0  0  0  0  0  0  0  0  0  0
   -3.5389   -2.3735    0.0556 H   0  0  0  0  0  0  0  0  0  0  0  0
   -2.4504   -3.2386   -1.0531 H   0  0  0  0  0  0  0  0  0  0  0  0
   -1.4437   -2.1062    0.4713 C   0  0  0  0  0  0  0  0  0  0  0  0
   -0.7410   -2.5147    1.3886 O   0  0  0  0  0  0  0  0  0  0  0  0
   -1.2385   -0.8555   -0.0698 N   0  0  0  0  0  0  0  0  0  0  0  0
   -1.7468   -0.7490   -0.9549 H   0  0  0  0  0  0  0  0  0  0  0  0
    0.0957   -0.2492   -0.1228 C   0  0  1  0  0  0  0  0  0  0  0  0
    0.7607   -0.7856    0.5606 H   0  0  0  0  0  0  0  0  0  0  0  0
    0.7345   -0.3222   -1.5448 C   0  0  0  0  0  0  0  0  0  0  0  0
    0.7103    0.6723   -1.9990 H   0  0  0  0  0  0  0  0  0  0  0  0
    1.7883   -0.5863   -1.4194 H   0  0  0  0  0  0  0  0  0  0  0  0
    0.1382   -1.2640   -2.5999 C   0  0  0  0  0  0  0  0  0  0  0  0
    0.9515   -1.7208   -3.4378 O   0  5  0  0  0  0  0  0  0  0  0  0
   -1.1102   -1.4241   -2.6668 O   0  0  0  0  0  0  0  0  0  0  0  0
    0.0638    1.2295    0.3299 C   0  0  0  0  0  0  0  0  0  0  0  0
   -0.8019    2.0151   -0.0445 O   0  0  0  0  0  0  0  0  0  0  0  0
    1.0375    1.6855    1.2017 N   0  0  0  0  0  0  0  0  0  0  0  0
    1.7169    1.0056    1.5280 H   0  0  0  0  0  0  0  0  0  0  0  0
    1.0859    3.0445    1.7202 C   0  0  0  0  0  0  0  0  0  0  0  0
    0.1862    3.2631    2.3042 H   0  0  0  0  0  0  0  0  0  0  0  0
    1.9587    3.1682    2.3678 H   0  0  0  0  0  0  0  0  0  0  0  0
    1.1598    3.7644    0.8987 H   0  0  0  0  0  0  0  0  0  0  0  0
  1  2  1  0  0  0  0
  2  3  1  0  0  0  0
  2  4  1  0  0  0  0
  2  5  1  0  0  0  0
  5  6  2  0  0  0  0
  5  7  1  0  0  0  0
  7  8  1  0  0  0  0
  7  9  1  0  0  0  0
  9 10  1  0  0  0  0
  9 11  1  0  0  0  0
  9 17  1  0  0  0  0
 11 12  1  0  0  0  0
 11 13  1  0  0  0  0
 11 14  1  0  0  0  0
 14 15  1  0  0  0  0
 14 16  2  0  0  0  0
 17 18  2  0  0  0  0
 17 19  1  0  0  0  0
 19 20  1  0  0  0  0
 19 21  1  0  0  0  0
 21 22  1  0  0  0  0
 21 23  1  0  0  0  0
 21 24  1  0  0  0  0
M  CHG  1  15  -1
M  END
$$$$

  -OEChem-03222214023D

 24 23  0     1  0  0  0  0  0999 V2000
   -2.6594   -3.8809    0.5128 H   0  0  0  0  0  0  0  0  0  0  0  0
   -2.5911   -2.9493   -0.0548 C   0  0  0  0  0  0  0  0  0  0  0  0
   -3.5304   -2.4009    0.0466 H   0  0  0  0  0  0  0  0  0  0  0  0
   -2.4323   -3.1883   -1.1102 H   0  0  0  0  0  0  0  0  0  0  0  0
   -1.4393   -2.1024    0.4554 C   0  0  0  0  0  0  0  0  0  0  0  0
   -0.7450   -2.5117    1.3785 O   0  0  0  0  0  0  0  0  0  0  0  0
   -1.2329   -0.8497   -0.0793 N   0  0  0  0  0  0  0  0  0  0  0  0
   -1.7464   -0.7260   -0.9599 H   0  0  0  0  0  0  0  0  0  0  0  0
    0.0983   -0.2352   -0.1225 C   0  0  1  0  0  0  0  0  0  0  0  0
    0.7614   -0.7727    0.5619 H   0  0  0  0  0  0  0  0  0  0  0  0
    0.7311   -0.3190   -1.5439 C   0  0  0  0  0  0  0  0  0  0  0  0
    0.6963    0.6678   -2.0142 H   0  0  0  0  0  0  0  0  0  0  0  0
    1.7871   -0.5786   -1.4286 H   0  0  0  0  0  0  0  0  0  0  0  0
    0.1047   -1.2842   -2.5563 C   0  0  0  0  0  0  0  0  0  0  0  0
    0.8988   -1.9958   -3.2158 O   0  5  0  0  0  0  0  0  0  0  0  0
   -1.1440   -1.2636   -2.7299 O   0  0  0  0  0  0  0  0  0  0  0  0
    0.0682    1.2424    0.3318 C   0  0  0  0  0  0  0  0  0  0  0  0
   -0.7943    2.0305   -0.0438 O   0  0  0  0  0  0  0  0  0  0  0  0
    1.0401    1.6946    1.2077 N   0  0  0  0  0  0  0  0  0  0  0  0
    1.7150    1.0117    1.5371 H   0  0  0  0  0  0  0  0  0  0  0  0
    1.0913    3.0529    1.7278 C   0  0  0  0  0  0  0  0  0  0  0  0
    0.1906    3.2739    2.3093 H   0  0  0  0  0  0  0  0  0  0  0  0
    1.9626    3.1725    2.3782 H   0  0  0  0  0  0  0  0  0  0  0  0
    1.1707    3.7738    0.9077 H   0  0  0  0  0  0  0  0  0  0  0  0
  1  2  1  0  0  0  0
  2  3  1  0  0  0  0
  2  4  1  0  0  0  0
  2  5  1  0  0  0  0
  5  6  2  0  0  0  0
  5  7  1  0  0  0  0
  7  8  1  0  0  0  0
  7  9  1  0  0  0  0
  9 10  1  0  0  0  0
  9 11  1  0  0  0  0
  9 17  1  0  0  0  0
 11 12  1  0  0  0  0
 11 13  1  0  0  0  0
 11 14  1  0  0  0  0
 14 15  1  0  0  0  0
 14 16  2  0  0  0  0
 17 18  2  0  0  0  0
 17 19  1  0  0  0  0
 19 20  1  0  0  0  0
 19 21  1  0  0  0  0
 21 22  1  0  0  0  0
 21 23  1  0  0  0  0
 21 24  1  0  0  0  0
M  CHG  1  15  -1
M  END
$$$$

  -OEChem-03222214023D

 24 23  0     1  0  0  0  0  0999 V2000
   -2.6174   -3.8996    0.4471 H   0  0  0  0  0  0  0  0  0  0  0  0
   -2.5664   -2.9530   -0.0970 C   0  0  0  0  0  0  0  0  0  0  0  0
   -3.5180   -2.4276    0.0111 H   0  0  0  0  0  0  0  0  0  0  0  0
   -2.3957   -3.1637   -1.1567 H   0  0  0  0  0  0  0  0  0  0  0  0
   -1.4358   -2.0943    0.4403 C   0  0  0  0  0  0  0  0  0  0  0  0
   -0.7606   -2.4930    1.3818 O   0  0  0  0  0  0  0  0  0  0  0  0
   -1.2277   -0.8406   -0.0915 N   0  0  0  0  0  0  0  0  0  0  0  0
   -1.7420   -0.7059   -0.9701 H   0  0  0  0  0  0  0  0  0  0  0  0
    0.1034   -0.2230   -0.1250 C   0  0  1  0  0  0  0  0  0  0  0  0
    0.7643   -0.7629    0.5598 H   0  0  0  0  0  0  0  0  0  0  0  0
    0.7296   -0.3166   -1.5467 C   0  0  0  0  0  0  0  0  0  0  0  0
    0.6893    0.6639   -2.0296 H   0  0  0  0  0  0  0  0  0  0  0  0
    1.7863   -0.5784   -1.4440 H   0  0  0  0  0  0  0  0  0  0  0  0
    0.0714   -1.2982   -2.5186 C   0  0  0  0  0  0  0  0  0  0  0  0
    0.7854   -2.2248   -2.9689 O   0  5  0  0  0  0  0  0  0  0  0  0
   -1.1476   -1.1366   -2.7956 O   0  0  0  0  0  0  0  0  0  0  0  0
    0.0769    1.2547    0.3290 C   0  0  0  0  0  0  0  0  0  0  0  0
   -0.7802    2.0466   -0.0508 O   0  0  0  0  0  0  0  0  0  0  0  0
    1.0463    1.7030    1.2097 N   0  0  0  0  0  0  0  0  0  0  0  0
    1.7107    1.0151    1.5498 H   0  0  0  0  0  0  0  0  0  0  0  0
    1.0964    3.0592    1.7354 C   0  0  0  0  0  0  0  0  0  0  0  0
    0.1925    3.2786    2.3127 H   0  0  0  0  0  0  0  0  0  0  0  0
    1.9641    3.1754    2.3913 H   0  0  0  0  0  0  0  0  0  0  0  0
    1.1810    3.7834    0.9187 H   0  0  0  0  0  0  0  0  0  0  0  0
  1  2  1  0  0  0  0
  2  3  1  0  0  0  0
  2  4  1  0  0  0  0
  2  5  1  0  0  0  0
  5  6  2  0  0  0  0
  5  7  1  0  0  0  0
  7  8  1  0  0  0  0
  7  9  1  0  0  0  0
  9 10  1  0  0  0  0
  9 11  1  0  0  0  0
  9 17  1  0  0  0  0
 11 12  1  0  0  0  0
 11 13  1  0  0  0  0
 11 14  1  0  0  0  0
 14 15  1  0  0  0  0
 14 16  2  0  0  0  0
 17 18  2  0  0  0  0
 17 19  1  0  0  0  0
 19 20  1  0  0  0  0
 19 21  1  0  0  0  0
 21 22  1  0  0  0  0
 21 23  1  0  0  0  0
 21 24  1  0  0  0  0
M  CHG  1  15  -1
M  END
$$$$

  -OEChem-03222214023D

 24 23  0     1  0  0  0  0  0999 V2000
   -2.5833   -3.9036    0.4058 H   0  0  0  0  0  0  0  0  0  0  0  0
   -2.5368   -2.9536   -0.1327 C   0  0  0  0  0  0  0  0  0  0  0  0
   -3.4988   -2.4438   -0.0423 H   0  0  0  0  0  0  0  0  0  0  0  0
   -2.3400   -3.1566   -1.1895 H   0  0  0  0  0  0  0  0  0  0  0  0
   -1.4308   -2.0806    0.4311 C   0  0  0  0  0  0  0  0  0  0  0  0
   -0.7787   -2.4634    1.3956 O   0  0  0  0  0  0  0  0  0  0  0  0
   -1.2207   -0.8281   -0.1026 N   0  0  0  0  0  0  0  0  0  0  0  0
   -1.7360   -0.6861   -0.9790 H   0  0  0  0  0  0  0  0  0  0  0  0
    0.1132   -0.2149   -0.1310 C   0  0  1  0  0  0  0  0  0  0  0  0
    0.7724   -0.7572    0.5536 H   0  0  0  0  0  0  0  0  0  0  0  0
    0.7296   -0.3204   -1.5546 C   0  0  0  0  0  0  0  0  0  0  0  0
    0.6916    0.6552   -2.0475 H   0  0  0  0  0  0  0  0  0  0  0  0
    1.7841   -0.5947   -1.4649 H   0  0  0  0  0  0  0  0  0  0  0  0
    0.0378   -1.3107   -2.4895 C   0  0  0  0  0  0  0  0  0  0  0  0
    0.6171   -2.3992   -2.7126 O   0  5  0  0  0  0  0  0  0  0  0  0
   -1.1292   -1.0315   -2.8714 O   0  0  0  0  0  0  0  0  0  0  0  0
    0.0915    1.2635    0.3203 C   0  0  0  0  0  0  0  0  0  0  0  0
   -0.7600    2.0587   -0.0653 O   0  0  0  0  0  0  0  0  0  0  0  0
    1.0586    1.7097    1.2046 N   0  0  0  0  0  0  0  0  0  0  0  0
    1.7062    1.0151    1.5636 H   0  0  0  0  0  0  0  0  0  0  0  0
    1.0964    3.0616    1.7429 C   0  0  0  0  0  0  0  0  0  0  0  0
    0.1827    3.2738    2.3073 H   0  0  0  0  0  0  0  0  0  0  0  0
    1.9530    3.1748    2.4137 H   0  0  0  0  0  0  0  0  0  0  0  0
    1.1917    3.7930    0.9338 H   0  0  0  0  0  0  0  0  0  0  0  0
  1  2  1  0  0  0  0
  2  3  1  0  0  0  0
  2  4  1  0  0  0  0
  2  5  1  0  0  0  0
  5  6  2  0  0  0  0
  5  7  1  0  0  0  0
  7  8  1  0  0  0  0
  7  9  1  0  0  0  0
  9 10  1  0  0  0  0
  9 11  1  0  0  0  0
  9 17  1  0  0  0  0
 11 12  1  0  0  0  0
 11 13  1  0  0  0  0
 11 14  1  0  0  0  0
 14 15  1  0  0  0  0
 14 16  2  0  0  0  0
 17 18  2  0  0  0  0
 17 19  1  0  0  0  0
 19 20  1  0  0  0  0
 19 21  1  0  0  0  0
 21 22  1  0  0  0  0
 21 23  1  0  0  0  0
 21 24  1  0  0  0  0
M  CHG  1  15  -1
M  END
$$$$

  -OEChem-03222214023D

 24 23  0     1  0  0  0  0  0999 V2000
   -2.5427   -3.9196    0.3662 H   0  0  0  0  0  0  0  0  0  0  0  0
   -2.5119   -2.9640   -0.1636 C   0  0  0  0  0  0  0  0  0  0  0  0
   -3.4861   -2.4772   -0.0805 H   0  0  0  0  0  0  0  0  0  0  0  0
   -2.2975   -3.1535   -1.2196 H   0  0  0  0  0  0  0  0  0  0  0  0
   -1.4326   -2.0720    0.4215 C   0  0  0  0  0  0  0  0  0  0  0  0
   -0.8096   -2.4319    1.4140 O   0  0  0  0  0  0  0  0  0  0  0  0
   -1.2257   -0.8188   -0.1136 N   0  0  0  0  0  0  0  0  0  0  0  0
   -1.7386   -0.6746   -0.9894 H   0  0  0  0  0  0  0  0  0  0  0  0
    0.1101   -0.2067   -0.1331 C   0  0  1  0  0  0  0  0  0  0  0  0
    0.7637   -0.7516    0.5547 H   0  0  0  0  0  0  0  0  0  0  0  0
    0.7300   -0.3210   -1.5535 C   0  0  0  0  0  0  0  0  0  0  0  0
    0.6970    0.6512   -2.0539 H   0  0  0  0  0  0  0  0  0  0  0  0
    1.7820   -0.6041   -1.4648 H   0  0  0  0  0  0  0  0  0  0  0  0
    0.0237   -1.3194   -2.4656 C   0  0  0  0  0  0  0  0  0  0  0  0
    0.4330   -2.5038   -2.4540 O   0  5  0  0  0  0  0  0  0  0  0  0
   -1.0596   -0.9473   -2.9839 O   0  0  0  0  0  0  0  0  0  0  0  0
    0.0936    1.2718    0.3162 C   0  0  0  0  0  0  0  0  0  0  0  0
   -0.7495    2.0725   -0.0759 O   0  0  0  0  0  0  0  0  0  0  0  0
    1.0593    1.7108    1.2054 N   0  0  0  0  0  0  0  0  0  0  0  0
    1.6983    1.0104    1.5683 H   0  0  0  0  0  0  0  0  0  0  0  0
    1.1081    3.0627    1.7422 C   0  0  0  0  0  0  0  0  0  0  0  0
    0.2000    3.2802    2.3136 H   0  0  0  0  0  0  0  0  0  0  0  0
    1.9707    3.1718    2.4059 H   0  0  0  0  0  0  0  0  0  0  0  0
    1.2014    3.7927    0.9317 H   0  0  0  0  0  0  0  0  0  0  0  0
  1  2  1  0  0  0  0
  2  3  1  0  0  0  0
  2  4  1  0  0  0  0
  2  5  1  0  0  0  0
  5  6  2  0  0  0  0
  5  7  1  0  0  0  0
  7  8  1  0  0  0  0
  7  9  1  0  0  0  0
  9 10  1  0  0  0  0
  9 11  1  0  0  0  0
  9 17  1  0  0  0  0
 11 12  1  0  0  0  0
 11 13  1  0  0  0  0
 11 14  1  0  0  0  0
 14 15  1  0  0  0  0
 14 16  2  0  0  0  0
 17 18  2  0  0  0  0
 17 19  1  0  0  0  0
 19 20  1  0  0  0  0
 19 21  1  0  0  0  0
 21 22  1  0  0  0  0
 21 23  1  0  0  0  0
 21 24  1  0  0  0  0
M  CHG  1  15  -1
M  END
$$$$

  -OEChem-03222214023D

 24 23  0     1  0  0  0  0  0999 V2000
   -2.5491   -3.9182    0.3770 H   0  0  0  0  0  0  0  0  0  0  0  0
   -2.5306   -2.9568   -0.1426 C   0  0  0  0  0  0  0  0  0  0  0  0
   -3.4990   -2.4663   -0.0224 H   0  0  0  0  0  0  0  0  0  0  0  0
   -2.3510   -3.1370   -1.2065 H   0  0  0  0  0  0  0  0  0  0  0  0
   -1.4274   -2.0775    0.4175 C   0  0  0  0  0  0  0  0  0  0  0  0
   -0.8112   -2.4297    1.4174 O   0  0  0  0  0  0  0  0  0  0  0  0
   -1.2158   -0.8259   -0.1214 N   0  0  0  0  0  0  0  0  0  0  0  0
   -1.7480   -0.6618   -0.9778 H   0  0  0  0  0  0  0  0  0  0  0  0
    0.1215   -0.2159   -0.1401 C   0  0  1  0  0  0  0  0  0  0  0  0
    0.7719   -0.7593    0.5522 H   0  0  0  0  0  0  0  0  0  0  0  0
    0.7517   -0.3263   -1.5558 C   0  0  0  0  0  0  0  0  0  0  0  0
    0.7289    0.6497   -2.0503 H   0  0  0  0  0  0  0  0  0  0  0  0
    1.8013   -0.6152   -1.4597 H   0  0  0  0  0  0  0  0  0  0  0  0
    0.0555   -1.3215   -2.4789 C   0  0  0  0  0  0  0  0  0  0  0  0
    0.2555   -2.5424   -2.2742 O   0  5  0  0  0  0  0  0  0  0  0  0
   -0.8512   -0.8677   -3.2180 O   0  0  0  0  0  0  0  0  0  0  0  0
    0.0993    1.2636    0.3054 C   0  0  0  0  0  0  0  0  0  0  0  0
   -0.7533    2.0564   -0.0828 O   0  0  0  0  0  0  0  0  0  0  0  0
    1.0604    1.7085    1.1968 N   0  0  0  0  0  0  0  0  0  0  0  0
    1.7008    1.0113    1.5631 H   0  0  0  0  0  0  0  0  0  0  0  0
    1.0941    3.0581    1.7399 C   0  0  0  0  0  0  0  0  0  0  0  0
    0.1816    3.2639    2.3083 H   0  0  0  0  0  0  0  0  0  0  0  0
    1.9528    3.1727    2.4079 H   0  0  0  0  0  0  0  0  0  0  0  0
    1.1835    3.7928    0.9332 H   0  0  0  0  0  0  0  0  0  0  0  0
  1  2  1  0  0  0  0
  2  3  1  0  0  0  0
  2  4  1  0  0  0  0
  2  5  1  0  0  0  0
  5  6  2  0  0  0  0
  5  7  1  0  0  0  0
  7  8  1  0  0  0  0
  7  9  1  0  0  0  0
  9 10  1  0  0  0  0
  9 11  1  0  0  0  0
  9 17  1  0  0  0  0
 11 12  1  0  0  0  0
 11 13  1  0  0  0  0
 11 14  1  0  0  0  0
 14 15  1  0  0  0  0
 14 16  2  0  0  0  0
 17 18  2  0  0  0  0
 17 19  1  0  0  0  0
 19 20  1  0  0  0  0
 19 21  1  0  0  0  0
 21 22  1  0  0  0  0
 21 23  1  0  0  0  0
 21 24  1  0  0  0  0
M  CHG  1  15  -1
M  END
$$$$

  -OEChem-03222214023D

 24 23  0     1  0  0  0  0  0999 V2000
   -2.6040   -3.8947    0.4551 H   0  0  0  0  0  0  0  0  0  0  0  0
   -2.5742   -2.9415   -0.0789 C   0  0  0  0  0  0  0  0  0  0  0  0
   -3.5221   -2.4192    0.0682 H   0  0  0  0  0  0  0  0  0  0  0  0
   -2.4376   -3.1420   -1.1453 H   0  0  0  0  0  0  0  0  0  0  0  0
   -1.4251   -2.0900    0.4305 C   0  0  0  0  0  0  0  0  0  0  0  0
   -0.7887   -2.4496    1.4151 O   0  0  0  0  0  0  0  0  0  0  0  0
   -1.2106   -0.8401   -0.1135 N   0  0  0  0  0  0  0  0  0  0  0  0
   -1.7730   -0.6542   -0.9411 H   0  0  0  0  0  0  0  0  0  0  0  0
    0.1285   -0.2355   -0.1458 C   0  0  1  0  0  0  0  0  0  0  0  0
    0.7815   -0.7761    0.5460 H   0  0  0  0  0  0  0  0  0  0  0  0
    0.7698   -0.3303   -1.5595 C   0  0  0  0  0  0  0  0  0  0  0  0
    0.7592    0.6569   -2.0318 H   0  0  0  0  0  0  0  0  0  0  0  0
    1.8170   -0.6221   -1.4494 H   0  0  0  0  0  0  0  0  0  0  0  0
    0.1102   -1.3062   -2.5324 C   0  0  0  0  0  0  0  0  0  0  0  0
    0.0622   -2.5198   -2.2181 O   0  5  0  0  0  0  0  0  0  0  0  0
   -0.4518   -0.8145   -3.5393 O   0  0  0  0  0  0  0  0  0  0  0  0
    0.0950    1.2443    0.2995 C   0  0  0  0  0  0  0  0  0  0  0  0
   -0.7774    2.0221   -0.0757 O   0  0  0  0  0  0  0  0  0  0  0  0
    1.0552    1.7014    1.1854 N   0  0  0  0  0  0  0  0  0  0  0  0
    1.7123    1.0142    1.5411 H   0  0  0  0  0  0  0  0  0  0  0  0
    1.0699    3.0488    1.7358 C   0  0  0  0  0  0  0  0  0  0  0  0
    0.1554    3.2383    2.3069 H   0  0  0  0  0  0  0  0  0  0  0  0
    1.9277    3.1721    2.4033 H   0  0  0  0  0  0  0  0  0  0  0  0
    1.1475    3.7893    0.9333 H   0  0  0  0  0  0  0  0  0  0  0  0
  1  2  1  0  0  0  0
  2  3  1  0  0  0  0
  2  4  1  0  0  0  0
  2  5  1  0  0  0  0
  5  6  2  0  0  0  0
  5  7  1  0  0  0  0
  7  8  1  0  0  0  0
  7  9  1  0  0  0  0
  9 10  1  0  0  0  0
  9 11  1  0  0  0  0
  9 17  1  0  0  0  0
 11 12  1  0  0  0  0
 11 13  1  0  0  0  0
 11 14  1  0  0  0  0
 14 15  1  0  0  0  0
 14 16  2  0  0  0  0
 17 18  2  0  0  0  0
 17 19  1  0  0  0  0
 19 20  1  0  0  0  0
 19 21  1  0  0  0  0
 21 22  1  0  0  0  0
 21 23  1  0  0  0  0
 21 24  1  0  0  0  0
M  CHG  1  15  -1
M  END
$$$$

  -OEChem-03222214023D

 24 23  0     1  0  0  0  0  0999 V2000
   -2.6537   -3.8759    0.5306 H   0  0  0  0  0  0  0  0  0  0  0  0
   -2.6130   -2.9316   -0.0183 C   0  0  0  0  0  0  0  0  0  0  0  0
   -3.5424   -2.3820    0.1466 H   0  0  0  0  0  0  0  0  0  0  0  0
   -2.5123   -3.1512   -1.0847 H   0  0  0  0  0  0  0  0  0  0  0  0
   -1.4283   -2.1036    0.4478 C   0  0  0  0  0  0  0  0  0  0  0  0
   -0.7720   -2.4730    1.4158 O   0  0  0  0  0  0  0  0  0  0  0  0
   -1.2129   -0.8553   -0.1004 N   0  0  0  0  0  0  0  0  0  0  0  0
   -1.7792   -0.6767   -0.9253 H   0  0  0  0  0  0  0  0  0  0  0  0
    0.1284   -0.2567   -0.1454 C   0  0  1  0  0  0  0  0  0  0  0  0
    0.7852   -0.7954    0.5443 H   0  0  0  0  0  0  0  0  0  0  0  0
    0.7780   -0.3279   -1.5605 C   0  0  0  0  0  0  0  0  0  0  0  0
    0.7742    0.6722   -2.0053 H   0  0  0  0  0  0  0  0  0  0  0  0
    1.8238   -0.6198   -1.4395 H   0  0  0  0  0  0  0  0  0  0  0  0
    0.1594   -1.2732   -2.5938 C   0  0  0  0  0  0  0  0  0  0  0  0
   -0.1563   -2.4386   -2.2521 O   0  5  0  0  0  0  0  0  0  0  0  0
   -0.0280   -0.8014   -3.7403 O   0  0  0  0  0  0  0  0  0  0  0  0
    0.0854    1.2230    0.3013 C   0  0  0  0  0  0  0  0  0  0  0  0
   -0.7957    1.9922   -0.0724 O   0  0  0  0  0  0  0  0  0  0  0  0
    1.0452    1.6902    1.1825 N   0  0  0  0  0  0  0  0  0  0  0  0
    1.7145    1.0119    1.5324 H   0  0  0  0  0  0  0  0  0  0  0  0
    1.0535    3.0409    1.7247 C   0  0  0  0  0  0  0  0  0  0  0  0
    0.1455    3.2243    2.3084 H   0  0  0  0  0  0  0  0  0  0  0  0
    1.9199    3.1773    2.3786 H   0  0  0  0  0  0  0  0  0  0  0  0
    1.1109    3.7774    0.9167 H   0  0  0  0  0  0  0  0  0  0  0  0
  1  2  1  0  0  0  0
  2  3  1  0  0  0  0
  2  4  1  0  0  0  0
  2  5  1  0  0  0  0
  5  6  2  0  0  0  0
  5  7  1  0  0  0  0
  7  8  1  0  0  0  0
  7  9  1  0  0  0  0
  9 10  1  0  0  0  0
  9 11  1  0  0  0  0
  9 17  1  0  0  0  0
 11 12  1  0  0  0  0
 11 13  1  0  0  0  0
 11 14  1  0  0  0  0
 14 15  1  0  0  0  0
 14 16  2  0  0  0  0
 17 18  2  0  0  0  0
 17 19  1  0  0  0  0
 19 20  1  0  0  0  0
 19 21  1  0  0  0  0
 21 22  1  0  0  0  0
 21 23  1  0  0  0  0
 21 24  1  0  0  0  0
M  CHG  1  15  -1
M  END
$$$$

  -OEChem-03222214023D

 24 23  0     1  0  0  0  0  0999 V2000
   -2.6653   -3.8803    0.5678 H   0  0  0  0  0  0  0  0  0  0  0  0
   -2.6424   -2.9293    0.0295 C   0  0  0  0  0  0  0  0  0  0  0  0
   -3.5628   -2.3792    0.2378 H   0  0  0  0  0  0  0  0  0  0  0  0
   -2.5856   -3.1363   -1.0426 H   0  0  0  0  0  0  0  0  0  0  0  0
   -1.4378   -2.1104    0.4612 C   0  0  0  0  0  0  0  0  0  0  0  0
   -0.7649   -2.4843    1.4160 O   0  0  0  0  0  0  0  0  0  0  0  0
   -1.2260   -0.8631   -0.0917 N   0  0  0  0  0  0  0  0  0  0  0  0
   -1.7772   -0.7137   -0.9328 H   0  0  0  0  0  0  0  0  0  0  0  0
    0.1170   -0.2685   -0.1434 C   0  0  1  0  0  0  0  0  0  0  0  0
    0.7752   -0.8052    0.5463 H   0  0  0  0  0  0  0  0  0  0  0  0
    0.7787   -0.3246   -1.5565 C   0  0  0  0  0  0  0  0  0  0  0  0
    0.7747    0.6829   -1.9844 H   0  0  0  0  0  0  0  0  0  0  0  0
    1.8246   -0.6101   -1.4216 H   0  0  0  0  0  0  0  0  0  0  0  0
    0.2014   -1.2449   -2.6384 C   0  0  0  0  0  0  0  0  0  0  0  0
   -0.3768   -2.3137   -2.3247 O   0  5  0  0  0  0  0  0  0  0  0  0
    0.3593   -0.8541   -3.8194 O   0  0  0  0  0  0  0  0  0  0  0  0
    0.0712    1.2118    0.3026 C   0  0  0  0  0  0  0  0  0  0  0  0
   -0.8088    1.9815   -0.0733 O   0  0  0  0  0  0  0  0  0  0  0  0
    1.0329    1.6799    1.1809 N   0  0  0  0  0  0  0  0  0  0  0  0
    1.7100    1.0046    1.5216 H   0  0  0  0  0  0  0  0  0  0  0  0
    1.0526    3.0352    1.7103 C   0  0  0  0  0  0  0  0  0  0  0  0
    0.1442    3.2323    2.2886 H   0  0  0  0  0  0  0  0  0  0  0  0
    1.9180    3.1691    2.3659 H   0  0  0  0  0  0  0  0  0  0  0  0
    1.1204    3.7634    0.8956 H   0  0  0  0  0  0  0  0  0  0  0  0
  1  2  1  0  0  0  0
  2  3  1  0  0  0  0
  2  4  1  0  0  0  0
  2  5  1  0  0  0  0
  5  6  2  0  0  0  0
  5  7  1  0  0  0  0
  7  8  1  0  0  0  0
  7  9  1  0  0  0  0
  9 10  1  0  0  0  0
  9 11  1  0  0  0  0
  9 17  1  0  0  0  0
 11 12  1  0  0  0  0
 11 13  1  0  0  0  0
 11 14  1  0  0  0  0
 14 15  1  0  0  0  0
 14 16  2  0  0  0  0
 17 18  2  0  0  0  0
 17 19  1  0  0  0  0
 19 20  1  0  0  0  0
 19 21  1  0  0  0  0
 21 22  1  0  0  0  0
 21 23  1  0  0  0  0
 21 24  1  0  0  0  0
M  CHG  1  15  -1
M  END
$$$$

  -OEChem-03222214023D

 24 23  0     1  0  0  0  0  0999 V2000
   -2.6925   -3.8635    0.6209 H   0  0  0  0  0  0  0  0  0  0  0  0
   -2.6575   -2.9263    0.0595 C   0  0  0  0  0  0  0  0  0  0  0  0
   -3.5708   -2.3600    0.2548 H   0  0  0  0  0  0  0  0  0  0  0  0
   -2.6046   -3.1599   -1.0070 H   0  0  0  0  0  0  0  0  0  0  0  0
   -1.4431   -2.1115    0.4720 C   0  0  0  0  0  0  0  0  0  0  0  0
   -0.7572   -2.4920    1.4151 O   0  0  0  0  0  0  0  0  0  0  0  0
   -1.2335   -0.8655   -0.0845 N   0  0  0  0  0  0  0  0  0  0  0  0
   -1.7618   -0.7507   -0.9474 H   0  0  0  0  0  0  0  0  0  0  0  0
    0.1115   -0.2771   -0.1415 C   0  0  1  0  0  0  0  0  0  0  0  0
    0.7715   -0.8141    0.5459 H   0  0  0  0  0  0  0  0  0  0  0  0
    0.7746   -0.3235   -1.5569 C   0  0  0  0  0  0  0  0  0  0  0  0
    0.7713    0.6880   -1.9746 H   0  0  0  0  0  0  0  0  0  0  0  0
    1.8205   -0.6077   -1.4178 H   0  0  0  0  0  0  0  0  0  0  0  0
    0.2173   -1.2225   -2.6690 C   0  0  0  0  0  0  0  0  0  0  0  0
   -0.5979   -2.1438   -2.4173 O   0  5  0  0  0  0  0  0  0  0  0  0
    0.6533   -0.9685   -3.8171 O   0  0  0  0  0  0  0  0  0  0  0  0
    0.0662    1.2040    0.3044 C   0  0  0  0  0  0  0  0  0  0  0  0
   -0.8107    1.9757   -0.0746 O   0  0  0  0  0  0  0  0  0  0  0  0
    1.0293    1.6733    1.1808 N   0  0  0  0  0  0  0  0  0  0  0  0
    1.7095    0.9996    1.5184 H   0  0  0  0  0  0  0  0  0  0  0  0
    1.0527    3.0308    1.7049 C   0  0  0  0  0  0  0  0  0  0  0  0
    0.1430    3.2346    2.2789 H   0  0  0  0  0  0  0  0  0  0  0  0
    1.9160    3.1636    2.3636 H   0  0  0  0  0  0  0  0  0  0  0  0
    1.1267    3.7554    0.8875 H   0  0  0  0  0  0  0  0  0  0  0  0
  1  2  1  0  0  0  0
  2  3  1  0  0  0  0
  2  4  1  0  0  0  0
  2  5  1  0  0  0  0
  5  6  2  0  0  0  0
  5  7  1  0  0  0  0
  7  8  1  0  0  0  0
  7  9  1  0  0  0  0
  9 10  1  0  0  0  0
  9 11  1  0  0  0  0
  9 17  1  0  0  0  0
 11 12  1  0  0  0  0
 11 13  1  0  0  0  0
 11 14  1  0  0  0  0
 14 15  1  0  0  0  0
 14 16  2  0  0  0  0
 17 18  2  0  0  0  0
 17 19  1  0  0  0  0
 19 20  1  0  0  0  0
 19 21  1  0  0  0  0
 21 22  1  0  0  0  0
 21 23  1  0  0  0  0
 21 24  1  0  0  0  0
M  CHG  1  15  -1
M  END
$$$$

  -OEChem-03222214023D

 24 23  0     1  0  0  0  0  0999 V2000
   -2.7666   -3.7985    0.7160 H   0  0  0  0  0  0  0  0  0  0  0  0
   -2.6468   -2.9369    0.0540 C   0  0  0  0  0  0  0  0  0  0  0  0
   -3.5554   -2.3315    0.0919 H   0  0  0  0  0  0  0  0  0  0  0  0
   -2.5023   -3.2968   -0.9680 H   0  0  0  0  0  0  0  0  0  0  0  0
   -1.4491   -2.1056    0.4820 C   0  0  0  0  0  0  0  0  0  0  0  0
   -0.7590   -2.4877    1.4211 O   0  0  0  0  0  0  0  0  0  0  0  0
   -1.2443   -0.8591   -0.0745 N   0  0  0  0  0  0  0  0  0  0  0  0
   -1.7486   -0.7760   -0.9584 H   0  0  0  0  0  0  0  0  0  0  0  0
    0.1012   -0.2740   -0.1354 C   0  0  1  0  0  0  0  0  0  0  0  0
    0.7647   -0.8139    0.5464 H   0  0  0  0  0  0  0  0  0  0  0  0
    0.7558   -0.3168   -1.5558 C   0  0  0  0  0  0  0  0  0  0  0  0
    0.7478    0.6951   -1.9717 H   0  0  0  0  0  0  0  0  0  0  0  0
    1.8032   -0.5981   -1.4208 H   0  0  0  0  0  0  0  0  0  0  0  0
    0.1976   -1.2053   -2.6769 C   0  0  0  0  0  0  0  0  0  0  0  0
   -0.8111   -1.9339   -2.4994 O   0  5  0  0  0  0  0  0  0  0  0  0
    0.8352   -1.1435   -3.7548 O   0  0  0  0  0  0  0  0  0  0  0  0
    0.0642    1.2066    0.3126 C   0  0  0  0  0  0  0  0  0  0  0  0
   -0.8044    1.9869   -0.0679 O   0  0  0  0  0  0  0  0  0  0  0  0
    1.0337    1.6689    1.1855 N   0  0  0  0  0  0  0  0  0  0  0  0
    1.7081    0.9897    1.5235 H   0  0  0  0  0  0  0  0  0  0  0  0
    1.0682    3.0260    1.7098 C   0  0  0  0  0  0  0  0  0  0  0  0
    0.1732    3.2271    2.3072 H   0  0  0  0  0  0  0  0  0  0  0  0
    1.9481    3.1603    2.3457 H   0  0  0  0  0  0  0  0  0  0  0  0
    1.1194    3.7515    0.8915 H   0  0  0  0  0  0  0  0  0  0  0  0
  1  2  1  0  0  0  0
  2  3  1  0  0  0  0
  2  4  1  0  0  0  0
  2  5  1  0  0  0  0
  5  6  2  0  0  0  0
  5  7  1  0  0  0  0
  7  8  1  0  0  0  0
  7  9  1  0  0  0  0
  9 10  1  0  0  0  0
  9 11  1  0  0  0  0
  9 17  1  0  0  0  0
 11 12  1  0  0  0  0
 11 13  1  0  0  0  0
 11 14  1  0  0  0  0
 14 15  1  0  0  0  0
 14 16  2  0  0  0  0
 17 18  2  0  0  0  0
 17 19  1  0  0  0  0
 19 20  1  0  0  0  0
 19 21  1  0  0  0  0
 21 22  1  0  0  0  0
 21 23  1  0  0  0  0
 21 24  1  0  0  0  0
M  CHG  1  15  -1
M  END
$$$$

  -OEChem-03222214023D

 24 23  0     1  0  0  0  0  0999 V2000
   -2.7733   -3.7940    0.6977 H   0  0  0  0  0  0  0  0  0  0  0  0
   -2.6327   -2.9409    0.0292 C   0  0  0  0  0  0  0  0  0  0  0  0
   -3.5424   -2.3361    0.0294 H   0  0  0  0  0  0  0  0  0  0  0  0
   -2.4541   -3.3120   -0.9835 H   0  0  0  0  0  0  0  0  0  0  0  0
   -1.4510   -2.1020    0.4838 C   0  0  0  0  0  0  0  0  0  0  0  0
   -0.7580   -2.4934    1.4166 O   0  0  0  0  0  0  0  0  0  0  0  0
   -1.2463   -0.8546   -0.0681 N   0  0  0  0  0  0  0  0  0  0  0  0
   -1.7428   -0.7755   -0.9599 H   0  0  0  0  0  0  0  0  0  0  0  0
    0.0965   -0.2668   -0.1282 C   0  0  1  0  0  0  0  0  0  0  0  0
    0.7609   -0.8070    0.5526 H   0  0  0  0  0  0  0  0  0  0  0  0
    0.7429   -0.3177   -1.5514 C   0  0  0  0  0  0  0  0  0  0  0  0
    0.7257    0.6903   -1.9759 H   0  0  0  0  0  0  0  0  0  0  0  0
    1.7934   -0.5911   -1.4206 H   0  0  0  0  0  0  0  0  0  0  0  0
    0.1743   -1.2158   -2.6607 C   0  0  0  0  0  0  0  0  0  0  0  0
   -0.9746   -1.7213   -2.5689 O   0  5  0  0  0  0  0  0  0  0  0  0
    0.9404   -1.3900   -3.6379 O   0  0  0  0  0  0  0  0  0  0  0  0
    0.0642    1.2132    0.3223 C   0  0  0  0  0  0  0  0  0  0  0  0
   -0.7993    1.9984   -0.0591 O   0  0  0  0  0  0  0  0  0  0  0  0
    1.0366    1.6720    1.1941 N   0  0  0  0  0  0  0  0  0  0  0  0
    1.7101    0.9910    1.5303 H   0  0  0  0  0  0  0  0  0  0  0  0
    1.0795    3.0307    1.7138 C   0  0  0  0  0  0  0  0  0  0  0  0
    0.1827    3.2414    2.3053 H   0  0  0  0  0  0  0  0  0  0  0  0
    1.9569    3.1600    2.3545 H   0  0  0  0  0  0  0  0  0  0  0  0
    1.1415    3.7528    0.8930 H   0  0  0  0  0  0  0  0  0  0  0  0
  1  2  1  0  0  0  0
  2  3  1  0  0  0  0
  2  4  1  0  0  0  0
  2  5  1  0  0  0  0
  5  6  2  0  0  0  0
  5  7  1  0  0  0  0
  7  8  1  0  0  0  0
  7  9  1  0  0  0  0
  9 10  1  0  0  0  0
  9 11  1  0  0  0  0
  9 17  1  0  0  0  0
 11 12  1  0  0  0  0
 11 13  1  0  0  0  0
 11 14  1  0  0  0  0
 14 15  1  0  0  0  0
 14 16  2  0  0  0  0
 17 18  2  0  0  0  0
 17 19  1  0  0  0  0
 19 20  1  0  0  0  0
 19 21  1  0  0  0  0
 21 22  1  0  0  0  0
 21 23  1  0  0  0  0
 21 24  1  0  0  0  0
M  CHG  1  15  -1
M  END
$$$$

  -OEChem-03222214023D

 24 23  0     1  0  0  0  0  0999 V2000
   -2.7323   -3.8300    0.6238 H   0  0  0  0  0  0  0  0  0  0  0  0
   -2.6159   -2.9454   -0.0075 C   0  0  0  0  0  0  0  0  0  0  0  0
   -3.5384   -2.3612    0.0258 H   0  0  0  0  0  0  0  0  0  0  0  0
   -2.4373   -3.2668   -1.0372 H   0  0  0  0  0  0  0  0  0  0  0  0
   -1.4493   -2.1015    0.4747 C   0  0  0  0  0  0  0  0  0  0  0  0
   -0.7566   -2.5012    1.4037 O   0  0  0  0  0  0  0  0  0  0  0  0
   -1.2432   -0.8517   -0.0689 N   0  0  0  0  0  0  0  0  0  0  0  0
   -1.7438   -0.7573   -0.9591 H   0  0  0  0  0  0  0  0  0  0  0  0
    0.0950   -0.2545   -0.1235 C   0  0  1  0  0  0  0  0  0  0  0  0
    0.7589   -0.7945    0.5581 H   0  0  0  0  0  0  0  0  0  0  0  0
    0.7372   -0.3187   -1.5461 C   0  0  0  0  0  0  0  0  0  0  0  0
    0.7061    0.6815   -1.9873 H   0  0  0  0  0  0  0  0  0  0  0  0
    1.7915   -0.5798   -1.4200 H   0  0  0  0  0  0  0  0  0  0  0  0
    0.1508   -1.2421   -2.6243 C   0  0  0  0  0  0  0  0  0  0  0  0
   -1.0800   -1.5115   -2.6367 O   0  5  0  0  0  0  0  0  0  0  0  0
    0.9736   -1.6757   -3.4653 O   0  0  0  0  0  0  0  0  0  0  0  0
    0.0643    1.2242    0.3304 C   0  0  0  0  0  0  0  0  0  0  0  0
   -0.7973    2.0120   -0.0493 O   0  0  0  0  0  0  0  0  0  0  0  0
    1.0371    1.6800    1.2033 N   0  0  0  0  0  0  0  0  0  0  0  0
    1.7120    0.9986    1.5358 H   0  0  0  0  0  0  0  0  0  0  0  0
    1.0869    3.0402    1.7187 C   0  0  0  0  0  0  0  0  0  0  0  0
    0.1878    3.2605    2.3030 H   0  0  0  0  0  0  0  0  0  0  0  0
    1.9606    3.1649    2.3650 H   0  0  0  0  0  0  0  0  0  0  0  0
    1.1604    3.7590    0.8961 H   0  0  0  0  0  0  0  0  0  0  0  0
  1  2  1  0  0  0  0
  2  3  1  0  0  0  0
  2  4  1  0  0  0  0
  2  5  1  0  0  0  0
  5  6  2  0  0  0  0
  5  7  1  0  0  0  0
  7  8  1  0  0  0  0
  7  9  1  0  0  0  0
  9 10  1  0  0  0  0
  9 11  1  0  0  0  0
  9 17  1  0  0  0  0
 11 12  1  0  0  0  0
 11 13  1  0  0  0  0
 11 14  1  0  0  0  0
 14 15  1  0  0  0  0
 14 16  2  0  0  0  0
 17 18  2  0  0  0  0
 17 19  1  0  0  0  0
 19 20  1  0  0  0  0
 19 21  1  0  0  0  0
 21 22  1  0  0  0  0
 21 23  1  0  0  0  0
 21 24  1  0  0  0  0
M  CHG  1  15  -1
M  END
$$$$

  -OEChem-03222214023D

 24 23  0     1  0  0  0  0  0999 V2000
   -2.6573   -3.8823    0.5127 H   0  0  0  0  0  0  0  0  0  0  0  0
   -2.5967   -2.9469   -0.0495 C   0  0  0  0  0  0  0  0  0  0  0  0
   -3.5374   -2.4028    0.0614 H   0  0  0  0  0  0  0  0  0  0  0  0
   -2.4447   -3.1802   -1.1072 H   0  0  0  0  0  0  0  0  0  0  0  0
   -1.4441   -2.0991    0.4583 C   0  0  0  0  0  0  0  0  0  0  0  0
   -0.7565   -2.5028    1.3891 O   0  0  0  0  0  0  0  0  0  0  0  0
   -1.2355   -0.8477   -0.0789 N   0  0  0  0  0  0  0  0  0  0  0  0
   -1.7424   -0.7321   -0.9642 H   0  0  0  0  0  0  0  0  0  0  0  0
    0.0984   -0.2394   -0.1221 C   0  0  1  0  0  0  0  0  0  0  0  0
    0.7594   -0.7780    0.5634 H   0  0  0  0  0  0  0  0  0  0  0  0
    0.7372   -0.3214   -1.5423 C   0  0  0  0  0  0  0  0  0  0  0  0
    0.6955    0.6682   -2.0057 H   0  0  0  0  0  0  0  0  0  0  0  0
    1.7940   -0.5761   -1.4241 H   0  0  0  0  0  0  0  0  0  0  0  0
    0.1208   -1.2778   -2.5706 C   0  0  0  0  0  0  0  0  0  0  0  0
   -1.1317   -1.3127   -2.7105 O   0  5  0  0  0  0  0  0  0  0  0  0
    0.9253   -1.9769   -3.2310 O   0  0  0  0  0  0  0  0  0  0  0  0
    0.0683    1.2388    0.3313 C   0  0  0  0  0  0  0  0  0  0  0  0
   -0.7910    2.0280   -0.0498 O   0  0  0  0  0  0  0  0  0  0  0  0
    1.0386    1.6915    1.2086 N   0  0  0  0  0  0  0  0  0  0  0  0
    1.7128    1.0090    1.5404 H   0  0  0  0  0  0  0  0  0  0  0  0
    1.0904    3.0513    1.7248 C   0  0  0  0  0  0  0  0  0  0  0  0
    0.1850    3.2776    2.2969 H   0  0  0  0  0  0  0  0  0  0  0  0
    1.9560    3.1702    2.3830 H   0  0  0  0  0  0  0  0  0  0  0  0
    1.1796    3.7692    0.9031 H   0  0  0  0  0  0  0  0  0  0  0  0
  1  2  1  0  0  0  0
  2  3  1  0  0  0  0
  2  4  1  0  0  0  0
  2  5  1  0  0  0  0
  5  6  2  0  0  0  0
  5  7  1  0  0  0  0
  7  8  1  0  0  0  0
  7  9  1  0  0  0  0
  9 10  1  0  0  0  0
  9 11  1  0  0  0  0
  9 17  1  0  0  0  0
 11 12  1  0  0  0  0
 11 13  1  0  0  0  0
 11 14  1  0  0  0  0
 14 15  1  0  0  0  0
 14 16  2  0  0  0  0
 17 18  2  0  0  0  0
 17 19  1  0  0  0  0
 19 20  1  0  0  0  0
 19 21  1  0  0  0  0
 21 22  1  0  0  0  0
 21 23  1  0  0  0  0
 21 24  1  0  0  0  0
M  CHG  1  15  -1
M  END
$$$$

  -OEChem-03222214023D

 24 23  0     1  0  0  0  0  0999 V2000
   -2.6082   -3.9041    0.4372 H   0  0  0  0  0  0  0  0  0  0  0  0
   -2.5664   -2.9504   -0.0951 C   0  0  0  0  0  0  0  0  0  0  0  0
   -3.5186   -2.4297    0.0298 H   0  0  0  0  0  0  0  0  0  0  0  0
   -2.4062   -3.1471   -1.1592 H   0  0  0  0  0  0  0  0  0  0  0  0
   -1.4335   -2.0947    0.4414 C   0  0  0  0  0  0  0  0  0  0  0  0
   -0.7579   -2.4946    1.3820 O   0  0  0  0  0  0  0  0  0  0  0  0
   -1.2231   -0.8421   -0.0917 N   0  0  0  0  0  0  0  0  0  0  0  0
   -1.7389   -0.7052   -0.9691 H   0  0  0  0  0  0  0  0  0  0  0  0
    0.1081   -0.2251   -0.1243 C   0  0  1  0  0  0  0  0  0  0  0  0
    0.7684   -0.7633    0.5621 H   0  0  0  0  0  0  0  0  0  0  0  0
    0.7352   -0.3234   -1.5452 C   0  0  0  0  0  0  0  0  0  0  0  0
    0.6867    0.6557   -2.0300 H   0  0  0  0  0  0  0  0  0  0  0  0
    1.7927   -0.5823   -1.4450 H   0  0  0  0  0  0  0  0  0  0  0  0
    0.0736   -1.3087   -2.5105 C   0  0  0  0  0  0  0  0  0  0  0  0
   -1.1400   -1.1328   -2.8014 O   0  5  0  0  0  0  0  0  0  0  0  0
    0.7805   -2.2470   -2.9477 O   0  0  0  0  0  0  0  0  0  0  0  0
    0.0791    1.2533    0.3276 C   0  0  0  0  0  0  0  0  0  0  0  0
   -0.7787    2.0434   -0.0545 O   0  0  0  0  0  0  0  0  0  0  0  0
    1.0460    1.7043    1.2096 N   0  0  0  0  0  0  0  0  0  0  0  0
    1.7100    1.0176    1.5532 H   0  0  0  0  0  0  0  0  0  0  0  0
    1.0913    3.0610    1.7341 C   0  0  0  0  0  0  0  0  0  0  0  0
    0.1824    3.2818    2.3029 H   0  0  0  0  0  0  0  0  0  0  0  0
    1.9531    3.1777    2.3977 H   0  0  0  0  0  0  0  0  0  0  0  0
    1.1834    3.7837    0.9169 H   0  0  0  0  0  0  0  0  0  0  0  0
  1  2  1  0  0  0  0
  2  3  1  0  0  0  0
  2  4  1  0  0  0  0
  2  5  1  0  0  0  0
  5  6  2  0  0  0  0
  5  7  1  0  0  0  0
  7  8  1  0  0  0  0
  7  9  1  0  0  0  0
  9 10  1  0  0  0  0
  9 11  1  0  0  0  0
  9 17  1  0  0  0  0
 11 12  1  0  0  0  0
 11 13  1  0  0  0  0
 11 14  1  0  0  0  0
 14 15  1  0  0  0  0
 14 16  2  0  0  0  0
 17 18  2  0  0  0  0
 17 19  1  0  0  0  0
 19 20  1  0  0  0  0
 19 21  1  0  0  0  0
 21 22  1  0  0  0  0
 21 23  1  0  0  0  0
 21 24  1  0  0  0  0
M  CHG  1  15  -1
M  END
$$$$

  -OEChem-03222214023D

 24 23  0     1  0  0  0  0  0999 V2000
   -2.5621   -3.9208    0.3888 H   0  0  0  0  0  0  0  0  0  0  0  0
   -2.5319   -2.9624   -0.1360 C   0  0  0  0  0  0  0  0  0  0  0  0
   -3.4990   -2.4659   -0.0291 H   0  0  0  0  0  0  0  0  0  0  0  0
   -2.3428   -3.1479   -1.1975 H   0  0  0  0  0  0  0  0  0  0  0  0
   -1.4308   -2.0848    0.4307 C   0  0  0  0  0  0  0  0  0  0  0  0
   -0.7787   -2.4653    1.3958 O   0  0  0  0  0  0  0  0  0  0  0  0
   -1.2230   -0.8313   -0.1025 N   0  0  0  0  0  0  0  0  0  0  0  0
   -1.7498   -0.6758   -0.9685 H   0  0  0  0  0  0  0  0  0  0  0  0
    0.1093   -0.2117   -0.1278 C   0  0  1  0  0  0  0  0  0  0  0  0
    0.7674   -0.7518    0.5600 H   0  0  0  0  0  0  0  0  0  0  0  0
    0.7293   -0.3232   -1.5477 C   0  0  0  0  0  0  0  0  0  0  0  0
    0.6835    0.6485   -2.0482 H   0  0  0  0  0  0  0  0  0  0  0  0
    1.7847   -0.5936   -1.4594 H   0  0  0  0  0  0  0  0  0  0  0  0
    0.0308   -1.3266   -2.4608 C   0  0  0  0  0  0  0  0  0  0  0  0
   -1.0823   -0.9921   -2.9423 O   0  5  0  0  0  0  0  0  0  0  0  0
    0.5785   -2.4400   -2.6368 O   0  0  0  0  0  0  0  0  0  0  0  0
    0.0866    1.2666    0.3218 C   0  0  0  0  0  0  0  0  0  0  0  0
   -0.7677    2.0598   -0.0612 O   0  0  0  0  0  0  0  0  0  0  0  0
    1.0536    1.7116    1.2066 N   0  0  0  0  0  0  0  0  0  0  0  0
    1.7077    1.0184    1.5563 H   0  0  0  0  0  0  0  0  0  0  0  0
    1.1008    3.0649    1.7397 C   0  0  0  0  0  0  0  0  0  0  0  0
    0.1962    3.2800    2.3174 H   0  0  0  0  0  0  0  0  0  0  0  0
    1.9679    3.1786    2.3969 H   0  0  0  0  0  0  0  0  0  0  0  0
    1.1853    3.7937    0.9271 H   0  0  0  0  0  0  0  0  0  0  0  0
  1  2  1  0  0  0  0
  2  3  1  0  0  0  0
  2  4  1  0  0  0  0
  2  5  1  0  0  0  0
  5  6  2  0  0  0  0
  5  7  1  0  0  0  0
  7  8  1  0  0  0  0
  7  9  1  0  0  0  0
  9 10  1  0  0  0  0
  9 11  1  0  0  0  0
  9 17  1  0  0  0  0
 11 12  1  0  0  0  0
 11 13  1  0  0  0  0
 11 14  1  0  0  0  0
 14 15  1  0  0  0  0
 14 16  2  0  0  0  0
 17 18  2  0  0  0  0
 17 19  1  0  0  0  0
 19 20  1  0  0  0  0
 19 21  1  0  0  0  0
 21 22  1  0  0  0  0
 21 23  1  0  0  0  0
 21 24  1  0  0  0  0
M  CHG  1  15  -1
M  END
$$$$

  -OEChem-03222214023D

 24 23  0     1  0  0  0  0  0999 V2000
   -2.5631   -3.9206    0.3846 H   0  0  0  0  0  0  0  0  0  0  0  0
   -2.5305   -2.9626   -0.1407 C   0  0  0  0  0  0  0  0  0  0  0  0
   -3.4957   -2.4626   -0.0328 H   0  0  0  0  0  0  0  0  0  0  0  0
   -2.3421   -3.1499   -1.2021 H   0  0  0  0  0  0  0  0  0  0  0  0
   -1.4250   -2.0895    0.4241 C   0  0  0  0  0  0  0  0  0  0  0  0
   -0.7836   -2.4635    1.3989 O   0  0  0  0  0  0  0  0  0  0  0  0
   -1.2177   -0.8342   -0.1065 N   0  0  0  0  0  0  0  0  0  0  0  0
   -1.7659   -0.6540   -0.9500 H   0  0  0  0  0  0  0  0  0  0  0  0
    0.1150   -0.2146   -0.1309 C   0  0  1  0  0  0  0  0  0  0  0  0
    0.7721   -0.7563    0.5565 H   0  0  0  0  0  0  0  0  0  0  0  0
    0.7354   -0.3225   -1.5496 C   0  0  0  0  0  0  0  0  0  0  0  0
    0.6955    0.6508   -2.0478 H   0  0  0  0  0  0  0  0  0  0  0  0
    1.7890   -0.6006   -1.4651 H   0  0  0  0  0  0  0  0  0  0  0  0
    0.0301   -1.3259   -2.4550 C   0  0  0  0  0  0  0  0  0  0  0  0
   -0.9213   -0.9005   -3.1544 O   0  5  0  0  0  0  0  0  0  0  0  0
    0.3958   -2.5237   -2.4018 O   0  0  0  0  0  0  0  0  0  0  0  0
    0.0883    1.2622    0.3226 C   0  0  0  0  0  0  0  0  0  0  0  0
   -0.7747    2.0494   -0.0532 O   0  0  0  0  0  0  0  0  0  0  0  0
    1.0527    1.7097    1.2087 N   0  0  0  0  0  0  0  0  0  0  0  0
    1.7167    1.0216    1.5497 H   0  0  0  0  0  0  0  0  0  0  0  0
    1.0980    3.0648    1.7377 C   0  0  0  0  0  0  0  0  0  0  0  0
    0.1968    3.2775    2.3218 H   0  0  0  0  0  0  0  0  0  0  0  0
    1.9698    3.1849    2.3876 H   0  0  0  0  0  0  0  0  0  0  0  0
    1.1724    3.7913    0.9221 H   0  0  0  0  0  0  0  0  0  0  0  0
  1  2  1  0  0  0  0
  2  3  1  0  0  0  0
  2  4  1  0  0  0  0
  2  5  1  0  0  0  0
  5  6  2  0  0  0  0
  5  7  1  0  0  0  0
  7  8  1  0  0  0  0
  7  9  1  0  0  0  0
  9 10  1  0  0  0  0
  9 11  1  0  0  0  0
  9 17  1  0  0  0  0
 11 12  1  0  0  0  0
 11 13  1  0  0  0  0
 11 14  1  0  0  0  0
 14 15  1  0  0  0  0
 14 16  2  0  0  0  0
 17 18  2  0  0  0  0
 17 19  1  0  0  0  0
 19 20  1  0  0  0  0
 19 21  1  0  0  0  0
 21 22  1  0  0  0  0
 21 23  1  0  0  0  0
 21 24  1  0  0  0  0
M  CHG  1  15  -1
M  END
$$$$

  -OEChem-03222214023D

 24 23  0     1  0  0  0  0  0999 V2000
   -2.5953   -3.9008    0.4317 H   0  0  0  0  0  0  0  0  0  0  0  0
   -2.5540   -2.9501   -0.1062 C   0  0  0  0  0  0  0  0  0  0  0  0
   -3.5070   -2.4300    0.0137 H   0  0  0  0  0  0  0  0  0  0  0  0
   -2.3897   -3.1546   -1.1682 H   0  0  0  0  0  0  0  0  0  0  0  0
   -1.4204   -2.0929    0.4269 C   0  0  0  0  0  0  0  0  0  0  0  0
   -0.7791   -2.4632    1.4036 O   0  0  0  0  0  0  0  0  0  0  0  0
   -1.2090   -0.8395   -0.1083 N   0  0  0  0  0  0  0  0  0  0  0  0
   -1.7769   -0.6424   -0.9311 H   0  0  0  0  0  0  0  0  0  0  0  0
    0.1267   -0.2269   -0.1391 C   0  0  1  0  0  0  0  0  0  0  0  0
    0.7842   -0.7688    0.5477 H   0  0  0  0  0  0  0  0  0  0  0  0
    0.7515   -0.3269   -1.5575 C   0  0  0  0  0  0  0  0  0  0  0  0
    0.7220    0.6536   -2.0426 H   0  0  0  0  0  0  0  0  0  0  0  0
    1.8032   -0.6104   -1.4692 H   0  0  0  0  0  0  0  0  0  0  0  0
    0.0595   -1.3172   -2.4892 C   0  0  0  0  0  0  0  0  0  0  0  0
   -0.6717   -0.8461   -3.3924 O   0  5  0  0  0  0  0  0  0  0  0  0
    0.2258   -2.5419   -2.2757 O   0  0  0  0  0  0  0  0  0  0  0  0
    0.0945    1.2504    0.3130 C   0  0  0  0  0  0  0  0  0  0  0  0
   -0.7780    2.0292   -0.0594 O   0  0  0  0  0  0  0  0  0  0  0  0
    1.0562    1.7062    1.1978 N   0  0  0  0  0  0  0  0  0  0  0  0
    1.7198    1.0213    1.5458 H   0  0  0  0  0  0  0  0  0  0  0  0
    1.0786    3.0572    1.7389 C   0  0  0  0  0  0  0  0  0  0  0  0
    0.1681    3.2534    2.3142 H   0  0  0  0  0  0  0  0  0  0  0  0
    1.9411    3.1832    2.4000 H   0  0  0  0  0  0  0  0  0  0  0  0
    1.1528    3.7914    0.9302 H   0  0  0  0  0  0  0  0  0  0  0  0
  1  2  1  0  0  0  0
  2  3  1  0  0  0  0
  2  4  1  0  0  0  0
  2  5  1  0  0  0  0
  5  6  2  0  0  0  0
  5  7  1  0  0  0  0
  7  8  1  0  0  0  0
  7  9  1  0  0  0  0
  9 10  1  0  0  0  0
  9 11  1  0  0  0  0
  9 17  1  0  0  0  0
 11 12  1  0  0  0  0
 11 13  1  0  0  0  0
 11 14  1  0  0  0  0
 14 15  1  0  0  0  0
 14 16  2  0  0  0  0
 17 18  2  0  0  0  0
 17 19  1  0  0  0  0
 19 20  1  0  0  0  0
 19 21  1  0  0  0  0
 21 22  1  0  0  0  0
 21 23  1  0  0  0  0
 21 24  1  0  0  0  0
M  CHG  1  15  -1
M  END
$$$$

  -OEChem-03222214023D

 24 23  0     1  0  0  0  0  0999 V2000
   -2.6266   -3.8909    0.4774 H   0  0  0  0  0  0  0  0  0  0  0  0
   -2.5851   -2.9431   -0.0655 C   0  0  0  0  0  0  0  0  0  0  0  0
   -3.5262   -2.4073    0.0781 H   0  0  0  0  0  0  0  0  0  0  0  0
   -2.4527   -3.1549   -1.1303 H   0  0  0  0  0  0  0  0  0  0  0  0
   -1.4247   -2.1016    0.4346 C   0  0  0  0  0  0  0  0  0  0  0  0
   -0.7767   -2.4717    1.4074 O   0  0  0  0  0  0  0  0  0  0  0  0
   -1.2127   -0.8490   -0.1041 N   0  0  0  0  0  0  0  0  0  0  0  0
   -1.7892   -0.6493   -0.9179 H   0  0  0  0  0  0  0  0  0  0  0  0
    0.1245   -0.2403   -0.1407 C   0  0  1  0  0  0  0  0  0  0  0  0
    0.7812   -0.7808    0.5477 H   0  0  0  0  0  0  0  0  0  0  0  0
    0.7627   -0.3252   -1.5561 C   0  0  0  0  0  0  0  0  0  0  0  0
    0.7388    0.6648   -2.0218 H   0  0  0  0  0  0  0  0  0  0  0  0
    1.8141   -0.6048   -1.4556 H   0  0  0  0  0  0  0  0  0  0  0  0
    0.1057   -1.2974   -2.5348 C   0  0  0  0  0  0  0  0  0  0  0  0
   -0.3550   -0.8170   -3.5973 O   0  5  0  0  0  0  0  0  0  0  0  0
    0.0610   -2.5135   -2.2297 O   0  0  0  0  0  0  0  0  0  0  0  0
    0.0854    1.2370    0.3115 C   0  0  0  0  0  0  0  0  0  0  0  0
   -0.7945    2.0094   -0.0577 O   0  0  0  0  0  0  0  0  0  0  0  0
    1.0462    1.6975    1.1948 N   0  0  0  0  0  0  0  0  0  0  0  0
    1.7203    1.0183    1.5338 H   0  0  0  0  0  0  0  0  0  0  0  0
    1.0687    3.0501    1.7312 C   0  0  0  0  0  0  0  0  0  0  0  0
    0.1631    3.2452    2.3146 H   0  0  0  0  0  0  0  0  0  0  0  0
    1.9370    3.1803    2.3837 H   0  0  0  0  0  0  0  0  0  0  0  0
    1.1331    3.7822    0.9198 H   0  0  0  0  0  0  0  0  0  0  0  0
  1  2  1  0  0  0  0
  2  3  1  0  0  0  0
  2  4  1  0  0  0  0
  2  5  1  0  0  0  0
  5  6  2  0  0  0  0
  5  7  1  0  0  0  0
  7  8  1  0  0  0  0
  7  9  1  0  0  0  0
  9 10  1  0  0  0  0
  9 11  1  0  0  0  0
  9 17  1  0  0  0  0
 11 12  1  0  0  0  0
 11 13  1  0  0  0  0
 11 14  1  0  0  0  0
 14 15  1  0  0  0  0
 14 16  2  0  0  0  0
 17 18  2  0  0  0  0
 17 19  1  0  0  0  0
 19 20  1  0  0  0  0
 19 21  1  0  0  0  0
 21 22  1  0  0  0  0
 21 23  1  0  0  0  0
 21 24  1  0  0  0  0
M  CHG  1  15  -1
M  END
$$$$

  -OEChem-03222214023D

 24 23  0     1  0  0  0  0  0999 V2000
   -2.6320   -3.8951    0.5048 H   0  0  0  0  0  0  0  0  0  0  0  0
   -2.6144   -2.9360   -0.0192 C   0  0  0  0  0  0  0  0  0  0  0  0
   -3.5492   -2.4054    0.1740 H   0  0  0  0  0  0  0  0  0  0  0  0
   -2.5267   -3.1263   -1.0924 H   0  0  0  0  0  0  0  0  0  0  0  0
   -1.4354   -2.1025    0.4515 C   0  0  0  0  0  0  0  0  0  0  0  0
   -0.7810   -2.4697    1.4215 O   0  0  0  0  0  0  0  0  0  0  0  0
   -1.2215   -0.8534   -0.0961 N   0  0  0  0  0  0  0  0  0  0  0  0
   -1.7918   -0.6712   -0.9172 H   0  0  0  0  0  0  0  0  0  0  0  0
    0.1195   -0.2532   -0.1420 C   0  0  1  0  0  0  0  0  0  0  0  0
    0.7762   -0.7924    0.5475 H   0  0  0  0  0  0  0  0  0  0  0  0
    0.7696   -0.3274   -1.5563 C   0  0  0  0  0  0  0  0  0  0  0  0
    0.7526    0.6710   -2.0048 H   0  0  0  0  0  0  0  0  0  0  0  0
    1.8204   -0.6043   -1.4431 H   0  0  0  0  0  0  0  0  0  0  0  0
    0.1499   -1.2770   -2.5843 C   0  0  0  0  0  0  0  0  0  0  0  0
   -0.0092   -0.8225   -3.7419 O   0  5  0  0  0  0  0  0  0  0  0  0
   -0.1402   -2.4485   -2.2413 O   0  0  0  0  0  0  0  0  0  0  0  0
    0.0795    1.2263    0.3052 C   0  0  0  0  0  0  0  0  0  0  0  0
   -0.7997    1.9977   -0.0681 O   0  0  0  0  0  0  0  0  0  0  0  0
    1.0421    1.6904    1.1848 N   0  0  0  0  0  0  0  0  0  0  0  0
    1.7138    1.0112    1.5285 H   0  0  0  0  0  0  0  0  0  0  0  0
    1.0620    3.0432    1.7212 C   0  0  0  0  0  0  0  0  0  0  0  0
    0.1506    3.2404    2.2947 H   0  0  0  0  0  0  0  0  0  0  0  0
    1.9232    3.1721    2.3833 H   0  0  0  0  0  0  0  0  0  0  0  0
    1.1365    3.7751    0.9105 H   0  0  0  0  0  0  0  0  0  0  0  0
  1  2  1  0  0  0  0
  2  3  1  0  0  0  0
  2  4  1  0  0  0  0
  2  5  1  0  0  0  0
  5  6  2  0  0  0  0
  5  7  1  0  0  0  0
  7  8  1  0  0  0  0
  7  9  1  0  0  0  0
  9 10  1  0  0  0  0
  9 11  1  0  0  0  0
  9 17  1  0  0  0  0
 11 12  1  0  0  0  0
 11 13  1  0  0  0  0
 11 14  1  0  0  0  0
 14 15  1  0  0  0  0
 14 16  2  0  0  0  0
 17 18  2  0  0  0  0
 17 19  1  0  0  0  0
 19 20  1  0  0  0  0
 19 21  1  0  0  0  0
 21 22  1  0  0  0  0
 21 23  1  0  0  0  0
 21 24  1  0  0  0  0
M  CHG  1  15  -1
M  END
$$$$

  -OEChem-03222214023D

 24 23  0     1  0  0  0  0  0999 V2000
   -2.6718   -3.8778    0.5708 H   0  0  0  0  0  0  0  0  0  0  0  0
   -2.6456   -2.9274    0.0314 C   0  0  0  0  0  0  0  0  0  0  0  0
   -3.5642   -2.3740    0.2384 H   0  0  0  0  0  0  0  0  0  0  0  0
   -2.5883   -3.1358   -1.0403 H   0  0  0  0  0  0  0  0  0  0  0  0
   -1.4392   -2.1110    0.4625 C   0  0  0  0  0  0  0  0  0  0  0  0
   -0.7649   -2.4877    1.4153 O   0  0  0  0  0  0  0  0  0  0  0  0
   -1.2265   -0.8636   -0.0899 N   0  0  0  0  0  0  0  0  0  0  0  0
   -1.7804   -0.7101   -0.9284 H   0  0  0  0  0  0  0  0  0  0  0  0
    0.1165   -0.2695   -0.1417 C   0  0  1  0  0  0  0  0  0  0  0  0
    0.7745   -0.8068    0.5478 H   0  0  0  0  0  0  0  0  0  0  0  0
    0.7774   -0.3273   -1.5551 C   0  0  0  0  0  0  0  0  0  0  0  0
    0.7645    0.6797   -1.9842 H   0  0  0  0  0  0  0  0  0  0  0  0
    1.8275   -0.6005   -1.4280 H   0  0  0  0  0  0  0  0  0  0  0  0
    0.1998   -1.2483   -2.6366 C   0  0  0  0  0  0  0  0  0  0  0  0
    0.3512   -0.8554   -3.8177 O   0  5  0  0  0  0  0  0  0  0  0  0
   -0.3755   -2.3184   -2.3219 O   0  0  0  0  0  0  0  0  0  0  0  0
    0.0709    1.2106    0.3048 C   0  0  0  0  0  0  0  0  0  0  0  0
   -0.8077    1.9808   -0.0732 O   0  0  0  0  0  0  0  0  0  0  0  0
    1.0321    1.6795    1.1832 N   0  0  0  0  0  0  0  0  0  0  0  0
    1.7059    1.0037    1.5291 H   0  0  0  0  0  0  0  0  0  0  0  0
    1.0528    3.0363    1.7088 C   0  0  0  0  0  0  0  0  0  0  0  0
    0.1477    3.2334    2.2922 H   0  0  0  0  0  0  0  0  0  0  0  0
    1.9221    3.1740    2.3586 H   0  0  0  0  0  0  0  0  0  0  0  0
    1.1138    3.7623    0.8916 H   0  0  0  0  0  0  0  0  0  0  0  0
  1  2  1  0  0  0  0
  2  3  1  0  0  0  0
  2  4  1  0  0  0  0
  2  5  1  0  0  0  0
  5  6  2  0  0  0  0
  5  7  1  0  0  0  0
  7  8  1  0  0  0  0
  7  9  1  0  0  0  0
  9 10  1  0  0  0  0
  9 11  1  0  0  0  0
  9 17  1  0  0  0  0
 11 12  1  0  0  0  0
 11 13  1  0  0  0  0
 11 14  1  0  0  0  0
 14 15  1  0  0  0  0
 14 16  2  0  0  0  0
 17 18  2  0  0  0  0
 17 19  1  0  0  0  0
 19 20  1  0  0  0  0
 19 21  1  0  0  0  0
 21 22  1  0  0  0  0
 21 23  1  0  0  0  0
 21 24  1  0  0  0  0
M  CHG  1  15  -1
M  END
$$$$

  -OEChem-03222214023D

 24 23  0     1  0  0  0  0  0999 V2000
   -2.7337   -3.8302    0.6760 H   0  0  0  0  0  0  0  0  0  0  0  0
   -2.6559   -2.9286    0.0630 C   0  0  0  0  0  0  0  0  0  0  0  0
   -3.5646   -2.3353    0.1866 H   0  0  0  0  0  0  0  0  0  0  0  0
   -2.5648   -3.2247   -0.9853 H   0  0  0  0  0  0  0  0  0  0  0  0
   -1.4425   -2.1132    0.4766 C   0  0  0  0  0  0  0  0  0  0  0  0
   -0.7521   -2.4971    1.4149 O   0  0  0  0  0  0  0  0  0  0  0  0
   -1.2338   -0.8675   -0.0805 N   0  0  0  0  0  0  0  0  0  0  0  0
   -1.7556   -0.7616   -0.9491 H   0  0  0  0  0  0  0  0  0  0  0  0
    0.1107   -0.2789   -0.1387 C   0  0  1  0  0  0  0  0  0  0  0  0
    0.7714   -0.8148    0.5487 H   0  0  0  0  0  0  0  0  0  0  0  0
    0.7724   -0.3261   -1.5549 C   0  0  0  0  0  0  0  0  0  0  0  0
    0.7654    0.6855   -1.9726 H   0  0  0  0  0  0  0  0  0  0  0  0
    1.8211   -0.6023   -1.4203 H   0  0  0  0  0  0  0  0  0  0  0  0
    0.2185   -1.2238   -2.6705 C   0  0  0  0  0  0  0  0  0  0  0  0
    0.6457   -0.9552   -3.8185 O   0  5  0  0  0  0  0  0  0  0  0  0
   -0.6484   -2.1012   -2.4342 O   0  0  0  0  0  0  0  0  0  0  0  0
    0.0660    1.2025    0.3066 C   0  0  0  0  0  0  0  0  0  0  0  0
   -0.8119    1.9743   -0.0697 O   0  0  0  0  0  0  0  0  0  0  0  0
    1.0302    1.6717    1.1818 N   0  0  0  0  0  0  0  0  0  0  0  0
    1.7081    0.9973    1.5221 H   0  0  0  0  0  0  0  0  0  0  0  0
    1.0544    3.0297    1.7045 C   0  0  0  0  0  0  0  0  0  0  0  0
    0.1542    3.2270    2.2951 H   0  0  0  0  0  0  0  0  0  0  0  0
    1.9289    3.1693    2.3466 H   0  0  0  0  0  0  0  0  0  0  0  0
    1.1080    3.7543    0.8855 H   0  0  0  0  0  0  0  0  0  0  0  0
  1  2  1  0  0  0  0
  2  3  1  0  0  0  0
  2  4  1  0  0  0  0
  2  5  1  0  0  0  0
  5  6  2  0  0  0  0
  5  7  1  0  0  0  0
  7  8  1  0  0  0  0
  7  9  1  0  0  0  0
  9 10  1  0  0  0  0
  9 11  1  0  0  0  0
  9 17  1  0  0  0  0
 11 12  1  0  0  0  0
 11 13  1  0  0  0  0
 11 14  1  0  0  0  0
 14 15  1  0  0  0  0
 14 16  2  0  0  0  0
 17 18  2  0  0  0  0
 17 19  1  0  0  0  0
 19 20  1  0  0  0  0
 19 21  1  0  0  0  0
 21 22  1  0  0  0  0
 21 23  1  0  0  0  0
 21 24  1  0  0  0  0
M  CHG  1  15  -1
M  END
$$$$

  -OEChem-03222214023D

 24 23  0     1  0  0  0  0  0999 V2000
   -2.6961   -3.8620    0.6094 H   0  0  0  0  0  0  0  0  0  0  0  0
   -2.6349   -2.9343    0.0348 C   0  0  0  0  0  0  0  0  0  0  0  0
   -3.5570   -2.3661    0.1773 H   0  0  0  0  0  0  0  0  0  0  0  0
   -2.5312   -3.1815   -1.0253 H   0  0  0  0  0  0  0  0  0  0  0  0
   -1.4428   -2.1094    0.4863 C   0  0  0  0  0  0  0  0  0  0  0  0
   -0.7143   -2.5349    1.3756 O   0  0  0  0  0  0  0  0  0  0  0  0
   -1.2394   -0.8598   -0.0565 N   0  0  0  0  0  0  0  0  0  0  0  0
   -1.7660   -0.7464   -0.9303 H   0  0  0  0  0  0  0  0  0  0  0  0
    0.0964   -0.2617   -0.1317 C   0  0  1  0  0  0  0  0  0  0  0  0
    0.7716   -0.7896    0.5483 H   0  0  0  0  0  0  0  0  0  0  0  0
    0.7296   -0.3226   -1.5607 C   0  0  0  0  0  0  0  0  0  0  0  0
    0.9884    0.6923   -1.8768 H   0  0  0  0  0  0  0  0  0  0  0  0
    1.6715   -0.8697   -1.4683 H   0  0  0  0  0  0  0  0  0  0  0  0
   -0.0146   -0.9553   -2.7496 C   0  0  0  0  0  0  0  0  0  0  0  0
    0.6232   -0.9308   -3.8290 O   0  5  0  0  0  0  0  0  0  0  0  0
   -1.1979   -1.3735   -2.6434 O   0  0  0  0  0  0  0  0  0  0  0  0
    0.0525    1.2156    0.3278 C   0  0  0  0  0  0  0  0  0  0  0  0
   -0.8279    1.9921   -0.0303 O   0  0  0  0  0  0  0  0  0  0  0  0
    1.0306    1.6803    1.1902 N   0  0  0  0  0  0  0  0  0  0  0  0
    1.7250    1.0095    1.5029 H   0  0  0  0  0  0  0  0  0  0  0  0
    1.0698    3.0390    1.7106 C   0  0  0  0  0  0  0  0  0  0  0  0
    0.1685    3.2506    2.2949 H   0  0  0  0  0  0  0  0  0  0  0  0
    1.9416    3.1678    2.3586 H   0  0  0  0  0  0  0  0  0  0  0  0
    1.1389    3.7609    0.8904 H   0  0  0  0  0  0  0  0  0  0  0  0
  1  2  1  0  0  0  0
  2  3  1  0  0  0  0
  2  4  1  0  0  0  0
  2  5  1  0  0  0  0
  5  6  2  0  0  0  0
  5  7  1  0  0  0  0
  7  8  1  0  0  0  0
  7  9  1  0  0  0  0
  9 10  1  0  0  0  0
  9 11  1  0  0  0  0
  9 17  1  0  0  0  0
 11 12  1  0  0  0  0
 11 13  1  0  0  0  0
 11 14  1  0  0  0  0
 14 15  1  0  0  0  0
 14 16  2  0  0  0  0
 17 18  2  0  0  0  0
 17 19  1  0  0  0  0
 19 20  1  0  0  0  0
 19 21  1  0  0  0  0
 21 22  1  0  0  0  0
 21 23  1  0  0  0  0
 21 24  1  0  0  0  0
M  CHG  1  15  -1
M  END
$$$$

  -OEChem-03222214023D

 24 23  0     1  0  0  0  0  0999 V2000
   -2.6497   -3.8981    0.5175 H   0  0  0  0  0  0  0  0  0  0  0  0
   -2.6330   -2.9299    0.0103 C   0  0  0  0  0  0  0  0  0  0  0  0
   -3.5601   -2.3956    0.2312 H   0  0  0  0  0  0  0  0  0  0  0  0
   -2.5688   -3.0973   -1.0687 H   0  0  0  0  0  0  0  0  0  0  0  0
   -1.4410   -2.1116    0.4729 C   0  0  0  0  0  0  0  0  0  0  0  0
   -0.7066   -2.5506    1.3503 O   0  0  0  0  0  0  0  0  0  0  0  0
   -1.2347   -0.8595   -0.0611 N   0  0  0  0  0  0  0  0  0  0  0  0
   -1.7741   -0.7180   -0.9242 H   0  0  0  0  0  0  0  0  0  0  0  0
    0.0955   -0.2498   -0.1306 C   0  0  1  0  0  0  0  0  0  0  0  0
    0.7692   -0.7761    0.5519 H   0  0  0  0  0  0  0  0  0  0  0  0
    0.7292   -0.3243   -1.5567 C   0  0  0  0  0  0  0  0  0  0  0  0
    0.9775    0.6866   -1.8921 H   0  0  0  0  0  0  0  0  0  0  0  0
    1.6760   -0.8619   -1.4566 H   0  0  0  0  0  0  0  0  0  0  0  0
   -0.0249   -0.9829   -2.7243 C   0  0  0  0  0  0  0  0  0  0  0  0
    0.6855   -1.2469   -3.7234 O   0  5  0  0  0  0  0  0  0  0  0  0
   -1.2739   -1.1477   -2.6855 O   0  0  0  0  0  0  0  0  0  0  0  0
    0.0528    1.2262    0.3316 C   0  0  0  0  0  0  0  0  0  0  0  0
   -0.8279    2.0040   -0.0220 O   0  0  0  0  0  0  0  0  0  0  0  0
    1.0321    1.6877    1.1946 N   0  0  0  0  0  0  0  0  0  0  0  0
    1.7266    1.0153    1.5039 H   0  0  0  0  0  0  0  0  0  0  0  0
    1.0742    3.0456    1.7171 C   0  0  0  0  0  0  0  0  0  0  0  0
    0.1695    3.2613    2.2947 H   0  0  0  0  0  0  0  0  0  0  0  0
    1.9416    3.1696    2.3722 H   0  0  0  0  0  0  0  0  0  0  0  0
    1.1530    3.7677    0.8978 H   0  0  0  0  0  0  0  0  0  0  0  0
  1  2  1  0  0  0  0
  2  3  1  0  0  0  0
  2  4  1  0  0  0  0
  2  5  1  0  0  0  0
  5  6  2  0  0  0  0
  5  7  1  0  0  0  0
  7  8  1  0  0  0  0
  7  9  1  0  0  0  0
  9 10  1  0  0  0  0
  9 11  1  0  0  0  0
  9 17  1  0  0  0  0
 11 12  1  0  0  0  0
 11 13  1  0  0  0  0
 11 14  1  0  0  0  0
 14 15  1  0  0  0  0
 14 16  2  0  0  0  0
 17 18  2  0  0  0  0
 17 19  1  0  0  0  0
 19 20  1  0  0  0  0
 19 21  1  0  0  0  0
 21 22  1  0  0  0  0
 21 23  1  0  0  0  0
 21 24  1  0  0  0  0
M  CHG  1  15  -1
M  END
$$$$

  -OEChem-03222214023D

 24 23  0     1  0  0  0  0  0999 V2000
   -2.5921   -3.9366    0.3937 H   0  0  0  0  0  0  0  0  0  0  0  0
   -2.6264   -2.9290   -0.0287 C   0  0  0  0  0  0  0  0  0  0  0  0
   -3.5582   -2.4457    0.2742 H   0  0  0  0  0  0  0  0  0  0  0  0
   -2.6035   -3.0036   -1.1198 H   0  0  0  0  0  0  0  0  0  0  0  0
   -1.4400   -2.1139    0.4528 C   0  0  0  0  0  0  0  0  0  0  0  0
   -0.7066   -2.5627    1.3257 O   0  0  0  0  0  0  0  0  0  0  0  0
   -1.2305   -0.8584   -0.0708 N   0  0  0  0  0  0  0  0  0  0  0  0
   -1.7783   -0.6908   -0.9245 H   0  0  0  0  0  0  0  0  0  0  0  0
    0.0949   -0.2364   -0.1270 C   0  0  1  0  0  0  0  0  0  0  0  0
    0.7637   -0.7623    0.5607 H   0  0  0  0  0  0  0  0  0  0  0  0
    0.7324   -0.3245   -1.5481 C   0  0  0  0  0  0  0  0  0  0  0  0
    0.9673    0.6822   -1.9046 H   0  0  0  0  0  0  0  0  0  0  0  0
    1.6849   -0.8514   -1.4433 H   0  0  0  0  0  0  0  0  0  0  0  0
   -0.0423   -1.0112   -2.6834 C   0  0  0  0  0  0  0  0  0  0  0  0
    0.6633   -1.5642   -3.5604 O   0  5  0  0  0  0  0  0  0  0  0  0
   -1.3007   -0.9471   -2.7256 O   0  0  0  0  0  0  0  0  0  0  0  0
    0.0528    1.2382    0.3390 C   0  0  0  0  0  0  0  0  0  0  0  0
   -0.8261    2.0182   -0.0133 O   0  0  0  0  0  0  0  0  0  0  0  0
    1.0293    1.6959    1.2076 N   0  0  0  0  0  0  0  0  0  0  0  0
    1.7266    1.0240    1.5117 H   0  0  0  0  0  0  0  0  0  0  0  0
    1.0828    3.0576    1.7189 C   0  0  0  0  0  0  0  0  0  0  0  0
    0.1764    3.2885    2.2876 H   0  0  0  0  0  0  0  0  0  0  0  0
    1.9463    3.1771    2.3796 H   0  0  0  0  0  0  0  0  0  0  0  0
    1.1761    3.7718    0.8945 H   0  0  0  0  0  0  0  0  0  0  0  0
  1  2  1  0  0  0  0
  2  3  1  0  0  0  0
  2  4  1  0  0  0  0
  2  5  1  0  0  0  0
  5  6  2  0  0  0  0
  5  7  1  0  0  0  0
  7  8  1  0  0  0  0
  7  9  1  0  0  0  0
  9 10  1  0  0  0  0
  9 11  1  0  0  0  0
  9 17  1  0  0  0  0
 11 12  1  0  0  0  0
 11 13  1  0  0  0  0
 11 14  1  0  0  0  0
 14 15  1  0  0  0  0
 14 16  2  0  0  0  0
 17 18  2  0  0  0  0
 17 19  1  0  0  0  0
 19 20  1  0  0  0  0
 19 21  1  0  0  0  0
 21 22  1  0  0  0  0
 21 23  1  0  0  0  0
 21 24  1  0  0  0  0
M  CHG  1  15  -1
M  END
$$$$

  -OEChem-03222214023D

 24 23  0     1  0  0  0  0  0999 V2000
   -2.6136   -3.9113    0.4096 H   0  0  0  0  0  0  0  0  0  0  0  0
   -2.6115   -2.9241   -0.0596 C   0  0  0  0  0  0  0  0  0  0  0  0
   -3.5457   -2.4122    0.1830 H   0  0  0  0  0  0  0  0  0  0  0  0
   -2.5461   -3.0486   -1.1443 H   0  0  0  0  0  0  0  0  0  0  0  0
   -1.4302   -2.1078    0.4322 C   0  0  0  0  0  0  0  0  0  0  0  0
   -0.7035   -2.5547    1.3115 O   0  0  0  0  0  0  0  0  0  0  0  0
   -1.2176   -0.8513   -0.0879 N   0  0  0  0  0  0  0  0  0  0  0  0
   -1.7736   -0.6638   -0.9324 H   0  0  0  0  0  0  0  0  0  0  0  0
    0.1062   -0.2234   -0.1359 C   0  0  1  0  0  0  0  0  0  0  0  0
    0.7732   -0.7499    0.5531 H   0  0  0  0  0  0  0  0  0  0  0  0
    0.7395   -0.3231   -1.5559 C   0  0  0  0  0  0  0  0  0  0  0  0
    0.9635    0.6793   -1.9306 H   0  0  0  0  0  0  0  0  0  0  0  0
    1.6954   -0.8450   -1.4575 H   0  0  0  0  0  0  0  0  0  0  0  0
   -0.0695   -1.0294   -2.6515 C   0  0  0  0  0  0  0  0  0  0  0  0
    0.5582   -1.8428   -3.3702 O   0  5  0  0  0  0  0  0  0  0  0  0
   -1.2981   -0.7766   -2.7734 O   0  0  0  0  0  0  0  0  0  0  0  0
    0.0654    1.2509    0.3294 C   0  0  0  0  0  0  0  0  0  0  0  0
   -0.8142    2.0317   -0.0192 O   0  0  0  0  0  0  0  0  0  0  0  0
    1.0402    1.7048    1.2015 N   0  0  0  0  0  0  0  0  0  0  0  0
    1.7269    1.0273    1.5169 H   0  0  0  0  0  0  0  0  0  0  0  0
    1.0782    3.0573    1.7375 C   0  0  0  0  0  0  0  0  0  0  0  0
    0.1768    3.2610    2.3244 H   0  0  0  0  0  0  0  0  0  0  0  0
    1.9503    3.1793    2.3864 H   0  0  0  0  0  0  0  0  0  0  0  0
    1.1463    3.7886    0.9255 H   0  0  0  0  0  0  0  0  0  0  0  0
  1  2  1  0  0  0  0
  2  3  1  0  0  0  0
  2  4  1  0  0  0  0
  2  5  1  0  0  0  0
  5  6  2  0  0  0  0
  5  7  1  0  0  0  0
  7  8  1  0  0  0  0
  7  9  1  0  0  0  0
  9 10  1  0  0  0  0
  9 11  1  0  0  0  0
  9 17  1  0  0  0  0
 11 12  1  0  0  0  0
 11 13  1  0  0  0  0
 11 14  1  0  0  0  0
 14 15  1  0  0  0  0
 14 16  2  0  0  0  0
 17 18  2  0  0  0  0
 17 19  1  0  0  0  0
 19 20  1  0  0  0  0
 19 21  1  0  0  0  0
 21 22  1  0  0  0  0
 21 23  1  0  0  0  0
 21 24  1  0  0  0  0
M  CHG  1  15  -1
M  END
$$$$

  -OEChem-03222214023D

 24 23  0     1  0  0  0  0  0999 V2000
   -2.6040   -3.9064    0.3802 H   0  0  0  0  0  0  0  0  0  0  0  0
   -2.5903   -2.9245   -0.0999 C   0  0  0  0  0  0  0  0  0  0  0  0
   -3.5326   -2.4123    0.1077 H   0  0  0  0  0  0  0  0  0  0  0  0
   -2.4908   -3.0616   -1.1807 H   0  0  0  0  0  0  0  0  0  0  0  0
   -1.4264   -2.0993    0.4175 C   0  0  0  0  0  0  0  0  0  0  0  0
   -0.7169   -2.5361    1.3158 O   0  0  0  0  0  0  0  0  0  0  0  0
   -1.2115   -0.8426   -0.1011 N   0  0  0  0  0  0  0  0  0  0  0  0
   -1.7673   -0.6451   -0.9430 H   0  0  0  0  0  0  0  0  0  0  0  0
    0.1127   -0.2134   -0.1393 C   0  0  1  0  0  0  0  0  0  0  0  0
    0.7759   -0.7412    0.5524 H   0  0  0  0  0  0  0  0  0  0  0  0
    0.7440   -0.3248   -1.5574 C   0  0  0  0  0  0  0  0  0  0  0  0
    0.9630    0.6731   -1.9470 H   0  0  0  0  0  0  0  0  0  0  0  0
    1.6996   -0.8484   -1.4660 H   0  0  0  0  0  0  0  0  0  0  0  0
   -0.0963   -1.0445   -2.6164 C   0  0  0  0  0  0  0  0  0  0  0  0
    0.4036   -2.0682   -3.1398 O   0  5  0  0  0  0  0  0  0  0  0  0
   -1.2694   -0.6388   -2.8288 O   0  0  0  0  0  0  0  0  0  0  0  0
    0.0746    1.2613    0.3245 C   0  0  0  0  0  0  0  0  0  0  0  0
   -0.8027    2.0440   -0.0247 O   0  0  0  0  0  0  0  0  0  0  0  0
    1.0462    1.7118    1.2022 N   0  0  0  0  0  0  0  0  0  0  0  0
    1.7256    1.0300    1.5245 H   0  0  0  0  0  0  0  0  0  0  0  0
    1.0818    3.0619    1.7448 C   0  0  0  0  0  0  0  0  0  0  0  0
    0.1820    3.2603    2.3358 H   0  0  0  0  0  0  0  0  0  0  0  0
    1.9557    3.1832    2.3914 H   0  0  0  0  0  0  0  0  0  0  0  0
    1.1448    3.7973    0.9362 H   0  0  0  0  0  0  0  0  0  0  0  0
  1  2  1  0  0  0  0
  2  3  1  0  0  0  0
  2  4  1  0  0  0  0
  2  5  1  0  0  0  0
  5  6  2  0  0  0  0
  5  7  1  0  0  0  0
  7  8  1  0  0  0  0
  7  9  1  0  0  0  0
  9 10  1  0  0  0  0
  9 11  1  0  0  0  0
  9 17  1  0  0  0  0
 11 12  1  0  0  0  0
 11 13  1  0  0  0  0
 11 14  1  0  0  0  0
 14 15  1  0  0  0  0
 14 16  2  0  0  0  0
 17 18  2  0  0  0  0
 17 19  1  0  0  0  0
 19 20  1  0  0  0  0
 19 21  1  0  0  0  0
 21 22  1  0  0  0  0
 21 23  1  0  0  0  0
 21 24  1  0  0  0  0
M  CHG  1  15  -1
M  END
$$$$

  -OEChem-03222214023D

 24 23  0     1  0  0  0  0  0999 V2000
   -2.5912   -3.8983    0.3695 H   0  0  0  0  0  0  0  0  0  0  0  0
   -2.5629   -2.9281   -0.1333 C   0  0  0  0  0  0  0  0  0  0  0  0
   -3.5150   -2.4158    0.0241 H   0  0  0  0  0  0  0  0  0  0  0  0
   -2.4193   -3.0906   -1.2057 H   0  0  0  0  0  0  0  0  0  0  0  0
   -1.4232   -2.0853    0.4088 C   0  0  0  0  0  0  0  0  0  0  0  0
   -0.7351   -2.5045    1.3322 O   0  0  0  0  0  0  0  0  0  0  0  0
   -1.2095   -0.8292   -0.1127 N   0  0  0  0  0  0  0  0  0  0  0  0
   -1.7652   -0.6295   -0.9529 H   0  0  0  0  0  0  0  0  0  0  0  0
    0.1175   -0.2037   -0.1462 C   0  0  1  0  0  0  0  0  0  0  0  0
    0.7768   -0.7328    0.5484 H   0  0  0  0  0  0  0  0  0  0  0  0
    0.7459   -0.3299   -1.5634 C   0  0  0  0  0  0  0  0  0  0  0  0
    0.9656    0.6624   -1.9669 H   0  0  0  0  0  0  0  0  0  0  0  0
    1.6983   -0.8604   -1.4782 H   0  0  0  0  0  0  0  0  0  0  0  0
   -0.1227   -1.0586   -2.5890 C   0  0  0  0  0  0  0  0  0  0  0  0
    0.2084   -2.2292   -2.8918 O   0  5  0  0  0  0  0  0  0  0  0  0
   -1.2154   -0.5257   -2.9102 O   0  0  0  0  0  0  0  0  0  0  0  0
    0.0862    1.2721    0.3140 C   0  0  0  0  0  0  0  0  0  0  0  0
   -0.7874    2.0587   -0.0360 O   0  0  0  0  0  0  0  0  0  0  0  0
    1.0576    1.7177    1.1941 N   0  0  0  0  0  0  0  0  0  0  0  0
    1.7235    1.0285    1.5283 H   0  0  0  0  0  0  0  0  0  0  0  0
    1.0857    3.0614    1.7529 C   0  0  0  0  0  0  0  0  0  0  0  0
    0.1825    3.2489    2.3424 H   0  0  0  0  0  0  0  0  0  0  0  0
    1.9563    3.1790    2.4047 H   0  0  0  0  0  0  0  0  0  0  0  0
    1.1490    3.8066    0.9534 H   0  0  0  0  0  0  0  0  0  0  0  0
  1  2  1  0  0  0  0
  2  3  1  0  0  0  0
  2  4  1  0  0  0  0
  2  5  1  0  0  0  0
  5  6  2  0  0  0  0
  5  7  1  0  0  0  0
  7  8  1  0  0  0  0
  7  9  1  0  0  0  0
  9 10  1  0  0  0  0
  9 11  1  0  0  0  0
  9 17  1  0  0  0  0
 11 12  1  0  0  0  0
 11 13  1  0  0  0  0
 11 14  1  0  0  0  0
 14 15  1  0  0  0  0
 14 16  2  0  0  0  0
 17 18  2  0  0  0  0
 17 19  1  0  0  0  0
 19 20  1  0  0  0  0
 19 21  1  0  0  0  0
 21 22  1  0  0  0  0
 21 23  1  0  0  0  0
 21 24  1  0  0  0  0
M  CHG  1  15  -1
M  END
$$$$

  -OEChem-03222214023D

 24 23  0     1  0  0  0  0  0999 V2000
   -2.5917   -3.8948    0.3740 H   0  0  0  0  0  0  0  0  0  0  0  0
   -2.5626   -2.9282   -0.1354 C   0  0  0  0  0  0  0  0  0  0  0  0
   -3.5136   -2.4134    0.0197 H   0  0  0  0  0  0  0  0  0  0  0  0
   -2.4197   -3.0987   -1.2066 H   0  0  0  0  0  0  0  0  0  0  0  0
   -1.4205   -2.0843    0.3997 C   0  0  0  0  0  0  0  0  0  0  0  0
   -0.7445   -2.4911    1.3380 O   0  0  0  0  0  0  0  0  0  0  0  0
   -1.2070   -0.8286   -0.1253 N   0  0  0  0  0  0  0  0  0  0  0  0
   -1.7680   -0.6254   -0.9578 H   0  0  0  0  0  0  0  0  0  0  0  0
    0.1224   -0.2050   -0.1528 C   0  0  1  0  0  0  0  0  0  0  0  0
    0.7766   -0.7342    0.5463 H   0  0  0  0  0  0  0  0  0  0  0  0
    0.7602   -0.3341   -1.5641 C   0  0  0  0  0  0  0  0  0  0  0  0
    0.9845    0.6570   -1.9686 H   0  0  0  0  0  0  0  0  0  0  0  0
    1.7090   -0.8698   -1.4767 H   0  0  0  0  0  0  0  0  0  0  0  0
   -0.1128   -1.0646   -2.5813 C   0  0  0  0  0  0  0  0  0  0  0  0
    0.0243   -2.3083   -2.6682 O   0  5  0  0  0  0  0  0  0  0  0  0
   -1.0717   -0.4240   -3.0759 O   0  0  0  0  0  0  0  0  0  0  0  0
    0.0912    1.2718    0.3036 C   0  0  0  0  0  0  0  0  0  0  0  0
   -0.7848    2.0560   -0.0458 O   0  0  0  0  0  0  0  0  0  0  0  0
    1.0591    1.7171    1.1881 N   0  0  0  0  0  0  0  0  0  0  0  0
    1.7239    1.0276    1.5239 H   0  0  0  0  0  0  0  0  0  0  0  0
    1.0823    3.0591    1.7512 C   0  0  0  0  0  0  0  0  0  0  0  0
    0.1784    3.2416    2.3411 H   0  0  0  0  0  0  0  0  0  0  0  0
    1.9524    3.1772    2.4036 H   0  0  0  0  0  0  0  0  0  0  0  0
    1.1438    3.8074    0.9545 H   0  0  0  0  0  0  0  0  0  0  0  0
  1  2  1  0  0  0  0
  2  3  1  0  0  0  0
  2  4  1  0  0  0  0
  2  5  1  0  0  0  0
  5  6  2  0  0  0  0
  5  7  1  0  0  0  0
  7  8  1  0  0  0  0
  7  9  1  0  0  0  0
  9 10  1  0  0  0  0
  9 11  1  0  0  0  0
  9 17  1  0  0  0  0
 11 12  1  0  0  0  0
 11 13  1  0  0  0  0
 11 14  1  0  0  0  0
 14 15  1  0  0  0  0
 14 16  2  0  0  0  0
 17 18  2  0  0  0  0
 17 19  1  0  0  0  0
 19 20  1  0  0  0  0
 19 21  1  0  0  0  0
 21 22  1  0  0  0  0
 21 23  1  0  0  0  0
 21 24  1  0  0  0  0
M  CHG  1  15  -1
M  END
$$$$

  -OEChem-03222214023D

 24 23  0     1  0  0  0  0  0999 V2000
   -2.6213   -3.8839    0.4255 H   0  0  0  0  0  0  0  0  0  0  0  0
   -2.5959   -2.9168   -0.0833 C   0  0  0  0  0  0  0  0  0  0  0  0
   -3.5283   -2.3835    0.1155 H   0  0  0  0  0  0  0  0  0  0  0  0
   -2.5053   -3.0886   -1.1597 H   0  0  0  0  0  0  0  0  0  0  0  0
   -1.4138   -2.0979    0.4025 C   0  0  0  0  0  0  0  0  0  0  0  0
   -0.7245   -2.5106    1.3286 O   0  0  0  0  0  0  0  0  0  0  0  0
   -1.1971   -0.8433   -0.1261 N   0  0  0  0  0  0  0  0  0  0  0  0
   -1.7804   -0.6256   -0.9339 H   0  0  0  0  0  0  0  0  0  0  0  0
    0.1355   -0.2262   -0.1586 C   0  0  1  0  0  0  0  0  0  0  0  0
    0.7912   -0.7539    0.5404 H   0  0  0  0  0  0  0  0  0  0  0  0
    0.7829   -0.3356   -1.5675 C   0  0  0  0  0  0  0  0  0  0  0  0
    1.0259    0.6611   -1.9480 H   0  0  0  0  0  0  0  0  0  0  0  0
    1.7244   -0.8832   -1.4779 H   0  0  0  0  0  0  0  0  0  0  0  0
   -0.0702   -1.0457   -2.6157 C   0  0  0  0  0  0  0  0  0  0  0  0
   -0.1616   -2.2958   -2.5491 O   0  5  0  0  0  0  0  0  0  0  0  0
   -0.7522   -0.3274   -3.3831 O   0  0  0  0  0  0  0  0  0  0  0  0
    0.0894    1.2499    0.2991 C   0  0  0  0  0  0  0  0  0  0  0  0
   -0.8059    2.0170   -0.0400 O   0  0  0  0  0  0  0  0  0  0  0  0
    1.0498    1.7079    1.1848 N   0  0  0  0  0  0  0  0  0  0  0  0
    1.7336    1.0317    1.5092 H   0  0  0  0  0  0  0  0  0  0  0  0
    1.0564    3.0515    1.7448 C   0  0  0  0  0  0  0  0  0  0  0  0
    0.1478    3.2258    2.3301 H   0  0  0  0  0  0  0  0  0  0  0  0
    1.9222    3.1808    2.4007 H   0  0  0  0  0  0  0  0  0  0  0  0
    1.1130    3.7983    0.9461 H   0  0  0  0  0  0  0  0  0  0  0  0
  1  2  1  0  0  0  0
  2  3  1  0  0  0  0
  2  4  1  0  0  0  0
  2  5  1  0  0  0  0
  5  6  2  0  0  0  0
  5  7  1  0  0  0  0
  7  8  1  0  0  0  0
  7  9  1  0  0  0  0
  9 10  1  0  0  0  0
  9 11  1  0  0  0  0
  9 17  1  0  0  0  0
 11 12  1  0  0  0  0
 11 13  1  0  0  0  0
 11 14  1  0  0  0  0
 14 15  1  0  0  0  0
 14 16  2  0  0  0  0
 17 18  2  0  0  0  0
 17 19  1  0  0  0  0
 19 20  1  0  0  0  0
 19 21  1  0  0  0  0
 21 22  1  0  0  0  0
 21 23  1  0  0  0  0
 21 24  1  0  0  0  0
M  CHG  1  15  -1
M  END
$$$$

  -OEChem-03222214023D

 24 23  0     1  0  0  0  0  0999 V2000
   -2.6564   -3.8662    0.5128 H   0  0  0  0  0  0  0  0  0  0  0  0
   -2.6212   -2.9138   -0.0222 C   0  0  0  0  0  0  0  0  0  0  0  0
   -3.5393   -2.3571    0.1792 H   0  0  0  0  0  0  0  0  0  0  0  0
   -2.5545   -3.1162   -1.0947 H   0  0  0  0  0  0  0  0  0  0  0  0
   -1.4147   -2.1058    0.4213 C   0  0  0  0  0  0  0  0  0  0  0  0
   -0.7152   -2.5153    1.3414 O   0  0  0  0  0  0  0  0  0  0  0  0
   -1.2023   -0.8530   -0.1151 N   0  0  0  0  0  0  0  0  0  0  0  0
   -1.7839   -0.6564   -0.9272 H   0  0  0  0  0  0  0  0  0  0  0  0
    0.1340   -0.2443   -0.1605 C   0  0  1  0  0  0  0  0  0  0  0  0
    0.7947   -0.7713    0.5341 H   0  0  0  0  0  0  0  0  0  0  0  0
    0.7844   -0.3279   -1.5729 C   0  0  0  0  0  0  0  0  0  0  0  0
    1.0421    0.6770   -1.9215 H   0  0  0  0  0  0  0  0  0  0  0  0
    1.7210   -0.8835   -1.4839 H   0  0  0  0  0  0  0  0  0  0  0  0
   -0.0367   -1.0078   -2.6697 C   0  0  0  0  0  0  0  0  0  0  0  0
   -0.3760   -2.2067   -2.5126 O   0  5  0  0  0  0  0  0  0  0  0  0
   -0.3658   -0.3047   -3.6535 O   0  0  0  0  0  0  0  0  0  0  0  0
    0.0810    1.2319    0.2968 C   0  0  0  0  0  0  0  0  0  0  0  0
   -0.8193    1.9927   -0.0445 O   0  0  0  0  0  0  0  0  0  0  0  0
    1.0422    1.6968    1.1779 N   0  0  0  0  0  0  0  0  0  0  0  0
    1.7328    1.0260    1.4992 H   0  0  0  0  0  0  0  0  0  0  0  0
    1.0410    3.0394    1.7392 C   0  0  0  0  0  0  0  0  0  0  0  0
    0.1309    3.2082    2.3237 H   0  0  0  0  0  0  0  0  0  0  0  0
    1.9053    3.1716    2.3964 H   0  0  0  0  0  0  0  0  0  0  0  0
    1.0947    3.7874    0.9416 H   0  0  0  0  0  0  0  0  0  0  0  0
  1  2  1  0  0  0  0
  2  3  1  0  0  0  0
  2  4  1  0  0  0  0
  2  5  1  0  0  0  0
  5  6  2  0  0  0  0
  5  7  1  0  0  0  0
  7  8  1  0  0  0  0
  7  9  1  0  0  0  0
  9 10  1  0  0  0  0
  9 11  1  0  0  0  0
  9 17  1  0  0  0  0
 11 12  1  0  0  0  0
 11 13  1  0  0  0  0
 11 14  1  0  0  0  0
 14 15  1  0  0  0  0
 14 16  2  0  0  0  0
 17 18  2  0  0  0  0
 17 19  1  0  0  0  0
 19 20  1  0  0  0  0
 19 21  1  0  0  0  0
 21 22  1  0  0  0  0
 21 23  1  0  0  0  0
 21 24  1  0  0  0  0
M  CHG  1  15  -1
M  END
$$$$

  -OEChem-03222214023D

 24 23  0     1  0  0  0  0  0999 V2000
   -2.6781   -3.8624    0.5735 H   0  0  0  0  0  0  0  0  0  0  0  0
   -2.6349   -2.9226    0.0168 C   0  0  0  0  0  0  0  0  0  0  0  0
   -3.5507   -2.3568    0.2020 H   0  0  0  0  0  0  0  0  0  0  0  0
   -2.5671   -3.1504   -1.0504 H   0  0  0  0  0  0  0  0  0  0  0  0
   -1.4258   -2.1100    0.4473 C   0  0  0  0  0  0  0  0  0  0  0  0
   -0.7226   -2.5146    1.3671 O   0  0  0  0  0  0  0  0  0  0  0  0
   -1.2168   -0.8593   -0.0965 N   0  0  0  0  0  0  0  0  0  0  0  0
   -1.7707   -0.7077   -0.9378 H   0  0  0  0  0  0  0  0  0  0  0  0
    0.1245   -0.2626   -0.1501 C   0  0  1  0  0  0  0  0  0  0  0  0
    0.7902   -0.7913    0.5386 H   0  0  0  0  0  0  0  0  0  0  0  0
    0.7736   -0.3193   -1.5682 C   0  0  0  0  0  0  0  0  0  0  0  0
    1.0498    0.6919   -1.8832 H   0  0  0  0  0  0  0  0  0  0  0  0
    1.7024   -0.8882   -1.4812 H   0  0  0  0  0  0  0  0  0  0  0  0
   -0.0171   -0.9590   -2.7147 C   0  0  0  0  0  0  0  0  0  0  0  0
   -0.6123   -2.0496   -2.5292 O   0  5  0  0  0  0  0  0  0  0  0  0
   -0.0073   -0.3413   -3.8054 O   0  0  0  0  0  0  0  0  0  0  0  0
    0.0681    1.2142    0.3070 C   0  0  0  0  0  0  0  0  0  0  0  0
   -0.8248    1.9773   -0.0493 O   0  0  0  0  0  0  0  0  0  0  0  0
    1.0284    1.6837    1.1865 N   0  0  0  0  0  0  0  0  0  0  0  0
    1.7213    1.0162    1.5094 H   0  0  0  0  0  0  0  0  0  0  0  0
    1.0426    3.0374    1.7206 C   0  0  0  0  0  0  0  0  0  0  0  0
    0.1439    3.2219    2.3177 H   0  0  0  0  0  0  0  0  0  0  0  0
    1.9195    3.1791    2.3590 H   0  0  0  0  0  0  0  0  0  0  0  0
    1.0853    3.7691    0.9074 H   0  0  0  0  0  0  0  0  0  0  0  0
  1  2  1  0  0  0  0
  2  3  1  0  0  0  0
  2  4  1  0  0  0  0
  2  5  1  0  0  0  0
  5  6  2  0  0  0  0
  5  7  1  0  0  0  0
  7  8  1  0  0  0  0
  7  9  1  0  0  0  0
  9 10  1  0  0  0  0
  9 11  1  0  0  0  0
  9 17  1  0  0  0  0
 11 12  1  0  0  0  0
 11 13  1  0  0  0  0
 11 14  1  0  0  0  0
 14 15  1  0  0  0  0
 14 16  2  0  0  0  0
 17 18  2  0  0  0  0
 17 19  1  0  0  0  0
 19 20  1  0  0  0  0
 19 21  1  0  0  0  0
 21 22  1  0  0  0  0
 21 23  1  0  0  0  0
 21 24  1  0  0  0  0
M  CHG  1  15  -1
M  END
$$$$

  -OEChem-03222214023D

 24 23  0     1  0  0  0  0  0999 V2000
   -2.7094   -3.8366    0.6481 H   0  0  0  0  0  0  0  0  0  0  0  0
   -2.6389   -2.9261    0.0476 C   0  0  0  0  0  0  0  0  0  0  0  0
   -3.5511   -2.3402    0.1818 H   0  0  0  0  0  0  0  0  0  0  0  0
   -2.5484   -3.2055   -1.0055 H   0  0  0  0  0  0  0  0  0  0  0  0
   -1.4299   -2.1087    0.4687 C   0  0  0  0  0  0  0  0  0  0  0  0
   -0.7185   -2.5126    1.3824 O   0  0  0  0  0  0  0  0  0  0  0  0
   -1.2265   -0.8601   -0.0811 N   0  0  0  0  0  0  0  0  0  0  0  0
   -1.7541   -0.7516   -0.9483 H   0  0  0  0  0  0  0  0  0  0  0  0
    0.1167   -0.2709   -0.1465 C   0  0  1  0  0  0  0  0  0  0  0  0
    0.7889   -0.8004    0.5350 H   0  0  0  0  0  0  0  0  0  0  0  0
    0.7570   -0.3133   -1.5722 C   0  0  0  0  0  0  0  0  0  0  0  0
    1.0371    0.7017   -1.8708 H   0  0  0  0  0  0  0  0  0  0  0  0
    1.6847   -0.8848   -1.4904 H   0  0  0  0  0  0  0  0  0  0  0  0
   -0.0134   -0.9271   -2.7502 C   0  0  0  0  0  0  0  0  0  0  0  0
   -0.8398   -1.8560   -2.5646 O   0  5  0  0  0  0  0  0  0  0  0  0
    0.2777   -0.4649   -3.8786 O   0  0  0  0  0  0  0  0  0  0  0  0
    0.0628    1.2068    0.3100 C   0  0  0  0  0  0  0  0  0  0  0  0
   -0.8227    1.9752   -0.0539 O   0  0  0  0  0  0  0  0  0  0  0  0
    1.0287    1.6766    1.1833 N   0  0  0  0  0  0  0  0  0  0  0  0
    1.7163    1.0061    1.5115 H   0  0  0  0  0  0  0  0  0  0  0  0
    1.0458    3.0311    1.7155 C   0  0  0  0  0  0  0  0  0  0  0  0
    0.1361    3.2260    2.2925 H   0  0  0  0  0  0  0  0  0  0  0  0
    1.9094    3.1652    2.3734 H   0  0  0  0  0  0  0  0  0  0  0  0
    1.1140    3.7608    0.9021 H   0  0  0  0  0  0  0  0  0  0  0  0
  1  2  1  0  0  0  0
  2  3  1  0  0  0  0
  2  4  1  0  0  0  0
  2  5  1  0  0  0  0
  5  6  2  0  0  0  0
  5  7  1  0  0  0  0
  7  8  1  0  0  0  0
  7  9  1  0  0  0  0
  9 10  1  0  0  0  0
  9 11  1  0  0  0  0
  9 17  1  0  0  0  0
 11 12  1  0  0  0  0
 11 13  1  0  0  0  0
 11 14  1  0  0  0  0
 14 15  1  0  0  0  0
 14 16  2  0  0  0  0
 17 18  2  0  0  0  0
 17 19  1  0  0  0  0
 19 20  1  0  0  0  0
 19 21  1  0  0  0  0
 21 22  1  0  0  0  0
 21 23  1  0  0  0  0
 21 24  1  0  0  0  0
M  CHG  1  15  -1
M  END
$$$$

  -OEChem-03222214023D

 24 23  0     1  0  0  0  0  0999 V2000
   -2.7238   -3.8292    0.6660 H   0  0  0  0  0  0  0  0  0  0  0  0
   -2.6364   -2.9315    0.0487 C   0  0  0  0  0  0  0  0  0  0  0  0
   -3.5509   -2.3423    0.1474 H   0  0  0  0  0  0  0  0  0  0  0  0
   -2.5194   -3.2319   -0.9959 H   0  0  0  0  0  0  0  0  0  0  0  0
   -1.4382   -2.1057    0.4833 C   0  0  0  0  0  0  0  0  0  0  0  0
   -0.7233   -2.5121    1.3930 O   0  0  0  0  0  0  0  0  0  0  0  0
   -1.2359   -0.8580   -0.0670 N   0  0  0  0  0  0  0  0  0  0  0  0
   -1.7512   -0.7652   -0.9469 H   0  0  0  0  0  0  0  0  0  0  0  0
    0.1064   -0.2705   -0.1391 C   0  0  1  0  0  0  0  0  0  0  0  0
    0.7818   -0.8007    0.5388 H   0  0  0  0  0  0  0  0  0  0  0  0
    0.7407   -0.3123   -1.5691 C   0  0  0  0  0  0  0  0  0  0  0  0
    1.0164    0.7043   -1.8658 H   0  0  0  0  0  0  0  0  0  0  0  0
    1.6710   -0.8794   -1.4856 H   0  0  0  0  0  0  0  0  0  0  0  0
   -0.0148   -0.9192   -2.7628 C   0  0  0  0  0  0  0  0  0  0  0  0
   -1.0308   -1.6431   -2.5996 O   0  5  0  0  0  0  0  0  0  0  0  0
    0.4886   -0.6641   -3.8824 O   0  0  0  0  0  0  0  0  0  0  0  0
    0.0571    1.2074    0.3178 C   0  0  0  0  0  0  0  0  0  0  0  0
   -0.8224    1.9814   -0.0489 O   0  0  0  0  0  0  0  0  0  0  0  0
    1.0288    1.6740    1.1861 N   0  0  0  0  0  0  0  0  0  0  0  0
    1.7145    1.0008    1.5129 H   0  0  0  0  0  0  0  0  0  0  0  0
    1.0580    3.0307    1.7116 C   0  0  0  0  0  0  0  0  0  0  0  0
    0.1521    3.2354    2.2913 H   0  0  0  0  0  0  0  0  0  0  0  0
    1.9255    3.1611    2.3652 H   0  0  0  0  0  0  0  0  0  0  0  0
    1.1284    3.7558    0.8944 H   0  0  0  0  0  0  0  0  0  0  0  0
  1  2  1  0  0  0  0
  2  3  1  0  0  0  0
  2  4  1  0  0  0  0
  2  5  1  0  0  0  0
  5  6  2  0  0  0  0
  5  7  1  0  0  0  0
  7  8  1  0  0  0  0
  7  9  1  0  0  0  0
  9 10  1  0  0  0  0
  9 11  1  0  0  0  0
  9 17  1  0  0  0  0
 11 12  1  0  0  0  0
 11 13  1  0  0  0  0
 11 14  1  0  0  0  0
 14 15  1  0  0  0  0
 14 16  2  0  0  0  0
 17 18  2  0  0  0  0
 17 19  1  0  0  0  0
 19 20  1  0  0  0  0
 19 21  1  0  0  0  0
 21 22  1  0  0  0  0
 21 23  1  0  0  0  0
 21 24  1  0  0  0  0
M  CHG  1  15  -1
M  END
$$$$

  -OEChem-03222214023D

 24 23  0     1  0  0  0  0  0999 V2000
   -2.6838   -3.8663    0.6013 H   0  0  0  0  0  0  0  0  0  0  0  0
   -2.6376   -2.9303    0.0388 C   0  0  0  0  0  0  0  0  0  0  0  0
   -3.5601   -2.3691    0.2045 H   0  0  0  0  0  0  0  0  0  0  0  0
   -2.5501   -3.1630   -1.0260 H   0  0  0  0  0  0  0  0  0  0  0  0
   -1.4426   -2.1057    0.4832 C   0  0  0  0  0  0  0  0  0  0  0  0
   -0.7194   -2.5245    1.3804 O   0  0  0  0  0  0  0  0  0  0  0  0
   -1.2396   -0.8566   -0.0617 N   0  0  0  0  0  0  0  0  0  0  0  0
   -1.7610   -0.7510   -0.9390 H   0  0  0  0  0  0  0  0  0  0  0  0
    0.0988   -0.2632   -0.1353 C   0  0  1  0  0  0  0  0  0  0  0  0
    0.7735   -0.7924    0.5439 H   0  0  0  0  0  0  0  0  0  0  0  0
    0.7335   -0.3167   -1.5644 C   0  0  0  0  0  0  0  0  0  0  0  0
    0.9963    0.6995   -1.8730 H   0  0  0  0  0  0  0  0  0  0  0  0
    1.6709   -0.8712   -1.4719 H   0  0  0  0  0  0  0  0  0  0  0  0
   -0.0120   -0.9383   -2.7580 C   0  0  0  0  0  0  0  0  0  0  0  0
   -1.1655   -1.4291   -2.6381 O   0  5  0  0  0  0  0  0  0  0  0  0
    0.6362   -0.9315   -3.8314 O   0  0  0  0  0  0  0  0  0  0  0  0
    0.0539    1.2139    0.3240 C   0  0  0  0  0  0  0  0  0  0  0  0
   -0.8229    1.9917   -0.0406 O   0  0  0  0  0  0  0  0  0  0  0  0
    1.0300    1.6779    1.1890 N   0  0  0  0  0  0  0  0  0  0  0  0
    1.7208    1.0051    1.5059 H   0  0  0  0  0  0  0  0  0  0  0  0
    1.0662    3.0354    1.7127 C   0  0  0  0  0  0  0  0  0  0  0  0
    0.1531    3.2522    2.2765 H   0  0  0  0  0  0  0  0  0  0  0  0
    1.9234    3.1568    2.3813 H   0  0  0  0  0  0  0  0  0  0  0  0
    1.1588    3.7580    0.8955 H   0  0  0  0  0  0  0  0  0  0  0  0
  1  2  1  0  0  0  0
  2  3  1  0  0  0  0
  2  4  1  0  0  0  0
  2  5  1  0  0  0  0
  5  6  2  0  0  0  0
  5  7  1  0  0  0  0
  7  8  1  0  0  0  0
  7  9  1  0  0  0  0
  9 10  1  0  0  0  0
  9 11  1  0  0  0  0
  9 17  1  0  0  0  0
 11 12  1  0  0  0  0
 11 13  1  0  0  0  0
 11 14  1  0  0  0  0
 14 15  1  0  0  0  0
 14 16  2  0  0  0  0
 17 18  2  0  0  0  0
 17 19  1  0  0  0  0
 19 20  1  0  0  0  0
 19 21  1  0  0  0  0
 21 22  1  0  0  0  0
 21 23  1  0  0  0  0
 21 24  1  0  0  0  0
M  CHG  1  15  -1
M  END
$$$$

  -OEChem-03222214023D

 24 23  0     1  0  0  0  0  0999 V2000
   -2.6438   -3.8978    0.5157 H   0  0  0  0  0  0  0  0  0  0  0  0
   -2.6318   -2.9283    0.0109 C   0  0  0  0  0  0  0  0  0  0  0  0
   -3.5614   -2.3992    0.2328 H   0  0  0  0  0  0  0  0  0  0  0  0
   -2.5669   -3.0934   -1.0682 H   0  0  0  0  0  0  0  0  0  0  0  0
   -1.4437   -2.1047    0.4753 C   0  0  0  0  0  0  0  0  0  0  0  0
   -0.7157   -2.5360    1.3621 O   0  0  0  0  0  0  0  0  0  0  0  0
   -1.2379   -0.8535   -0.0619 N   0  0  0  0  0  0  0  0  0  0  0  0
   -1.7711   -0.7235   -0.9304 H   0  0  0  0  0  0  0  0  0  0  0  0
    0.0952   -0.2497   -0.1324 C   0  0  1  0  0  0  0  0  0  0  0  0
    0.7678   -0.7772    0.5503 H   0  0  0  0  0  0  0  0  0  0  0  0
    0.7299   -0.3230   -1.5595 C   0  0  0  0  0  0  0  0  0  0  0  0
    0.9735    0.6909   -1.8897 H   0  0  0  0  0  0  0  0  0  0  0  0
    1.6766   -0.8607   -1.4589 H   0  0  0  0  0  0  0  0  0  0  0  0
   -0.0212   -0.9738   -2.7345 C   0  0  0  0  0  0  0  0  0  0  0  0
   -1.2568   -1.2140   -2.6745 O   0  5  0  0  0  0  0  0  0  0  0  0
    0.6968   -1.2437   -3.7265 O   0  0  0  0  0  0  0  0  0  0  0  0
    0.0545    1.2267    0.3288 C   0  0  0  0  0  0  0  0  0  0  0  0
   -0.8212    2.0074   -0.0313 O   0  0  0  0  0  0  0  0  0  0  0  0
    1.0338    1.6872    1.1922 N   0  0  0  0  0  0  0  0  0  0  0  0
    1.7221    1.0118    1.5085 H   0  0  0  0  0  0  0  0  0  0  0  0
    1.0746    3.0433    1.7189 C   0  0  0  0  0  0  0  0  0  0  0  0
    0.1620    3.2623    2.2825 H   0  0  0  0  0  0  0  0  0  0  0  0
    1.9317    3.1601    2.3885 H   0  0  0  0  0  0  0  0  0  0  0  0
    1.1710    3.7674    0.9034 H   0  0  0  0  0  0  0  0  0  0  0  0
  1  2  1  0  0  0  0
  2  3  1  0  0  0  0
  2  4  1  0  0  0  0
  2  5  1  0  0  0  0
  5  6  2  0  0  0  0
  5  7  1  0  0  0  0
  7  8  1  0  0  0  0
  7  9  1  0  0  0  0
  9 10  1  0  0  0  0
  9 11  1  0  0  0  0
  9 17  1  0  0  0  0
 11 12  1  0  0  0  0
 11 13  1  0  0  0  0
 11 14  1  0  0  0  0
 14 15  1  0  0  0  0
 14 16  2  0  0  0  0
 17 18  2  0  0  0  0
 17 19  1  0  0  0  0
 19 20  1  0  0  0  0
 19 21  1  0  0  0  0
 21 22  1  0  0  0  0
 21 23  1  0  0  0  0
 21 24  1  0  0  0  0
M  CHG  1  15  -1
M  END
$$$$

  -OEChem-03222214023D

 24 23  0     1  0  0  0  0  0999 V2000
   -2.6367   -3.9067    0.4636 H   0  0  0  0  0  0  0  0  0  0  0  0
   -2.6255   -2.9287   -0.0246 C   0  0  0  0  0  0  0  0  0  0  0  0
   -3.5562   -2.4044    0.2049 H   0  0  0  0  0  0  0  0  0  0  0  0
   -2.5584   -3.0748   -1.1066 H   0  0  0  0  0  0  0  0  0  0  0  0
   -1.4395   -2.1118    0.4554 C   0  0  0  0  0  0  0  0  0  0  0  0
   -0.7101   -2.5557    1.3343 O   0  0  0  0  0  0  0  0  0  0  0  0
   -1.2296   -0.8573   -0.0705 N   0  0  0  0  0  0  0  0  0  0  0  0
   -1.7743   -0.6959   -0.9273 H   0  0  0  0  0  0  0  0  0  0  0  0
    0.0975   -0.2397   -0.1290 C   0  0  1  0  0  0  0  0  0  0  0  0
    0.7668   -0.7669    0.5573 H   0  0  0  0  0  0  0  0  0  0  0  0
    0.7347   -0.3235   -1.5515 C   0  0  0  0  0  0  0  0  0  0  0  0
    0.9596    0.6881   -1.9004 H   0  0  0  0  0  0  0  0  0  0  0  0
    1.6902   -0.8455   -1.4496 H   0  0  0  0  0  0  0  0  0  0  0  0
   -0.0361   -1.0016   -2.6955 C   0  0  0  0  0  0  0  0  0  0  0  0
   -1.2965   -0.9870   -2.7178 O   0  5  0  0  0  0  0  0  0  0  0  0
    0.6757   -1.5462   -3.5726 O   0  0  0  0  0  0  0  0  0  0  0  0
    0.0551    1.2349    0.3365 C   0  0  0  0  0  0  0  0  0  0  0  0
   -0.8211    2.0160   -0.0205 O   0  0  0  0  0  0  0  0  0  0  0  0
    1.0314    1.6929    1.2047 N   0  0  0  0  0  0  0  0  0  0  0  0
    1.7229    1.0187    1.5165 H   0  0  0  0  0  0  0  0  0  0  0  0
    1.0794    3.0522    1.7224 C   0  0  0  0  0  0  0  0  0  0  0  0
    0.1812    3.2696    2.3093 H   0  0  0  0  0  0  0  0  0  0  0  0
    1.9542    3.1776    2.3672 H   0  0  0  0  0  0  0  0  0  0  0  0
    1.1496    3.7721    0.9004 H   0  0  0  0  0  0  0  0  0  0  0  0
  1  2  1  0  0  0  0
  2  3  1  0  0  0  0
  2  4  1  0  0  0  0
  2  5  1  0  0  0  0
  5  6  2  0  0  0  0
  5  7  1  0  0  0  0
  7  8  1  0  0  0  0
  7  9  1  0  0  0  0
  9 10  1  0  0  0  0
  9 11  1  0  0  0  0
  9 17  1  0  0  0  0
 11 12  1  0  0  0  0
 11 13  1  0  0  0  0
 11 14  1  0  0  0  0
 14 15  1  0  0  0  0
 14 16  2  0  0  0  0
 17 18  2  0  0  0  0
 17 19  1  0  0  0  0
 19 20  1  0  0  0  0
 19 21  1  0  0  0  0
 21 22  1  0  0  0  0
 21 23  1  0  0  0  0
 21 24  1  0  0  0  0
M  CHG  1  15  -1
M  END
$$$$

  -OEChem-03222214023D

 24 23  0     1  0  0  0  0  0999 V2000
   -2.6178   -3.9063    0.4133 H   0  0  0  0  0  0  0  0  0  0  0  0
   -2.6071   -2.9227   -0.0635 C   0  0  0  0  0  0  0  0  0  0  0  0
   -3.5421   -2.4053    0.1637 H   0  0  0  0  0  0  0  0  0  0  0  0
   -2.5292   -3.0561   -1.1465 H   0  0  0  0  0  0  0  0  0  0  0  0
   -1.4295   -2.1058    0.4353 C   0  0  0  0  0  0  0  0  0  0  0  0
   -0.7059   -2.5512    1.3178 O   0  0  0  0  0  0  0  0  0  0  0  0
   -1.2161   -0.8505   -0.0868 N   0  0  0  0  0  0  0  0  0  0  0  0
   -1.7708   -0.6652   -0.9326 H   0  0  0  0  0  0  0  0  0  0  0  0
    0.1076   -0.2236   -0.1353 C   0  0  1  0  0  0  0  0  0  0  0  0
    0.7732   -0.7489    0.5560 H   0  0  0  0  0  0  0  0  0  0  0  0
    0.7412   -0.3313   -1.5549 C   0  0  0  0  0  0  0  0  0  0  0  0
    0.9520    0.6727   -1.9333 H   0  0  0  0  0  0  0  0  0  0  0  0
    1.7010   -0.8461   -1.4575 H   0  0  0  0  0  0  0  0  0  0  0  0
   -0.0702   -1.0433   -2.6452 C   0  0  0  0  0  0  0  0  0  0  0  0
   -1.2965   -0.7822   -2.7731 O   0  5  0  0  0  0  0  0  0  0  0  0
    0.5533   -1.8693   -3.3532 O   0  0  0  0  0  0  0  0  0  0  0  0
    0.0676    1.2519    0.3274 C   0  0  0  0  0  0  0  0  0  0  0  0
   -0.8117    2.0322   -0.0229 O   0  0  0  0  0  0  0  0  0  0  0  0
    1.0422    1.7073    1.1992 N   0  0  0  0  0  0  0  0  0  0  0  0
    1.7264    1.0289    1.5182 H   0  0  0  0  0  0  0  0  0  0  0  0
    1.0766    3.0586    1.7392 C   0  0  0  0  0  0  0  0  0  0  0  0
    0.1752    3.2583    2.3275 H   0  0  0  0  0  0  0  0  0  0  0  0
    1.9487    3.1813    2.3881 H   0  0  0  0  0  0  0  0  0  0  0  0
    1.1420    3.7924    0.9294 H   0  0  0  0  0  0  0  0  0  0  0  0
  1  2  1  0  0  0  0
  2  3  1  0  0  0  0
  2  4  1  0  0  0  0
  2  5  1  0  0  0  0
  5  6  2  0  0  0  0
  5  7  1  0  0  0  0
  7  8  1  0  0  0  0
  7  9  1  0  0  0  0
  9 10  1  0  0  0  0
  9 11  1  0  0  0  0
  9 17  1  0  0  0  0
 11 12  1  0  0  0  0
 11 13  1  0  0  0  0
 11 14  1  0  0  0  0
 14 15  1  0  0  0  0
 14 16  2  0  0  0  0
 17 18  2  0  0  0  0
 17 19  1  0  0  0  0
 19 20  1  0  0  0  0
 19 21  1  0  0  0  0
 21 22  1  0  0  0  0
 21 23  1  0  0  0  0
 21 24  1  0  0  0  0
M  CHG  1  15  -1
M  END
$$$$

  -OEChem-03222214023D

 24 23  0     1  0  0  0  0  0999 V2000
   -2.6025   -3.9039    0.3866 H   0  0  0  0  0  0  0  0  0  0  0  0
   -2.5873   -2.9236   -0.0968 C   0  0  0  0  0  0  0  0  0  0  0  0
   -3.5275   -2.4079    0.1118 H   0  0  0  0  0  0  0  0  0  0  0  0
   -2.4912   -3.0646   -1.1774 H   0  0  0  0  0  0  0  0  0  0  0  0
   -1.4199   -2.1004    0.4155 C   0  0  0  0  0  0  0  0  0  0  0  0
   -0.7083   -2.5377    1.3117 O   0  0  0  0  0  0  0  0  0  0  0  0
   -1.2038   -0.8446   -0.1052 N   0  0  0  0  0  0  0  0  0  0  0  0
   -1.7678   -0.6375   -0.9386 H   0  0  0  0  0  0  0  0  0  0  0  0
    0.1198   -0.2130   -0.1426 C   0  0  1  0  0  0  0  0  0  0  0  0
    0.7822   -0.7380    0.5522 H   0  0  0  0  0  0  0  0  0  0  0  0
    0.7504   -0.3343   -1.5593 C   0  0  0  0  0  0  0  0  0  0  0  0
    0.9574    0.6625   -1.9583 H   0  0  0  0  0  0  0  0  0  0  0  0
    1.7088   -0.8532   -1.4714 H   0  0  0  0  0  0  0  0  0  0  0  0
   -0.1044   -1.0657   -2.5958 C   0  0  0  0  0  0  0  0  0  0  0  0
   -1.2392   -0.5951   -2.8687 O   0  5  0  0  0  0  0  0  0  0  0  0
    0.3629   -2.1205   -3.0862 O   0  0  0  0  0  0  0  0  0  0  0  0
    0.0802    1.2630    0.3170 C   0  0  0  0  0  0  0  0  0  0  0  0
   -0.8022    2.0417   -0.0287 O   0  0  0  0  0  0  0  0  0  0  0  0
    1.0504    1.7161    1.1948 N   0  0  0  0  0  0  0  0  0  0  0  0
    1.7302    1.0355    1.5185 H   0  0  0  0  0  0  0  0  0  0  0  0
    1.0726    3.0616    1.7491 C   0  0  0  0  0  0  0  0  0  0  0  0
    0.1663    3.2488    2.3338 H   0  0  0  0  0  0  0  0  0  0  0  0
    1.9399    3.1833    2.4045 H   0  0  0  0  0  0  0  0  0  0  0  0
    1.1379    3.8042    0.9474 H   0  0  0  0  0  0  0  0  0  0  0  0
  1  2  1  0  0  0  0
  2  3  1  0  0  0  0
  2  4  1  0  0  0  0
  2  5  1  0  0  0  0
  5  6  2  0  0  0  0
  5  7  1  0  0  0  0
  7  8  1  0  0  0  0
  7  9  1  0  0  0  0
  9 10  1  0  0  0  0
  9 11  1  0  0  0  0
  9 17  1  0  0  0  0
 11 12  1  0  0  0  0
 11 13  1  0  0  0  0
 11 14  1  0  0  0  0
 14 15  1  0  0  0  0
 14 16  2  0  0  0  0
 17 18  2  0  0  0  0
 17 19  1  0  0  0  0
 19 20  1  0  0  0  0
 19 21  1  0  0  0  0
 21 22  1  0  0  0  0
 21 23  1  0  0  0  0
 21 24  1  0  0  0  0
M  CHG  1  15  -1
M  END
$$$$

  -OEChem-03222214023D

 24 23  0     1  0  0  0  0  0999 V2000
   -2.5984   -3.9010    0.3801 H   0  0  0  0  0  0  0  0  0  0  0  0
   -2.5720   -2.9289   -0.1190 C   0  0  0  0  0  0  0  0  0  0  0  0
   -3.5166   -2.4100    0.0596 H   0  0  0  0  0  0  0  0  0  0  0  0
   -2.4508   -3.0882   -1.1945 H   0  0  0  0  0  0  0  0  0  0  0  0
   -1.4148   -2.0982    0.4043 C   0  0  0  0  0  0  0  0  0  0  0  0
   -0.7159   -2.5244    1.3161 O   0  0  0  0  0  0  0  0  0  0  0  0
   -1.2019   -0.8403   -0.1146 N   0  0  0  0  0  0  0  0  0  0  0  0
   -1.7794   -0.6189   -0.9314 H   0  0  0  0  0  0  0  0  0  0  0  0
    0.1233   -0.2081   -0.1477 C   0  0  1  0  0  0  0  0  0  0  0  0
    0.7836   -0.7347    0.5479 H   0  0  0  0  0  0  0  0  0  0  0  0
    0.7550   -0.3343   -1.5616 C   0  0  0  0  0  0  0  0  0  0  0  0
    0.9637    0.6589   -1.9690 H   0  0  0  0  0  0  0  0  0  0  0  0
    1.7105   -0.8593   -1.4801 H   0  0  0  0  0  0  0  0  0  0  0  0
   -0.1224   -1.0722   -2.5695 C   0  0  0  0  0  0  0  0  0  0  0  0
   -1.1143   -0.4596   -3.0353 O   0  5  0  0  0  0  0  0  0  0  0  0
    0.1528   -2.2706   -2.8150 O   0  0  0  0  0  0  0  0  0  0  0  0
    0.0846    1.2669    0.3144 C   0  0  0  0  0  0  0  0  0  0  0  0
   -0.8043    2.0423   -0.0216 O   0  0  0  0  0  0  0  0  0  0  0  0
    1.0534    1.7182    1.1946 N   0  0  0  0  0  0  0  0  0  0  0  0
    1.7358    1.0380    1.5138 H   0  0  0  0  0  0  0  0  0  0  0  0
    1.0755    3.0629    1.7513 C   0  0  0  0  0  0  0  0  0  0  0  0
    0.1747    3.2452    2.3459 H   0  0  0  0  0  0  0  0  0  0  0  0
    1.9493    3.1875    2.3973 H   0  0  0  0  0  0  0  0  0  0  0  0
    1.1285    3.8073    0.9504 H   0  0  0  0  0  0  0  0  0  0  0  0
  1  2  1  0  0  0  0
  2  3  1  0  0  0  0
  2  4  1  0  0  0  0
  2  5  1  0  0  0  0
  5  6  2  0  0  0  0
  5  7  1  0  0  0  0
  7  8  1  0  0  0  0
  7  9  1  0  0  0  0
  9 10  1  0  0  0  0
  9 11  1  0  0  0  0
  9 17  1  0  0  0  0
 11 12  1  0  0  0  0
 11 13  1  0  0  0  0
 11 14  1  0  0  0  0
 14 15  1  0  0  0  0
 14 16  2  0  0  0  0
 17 18  2  0  0  0  0
 17 19  1  0  0  0  0
 19 20  1  0  0  0  0
 19 21  1  0  0  0  0
 21 22  1  0  0  0  0
 21 23  1  0  0  0  0
 21 24  1  0  0  0  0
M  CHG  1  15  -1
M  END
$$$$

  -OEChem-03222214023D

 24 23  0     1  0  0  0  0  0999 V2000
   -2.6180   -3.8910    0.4127 H   0  0  0  0  0  0  0  0  0  0  0  0
   -2.5809   -2.9284   -0.1039 C   0  0  0  0  0  0  0  0  0  0  0  0
   -3.5186   -2.3948    0.0673 H   0  0  0  0  0  0  0  0  0  0  0  0
   -2.4639   -3.1093   -1.1765 H   0  0  0  0  0  0  0  0  0  0  0  0
   -1.4122   -2.1028    0.4024 C   0  0  0  0  0  0  0  0  0  0  0  0
   -0.7166   -2.5232    1.3198 O   0  0  0  0  0  0  0  0  0  0  0  0
   -1.2007   -0.8442   -0.1176 N   0  0  0  0  0  0  0  0  0  0  0  0
   -1.7931   -0.6139   -0.9168 H   0  0  0  0  0  0  0  0  0  0  0  0
    0.1272   -0.2163   -0.1521 C   0  0  1  0  0  0  0  0  0  0  0  0
    0.7868   -0.7441    0.5431 H   0  0  0  0  0  0  0  0  0  0  0  0
    0.7650   -0.3321   -1.5638 C   0  0  0  0  0  0  0  0  0  0  0  0
    0.9861    0.6638   -1.9588 H   0  0  0  0  0  0  0  0  0  0  0  0
    1.7157   -0.8652   -1.4826 H   0  0  0  0  0  0  0  0  0  0  0  0
   -0.1055   -1.0586   -2.5851 C   0  0  0  0  0  0  0  0  0  0  0  0
   -0.9045   -0.3699   -3.2621 O   0  5  0  0  0  0  0  0  0  0  0  0
   -0.0284   -2.3098   -2.6337 O   0  0  0  0  0  0  0  0  0  0  0  0
    0.0841    1.2577    0.3125 C   0  0  0  0  0  0  0  0  0  0  0  0
   -0.8122    2.0267   -0.0191 O   0  0  0  0  0  0  0  0  0  0  0  0
    1.0499    1.7127    1.1940 N   0  0  0  0  0  0  0  0  0  0  0  0
    1.7388    1.0373    1.5092 H   0  0  0  0  0  0  0  0  0  0  0  0
    1.0681    3.0586    1.7480 C   0  0  0  0  0  0  0  0  0  0  0  0
    0.1712    3.2364    2.3499 H   0  0  0  0  0  0  0  0  0  0  0  0
    1.9468    3.1905    2.3861 H   0  0  0  0  0  0  0  0  0  0  0  0
    1.1098    3.8018    0.9451 H   0  0  0  0  0  0  0  0  0  0  0  0
  1  2  1  0  0  0  0
  2  3  1  0  0  0  0
  2  4  1  0  0  0  0
  2  5  1  0  0  0  0
  5  6  2  0  0  0  0
  5  7  1  0  0  0  0
  7  8  1  0  0  0  0
  7  9  1  0  0  0  0
  9 10  1  0  0  0  0
  9 11  1  0  0  0  0
  9 17  1  0  0  0  0
 11 12  1  0  0  0  0
 11 13  1  0  0  0  0
 11 14  1  0  0  0  0
 14 15  1  0  0  0  0
 14 16  2  0  0  0  0
 17 18  2  0  0  0  0
 17 19  1  0  0  0  0
 19 20  1  0  0  0  0
 19 21  1  0  0  0  0
 21 22  1  0  0  0  0
 21 23  1  0  0  0  0
 21 24  1  0  0  0  0
M  CHG  1  15  -1
M  END
$$$$

  -OEChem-03222214023D

 24 23  0     1  0  0  0  0  0999 V2000
   -2.6333   -3.8816    0.4582 H   0  0  0  0  0  0  0  0  0  0  0  0
   -2.6011   -2.9210   -0.0624 C   0  0  0  0  0  0  0  0  0  0  0  0
   -3.5288   -2.3780    0.1320 H   0  0  0  0  0  0  0  0  0  0  0  0
   -2.5141   -3.1067   -1.1367 H   0  0  0  0  0  0  0  0  0  0  0  0
   -1.4117   -2.1051    0.4108 C   0  0  0  0  0  0  0  0  0  0  0  0
   -0.7139   -2.5198    1.3296 O   0  0  0  0  0  0  0  0  0  0  0  0
   -1.2003   -0.8488   -0.1169 N   0  0  0  0  0  0  0  0  0  0  0  0
   -1.7965   -0.6258   -0.9124 H   0  0  0  0  0  0  0  0  0  0  0  0
    0.1316   -0.2299   -0.1574 C   0  0  1  0  0  0  0  0  0  0  0  0
    0.7920   -0.7571    0.5373 H   0  0  0  0  0  0  0  0  0  0  0  0
    0.7750   -0.3308   -1.5691 C   0  0  0  0  0  0  0  0  0  0  0  0
    1.0121    0.6700   -1.9426 H   0  0  0  0  0  0  0  0  0  0  0  0
    1.7205   -0.8724   -1.4873 H   0  0  0  0  0  0  0  0  0  0  0  0
   -0.0745   -1.0363   -2.6239 C   0  0  0  0  0  0  0  0  0  0  0  0
   -0.6350   -0.3222   -3.4876 O   0  5  0  0  0  0  0  0  0  0  0  0
   -0.2025   -2.2824   -2.5421 O   0  0  0  0  0  0  0  0  0  0  0  0
    0.0831    1.2447    0.3042 C   0  0  0  0  0  0  0  0  0  0  0  0
   -0.8177    2.0076   -0.0301 O   0  0  0  0  0  0  0  0  0  0  0  0
    1.0466    1.7053    1.1850 N   0  0  0  0  0  0  0  0  0  0  0  0
    1.7364    1.0323    1.5032 H   0  0  0  0  0  0  0  0  0  0  0  0
    1.0523    3.0485    1.7458 C   0  0  0  0  0  0  0  0  0  0  0  0
    0.1479    3.2191    2.3384 H   0  0  0  0  0  0  0  0  0  0  0  0
    1.9227    3.1807    2.3951 H   0  0  0  0  0  0  0  0  0  0  0  0
    1.1003    3.7961    0.9473 H   0  0  0  0  0  0  0  0  0  0  0  0
  1  2  1  0  0  0  0
  2  3  1  0  0  0  0
  2  4  1  0  0  0  0
  2  5  1  0  0  0  0
  5  6  2  0  0  0  0
  5  7  1  0  0  0  0
  7  8  1  0  0  0  0
  7  9  1  0  0  0  0
  9 10  1  0  0  0  0
  9 11  1  0  0  0  0
  9 17  1  0  0  0  0
 11 12  1  0  0  0  0
 11 13  1  0  0  0  0
 11 14  1  0  0  0  0
 14 15  1  0  0  0  0
 14 16  2  0  0  0  0
 17 18  2  0  0  0  0
 17 19  1  0  0  0  0
 19 20  1  0  0  0  0
 19 21  1  0  0  0  0
 21 22  1  0  0  0  0
 21 23  1  0  0  0  0
 21 24  1  0  0  0  0
M  CHG  1  15  -1
M  END
$$$$

  -OEChem-03222214023D

 24 23  0     1  0  0  0  0  0999 V2000
   -2.6551   -3.8723    0.5116 H   0  0  0  0  0  0  0  0  0  0  0  0
   -2.6215   -2.9168   -0.0181 C   0  0  0  0  0  0  0  0  0  0  0  0
   -3.5393   -2.3617    0.1883 H   0  0  0  0  0  0  0  0  0  0  0  0
   -2.5573   -3.1131   -1.0920 H   0  0  0  0  0  0  0  0  0  0  0  0
   -1.4149   -2.1097    0.4272 C   0  0  0  0  0  0  0  0  0  0  0  0
   -0.7147   -2.5201    1.3464 O   0  0  0  0  0  0  0  0  0  0  0  0
   -1.2027   -0.8565   -0.1080 N   0  0  0  0  0  0  0  0  0  0  0  0
   -1.7852   -0.6592   -0.9191 H   0  0  0  0  0  0  0  0  0  0  0  0
    0.1341   -0.2493   -0.1551 C   0  0  1  0  0  0  0  0  0  0  0  0
    0.7977   -0.7776    0.5357 H   0  0  0  0  0  0  0  0  0  0  0  0
    0.7784   -0.3275   -1.5708 C   0  0  0  0  0  0  0  0  0  0  0  0
    1.0318    0.6800   -1.9146 H   0  0  0  0  0  0  0  0  0  0  0  0
    1.7185   -0.8785   -1.4921 H   0  0  0  0  0  0  0  0  0  0  0  0
   -0.0458   -1.0003   -2.6698 C   0  0  0  0  0  0  0  0  0  0  0  0
   -0.3362   -0.3044   -3.6707 O   0  5  0  0  0  0  0  0  0  0  0  0
   -0.3954   -2.1966   -2.5153 O   0  0  0  0  0  0  0  0  0  0  0  0
    0.0787    1.2260    0.3051 C   0  0  0  0  0  0  0  0  0  0  0  0
   -0.8200    1.9864   -0.0414 O   0  0  0  0  0  0  0  0  0  0  0  0
    1.0383    1.6941    1.1861 N   0  0  0  0  0  0  0  0  0  0  0  0
    1.7251    1.0236    1.5160 H   0  0  0  0  0  0  0  0  0  0  0  0
    1.0404    3.0425    1.7339 C   0  0  0  0  0  0  0  0  0  0  0  0
    0.1355    3.2164    2.3249 H   0  0  0  0  0  0  0  0  0  0  0  0
    1.9106    3.1837    2.3814 H   0  0  0  0  0  0  0  0  0  0  0  0
    1.0861    3.7820    0.9280 H   0  0  0  0  0  0  0  0  0  0  0  0
  1  2  1  0  0  0  0
  2  3  1  0  0  0  0
  2  4  1  0  0  0  0
  2  5  1  0  0  0  0
  5  6  2  0  0  0  0
  5  7  1  0  0  0  0
  7  8  1  0  0  0  0
  7  9  1  0  0  0  0
  9 10  1  0  0  0  0
  9 11  1  0  0  0  0
  9 17  1  0  0  0  0
 11 12  1  0  0  0  0
 11 13  1  0  0  0  0
 11 14  1  0  0  0  0
 14 15  1  0  0  0  0
 14 16  2  0  0  0  0
 17 18  2  0  0  0  0
 17 19  1  0  0  0  0
 19 20  1  0  0  0  0
 19 21  1  0  0  0  0
 21 22  1  0  0  0  0
 21 23  1  0  0  0  0
 21 24  1  0  0  0  0
M  CHG  1  15  -1
M  END
$$$$

  -OEChem-03222214023D

 24 23  0     1  0  0  0  0  0999 V2000
   -2.6840   -3.8563    0.5843 H   0  0  0  0  0  0  0  0  0  0  0  0
   -2.6363   -2.9207    0.0212 C   0  0  0  0  0  0  0  0  0  0  0  0
   -3.5511   -2.3507    0.1988 H   0  0  0  0  0  0  0  0  0  0  0  0
   -2.5657   -3.1568   -1.0439 H   0  0  0  0  0  0  0  0  0  0  0  0
   -1.4260   -2.1087    0.4493 C   0  0  0  0  0  0  0  0  0  0  0  0
   -0.7231   -2.5114    1.3700 O   0  0  0  0  0  0  0  0  0  0  0  0
   -1.2174   -0.8586   -0.0955 N   0  0  0  0  0  0  0  0  0  0  0  0
   -1.7709   -0.7088   -0.9373 H   0  0  0  0  0  0  0  0  0  0  0  0
    0.1237   -0.2615   -0.1511 C   0  0  1  0  0  0  0  0  0  0  0  0
    0.7898   -0.7903    0.5371 H   0  0  0  0  0  0  0  0  0  0  0  0
    0.7718   -0.3222   -1.5697 C   0  0  0  0  0  0  0  0  0  0  0  0
    1.0360    0.6912   -1.8880 H   0  0  0  0  0  0  0  0  0  0  0  0
    1.7095   -0.8770   -1.4882 H   0  0  0  0  0  0  0  0  0  0  0  0
   -0.0184   -0.9659   -2.7149 C   0  0  0  0  0  0  0  0  0  0  0  0
   -0.0219   -0.3441   -3.8032 O   0  5  0  0  0  0  0  0  0  0  0  0
   -0.6148   -2.0551   -2.5254 O   0  0  0  0  0  0  0  0  0  0  0  0
    0.0701    1.2159    0.3048 C   0  0  0  0  0  0  0  0  0  0  0  0
   -0.8237    1.9793   -0.0488 O   0  0  0  0  0  0  0  0  0  0  0  0
    1.0327    1.6849    1.1822 N   0  0  0  0  0  0  0  0  0  0  0  0
    1.7218    1.0152    1.5089 H   0  0  0  0  0  0  0  0  0  0  0  0
    1.0418    3.0356    1.7241 C   0  0  0  0  0  0  0  0  0  0  0  0
    0.1418    3.2134    2.3215 H   0  0  0  0  0  0  0  0  0  0  0  0
    1.9173    3.1772    2.3645 H   0  0  0  0  0  0  0  0  0  0  0  0
    1.0823    3.7720    0.9150 H   0  0  0  0  0  0  0  0  0  0  0  0
  1  2  1  0  0  0  0
  2  3  1  0  0  0  0
  2  4  1  0  0  0  0
  2  5  1  0  0  0  0
  5  6  2  0  0  0  0
  5  7  1  0  0  0  0
  7  8  1  0  0  0  0
  7  9  1  0  0  0  0
  9 10  1  0  0  0  0
  9 11  1  0  0  0  0
  9 17  1  0  0  0  0
 11 12  1  0  0  0  0
 11 13  1  0  0  0  0
 11 14  1  0  0  0  0
 14 15  1  0  0  0  0
 14 16  2  0  0  0  0
 17 18  2  0  0  0  0
 17 19  1  0  0  0  0
 19 20  1  0  0  0  0
 19 21  1  0  0  0  0
 21 22  1  0  0  0  0
 21 23  1  0  0  0  0
 21 24  1  0  0  0  0
M  CHG  1  15  -1
M  END
$$$$

  -OEChem-03222214023D

 24 23  0     1  0  0  0  0  0999 V2000
   -2.7234   -3.8289    0.6622 H   0  0  0  0  0  0  0  0  0  0  0  0
   -2.6406   -2.9289    0.0476 C   0  0  0  0  0  0  0  0  0  0  0  0
   -3.5513   -2.3363    0.1610 H   0  0  0  0  0  0  0  0  0  0  0  0
   -2.5385   -3.2265   -0.9994 H   0  0  0  0  0  0  0  0  0  0  0  0
   -1.4328   -2.1103    0.4705 C   0  0  0  0  0  0  0  0  0  0  0  0
   -0.7213   -2.5142    1.3842 O   0  0  0  0  0  0  0  0  0  0  0  0
   -1.2292   -0.8619   -0.0794 N   0  0  0  0  0  0  0  0  0  0  0  0
   -1.7529   -0.7571   -0.9500 H   0  0  0  0  0  0  0  0  0  0  0  0
    0.1135   -0.2713   -0.1435 C   0  0  1  0  0  0  0  0  0  0  0  0
    0.7846   -0.8005    0.5394 H   0  0  0  0  0  0  0  0  0  0  0  0
    0.7568   -0.3178   -1.5679 C   0  0  0  0  0  0  0  0  0  0  0  0
    1.0264    0.6997   -1.8685 H   0  0  0  0  0  0  0  0  0  0  0  0
    1.6932   -0.8749   -1.4868 H   0  0  0  0  0  0  0  0  0  0  0  0
   -0.0060   -0.9357   -2.7496 C   0  0  0  0  0  0  0  0  0  0  0  0
    0.2607   -0.4459   -3.8724 O   0  5  0  0  0  0  0  0  0  0  0  0
   -0.8573   -1.8419   -2.5646 O   0  0  0  0  0  0  0  0  0  0  0  0
    0.0613    1.2071    0.3119 C   0  0  0  0  0  0  0  0  0  0  0  0
   -0.8233    1.9768   -0.0513 O   0  0  0  0  0  0  0  0  0  0  0  0
    1.0276    1.6760    1.1853 N   0  0  0  0  0  0  0  0  0  0  0  0
    1.7128    1.0044    1.5161 H   0  0  0  0  0  0  0  0  0  0  0  0
    1.0494    3.0323    1.7127 C   0  0  0  0  0  0  0  0  0  0  0  0
    0.1508    3.2250    2.3075 H   0  0  0  0  0  0  0  0  0  0  0  0
    1.9260    3.1725    2.3519 H   0  0  0  0  0  0  0  0  0  0  0  0
    1.0973    3.7598    0.8961 H   0  0  0  0  0  0  0  0  0  0  0  0
  1  2  1  0  0  0  0
  2  3  1  0  0  0  0
  2  4  1  0  0  0  0
  2  5  1  0  0  0  0
  5  6  2  0  0  0  0
  5  7  1  0  0  0  0
  7  8  1  0  0  0  0
  7  9  1  0  0  0  0
  9 10  1  0  0  0  0
  9 11  1  0  0  0  0
  9 17  1  0  0  0  0
 11 12  1  0  0  0  0
 11 13  1  0  0  0  0
 11 14  1  0  0  0  0
 14 15  1  0  0  0  0
 14 16  2  0  0  0  0
 17 18  2  0  0  0  0
 17 19  1  0  0  0  0
 19 20  1  0  0  0  0
 19 21  1  0  0  0  0
 21 22  1  0  0  0  0
 21 23  1  0  0  0  0
 21 24  1  0  0  0  0
M  CHG  1  15  -1
M  END
$$$$

  -OEChem-03222214023D

 24 23  0     1  0  0  0  0  0999 V2000
   -2.7180   -3.8392    0.6576 H   0  0  0  0  0  0  0  0  0  0  0  0
   -2.6396   -2.9326    0.0521 C   0  0  0  0  0  0  0  0  0  0  0  0
   -3.5544   -2.3466    0.1686 H   0  0  0  0  0  0  0  0  0  0  0  0
   -2.5329   -3.2182   -0.9978 H   0  0  0  0  0  0  0  0  0  0  0  0
   -1.4389   -2.1098    0.4850 C   0  0  0  0  0  0  0  0  0  0  0  0
   -0.7185   -2.5225    1.3873 O   0  0  0  0  0  0  0  0  0  0  0  0
   -1.2364   -0.8619   -0.0643 N   0  0  0  0  0  0  0  0  0  0  0  0
   -1.7540   -0.7657   -0.9432 H   0  0  0  0  0  0  0  0  0  0  0  0
    0.1041   -0.2711   -0.1369 C   0  0  1  0  0  0  0  0  0  0  0  0
    0.7781   -0.7995    0.5437 H   0  0  0  0  0  0  0  0  0  0  0  0
    0.7419   -0.3203   -1.5653 C   0  0  0  0  0  0  0  0  0  0  0  0
    1.0084    0.6973   -1.8675 H   0  0  0  0  0  0  0  0  0  0  0  0
    1.6801   -0.8739   -1.4800 H   0  0  0  0  0  0  0  0  0  0  0  0
   -0.0047   -0.9363   -2.7607 C   0  0  0  0  0  0  0  0  0  0  0  0
    0.4827   -0.6517   -3.8804 O   0  5  0  0  0  0  0  0  0  0  0  0
   -1.0578   -1.6074   -2.6054 O   0  0  0  0  0  0  0  0  0  0  0  0
    0.0553    1.2073    0.3195 C   0  0  0  0  0  0  0  0  0  0  0  0
   -0.8280    1.9796   -0.0411 O   0  0  0  0  0  0  0  0  0  0  0  0
    1.0278    1.6755    1.1865 N   0  0  0  0  0  0  0  0  0  0  0  0
    1.7213    1.0063    1.5045 H   0  0  0  0  0  0  0  0  0  0  0  0
    1.0586    3.0338    1.7084 C   0  0  0  0  0  0  0  0  0  0  0  0
    0.1539    3.2409    2.2889 H   0  0  0  0  0  0  0  0  0  0  0  0
    1.9268    3.1657    2.3608 H   0  0  0  0  0  0  0  0  0  0  0  0
    1.1281    3.7566    0.8891 H   0  0  0  0  0  0  0  0  0  0  0  0
  1  2  1  0  0  0  0
  2  3  1  0  0  0  0
  2  4  1  0  0  0  0
  2  5  1  0  0  0  0
  5  6  2  0  0  0  0
  5  7  1  0  0  0  0
  7  8  1  0  0  0  0
  7  9  1  0  0  0  0
  9 10  1  0  0  0  0
  9 11  1  0  0  0  0
  9 17  1  0  0  0  0
 11 12  1  0  0  0  0
 11 13  1  0  0  0  0
 11 14  1  0  0  0  0
 14 15  1  0  0  0  0
 14 16  2  0  0  0  0
 17 18  2  0  0  0  0
 17 19  1  0  0  0  0
 19 20  1  0  0  0  0
 19 21  1  0  0  0  0
 21 22  1  0  0  0  0
 21 23  1  0  0  0  0
 21 24  1  0  0  0  0
M  CHG  1  15  -1
M  END
$$$$

  -OEChem-03222214023D

 24 23  0     1  0  0  0  0  0999 V2000
   -2.6173   -3.9276    0.4314 H   0  0  0  0  0  0  0  0  0  0  0  0
   -2.6466   -2.9176    0.0143 C   0  0  0  0  0  0  0  0  0  0  0  0
   -3.5578   -2.4181    0.3518 H   0  0  0  0  0  0  0  0  0  0  0  0
   -2.6635   -2.9868   -1.0772 H   0  0  0  0  0  0  0  0  0  0  0  0
   -1.4297   -2.1261    0.4579 C   0  0  0  0  0  0  0  0  0  0  0  0
   -0.6689   -2.5972    1.2951 O   0  0  0  0  0  0  0  0  0  0  0  0
   -1.2213   -0.8704   -0.0636 N   0  0  0  0  0  0  0  0  0  0  0  0
   -1.7872   -0.6892   -0.9029 H   0  0  0  0  0  0  0  0  0  0  0  0
    0.1020   -0.2487   -0.1329 C   0  0  1  0  0  0  0  0  0  0  0  0
    0.7848   -0.7669    0.5469 H   0  0  0  0  0  0  0  0  0  0  0  0
    0.7276   -0.3131   -1.5602 C   0  0  0  0  0  0  0  0  0  0  0  0
    1.2290    0.6355   -1.7725 H   0  0  0  0  0  0  0  0  0  0  0  0
    1.5067   -1.0790   -1.5278 H   0  0  0  0  0  0  0  0  0  0  0  0
   -0.1323   -0.6507   -2.7914 C   0  0  0  0  0  0  0  0  0  0  0  0
    0.5007   -0.6686   -3.8739 O   0  5  0  0  0  0  0  0  0  0  0  0
   -1.3695   -0.8719   -2.6966 O   0  0  0  0  0  0  0  0  0  0  0  0
    0.0433    1.2233    0.3404 C   0  0  0  0  0  0  0  0  0  0  0  0
   -0.8528    1.9911    0.0056 O   0  0  0  0  0  0  0  0  0  0  0  0
    1.0197    1.6896    1.2044 N   0  0  0  0  0  0  0  0  0  0  0  0
    1.7395    1.0315    1.4848 H   0  0  0  0  0  0  0  0  0  0  0  0
    1.0636    3.0520    1.7146 C   0  0  0  0  0  0  0  0  0  0  0  0
    0.1560    3.2771    2.2838 H   0  0  0  0  0  0  0  0  0  0  0  0
    1.9267    3.1776    2.3749 H   0  0  0  0  0  0  0  0  0  0  0  0
    1.1518    3.7661    0.8895 H   0  0  0  0  0  0  0  0  0  0  0  0
  1  2  1  0  0  0  0
  2  3  1  0  0  0  0
  2  4  1  0  0  0  0
  2  5  1  0  0  0  0
  5  6  2  0  0  0  0
  5  7  1  0  0  0  0
  7  8  1  0  0  0  0
  7  9  1  0  0  0  0
  9 10  1  0  0  0  0
  9 11  1  0  0  0  0
  9 17  1  0  0  0  0
 11 12  1  0  0  0  0
 11 13  1  0  0  0  0
 11 14  1  0  0  0  0
 14 15  1  0  0  0  0
 14 16  2  0  0  0  0
 17 18  2  0  0  0  0
 17 19  1  0  0  0  0
 19 20  1  0  0  0  0
 19 21  1  0  0  0  0
 21 22  1  0  0  0  0
 21 23  1  0  0  0  0
 21 24  1  0  0  0  0
M  CHG  1  15  -1
M  END
$$$$

  -OEChem-03222214023D

 24 23  0     1  0  0  0  0  0999 V2000
   -2.6052   -3.9290    0.3876 H   0  0  0  0  0  0  0  0  0  0  0  0
   -2.6436   -2.9107   -0.0080 C   0  0  0  0  0  0  0  0  0  0  0  0
   -3.5534   -2.4225    0.3493 H   0  0  0  0  0  0  0  0  0  0  0  0
   -2.6713   -2.9574   -1.1004 H   0  0  0  0  0  0  0  0  0  0  0  0
   -1.4247   -2.1245    0.4392 C   0  0  0  0  0  0  0  0  0  0  0  0
   -0.6577   -2.6062    1.2642 O   0  0  0  0  0  0  0  0  0  0  0  0
   -1.2141   -0.8662   -0.0745 N   0  0  0  0  0  0  0  0  0  0  0  0
   -1.7949   -0.6549   -0.8970 H   0  0  0  0  0  0  0  0  0  0  0  0
    0.1041   -0.2331   -0.1377 C   0  0  1  0  0  0  0  0  0  0  0  0
    0.7838   -0.7497    0.5464 H   0  0  0  0  0  0  0  0  0  0  0  0
    0.7309   -0.3156   -1.5621 C   0  0  0  0  0  0  0  0  0  0  0  0
    1.2212    0.6330   -1.7975 H   0  0  0  0  0  0  0  0  0  0  0  0
    1.5173   -1.0741   -1.5177 H   0  0  0  0  0  0  0  0  0  0  0  0
   -0.1446   -0.6820   -2.7728 C   0  0  0  0  0  0  0  0  0  0  0  0
    0.4940   -1.0076   -3.8019 O   0  5  0  0  0  0  0  0  0  0  0  0
   -1.4027   -0.6448   -2.7067 O   0  0  0  0  0  0  0  0  0  0  0  0
    0.0485    1.2383    0.3377 C   0  0  0  0  0  0  0  0  0  0  0  0
   -0.8497    2.0075    0.0131 O   0  0  0  0  0  0  0  0  0  0  0  0
    1.0272    1.6995    1.2020 N   0  0  0  0  0  0  0  0  0  0  0  0
    1.7403    1.0359    1.4863 H   0  0  0  0  0  0  0  0  0  0  0  0
    1.0657    3.0550    1.7310 C   0  0  0  0  0  0  0  0  0  0  0  0
    0.1574    3.2686    2.3035 H   0  0  0  0  0  0  0  0  0  0  0  0
    1.9283    3.1750    2.3928 H   0  0  0  0  0  0  0  0  0  0  0  0
    1.1509    3.7807    0.9159 H   0  0  0  0  0  0  0  0  0  0  0  0
  1  2  1  0  0  0  0
  2  3  1  0  0  0  0
  2  4  1  0  0  0  0
  2  5  1  0  0  0  0
  5  6  2  0  0  0  0
  5  7  1  0  0  0  0
  7  8  1  0  0  0  0
  7  9  1  0  0  0  0
  9 10  1  0  0  0  0
  9 11  1  0  0  0  0
  9 17  1  0  0  0  0
 11 12  1  0  0  0  0
 11 13  1  0  0  0  0
 11 14  1  0  0  0  0
 14 15  1  0  0  0  0
 14 16  2  0  0  0  0
 17 18  2  0  0  0  0
 17 19  1  0  0  0  0
 19 20  1  0  0  0  0
 19 21  1  0  0  0  0
 21 22  1  0  0  0  0
 21 23  1  0  0  0  0
 21 24  1  0  0  0  0
M  CHG  1  15  -1
M  END
$$$$

  -OEChem-03222214023D

 24 23  0     1  0  0  0  0  0999 V2000
   -2.6151   -3.9175    0.3687 H   0  0  0  0  0  0  0  0  0  0  0  0
   -2.6454   -2.8986   -0.0261 C   0  0  0  0  0  0  0  0  0  0  0  0
   -3.5470   -2.4010    0.3389 H   0  0  0  0  0  0  0  0  0  0  0  0
   -2.6824   -2.9441   -1.1182 H   0  0  0  0  0  0  0  0  0  0  0  0
   -1.4147   -2.1261    0.4122 C   0  0  0  0  0  0  0  0  0  0  0  0
   -0.6455   -2.6171    1.2294 O   0  0  0  0  0  0  0  0  0  0  0  0
   -1.1987   -0.8662   -0.0951 N   0  0  0  0  0  0  0  0  0  0  0  0
   -1.7897   -0.6272   -0.9027 H   0  0  0  0  0  0  0  0  0  0  0  0
    0.1155   -0.2230   -0.1458 C   0  0  1  0  0  0  0  0  0  0  0  0
    0.7909   -0.7378    0.5438 H   0  0  0  0  0  0  0  0  0  0  0  0
    0.7471   -0.3178   -1.5650 C   0  0  0  0  0  0  0  0  0  0  0  0
    1.2267    0.6313   -1.8189 H   0  0  0  0  0  0  0  0  0  0  0  0
    1.5397   -1.0696   -1.5132 H   0  0  0  0  0  0  0  0  0  0  0  0
   -0.1528   -0.7064   -2.7483 C   0  0  0  0  0  0  0  0  0  0  0  0
    0.4184   -1.3212   -3.6804 O   0  5  0  0  0  0  0  0  0  0  0  0
   -1.3839   -0.4390   -2.7286 O   0  0  0  0  0  0  0  0  0  0  0  0
    0.0566    1.2481    0.3299 C   0  0  0  0  0  0  0  0  0  0  0  0
   -0.8467    2.0149    0.0144 O   0  0  0  0  0  0  0  0  0  0  0  0
    1.0308    1.7073    1.2005 N   0  0  0  0  0  0  0  0  0  0  0  0
    1.7433    1.0433    1.4857 H   0  0  0  0  0  0  0  0  0  0  0  0
    1.0585    3.0573    1.7442 C   0  0  0  0  0  0  0  0  0  0  0  0
    0.1458    3.2595    2.3139 H   0  0  0  0  0  0  0  0  0  0  0  0
    1.9169    3.1755    2.4119 H   0  0  0  0  0  0  0  0  0  0  0  0
    1.1437    3.7921    0.9372 H   0  0  0  0  0  0  0  0  0  0  0  0
  1  2  1  0  0  0  0
  2  3  1  0  0  0  0
  2  4  1  0  0  0  0
  2  5  1  0  0  0  0
  5  6  2  0  0  0  0
  5  7  1  0  0  0  0
  7  8  1  0  0  0  0
  7  9  1  0  0  0  0
  9 10  1  0  0  0  0
  9 11  1  0  0  0  0
  9 17  1  0  0  0  0
 11 12  1  0  0  0  0
 11 13  1  0  0  0  0
 11 14  1  0  0  0  0
 14 15  1  0  0  0  0
 14 16  2  0  0  0  0
 17 18  2  0  0  0  0
 17 19  1  0  0  0  0
 19 20  1  0  0  0  0
 19 21  1  0  0  0  0
 21 22  1  0  0  0  0
 21 23  1  0  0  0  0
 21 24  1  0  0  0  0
M  CHG  1  15  -1
M  END
$$$$

  -OEChem-03222214023D

 24 23  0     1  0  0  0  0  0999 V2000
   -2.6070   -3.9111    0.3365 H   0  0  0  0  0  0  0  0  0  0  0  0
   -2.6334   -2.8934   -0.0615 C   0  0  0  0  0  0  0  0  0  0  0  0
   -3.5422   -2.3970    0.2872 H   0  0  0  0  0  0  0  0  0  0  0  0
   -2.6516   -2.9425   -1.1540 H   0  0  0  0  0  0  0  0  0  0  0  0
   -1.4116   -2.1169    0.3942 C   0  0  0  0  0  0  0  0  0  0  0  0
   -0.6532   -2.6032    1.2243 O   0  0  0  0  0  0  0  0  0  0  0  0
   -1.1918   -0.8568   -0.1116 N   0  0  0  0  0  0  0  0  0  0  0  0
   -1.7863   -0.6028   -0.9116 H   0  0  0  0  0  0  0  0  0  0  0  0
    0.1216   -0.2096   -0.1511 C   0  0  1  0  0  0  0  0  0  0  0  0
    0.7905   -0.7234    0.5455 H   0  0  0  0  0  0  0  0  0  0  0  0
    0.7572   -0.3243   -1.5649 C   0  0  0  0  0  0  0  0  0  0  0  0
    1.2284    0.6228   -1.8403 H   0  0  0  0  0  0  0  0  0  0  0  0
    1.5533   -1.0717   -1.5071 H   0  0  0  0  0  0  0  0  0  0  0  0
   -0.1714   -0.7338   -2.7155 C   0  0  0  0  0  0  0  0  0  0  0  0
    0.2723   -1.6039   -3.5022 O   0  5  0  0  0  0  0  0  0  0  0  0
   -1.3410   -0.2704   -2.7608 O   0  0  0  0  0  0  0  0  0  0  0  0
    0.0668    1.2630    0.3205 C   0  0  0  0  0  0  0  0  0  0  0  0
   -0.8384    2.0305    0.0130 O   0  0  0  0  0  0  0  0  0  0  0  0
    1.0390    1.7171    1.1963 N   0  0  0  0  0  0  0  0  0  0  0  0
    1.7463    1.0491    1.4848 H   0  0  0  0  0  0  0  0  0  0  0  0
    1.0609    3.0610    1.7551 C   0  0  0  0  0  0  0  0  0  0  0  0
    0.1509    3.2496    2.3335 H   0  0  0  0  0  0  0  0  0  0  0  0
    1.9232    3.1779    2.4181 H   0  0  0  0  0  0  0  0  0  0  0  0
    1.1343    3.8060    0.9562 H   0  0  0  0  0  0  0  0  0  0  0  0
  1  2  1  0  0  0  0
  2  3  1  0  0  0  0
  2  4  1  0  0  0  0
  2  5  1  0  0  0  0
  5  6  2  0  0  0  0
  5  7  1  0  0  0  0
  7  8  1  0  0  0  0
  7  9  1  0  0  0  0
  9 10  1  0  0  0  0
  9 11  1  0  0  0  0
  9 17  1  0  0  0  0
 11 12  1  0  0  0  0
 11 13  1  0  0  0  0
 11 14  1  0  0  0  0
 14 15  1  0  0  0  0
 14 16  2  0  0  0  0
 17 18  2  0  0  0  0
 17 19  1  0  0  0  0
 19 20  1  0  0  0  0
 19 21  1  0  0  0  0
 21 22  1  0  0  0  0
 21 23  1  0  0  0  0
 21 24  1  0  0  0  0
M  CHG  1  15  -1
M  END
$$$$

  -OEChem-03222214023D

 24 23  0     1  0  0  0  0  0999 V2000
   -2.6373   -3.8798    0.3660 H   0  0  0  0  0  0  0  0  0  0  0  0
   -2.6201   -2.8884   -0.0941 C   0  0  0  0  0  0  0  0  0  0  0  0
   -3.5350   -2.3547    0.1741 H   0  0  0  0  0  0  0  0  0  0  0  0
   -2.5817   -3.0039   -1.1812 H   0  0  0  0  0  0  0  0  0  0  0  0
   -1.4072   -2.1079    0.3777 C   0  0  0  0  0  0  0  0  0  0  0  0
   -0.6588   -2.5890    1.2199 O   0  0  0  0  0  0  0  0  0  0  0  0
   -1.1851   -0.8475   -0.1270 N   0  0  0  0  0  0  0  0  0  0  0  0
   -1.7835   -0.5834   -0.9192 H   0  0  0  0  0  0  0  0  0  0  0  0
    0.1289   -0.1995   -0.1591 C   0  0  1  0  0  0  0  0  0  0  0  0
    0.7917   -0.7135    0.5429 H   0  0  0  0  0  0  0  0  0  0  0  0
    0.7690   -0.3314   -1.5676 C   0  0  0  0  0  0  0  0  0  0  0  0
    1.2332    0.6138   -1.8605 H   0  0  0  0  0  0  0  0  0  0  0  0
    1.5671   -1.0768   -1.5088 H   0  0  0  0  0  0  0  0  0  0  0  0
   -0.1868   -0.7556   -2.6862 C   0  0  0  0  0  0  0  0  0  0  0  0
    0.0879   -1.8213   -3.2876 O   0  5  0  0  0  0  0  0  0  0  0  0
   -1.2668   -0.1268   -2.8211 O   0  0  0  0  0  0  0  0  0  0  0  0
    0.0775    1.2736    0.3109 C   0  0  0  0  0  0  0  0  0  0  0  0
   -0.8346    2.0383    0.0174 O   0  0  0  0  0  0  0  0  0  0  0  0
    1.0480    1.7242    1.1902 N   0  0  0  0  0  0  0  0  0  0  0  0
    1.7540    1.0547    1.4782 H   0  0  0  0  0  0  0  0  0  0  0  0
    1.0604    3.0612    1.7654 C   0  0  0  0  0  0  0  0  0  0  0  0
    0.1691    3.2210    2.3807 H   0  0  0  0  0  0  0  0  0  0  0  0
    1.9452    3.1898    2.3955 H   0  0  0  0  0  0  0  0  0  0  0  0
    1.0864    3.8177    0.9744 H   0  0  0  0  0  0  0  0  0  0  0  0
  1  2  1  0  0  0  0
  2  3  1  0  0  0  0
  2  4  1  0  0  0  0
  2  5  1  0  0  0  0
  5  6  2  0  0  0  0
  5  7  1  0  0  0  0
  7  8  1  0  0  0  0
  7  9  1  0  0  0  0
  9 10  1  0  0  0  0
  9 11  1  0  0  0  0
  9 17  1  0  0  0  0
 11 12  1  0  0  0  0
 11 13  1  0  0  0  0
 11 14  1  0  0  0  0
 14 15  1  0  0  0  0
 14 16  2  0  0  0  0
 17 18  2  0  0  0  0
 17 19  1  0  0  0  0
 19 20  1  0  0  0  0
 19 21  1  0  0  0  0
 21 22  1  0  0  0  0
 21 23  1  0  0  0  0
 21 24  1  0  0  0  0
M  CHG  1  15  -1
M  END
$$$$

  -OEChem-03222214023D

 24 23  0     1  0  0  0  0  0999 V2000
   -2.6313   -3.8741    0.3587 H   0  0  0  0  0  0  0  0  0  0  0  0
   -2.6079   -2.8883   -0.1130 C   0  0  0  0  0  0  0  0  0  0  0  0
   -3.5284   -2.3533    0.1324 H   0  0  0  0  0  0  0  0  0  0  0  0
   -2.5489   -3.0174   -1.1979 H   0  0  0  0  0  0  0  0  0  0  0  0
   -1.4047   -2.0999    0.3703 C   0  0  0  0  0  0  0  0  0  0  0  0
   -0.6685   -2.5709    1.2292 O   0  0  0  0  0  0  0  0  0  0  0  0
   -1.1820   -0.8403   -0.1374 N   0  0  0  0  0  0  0  0  0  0  0  0
   -1.7852   -0.5735   -0.9219 H   0  0  0  0  0  0  0  0  0  0  0  0
    0.1353   -0.1968   -0.1657 C   0  0  1  0  0  0  0  0  0  0  0  0
    0.7936   -0.7108    0.5407 H   0  0  0  0  0  0  0  0  0  0  0  0
    0.7794   -0.3411   -1.5697 C   0  0  0  0  0  0  0  0  0  0  0  0
    1.2450    0.6006   -1.8720 H   0  0  0  0  0  0  0  0  0  0  0  0
    1.5734   -1.0908   -1.5116 H   0  0  0  0  0  0  0  0  0  0  0  0
   -0.1956   -0.7691   -2.6662 C   0  0  0  0  0  0  0  0  0  0  0  0
   -0.1210   -1.9572   -3.0618 O   0  5  0  0  0  0  0  0  0  0  0  0
   -1.1422    0.0069   -2.9406 O   0  0  0  0  0  0  0  0  0  0  0  0
    0.0869    1.2774    0.3011 C   0  0  0  0  0  0  0  0  0  0  0  0
   -0.8304    2.0386    0.0145 O   0  0  0  0  0  0  0  0  0  0  0  0
    1.0550    1.7278    1.1833 N   0  0  0  0  0  0  0  0  0  0  0  0
    1.7590    1.0575    1.4743 H   0  0  0  0  0  0  0  0  0  0  0  0
    1.0581    3.0610    1.7676 C   0  0  0  0  0  0  0  0  0  0  0  0
    0.1642    3.2117    2.3813 H   0  0  0  0  0  0  0  0  0  0  0  0
    1.9405    3.1910    2.4009 H   0  0  0  0  0  0  0  0  0  0  0  0
    1.0815    3.8228    0.9817 H   0  0  0  0  0  0  0  0  0  0  0  0
  1  2  1  0  0  0  0
  2  3  1  0  0  0  0
  2  4  1  0  0  0  0
  2  5  1  0  0  0  0
  5  6  2  0  0  0  0
  5  7  1  0  0  0  0
  7  8  1  0  0  0  0
  7  9  1  0  0  0  0
  9 10  1  0  0  0  0
  9 11  1  0  0  0  0
  9 17  1  0  0  0  0
 11 12  1  0  0  0  0
 11 13  1  0  0  0  0
 11 14  1  0  0  0  0
 14 15  1  0  0  0  0
 14 16  2  0  0  0  0
 17 18  2  0  0  0  0
 17 19  1  0  0  0  0
 19 20  1  0  0  0  0
 19 21  1  0  0  0  0
 21 22  1  0  0  0  0
 21 23  1  0  0  0  0
 21 24  1  0  0  0  0
M  CHG  1  15  -1
M  END
$$$$

  -OEChem-03222214023D

 24 23  0     1  0  0  0  0  0999 V2000
   -2.6470   -3.8611    0.4048 H   0  0  0  0  0  0  0  0  0  0  0  0
   -2.6119   -2.8889   -0.0935 C   0  0  0  0  0  0  0  0  0  0  0  0
   -3.5289   -2.3394    0.1313 H   0  0  0  0  0  0  0  0  0  0  0  0
   -2.5473   -3.0480   -1.1739 H   0  0  0  0  0  0  0  0  0  0  0  0
   -1.4041   -2.0990    0.3756 C   0  0  0  0  0  0  0  0  0  0  0  0
   -0.6713   -2.5596    1.2434 O   0  0  0  0  0  0  0  0  0  0  0  0
   -1.1832   -0.8412   -0.1396 N   0  0  0  0  0  0  0  0  0  0  0  0
   -1.7947   -0.5800   -0.9150 H   0  0  0  0  0  0  0  0  0  0  0  0
    0.1402   -0.2074   -0.1704 C   0  0  1  0  0  0  0  0  0  0  0  0
    0.7967   -0.7208    0.5379 H   0  0  0  0  0  0  0  0  0  0  0  0
    0.7901   -0.3459   -1.5720 C   0  0  0  0  0  0  0  0  0  0  0  0
    1.2676    0.5937   -1.8635 H   0  0  0  0  0  0  0  0  0  0  0  0
    1.5751   -1.1051   -1.5197 H   0  0  0  0  0  0  0  0  0  0  0  0
   -0.1838   -0.7587   -2.6724 C   0  0  0  0  0  0  0  0  0  0  0  0
   -0.3321   -1.9875   -2.8820 O   0  5  0  0  0  0  0  0  0  0  0  0
   -0.8934    0.1363   -3.1859 O   0  0  0  0  0  0  0  0  0  0  0  0
    0.0876    1.2671    0.2939 C   0  0  0  0  0  0  0  0  0  0  0  0
   -0.8400    2.0184    0.0133 O   0  0  0  0  0  0  0  0  0  0  0  0
    1.0519    1.7218    1.1779 N   0  0  0  0  0  0  0  0  0  0  0  0
    1.7614    1.0560    1.4659 H   0  0  0  0  0  0  0  0  0  0  0  0
    1.0476    3.0538    1.7644 C   0  0  0  0  0  0  0  0  0  0  0  0
    0.1565    3.1961    2.3841 H   0  0  0  0  0  0  0  0  0  0  0  0
    1.9329    3.1902    2.3924 H   0  0  0  0  0  0  0  0  0  0  0  0
    1.0600    3.8169    0.9795 H   0  0  0  0  0  0  0  0  0  0  0  0
  1  2  1  0  0  0  0
  2  3  1  0  0  0  0
  2  4  1  0  0  0  0
  2  5  1  0  0  0  0
  5  6  2  0  0  0  0
  5  7  1  0  0  0  0
  7  8  1  0  0  0  0
  7  9  1  0  0  0  0
  9 10  1  0  0  0  0
  9 11  1  0  0  0  0
  9 17  1  0  0  0  0
 11 12  1  0  0  0  0
 11 13  1  0  0  0  0
 11 14  1  0  0  0  0
 14 15  1  0  0  0  0
 14 16  2  0  0  0  0
 17 18  2  0  0  0  0
 17 19  1  0  0  0  0
 19 20  1  0  0  0  0
 19 21  1  0  0  0  0
 21 22  1  0  0  0  0
 21 23  1  0  0  0  0
 21 24  1  0  0  0  0
M  CHG  1  15  -1
M  END
$$$$

  -OEChem-03222214023D

 24 23  0     1  0  0  0  0  0999 V2000
   -2.6520   -3.8625    0.4556 H   0  0  0  0  0  0  0  0  0  0  0  0
   -2.6196   -2.8958   -0.0534 C   0  0  0  0  0  0  0  0  0  0  0  0
   -3.5349   -2.3433    0.1709 H   0  0  0  0  0  0  0  0  0  0  0  0
   -2.5625   -3.0681   -1.1320 H   0  0  0  0  0  0  0  0  0  0  0  0
   -1.4085   -2.1008    0.3998 C   0  0  0  0  0  0  0  0  0  0  0  0
   -0.6788   -2.5490    1.2770 O   0  0  0  0  0  0  0  0  0  0  0  0
   -1.1902   -0.8466   -0.1265 N   0  0  0  0  0  0  0  0  0  0  0  0
   -1.7885   -0.6206   -0.9205 H   0  0  0  0  0  0  0  0  0  0  0  0
    0.1415   -0.2285   -0.1656 C   0  0  1  0  0  0  0  0  0  0  0  0
    0.8038   -0.7446    0.5355 H   0  0  0  0  0  0  0  0  0  0  0  0
    0.7859   -0.3394   -1.5739 C   0  0  0  0  0  0  0  0  0  0  0  0
    1.2868    0.5975   -1.8348 H   0  0  0  0  0  0  0  0  0  0  0  0
    1.5547   -1.1157   -1.5383 H   0  0  0  0  0  0  0  0  0  0  0  0
   -0.1759   -0.7126   -2.7003 C   0  0  0  0  0  0  0  0  0  0  0  0
   -0.5636   -1.9055   -2.7731 O   0  5  0  0  0  0  0  0  0  0  0  0
   -0.5638    0.2049   -3.4592 O   0  0  0  0  0  0  0  0  0  0  0  0
    0.0852    1.2470    0.2952 C   0  0  0  0  0  0  0  0  0  0  0  0
   -0.8399    1.9954   -0.0024 O   0  0  0  0  0  0  0  0  0  0  0  0
    1.0460    1.7098    1.1786 N   0  0  0  0  0  0  0  0  0  0  0  0
    1.7569    1.0482    1.4729 H   0  0  0  0  0  0  0  0  0  0  0  0
    1.0370    3.0468    1.7538 C   0  0  0  0  0  0  0  0  0  0  0  0
    0.1369    3.1965    2.3585 H   0  0  0  0  0  0  0  0  0  0  0  0
    1.9127    3.1859    2.3944 H   0  0  0  0  0  0  0  0  0  0  0  0
    1.0635    3.8036    0.9631 H   0  0  0  0  0  0  0  0  0  0  0  0
  1  2  1  0  0  0  0
  2  3  1  0  0  0  0
  2  4  1  0  0  0  0
  2  5  1  0  0  0  0
  5  6  2  0  0  0  0
  5  7  1  0  0  0  0
  7  8  1  0  0  0  0
  7  9  1  0  0  0  0
  9 10  1  0  0  0  0
  9 11  1  0  0  0  0
  9 17  1  0  0  0  0
 11 12  1  0  0  0  0
 11 13  1  0  0  0  0
 11 14  1  0  0  0  0
 14 15  1  0  0  0  0
 14 16  2  0  0  0  0
 17 18  2  0  0  0  0
 17 19  1  0  0  0  0
 19 20  1  0  0  0  0
 19 21  1  0  0  0  0
 21 22  1  0  0  0  0
 21 23  1  0  0  0  0
 21 24  1  0  0  0  0
M  CHG  1  15  -1
M  END
$$$$

  -OEChem-03222214023D

 24 23  0     1  0  0  0  0  0999 V2000
   -2.6595   -3.8668    0.5158 H   0  0  0  0  0  0  0  0  0  0  0  0
   -2.6228   -2.9140   -0.0186 C   0  0  0  0  0  0  0  0  0  0  0  0
   -3.5417   -2.3581    0.1810 H   0  0  0  0  0  0  0  0  0  0  0  0
   -2.5543   -3.1150   -1.0913 H   0  0  0  0  0  0  0  0  0  0  0  0
   -1.4189   -2.1040    0.4288 C   0  0  0  0  0  0  0  0  0  0  0  0
   -0.6970   -2.5348    1.3212 O   0  0  0  0  0  0  0  0  0  0  0  0
   -1.2069   -0.8523   -0.1077 N   0  0  0  0  0  0  0  0  0  0  0  0
   -1.7640   -0.6903   -0.9473 H   0  0  0  0  0  0  0  0  0  0  0  0
    0.1314   -0.2481   -0.1525 C   0  0  1  0  0  0  0  0  0  0  0  0
    0.8001   -0.7691    0.5388 H   0  0  0  0  0  0  0  0  0  0  0  0
    0.7686   -0.3221   -1.5701 C   0  0  0  0  0  0  0  0  0  0  0  0
    1.2912    0.6129   -1.7936 H   0  0  0  0  0  0  0  0  0  0  0  0
    1.5233   -1.1123   -1.5541 H   0  0  0  0  0  0  0  0  0  0  0  0
   -0.1708   -0.6486   -2.7333 C   0  0  0  0  0  0  0  0  0  0  0  0
   -0.7974   -1.7387   -2.7170 O   0  5  0  0  0  0  0  0  0  0  0  0
   -0.2383    0.1901   -3.6614 O   0  0  0  0  0  0  0  0  0  0  0  0
    0.0734    1.2282    0.3064 C   0  0  0  0  0  0  0  0  0  0  0  0
   -0.8354    1.9843   -0.0211 O   0  0  0  0  0  0  0  0  0  0  0  0
    1.0322    1.6940    1.1900 N   0  0  0  0  0  0  0  0  0  0  0  0
    1.7390    1.0320    1.4931 H   0  0  0  0  0  0  0  0  0  0  0  0
    1.0416    3.0436    1.7345 C   0  0  0  0  0  0  0  0  0  0  0  0
    0.1411    3.2214    2.3310 H   0  0  0  0  0  0  0  0  0  0  0  0
    1.9164    3.1834    2.3763 H   0  0  0  0  0  0  0  0  0  0  0  0
    1.0841    3.7815    0.9268 H   0  0  0  0  0  0  0  0  0  0  0  0
  1  2  1  0  0  0  0
  2  3  1  0  0  0  0
  2  4  1  0  0  0  0
  2  5  1  0  0  0  0
  5  6  2  0  0  0  0
  5  7  1  0  0  0  0
  7  8  1  0  0  0  0
  7  9  1  0  0  0  0
  9 10  1  0  0  0  0
  9 11  1  0  0  0  0
  9 17  1  0  0  0  0
 11 12  1  0  0  0  0
 11 13  1  0  0  0  0
 11 14  1  0  0  0  0
 14 15  1  0  0  0  0
 14 16  2  0  0  0  0
 17 18  2  0  0  0  0
 17 19  1  0  0  0  0
 19 20  1  0  0  0  0
 19 21  1  0  0  0  0
 21 22  1  0  0  0  0
 21 23  1  0  0  0  0
 21 24  1  0  0  0  0
M  CHG  1  15  -1
M  END
$$$$

  -OEChem-03222214023D

 24 23  0     1  0  0  0  0  0999 V2000
   -2.6599   -3.8716    0.5486 H   0  0  0  0  0  0  0  0  0  0  0  0
   -2.6226   -2.9234    0.0060 C   0  0  0  0  0  0  0  0  0  0  0  0
   -3.5451   -2.3690    0.1937 H   0  0  0  0  0  0  0  0  0  0  0  0
   -2.5461   -3.1331   -1.0645 H   0  0  0  0  0  0  0  0  0  0  0  0
   -1.4257   -2.1039    0.4551 C   0  0  0  0  0  0  0  0  0  0  0  0
   -0.7026   -2.5288    1.3495 O   0  0  0  0  0  0  0  0  0  0  0  0
   -1.2184   -0.8547   -0.0876 N   0  0  0  0  0  0  0  0  0  0  0  0
   -1.7481   -0.7340   -0.9550 H   0  0  0  0  0  0  0  0  0  0  0  0
    0.1220   -0.2593   -0.1435 C   0  0  1  0  0  0  0  0  0  0  0  0
    0.7979   -0.7823    0.5393 H   0  0  0  0  0  0  0  0  0  0  0  0
    0.7489   -0.3128   -1.5698 C   0  0  0  0  0  0  0  0  0  0  0  0
    1.2828    0.6211   -1.7709 H   0  0  0  0  0  0  0  0  0  0  0  0
    1.4961   -1.1100   -1.5631 H   0  0  0  0  0  0  0  0  0  0  0  0
   -0.1664   -0.6113   -2.7648 C   0  0  0  0  0  0  0  0  0  0  0  0
   -1.0127   -1.5398   -2.6896 O   0  5  0  0  0  0  0  0  0  0  0  0
    0.0367    0.0718   -3.7956 O   0  0  0  0  0  0  0  0  0  0  0  0
    0.0647    1.2177    0.3147 C   0  0  0  0  0  0  0  0  0  0  0  0
   -0.8327    1.9802   -0.0300 O   0  0  0  0  0  0  0  0  0  0  0  0
    1.0268    1.6860    1.1932 N   0  0  0  0  0  0  0  0  0  0  0  0
    1.7305    1.0231    1.5011 H   0  0  0  0  0  0  0  0  0  0  0  0
    1.0464    3.0415    1.7227 C   0  0  0  0  0  0  0  0  0  0  0  0
    0.1373    3.2400    2.2991 H   0  0  0  0  0  0  0  0  0  0  0  0
    1.9101    3.1747    2.3806 H   0  0  0  0  0  0  0  0  0  0  0  0
    1.1162    3.7691    0.9076 H   0  0  0  0  0  0  0  0  0  0  0  0
  1  2  1  0  0  0  0
  2  3  1  0  0  0  0
  2  4  1  0  0  0  0
  2  5  1  0  0  0  0
  5  6  2  0  0  0  0
  5  7  1  0  0  0  0
  7  8  1  0  0  0  0
  7  9  1  0  0  0  0
  9 10  1  0  0  0  0
  9 11  1  0  0  0  0
  9 17  1  0  0  0  0
 11 12  1  0  0  0  0
 11 13  1  0  0  0  0
 11 14  1  0  0  0  0
 14 15  1  0  0  0  0
 14 16  2  0  0  0  0
 17 18  2  0  0  0  0
 17 19  1  0  0  0  0
 19 20  1  0  0  0  0
 19 21  1  0  0  0  0
 21 22  1  0  0  0  0
 21 23  1  0  0  0  0
 21 24  1  0  0  0  0
M  CHG  1  15  -1
M  END
$$$$

  -OEChem-03222214023D

 24 23  0     1  0  0  0  0  0999 V2000
   -2.6643   -3.8749    0.5608 H   0  0  0  0  0  0  0  0  0  0  0  0
   -2.6247   -2.9281    0.0160 C   0  0  0  0  0  0  0  0  0  0  0  0
   -3.5501   -2.3756    0.1945 H   0  0  0  0  0  0  0  0  0  0  0  0
   -2.5385   -3.1394   -1.0535 H   0  0  0  0  0  0  0  0  0  0  0  0
   -1.4330   -2.1054    0.4720 C   0  0  0  0  0  0  0  0  0  0  0  0
   -0.7021   -2.5367    1.3568 O   0  0  0  0  0  0  0  0  0  0  0  0
   -1.2260   -0.8563   -0.0697 N   0  0  0  0  0  0  0  0  0  0  0  0
   -1.7568   -0.7341   -0.9393 H   0  0  0  0  0  0  0  0  0  0  0  0
    0.1125   -0.2618   -0.1374 C   0  0  1  0  0  0  0  0  0  0  0  0
    0.7934   -0.7854    0.5400 H   0  0  0  0  0  0  0  0  0  0  0  0
    0.7325   -0.3096   -1.5688 C   0  0  0  0  0  0  0  0  0  0  0  0
    1.2656    0.6264   -1.7616 H   0  0  0  0  0  0  0  0  0  0  0  0
    1.4815   -1.1052   -1.5598 H   0  0  0  0  0  0  0  0  0  0  0  0
   -0.1574   -0.6021   -2.7883 C   0  0  0  0  0  0  0  0  0  0  0  0
   -1.1840   -1.3240   -2.6826 O   0  5  0  0  0  0  0  0  0  0  0  0
    0.2584   -0.1309   -3.8731 O   0  0  0  0  0  0  0  0  0  0  0  0
    0.0578    1.2146    0.3237 C   0  0  0  0  0  0  0  0  0  0  0  0
   -0.8325    1.9823   -0.0277 O   0  0  0  0  0  0  0  0  0  0  0  0
    1.0269    1.6834    1.1945 N   0  0  0  0  0  0  0  0  0  0  0  0
    1.7284    1.0188    1.5042 H   0  0  0  0  0  0  0  0  0  0  0  0
    1.0545    3.0418    1.7163 C   0  0  0  0  0  0  0  0  0  0  0  0
    0.1500    3.2462    2.2982 H   0  0  0  0  0  0  0  0  0  0  0  0
    1.9236    3.1764    2.3670 H   0  0  0  0  0  0  0  0  0  0  0  0
    1.1203    3.7651    0.8969 H   0  0  0  0  0  0  0  0  0  0  0  0
  1  2  1  0  0  0  0
  2  3  1  0  0  0  0
  2  4  1  0  0  0  0
  2  5  1  0  0  0  0
  5  6  2  0  0  0  0
  5  7  1  0  0  0  0
  7  8  1  0  0  0  0
  7  9  1  0  0  0  0
  9 10  1  0  0  0  0
  9 11  1  0  0  0  0
  9 17  1  0  0  0  0
 11 12  1  0  0  0  0
 11 13  1  0  0  0  0
 11 14  1  0  0  0  0
 14 15  1  0  0  0  0
 14 16  2  0  0  0  0
 17 18  2  0  0  0  0
 17 19  1  0  0  0  0
 19 20  1  0  0  0  0
 19 21  1  0  0  0  0
 21 22  1  0  0  0  0
 21 23  1  0  0  0  0
 21 24  1  0  0  0  0
M  CHG  1  15  -1
M  END
$$$$

  -OEChem-03222214023D

 24 23  0     1  0  0  0  0  0999 V2000
   -2.6426   -3.8985    0.5105 H   0  0  0  0  0  0  0  0  0  0  0  0
   -2.6354   -2.9211    0.0214 C   0  0  0  0  0  0  0  0  0  0  0  0
   -3.5556   -2.3890    0.2742 H   0  0  0  0  0  0  0  0  0  0  0  0
   -2.5974   -3.0683   -1.0617 H   0  0  0  0  0  0  0  0  0  0  0  0
   -1.4307   -2.1138    0.4702 C   0  0  0  0  0  0  0  0  0  0  0  0
   -0.6835   -2.5644    1.3311 O   0  0  0  0  0  0  0  0  0  0  0  0
   -1.2235   -0.8621   -0.0631 N   0  0  0  0  0  0  0  0  0  0  0  0
   -1.7710   -0.7154   -0.9199 H   0  0  0  0  0  0  0  0  0  0  0  0
    0.1082   -0.2569   -0.1367 C   0  0  1  0  0  0  0  0  0  0  0  0
    0.7917   -0.7782    0.5397 H   0  0  0  0  0  0  0  0  0  0  0  0
    0.7283   -0.3112   -1.5685 C   0  0  0  0  0  0  0  0  0  0  0  0
    1.2474    0.6311   -1.7675 H   0  0  0  0  0  0  0  0  0  0  0  0
    1.4895   -1.0950   -1.5484 H   0  0  0  0  0  0  0  0  0  0  0  0
   -0.1410   -0.6215   -2.8003 C   0  0  0  0  0  0  0  0  0  0  0  0
   -1.2973   -1.1092   -2.6880 O   0  5  0  0  0  0  0  0  0  0  0  0
    0.4216   -0.4027   -3.8994 O   0  0  0  0  0  0  0  0  0  0  0  0
    0.0519    1.2174    0.3306 C   0  0  0  0  0  0  0  0  0  0  0  0
   -0.8395    1.9858   -0.0165 O   0  0  0  0  0  0  0  0  0  0  0  0
    1.0259    1.6868    1.1955 N   0  0  0  0  0  0  0  0  0  0  0  0
    1.7332    1.0241    1.4960 H   0  0  0  0  0  0  0  0  0  0  0  0
    1.0557    3.0453    1.7174 C   0  0  0  0  0  0  0  0  0  0  0  0
    0.1452    3.2561    2.2875 H   0  0  0  0  0  0  0  0  0  0  0  0
    1.9166    3.1745    2.3797 H   0  0  0  0  0  0  0  0  0  0  0  0
    1.1366    3.7669    0.8980 H   0  0  0  0  0  0  0  0  0  0  0  0
  1  2  1  0  0  0  0
  2  3  1  0  0  0  0
  2  4  1  0  0  0  0
  2  5  1  0  0  0  0
  5  6  2  0  0  0  0
  5  7  1  0  0  0  0
  7  8  1  0  0  0  0
  7  9  1  0  0  0  0
  9 10  1  0  0  0  0
  9 11  1  0  0  0  0
  9 17  1  0  0  0  0
 11 12  1  0  0  0  0
 11 13  1  0  0  0  0
 11 14  1  0  0  0  0
 14 15  1  0  0  0  0
 14 16  2  0  0  0  0
 17 18  2  0  0  0  0
 17 19  1  0  0  0  0
 19 20  1  0  0  0  0
 19 21  1  0  0  0  0
 21 22  1  0  0  0  0
 21 23  1  0  0  0  0
 21 24  1  0  0  0  0
M  CHG  1  15  -1
M  END
$$$$

  -OEChem-03222214023D

 24 23  0     1  0  0  0  0  0999 V2000
   -2.6152   -3.9266    0.4322 H   0  0  0  0  0  0  0  0  0  0  0  0
   -2.6446   -2.9180    0.0119 C   0  0  0  0  0  0  0  0  0  0  0  0
   -3.5570   -2.4184    0.3455 H   0  0  0  0  0  0  0  0  0  0  0  0
   -2.6583   -2.9903   -1.0794 H   0  0  0  0  0  0  0  0  0  0  0  0
   -1.4294   -2.1245    0.4564 C   0  0  0  0  0  0  0  0  0  0  0  0
   -0.6702   -2.5931    1.2966 O   0  0  0  0  0  0  0  0  0  0  0  0
   -1.2212   -0.8690   -0.0657 N   0  0  0  0  0  0  0  0  0  0  0  0
   -1.7850   -0.6904   -0.9068 H   0  0  0  0  0  0  0  0  0  0  0  0
    0.1027   -0.2484   -0.1339 C   0  0  1  0  0  0  0  0  0  0  0  0
    0.7847   -0.7667    0.5464 H   0  0  0  0  0  0  0  0  0  0  0  0
    0.7297   -0.3119   -1.5611 C   0  0  0  0  0  0  0  0  0  0  0  0
    1.2298    0.6378   -1.7719 H   0  0  0  0  0  0  0  0  0  0  0  0
    1.5059   -1.0809   -1.5263 H   0  0  0  0  0  0  0  0  0  0  0  0
   -0.1300   -0.6476   -2.7930 C   0  0  0  0  0  0  0  0  0  0  0  0
   -1.3647   -0.8817   -2.6979 O   0  5  0  0  0  0  0  0  0  0  0  0
    0.5110   -0.6993   -3.8698 O   0  0  0  0  0  0  0  0  0  0  0  0
    0.0439    1.2237    0.3391 C   0  0  0  0  0  0  0  0  0  0  0  0
   -0.8484    1.9934   -0.0014 O   0  0  0  0  0  0  0  0  0  0  0  0
    1.0194    1.6896    1.2042 N   0  0  0  0  0  0  0  0  0  0  0  0
    1.7334    1.0287    1.4921 H   0  0  0  0  0  0  0  0  0  0  0  0
    1.0631    3.0514    1.7159 C   0  0  0  0  0  0  0  0  0  0  0  0
    0.1537    3.2771    2.2817 H   0  0  0  0  0  0  0  0  0  0  0  0
    1.9238    3.1754    2.3796 H   0  0  0  0  0  0  0  0  0  0  0  0
    1.1549    3.7659    0.8915 H   0  0  0  0  0  0  0  0  0  0  0  0
  1  2  1  0  0  0  0
  2  3  1  0  0  0  0
  2  4  1  0  0  0  0
  2  5  1  0  0  0  0
  5  6  2  0  0  0  0
  5  7  1  0  0  0  0
  7  8  1  0  0  0  0
  7  9  1  0  0  0  0
  9 10  1  0  0  0  0
  9 11  1  0  0  0  0
  9 17  1  0  0  0  0
 11 12  1  0  0  0  0
 11 13  1  0  0  0  0
 11 14  1  0  0  0  0
 14 15  1  0  0  0  0
 14 16  2  0  0  0  0
 17 18  2  0  0  0  0
 17 19  1  0  0  0  0
 19 20  1  0  0  0  0
 19 21  1  0  0  0  0
 21 22  1  0  0  0  0
 21 23  1  0  0  0  0
 21 24  1  0  0  0  0
M  CHG  1  15  -1
M  END
$$$$

  -OEChem-03222214023D

 24 23  0     1  0  0  0  0  0999 V2000
   -2.6156   -3.9266    0.3923 H   0  0  0  0  0  0  0  0  0  0  0  0
   -2.6455   -2.9106   -0.0098 C   0  0  0  0  0  0  0  0  0  0  0  0
   -3.5544   -2.4150    0.3391 H   0  0  0  0  0  0  0  0  0  0  0  0
   -2.6673   -2.9633   -1.1021 H   0  0  0  0  0  0  0  0  0  0  0  0
   -1.4250   -2.1280    0.4390 C   0  0  0  0  0  0  0  0  0  0  0  0
   -0.6603   -2.6107    1.2657 O   0  0  0  0  0  0  0  0  0  0  0  0
   -1.2118   -0.8702   -0.0746 N   0  0  0  0  0  0  0  0  0  0  0  0
   -1.7916   -0.6586   -0.8977 H   0  0  0  0  0  0  0  0  0  0  0  0
    0.1064   -0.2370   -0.1361 C   0  0  1  0  0  0  0  0  0  0  0  0
    0.7850   -0.7534    0.5493 H   0  0  0  0  0  0  0  0  0  0  0  0
    0.7364   -0.3179   -1.5593 C   0  0  0  0  0  0  0  0  0  0  0  0
    1.2181    0.6358   -1.7913 H   0  0  0  0  0  0  0  0  0  0  0  0
    1.5257   -1.0733   -1.5137 H   0  0  0  0  0  0  0  0  0  0  0  0
   -0.1370   -0.6835   -2.7718 C   0  0  0  0  0  0  0  0  0  0  0  0
   -1.3952   -0.6499   -2.7070 O   0  5  0  0  0  0  0  0  0  0  0  0
    0.5035   -1.0220   -3.7956 O   0  0  0  0  0  0  0  0  0  0  0  0
    0.0482    1.2346    0.3387 C   0  0  0  0  0  0  0  0  0  0  0  0
   -0.8497    2.0029    0.0107 O   0  0  0  0  0  0  0  0  0  0  0  0
    1.0244    1.6979    1.2047 N   0  0  0  0  0  0  0  0  0  0  0  0
    1.7398    1.0365    1.4885 H   0  0  0  0  0  0  0  0  0  0  0  0
    1.0637    3.0561    1.7269 C   0  0  0  0  0  0  0  0  0  0  0  0
    0.1582    3.2707    2.3035 H   0  0  0  0  0  0  0  0  0  0  0  0
    1.9301    3.1807    2.3829 H   0  0  0  0  0  0  0  0  0  0  0  0
    1.1424    3.7783    0.9078 H   0  0  0  0  0  0  0  0  0  0  0  0
  1  2  1  0  0  0  0
  2  3  1  0  0  0  0
  2  4  1  0  0  0  0
  2  5  1  0  0  0  0
  5  6  2  0  0  0  0
  5  7  1  0  0  0  0
  7  8  1  0  0  0  0
  7  9  1  0  0  0  0
  9 10  1  0  0  0  0
  9 11  1  0  0  0  0
  9 17  1  0  0  0  0
 11 12  1  0  0  0  0
 11 13  1  0  0  0  0
 11 14  1  0  0  0  0
 14 15  1  0  0  0  0
 14 16  2  0  0  0  0
 17 18  2  0  0  0  0
 17 19  1  0  0  0  0
 19 20  1  0  0  0  0
 19 21  1  0  0  0  0
 21 22  1  0  0  0  0
 21 23  1  0  0  0  0
 21 24  1  0  0  0  0
M  CHG  1  15  -1
M  END
$$$$

  -OEChem-03222214023D

 24 23  0     1  0  0  0  0  0999 V2000
   -2.6117   -3.9203    0.3608 H   0  0  0  0  0  0  0  0  0  0  0  0
   -2.6416   -2.9011   -0.0333 C   0  0  0  0  0  0  0  0  0  0  0  0
   -3.5472   -2.4060    0.3249 H   0  0  0  0  0  0  0  0  0  0  0  0
   -2.6700   -2.9458   -1.1257 H   0  0  0  0  0  0  0  0  0  0  0  0
   -1.4162   -2.1258    0.4145 C   0  0  0  0  0  0  0  0  0  0  0  0
   -0.6504   -2.6150    1.2359 O   0  0  0  0  0  0  0  0  0  0  0  0
   -1.1987   -0.8668   -0.0943 N   0  0  0  0  0  0  0  0  0  0  0  0
   -1.7900   -0.6267   -0.9013 H   0  0  0  0  0  0  0  0  0  0  0  0
    0.1152   -0.2229   -0.1440 C   0  0  1  0  0  0  0  0  0  0  0  0
    0.7882   -0.7364    0.5489 H   0  0  0  0  0  0  0  0  0  0  0  0
    0.7496   -0.3268   -1.5611 C   0  0  0  0  0  0  0  0  0  0  0  0
    1.2149    0.6280   -1.8197 H   0  0  0  0  0  0  0  0  0  0  0  0
    1.5486   -1.0711   -1.5060 H   0  0  0  0  0  0  0  0  0  0  0  0
   -0.1538   -0.7242   -2.7383 C   0  0  0  0  0  0  0  0  0  0  0  0
   -1.3775   -0.4247   -2.7305 O   0  5  0  0  0  0  0  0  0  0  0  0
    0.4103   -1.3551   -3.6639 O   0  0  0  0  0  0  0  0  0  0  0  0
    0.0580    1.2496    0.3283 C   0  0  0  0  0  0  0  0  0  0  0  0
   -0.8462    2.0157    0.0138 O   0  0  0  0  0  0  0  0  0  0  0  0
    1.0321    1.7095    1.1987 N   0  0  0  0  0  0  0  0  0  0  0  0
    1.7456    1.0462    1.4828 H   0  0  0  0  0  0  0  0  0  0  0  0
    1.0589    3.0592    1.7431 C   0  0  0  0  0  0  0  0  0  0  0  0
    0.1488    3.2579    2.3181 H   0  0  0  0  0  0  0  0  0  0  0  0
    1.9208    3.1795    2.4059 H   0  0  0  0  0  0  0  0  0  0  0  0
    1.1369    3.7952    0.9364 H   0  0  0  0  0  0  0  0  0  0  0  0
  1  2  1  0  0  0  0
  2  3  1  0  0  0  0
  2  4  1  0  0  0  0
  2  5  1  0  0  0  0
  5  6  2  0  0  0  0
  5  7  1  0  0  0  0
  7  8  1  0  0  0  0
  7  9  1  0  0  0  0
  9 10  1  0  0  0  0
  9 11  1  0  0  0  0
  9 17  1  0  0  0  0
 11 12  1  0  0  0  0
 11 13  1  0  0  0  0
 11 14  1  0  0  0  0
 14 15  1  0  0  0  0
 14 16  2  0  0  0  0
 17 18  2  0  0  0  0
 17 19  1  0  0  0  0
 19 20  1  0  0  0  0
 19 21  1  0  0  0  0
 21 22  1  0  0  0  0
 21 23  1  0  0  0  0
 21 24  1  0  0  0  0
M  CHG  1  15  -1
M  END
$$$$

  -OEChem-03222214023D

 24 23  0     1  0  0  0  0  0999 V2000
   -2.6193   -3.9057    0.3533 H   0  0  0  0  0  0  0  0  0  0  0  0
   -2.6354   -2.8927   -0.0574 C   0  0  0  0  0  0  0  0  0  0  0  0
   -3.5378   -2.3821    0.2869 H   0  0  0  0  0  0  0  0  0  0  0  0
   -2.6566   -2.9553   -1.1491 H   0  0  0  0  0  0  0  0  0  0  0  0
   -1.4050   -2.1233    0.3869 C   0  0  0  0  0  0  0  0  0  0  0  0
   -0.6401   -2.6147    1.2077 O   0  0  0  0  0  0  0  0  0  0  0  0
   -1.1847   -0.8628   -0.1179 N   0  0  0  0  0  0  0  0  0  0  0  0
   -1.7887   -0.5966   -0.9060 H   0  0  0  0  0  0  0  0  0  0  0  0
    0.1266   -0.2101   -0.1548 C   0  0  1  0  0  0  0  0  0  0  0  0
    0.7934   -0.7207    0.5461 H   0  0  0  0  0  0  0  0  0  0  0  0
    0.7678   -0.3339   -1.5644 C   0  0  0  0  0  0  0  0  0  0  0  0
    1.2203    0.6196   -1.8485 H   0  0  0  0  0  0  0  0  0  0  0  0
    1.5730   -1.0716   -1.5056 H   0  0  0  0  0  0  0  0  0  0  0  0
   -0.1719   -0.7576   -2.6982 C   0  0  0  0  0  0  0  0  0  0  0  0
   -1.3049   -0.2179   -2.7877 O   0  5  0  0  0  0  0  0  0  0  0  0
    0.2474   -1.6531   -3.4697 O   0  0  0  0  0  0  0  0  0  0  0  0
    0.0675    1.2628    0.3157 C   0  0  0  0  0  0  0  0  0  0  0  0
   -0.8471    2.0233    0.0189 O   0  0  0  0  0  0  0  0  0  0  0  0
    1.0375    1.7191    1.1925 N   0  0  0  0  0  0  0  0  0  0  0  0
    1.7525    1.0560    1.4730 H   0  0  0  0  0  0  0  0  0  0  0  0
    1.0513    3.0604    1.7574 C   0  0  0  0  0  0  0  0  0  0  0  0
    0.1429    3.2389    2.3417 H   0  0  0  0  0  0  0  0  0  0  0  0
    1.9164    3.1814    2.4159 H   0  0  0  0  0  0  0  0  0  0  0  0
    1.1145    3.8091    0.9613 H   0  0  0  0  0  0  0  0  0  0  0  0
  1  2  1  0  0  0  0
  2  3  1  0  0  0  0
  2  4  1  0  0  0  0
  2  5  1  0  0  0  0
  5  6  2  0  0  0  0
  5  7  1  0  0  0  0
  7  8  1  0  0  0  0
  7  9  1  0  0  0  0
  9 10  1  0  0  0  0
  9 11  1  0  0  0  0
  9 17  1  0  0  0  0
 11 12  1  0  0  0  0
 11 13  1  0  0  0  0
 11 14  1  0  0  0  0
 14 15  1  0  0  0  0
 14 16  2  0  0  0  0
 17 18  2  0  0  0  0
 17 19  1  0  0  0  0
 19 20  1  0  0  0  0
 19 21  1  0  0  0  0
 21 22  1  0  0  0  0
 21 23  1  0  0  0  0
 21 24  1  0  0  0  0
M  CHG  1  15  -1
M  END
$$$$

  -OEChem-03222214023D

 24 23  0     1  0  0  0  0  0999 V2000
   -2.6390   -3.8778    0.3793 H   0  0  0  0  0  0  0  0  0  0  0  0
   -2.6213   -2.8871   -0.0824 C   0  0  0  0  0  0  0  0  0  0  0  0
   -3.5309   -2.3487    0.1939 H   0  0  0  0  0  0  0  0  0  0  0  0
   -2.5933   -3.0047   -1.1695 H   0  0  0  0  0  0  0  0  0  0  0  0
   -1.3995   -2.1125    0.3763 C   0  0  0  0  0  0  0  0  0  0  0  0
   -0.6455   -2.5970    1.2113 O   0  0  0  0  0  0  0  0  0  0  0  0
   -1.1758   -0.8531   -0.1312 N   0  0  0  0  0  0  0  0  0  0  0  0
   -1.7920   -0.5725   -0.9014 H   0  0  0  0  0  0  0  0  0  0  0  0
    0.1388   -0.2040   -0.1654 C   0  0  1  0  0  0  0  0  0  0  0  0
    0.8015   -0.7144    0.5397 H   0  0  0  0  0  0  0  0  0  0  0  0
    0.7800   -0.3433   -1.5716 C   0  0  0  0  0  0  0  0  0  0  0  0
    1.2338    0.6046   -1.8724 H   0  0  0  0  0  0  0  0  0  0  0  0
    1.5809   -1.0859   -1.5162 H   0  0  0  0  0  0  0  0  0  0  0  0
   -0.1936   -0.7746   -2.6680 C   0  0  0  0  0  0  0  0  0  0  0  0
   -1.1838   -0.0400   -2.9037 O   0  5  0  0  0  0  0  0  0  0  0  0
    0.0219   -1.8757   -3.2284 O   0  0  0  0  0  0  0  0  0  0  0  0
    0.0825    1.2702    0.3017 C   0  0  0  0  0  0  0  0  0  0  0  0
   -0.8469    2.0212    0.0271 O   0  0  0  0  0  0  0  0  0  0  0  0
    1.0506    1.7275    1.1804 N   0  0  0  0  0  0  0  0  0  0  0  0
    1.7692    1.0667    1.4569 H   0  0  0  0  0  0  0  0  0  0  0  0
    1.0437    3.0585    1.7699 C   0  0  0  0  0  0  0  0  0  0  0  0
    0.1480    3.2002    2.3832 H   0  0  0  0  0  0  0  0  0  0  0  0
    1.9240    3.1927    2.4050 H   0  0  0  0  0  0  0  0  0  0  0  0
    1.0623    3.8235    0.9869 H   0  0  0  0  0  0  0  0  0  0  0  0
  1  2  1  0  0  0  0
  2  3  1  0  0  0  0
  2  4  1  0  0  0  0
  2  5  1  0  0  0  0
  5  6  2  0  0  0  0
  5  7  1  0  0  0  0
  7  8  1  0  0  0  0
  7  9  1  0  0  0  0
  9 10  1  0  0  0  0
  9 11  1  0  0  0  0
  9 17  1  0  0  0  0
 11 12  1  0  0  0  0
 11 13  1  0  0  0  0
 11 14  1  0  0  0  0
 14 15  1  0  0  0  0
 14 16  2  0  0  0  0
 17 18  2  0  0  0  0
 17 19  1  0  0  0  0
 19 20  1  0  0  0  0
 19 21  1  0  0  0  0
 21 22  1  0  0  0  0
 21 23  1  0  0  0  0
 21 24  1  0  0  0  0
M  CHG  1  15  -1
M  END
$$$$

  -OEChem-03222214023D

 24 23  0     1  0  0  0  0  0999 V2000
   -2.6498   -3.8633    0.4090 H   0  0  0  0  0  0  0  0  0  0  0  0
   -2.6126   -2.8900   -0.0874 C   0  0  0  0  0  0  0  0  0  0  0  0
   -3.5244   -2.3355    0.1466 H   0  0  0  0  0  0  0  0  0  0  0  0
   -2.5583   -3.0473   -1.1686 H   0  0  0  0  0  0  0  0  0  0  0  0
   -1.3960   -2.1084    0.3732 C   0  0  0  0  0  0  0  0  0  0  0  0
   -0.6496   -2.5818    1.2216 O   0  0  0  0  0  0  0  0  0  0  0  0
   -1.1756   -0.8486   -0.1367 N   0  0  0  0  0  0  0  0  0  0  0  0
   -1.8001   -0.5685   -0.8963 H   0  0  0  0  0  0  0  0  0  0  0  0
    0.1432   -0.2059   -0.1710 C   0  0  1  0  0  0  0  0  0  0  0  0
    0.8050   -0.7178    0.5340 H   0  0  0  0  0  0  0  0  0  0  0  0
    0.7862   -0.3435   -1.5755 C   0  0  0  0  0  0  0  0  0  0  0  0
    1.2496    0.6008   -1.8737 H   0  0  0  0  0  0  0  0  0  0  0  0
    1.5797   -1.0943   -1.5269 H   0  0  0  0  0  0  0  0  0  0  0  0
   -0.1964   -0.7655   -2.6646 C   0  0  0  0  0  0  0  0  0  0  0  0
   -1.0043    0.0931   -3.0887 O   0  5  0  0  0  0  0  0  0  0  0  0
   -0.2030   -1.9740   -3.0022 O   0  0  0  0  0  0  0  0  0  0  0  0
    0.0860    1.2674    0.2972 C   0  0  0  0  0  0  0  0  0  0  0  0
   -0.8481    2.0138    0.0256 O   0  0  0  0  0  0  0  0  0  0  0  0
    1.0519    1.7252    1.1778 N   0  0  0  0  0  0  0  0  0  0  0  0
    1.7690    1.0641    1.4579 H   0  0  0  0  0  0  0  0  0  0  0  0
    1.0397    3.0543    1.7712 C   0  0  0  0  0  0  0  0  0  0  0  0
    0.1497    3.1862    2.3951 H   0  0  0  0  0  0  0  0  0  0  0  0
    1.9261    3.1949    2.3967 H   0  0  0  0  0  0  0  0  0  0  0  0
    1.0429    3.8214    0.9901 H   0  0  0  0  0  0  0  0  0  0  0  0
  1  2  1  0  0  0  0
  2  3  1  0  0  0  0
  2  4  1  0  0  0  0
  2  5  1  0  0  0  0
  5  6  2  0  0  0  0
  5  7  1  0  0  0  0
  7  8  1  0  0  0  0
  7  9  1  0  0  0  0
  9 10  1  0  0  0  0
  9 11  1  0  0  0  0
  9 17  1  0  0  0  0
 11 12  1  0  0  0  0
 11 13  1  0  0  0  0
 11 14  1  0  0  0  0
 14 15  1  0  0  0  0
 14 16  2  0  0  0  0
 17 18  2  0  0  0  0
 17 19  1  0  0  0  0
 19 20  1  0  0  0  0
 19 21  1  0  0  0  0
 21 22  1  0  0  0  0
 21 23  1  0  0  0  0
 21 24  1  0  0  0  0
M  CHG  1  15  -1
M  END
$$$$

  -OEChem-03222214023D

 24 23  0     1  0  0  0  0  0999 V2000
   -2.6073   -3.8967    0.3706 H   0  0  0  0  0  0  0  0  0  0  0  0
   -2.6146   -2.8985   -0.0747 C   0  0  0  0  0  0  0  0  0  0  0  0
   -3.5315   -2.3826    0.2194 H   0  0  0  0  0  0  0  0  0  0  0  0
   -2.5952   -2.9993   -1.1638 H   0  0  0  0  0  0  0  0  0  0  0  0
   -1.4030   -2.1080    0.3846 C   0  0  0  0  0  0  0  0  0  0  0  0
   -0.6682   -2.5661    1.2519 O   0  0  0  0  0  0  0  0  0  0  0  0
   -1.1854   -0.8495   -0.1314 N   0  0  0  0  0  0  0  0  0  0  0  0
   -1.7997   -0.5931   -0.9046 H   0  0  0  0  0  0  0  0  0  0  0  0
    0.1395   -0.2176   -0.1652 C   0  0  1  0  0  0  0  0  0  0  0  0
    0.8002   -0.7317    0.5388 H   0  0  0  0  0  0  0  0  0  0  0  0
    0.7867   -0.3422   -1.5696 C   0  0  0  0  0  0  0  0  0  0  0  0
    1.2674    0.5995   -1.8490 H   0  0  0  0  0  0  0  0  0  0  0  0
    1.5698   -1.1038   -1.5271 H   0  0  0  0  0  0  0  0  0  0  0  0
   -0.1838   -0.7417   -2.6777 C   0  0  0  0  0  0  0  0  0  0  0  0
   -0.7720    0.1748   -3.2957 O   0  5  0  0  0  0  0  0  0  0  0  0
   -0.4105   -1.9661   -2.8396 O   0  0  0  0  0  0  0  0  0  0  0  0
    0.0810    1.2560    0.3017 C   0  0  0  0  0  0  0  0  0  0  0  0
   -0.8497    2.0024    0.0177 O   0  0  0  0  0  0  0  0  0  0  0  0
    1.0427    1.7162    1.1857 N   0  0  0  0  0  0  0  0  0  0  0  0
    1.7628    1.0585    1.4658 H   0  0  0  0  0  0  0  0  0  0  0  0
    1.0422    3.0559    1.7547 C   0  0  0  0  0  0  0  0  0  0  0  0
    0.1333    3.2219    2.3419 H   0  0  0  0  0  0  0  0  0  0  0  0
    1.9076    3.1852    2.4111 H   0  0  0  0  0  0  0  0  0  0  0  0
    1.0943    3.8076    0.9605 H   0  0  0  0  0  0  0  0  0  0  0  0
  1  2  1  0  0  0  0
  2  3  1  0  0  0  0
  2  4  1  0  0  0  0
  2  5  1  0  0  0  0
  5  6  2  0  0  0  0
  5  7  1  0  0  0  0
  7  8  1  0  0  0  0
  7  9  1  0  0  0  0
  9 10  1  0  0  0  0
  9 11  1  0  0  0  0
  9 17  1  0  0  0  0
 11 12  1  0  0  0  0
 11 13  1  0  0  0  0
 11 14  1  0  0  0  0
 14 15  1  0  0  0  0
 14 16  2  0  0  0  0
 17 18  2  0  0  0  0
 17 19  1  0  0  0  0
 19 20  1  0  0  0  0
 19 21  1  0  0  0  0
 21 22  1  0  0  0  0
 21 23  1  0  0  0  0
 21 24  1  0  0  0  0
M  CHG  1  15  -1
M  END
$$$$

  -OEChem-03222214023D

 24 23  0     1  0  0  0  0  0999 V2000
   -2.6451   -3.8699    0.4654 H   0  0  0  0  0  0  0  0  0  0  0  0
   -2.6179   -2.9032   -0.0441 C   0  0  0  0  0  0  0  0  0  0  0  0
   -3.5357   -2.3552    0.1814 H   0  0  0  0  0  0  0  0  0  0  0  0
   -2.5620   -3.0756   -1.1228 H   0  0  0  0  0  0  0  0  0  0  0  0
   -1.4096   -2.1027    0.4074 C   0  0  0  0  0  0  0  0  0  0  0  0
   -0.6810   -2.5459    1.2882 O   0  0  0  0  0  0  0  0  0  0  0  0
   -1.1941   -0.8487   -0.1215 N   0  0  0  0  0  0  0  0  0  0  0  0
   -1.7845   -0.6365   -0.9254 H   0  0  0  0  0  0  0  0  0  0  0  0
    0.1385   -0.2324   -0.1629 C   0  0  1  0  0  0  0  0  0  0  0  0
    0.8024   -0.7490    0.5363 H   0  0  0  0  0  0  0  0  0  0  0  0
    0.7820   -0.3372   -1.5730 C   0  0  0  0  0  0  0  0  0  0  0  0
    1.2842    0.6010   -1.8270 H   0  0  0  0  0  0  0  0  0  0  0  0
    1.5516   -1.1125   -1.5425 H   0  0  0  0  0  0  0  0  0  0  0  0
   -0.1733   -0.7035   -2.7078 C   0  0  0  0  0  0  0  0  0  0  0  0
   -0.5147    0.2111   -3.4920 O   0  5  0  0  0  0  0  0  0  0  0  0
   -0.6188   -1.8777   -2.7509 O   0  0  0  0  0  0  0  0  0  0  0  0
    0.0812    1.2434    0.2974 C   0  0  0  0  0  0  0  0  0  0  0  0
   -0.8422    1.9924   -0.0040 O   0  0  0  0  0  0  0  0  0  0  0  0
    1.0420    1.7075    1.1800 N   0  0  0  0  0  0  0  0  0  0  0  0
    1.7532    1.0465    1.4747 H   0  0  0  0  0  0  0  0  0  0  0  0
    1.0359    3.0468    1.7499 C   0  0  0  0  0  0  0  0  0  0  0  0
    0.1358    3.2008    2.3537 H   0  0  0  0  0  0  0  0  0  0  0  0
    1.9117    3.1864    2.3903 H   0  0  0  0  0  0  0  0  0  0  0  0
    1.0641    3.8003    0.9561 H   0  0  0  0  0  0  0  0  0  0  0  0
  1  2  1  0  0  0  0
  2  3  1  0  0  0  0
  2  4  1  0  0  0  0
  2  5  1  0  0  0  0
  5  6  2  0  0  0  0
  5  7  1  0  0  0  0
  7  8  1  0  0  0  0
  7  9  1  0  0  0  0
  9 10  1  0  0  0  0
  9 11  1  0  0  0  0
  9 17  1  0  0  0  0
 11 12  1  0  0  0  0
 11 13  1  0  0  0  0
 11 14  1  0  0  0  0
 14 15  1  0  0  0  0
 14 16  2  0  0  0  0
 17 18  2  0  0  0  0
 17 19  1  0  0  0  0
 19 20  1  0  0  0  0
 19 21  1  0  0  0  0
 21 22  1  0  0  0  0
 21 23  1  0  0  0  0
 21 24  1  0  0  0  0
M  CHG  1  15  -1
M  END
$$$$

  -OEChem-03222214023D

 24 23  0     1  0  0  0  0  0999 V2000
   -2.6461   -3.8772    0.5023 H   0  0  0  0  0  0  0  0  0  0  0  0
   -2.6252   -2.9129   -0.0119 C   0  0  0  0  0  0  0  0  0  0  0  0
   -3.5442   -2.3676    0.2148 H   0  0  0  0  0  0  0  0  0  0  0  0
   -2.5738   -3.0906   -1.0897 H   0  0  0  0  0  0  0  0  0  0  0  0
   -1.4194   -2.1042    0.4328 C   0  0  0  0  0  0  0  0  0  0  0  0
   -0.6967   -2.5351    1.3246 O   0  0  0  0  0  0  0  0  0  0  0  0
   -1.2065   -0.8538   -0.1062 N   0  0  0  0  0  0  0  0  0  0  0  0
   -1.7591   -0.6971   -0.9503 H   0  0  0  0  0  0  0  0  0  0  0  0
    0.1321   -0.2511   -0.1520 C   0  0  1  0  0  0  0  0  0  0  0  0
    0.8002   -0.7703    0.5411 H   0  0  0  0  0  0  0  0  0  0  0  0
    0.7711   -0.3283   -1.5689 C   0  0  0  0  0  0  0  0  0  0  0  0
    1.2917    0.6082   -1.7914 H   0  0  0  0  0  0  0  0  0  0  0  0
    1.5303   -1.1138   -1.5523 H   0  0  0  0  0  0  0  0  0  0  0  0
   -0.1611   -0.6562   -2.7384 C   0  0  0  0  0  0  0  0  0  0  0  0
   -0.2428    0.1968   -3.6521 O   0  5  0  0  0  0  0  0  0  0  0  0
   -0.8230   -1.7250   -2.7074 O   0  0  0  0  0  0  0  0  0  0  0  0
    0.0733    1.2264    0.3043 C   0  0  0  0  0  0  0  0  0  0  0  0
   -0.8372    1.9813   -0.0213 O   0  0  0  0  0  0  0  0  0  0  0  0
    1.0315    1.6942    1.1876 N   0  0  0  0  0  0  0  0  0  0  0  0
    1.7406    1.0343    1.4895 H   0  0  0  0  0  0  0  0  0  0  0  0
    1.0380    3.0445    1.7306 C   0  0  0  0  0  0  0  0  0  0  0  0
    0.1296    3.2259    2.3141 H   0  0  0  0  0  0  0  0  0  0  0  0
    1.9039    3.1823    2.3846 H   0  0  0  0  0  0  0  0  0  0  0  0
    1.0943    3.7810    0.9225 H   0  0  0  0  0  0  0  0  0  0  0  0
  1  2  1  0  0  0  0
  2  3  1  0  0  0  0
  2  4  1  0  0  0  0
  2  5  1  0  0  0  0
  5  6  2  0  0  0  0
  5  7  1  0  0  0  0
  7  8  1  0  0  0  0
  7  9  1  0  0  0  0
  9 10  1  0  0  0  0
  9 11  1  0  0  0  0
  9 17  1  0  0  0  0
 11 12  1  0  0  0  0
 11 13  1  0  0  0  0
 11 14  1  0  0  0  0
 14 15  1  0  0  0  0
 14 16  2  0  0  0  0
 17 18  2  0  0  0  0
 17 19  1  0  0  0  0
 19 20  1  0  0  0  0
 19 21  1  0  0  0  0
 21 22  1  0  0  0  0
 21 23  1  0  0  0  0
 21 24  1  0  0  0  0
M  CHG  1  15  -1
M  END
$$$$

  -OEChem-03222214023D

 24 23  0     1  0  0  0  0  0999 V2000
   -2.6810   -3.8571    0.5724 H   0  0  0  0  0  0  0  0  0  0  0  0
   -2.6233   -2.9244    0.0054 C   0  0  0  0  0  0  0  0  0  0  0  0
   -3.5446   -2.3574    0.1580 H   0  0  0  0  0  0  0  0  0  0  0  0
   -2.5254   -3.1630   -1.0573 H   0  0  0  0  0  0  0  0  0  0  0  0
   -1.4285   -2.1038    0.4576 C   0  0  0  0  0  0  0  0  0  0  0  0
   -0.7038   -2.5308    1.3497 O   0  0  0  0  0  0  0  0  0  0  0  0
   -1.2202   -0.8549   -0.0857 N   0  0  0  0  0  0  0  0  0  0  0  0
   -1.7508   -0.7324   -0.9525 H   0  0  0  0  0  0  0  0  0  0  0  0
    0.1200   -0.2594   -0.1426 C   0  0  1  0  0  0  0  0  0  0  0  0
    0.7944   -0.7816    0.5422 H   0  0  0  0  0  0  0  0  0  0  0  0
    0.7492   -0.3195   -1.5676 C   0  0  0  0  0  0  0  0  0  0  0  0
    1.2757    0.6182   -1.7702 H   0  0  0  0  0  0  0  0  0  0  0  0
    1.5063   -1.1074   -1.5601 H   0  0  0  0  0  0  0  0  0  0  0  0
   -0.1601   -0.6241   -2.7663 C   0  0  0  0  0  0  0  0  0  0  0  0
    0.0045    0.0968   -3.7780 O   0  5  0  0  0  0  0  0  0  0  0  0
   -1.0198   -1.5396   -2.6856 O   0  0  0  0  0  0  0  0  0  0  0  0
    0.0644    1.2183    0.3145 C   0  0  0  0  0  0  0  0  0  0  0  0
   -0.8363    1.9798   -0.0234 O   0  0  0  0  0  0  0  0  0  0  0  0
    1.0279    1.6866    1.1918 N   0  0  0  0  0  0  0  0  0  0  0  0
    1.7342    1.0248    1.4962 H   0  0  0  0  0  0  0  0  0  0  0  0
    1.0480    3.0420    1.7218 C   0  0  0  0  0  0  0  0  0  0  0  0
    0.1497    3.2328    2.3177 H   0  0  0  0  0  0  0  0  0  0  0  0
    1.9248    3.1819    2.3609 H   0  0  0  0  0  0  0  0  0  0  0  0
    1.0950    3.7714    0.9066 H   0  0  0  0  0  0  0  0  0  0  0  0
  1  2  1  0  0  0  0
  2  3  1  0  0  0  0
  2  4  1  0  0  0  0
  2  5  1  0  0  0  0
  5  6  2  0  0  0  0
  5  7  1  0  0  0  0
  7  8  1  0  0  0  0
  7  9  1  0  0  0  0
  9 10  1  0  0  0  0
  9 11  1  0  0  0  0
  9 17  1  0  0  0  0
 11 12  1  0  0  0  0
 11 13  1  0  0  0  0
 11 14  1  0  0  0  0
 14 15  1  0  0  0  0
 14 16  2  0  0  0  0
 17 18  2  0  0  0  0
 17 19  1  0  0  0  0
 19 20  1  0  0  0  0
 19 21  1  0  0  0  0
 21 22  1  0  0  0  0
 21 23  1  0  0  0  0
 21 24  1  0  0  0  0
M  CHG  1  15  -1
M  END
$$$$

  -OEChem-03222214023D

 24 23  0     1  0  0  0  0  0999 V2000
   -2.6833   -3.8647    0.5779 H   0  0  0  0  0  0  0  0  0  0  0  0
   -2.6310   -2.9251    0.0218 C   0  0  0  0  0  0  0  0  0  0  0  0
   -3.5503   -2.3595    0.1914 H   0  0  0  0  0  0  0  0  0  0  0  0
   -2.5445   -3.1495   -1.0450 H   0  0  0  0  0  0  0  0  0  0  0  0
   -1.4315   -2.1100    0.4710 C   0  0  0  0  0  0  0  0  0  0  0  0
   -0.6962   -2.5469    1.3493 O   0  0  0  0  0  0  0  0  0  0  0  0
   -1.2244   -0.8607   -0.0698 N   0  0  0  0  0  0  0  0  0  0  0  0
   -1.7567   -0.7371   -0.9382 H   0  0  0  0  0  0  0  0  0  0  0  0
    0.1125   -0.2629   -0.1377 C   0  0  1  0  0  0  0  0  0  0  0  0
    0.7928   -0.7846    0.5420 H   0  0  0  0  0  0  0  0  0  0  0  0
    0.7362   -0.3146   -1.5675 C   0  0  0  0  0  0  0  0  0  0  0  0
    1.2593    0.6268   -1.7617 H   0  0  0  0  0  0  0  0  0  0  0  0
    1.4981   -1.0976   -1.5593 H   0  0  0  0  0  0  0  0  0  0  0  0
   -0.1489   -0.6147   -2.7889 C   0  0  0  0  0  0  0  0  0  0  0  0
    0.2306   -0.0903   -3.8625 O   0  5  0  0  0  0  0  0  0  0  0  0
   -1.1784   -1.3322   -2.6821 O   0  0  0  0  0  0  0  0  0  0  0  0
    0.0558    1.2137    0.3233 C   0  0  0  0  0  0  0  0  0  0  0  0
   -0.8421    1.9774   -0.0177 O   0  0  0  0  0  0  0  0  0  0  0  0
    1.0250    1.6834    1.1934 N   0  0  0  0  0  0  0  0  0  0  0  0
    1.7378    1.0242    1.4882 H   0  0  0  0  0  0  0  0  0  0  0  0
    1.0523    3.0416    1.7155 C   0  0  0  0  0  0  0  0  0  0  0  0
    0.1519    3.2430    2.3049 H   0  0  0  0  0  0  0  0  0  0  0  0
    1.9260    3.1787    2.3592 H   0  0  0  0  0  0  0  0  0  0  0  0
    1.1095    3.7649    0.8956 H   0  0  0  0  0  0  0  0  0  0  0  0
  1  2  1  0  0  0  0
  2  3  1  0  0  0  0
  2  4  1  0  0  0  0
  2  5  1  0  0  0  0
  5  6  2  0  0  0  0
  5  7  1  0  0  0  0
  7  8  1  0  0  0  0
  7  9  1  0  0  0  0
  9 10  1  0  0  0  0
  9 11  1  0  0  0  0
  9 17  1  0  0  0  0
 11 12  1  0  0  0  0
 11 13  1  0  0  0  0
 11 14  1  0  0  0  0
 14 15  1  0  0  0  0
 14 16  2  0  0  0  0
 17 18  2  0  0  0  0
 17 19  1  0  0  0  0
 19 20  1  0  0  0  0
 19 21  1  0  0  0  0
 21 22  1  0  0  0  0
 21 23  1  0  0  0  0
 21 24  1  0  0  0  0
M  CHG  1  15  -1
M  END
$$$$

  -OEChem-03222214023D

 24 23  0     1  0  0  0  0  0999 V2000
   -2.6530   -3.8926    0.5258 H   0  0  0  0  0  0  0  0  0  0  0  0
   -2.6348   -2.9232    0.0212 C   0  0  0  0  0  0  0  0  0  0  0  0
   -3.5558   -2.3830    0.2527 H   0  0  0  0  0  0  0  0  0  0  0  0
   -2.5820   -3.0876   -1.0587 H   0  0  0  0  0  0  0  0  0  0  0  0
   -1.4333   -2.1134    0.4735 C   0  0  0  0  0  0  0  0  0  0  0  0
   -0.6856   -2.5637    1.3341 O   0  0  0  0  0  0  0  0  0  0  0  0
   -1.2269   -0.8619   -0.0605 N   0  0  0  0  0  0  0  0  0  0  0  0
   -1.7756   -0.7144   -0.9165 H   0  0  0  0  0  0  0  0  0  0  0  0
    0.1043   -0.2562   -0.1349 C   0  0  1  0  0  0  0  0  0  0  0  0
    0.7875   -0.7763    0.5426 H   0  0  0  0  0  0  0  0  0  0  0  0
    0.7253   -0.3145   -1.5659 C   0  0  0  0  0  0  0  0  0  0  0  0
    1.2394    0.6303   -1.7671 H   0  0  0  0  0  0  0  0  0  0  0  0
    1.4949   -1.0902   -1.5472 H   0  0  0  0  0  0  0  0  0  0  0  0
   -0.1423   -0.6292   -2.7980 C   0  0  0  0  0  0  0  0  0  0  0  0
    0.3993   -0.3601   -3.8965 O   0  5  0  0  0  0  0  0  0  0  0  0
   -1.3020   -1.1093   -2.6853 O   0  0  0  0  0  0  0  0  0  0  0  0
    0.0495    1.2184    0.3311 C   0  0  0  0  0  0  0  0  0  0  0  0
   -0.8425    1.9872   -0.0130 O   0  0  0  0  0  0  0  0  0  0  0  0
    1.0254    1.6858    1.1948 N   0  0  0  0  0  0  0  0  0  0  0  0
    1.7308    1.0211    1.4951 H   0  0  0  0  0  0  0  0  0  0  0  0
    1.0607    3.0447    1.7153 C   0  0  0  0  0  0  0  0  0  0  0  0
    0.1619    3.2518    2.3049 H   0  0  0  0  0  0  0  0  0  0  0  0
    1.9356    3.1776    2.3583 H   0  0  0  0  0  0  0  0  0  0  0  0
    1.1213    3.7667    0.8945 H   0  0  0  0  0  0  0  0  0  0  0  0
  1  2  1  0  0  0  0
  2  3  1  0  0  0  0
  2  4  1  0  0  0  0
  2  5  1  0  0  0  0
  5  6  2  0  0  0  0
  5  7  1  0  0  0  0
  7  8  1  0  0  0  0
  7  9  1  0  0  0  0
  9 10  1  0  0  0  0
  9 11  1  0  0  0  0
  9 17  1  0  0  0  0
 11 12  1  0  0  0  0
 11 13  1  0  0  0  0
 11 14  1  0  0  0  0
 14 15  1  0  0  0  0
 14 16  2  0  0  0  0
 17 18  2  0  0  0  0
 17 19  1  0  0  0  0
 19 20  1  0  0  0  0
 19 21  1  0  0  0  0
 21 22  1  0  0  0  0
 21 23  1  0  0  0  0
 21 24  1  0  0  0  0
M  CHG  1  15  -1
M  END
$$$$

  -OEChem-03222214023D

 24 23  0     1  0  0  0  0  0999 V2000
   -2.6348   -3.9131    0.3873 H   0  0  0  0  0  0  0  0  0  0  0  0
   -2.6584   -2.8922   -0.0025 C   0  0  0  0  0  0  0  0  0  0  0  0
   -3.5428   -2.3823    0.3865 H   0  0  0  0  0  0  0  0  0  0  0  0
   -2.7227   -2.9315   -1.0936 H   0  0  0  0  0  0  0  0  0  0  0  0
   -1.4064   -2.1397    0.4095 C   0  0  0  0  0  0  0  0  0  0  0  0
   -0.6161   -2.6526    1.1925 O   0  0  0  0  0  0  0  0  0  0  0  0
   -1.1915   -0.8775   -0.0912 N   0  0  0  0  0  0  0  0  0  0  0  0
   -1.7941   -0.6258   -0.8864 H   0  0  0  0  0  0  0  0  0  0  0  0
    0.1182   -0.2281   -0.1444 C   0  0  1  0  0  0  0  0  0  0  0  0
    0.8027   -0.7407    0.5375 H   0  0  0  0  0  0  0  0  0  0  0  0
    0.7398   -0.3048   -1.5661 C   0  0  0  0  0  0  0  0  0  0  0  0
    1.4386    0.5264   -1.6939 H   0  0  0  0  0  0  0  0  0  0  0  0
    1.3282   -1.2250   -1.6091 H   0  0  0  0  0  0  0  0  0  0  0  0
   -0.1768   -0.3361   -2.8006 C   0  0  0  0  0  0  0  0  0  0  0  0
    0.4300   -0.3979   -3.8966 O   0  5  0  0  0  0  0  0  0  0  0  0
   -1.4314   -0.3685   -2.6862 O   0  0  0  0  0  0  0  0  0  0  0  0
    0.0497    1.2405    0.3385 C   0  0  0  0  0  0  0  0  0  0  0  0
   -0.8688    1.9964    0.0421 O   0  0  0  0  0  0  0  0  0  0  0  0
    1.0230    1.7040    1.2079 N   0  0  0  0  0  0  0  0  0  0  0  0
    1.7593    1.0545    1.4640 H   0  0  0  0  0  0  0  0  0  0  0  0
    1.0498    3.0569    1.7443 C   0  0  0  0  0  0  0  0  0  0  0  0
    0.1422    3.2580    2.3226 H   0  0  0  0  0  0  0  0  0  0  0  0
    1.9145    3.1827    2.4024 H   0  0  0  0  0  0  0  0  0  0  0  0
    1.1225    3.7880    0.9326 H   0  0  0  0  0  0  0  0  0  0  0  0
  1  2  1  0  0  0  0
  2  3  1  0  0  0  0
  2  4  1  0  0  0  0
  2  5  1  0  0  0  0
  5  6  2  0  0  0  0
  5  7  1  0  0  0  0
  7  8  1  0  0  0  0
  7  9  1  0  0  0  0
  9 10  1  0  0  0  0
  9 11  1  0  0  0  0
  9 17  1  0  0  0  0
 11 12  1  0  0  0  0
 11 13  1  0  0  0  0
 11 14  1  0  0  0  0
 14 15  1  0  0  0  0
 14 16  2  0  0  0  0
 17 18  2  0  0  0  0
 17 19  1  0  0  0  0
 19 20  1  0  0  0  0
 19 21  1  0  0  0  0
 21 22  1  0  0  0  0
 21 23  1  0  0  0  0
 21 24  1  0  0  0  0
M  CHG  1  15  -1
M  END
$$$$

  -OEChem-03222214023D

 24 23  0     1  0  0  0  0  0999 V2000
   -2.6342   -3.9039    0.3651 H   0  0  0  0  0  0  0  0  0  0  0  0
   -2.6580   -2.8807   -0.0189 C   0  0  0  0  0  0  0  0  0  0  0  0
   -3.5379   -2.3704    0.3801 H   0  0  0  0  0  0  0  0  0  0  0  0
   -2.7313   -2.9141   -1.1095 H   0  0  0  0  0  0  0  0  0  0  0  0
   -1.3999   -2.1349    0.3874 C   0  0  0  0  0  0  0  0  0  0  0  0
   -0.6057   -2.6558    1.1609 O   0  0  0  0  0  0  0  0  0  0  0  0
   -1.1824   -0.8708   -0.1073 N   0  0  0  0  0  0  0  0  0  0  0  0
   -1.7983   -0.5909   -0.8828 H   0  0  0  0  0  0  0  0  0  0  0  0
    0.1226   -0.2116   -0.1531 C   0  0  1  0  0  0  0  0  0  0  0  0
    0.8024   -0.7213    0.5358 H   0  0  0  0  0  0  0  0  0  0  0  0
    0.7493   -0.3108   -1.5695 C   0  0  0  0  0  0  0  0  0  0  0  0
    1.4412    0.5223   -1.7188 H   0  0  0  0  0  0  0  0  0  0  0  0
    1.3429   -1.2288   -1.5935 H   0  0  0  0  0  0  0  0  0  0  0  0
   -0.1828   -0.3705   -2.7900 C   0  0  0  0  0  0  0  0  0  0  0  0
    0.3677   -0.7406   -3.8546 O   0  5  0  0  0  0  0  0  0  0  0  0
   -1.4176   -0.1505   -2.6739 O   0  0  0  0  0  0  0  0  0  0  0  0
    0.0563    1.2574    0.3300 C   0  0  0  0  0  0  0  0  0  0  0  0
   -0.8695    2.0117    0.0539 O   0  0  0  0  0  0  0  0  0  0  0  0
    1.0313    1.7151    1.2010 N   0  0  0  0  0  0  0  0  0  0  0  0
    1.7660    1.0627    1.4540 H   0  0  0  0  0  0  0  0  0  0  0  0
    1.0486    3.0578    1.7631 C   0  0  0  0  0  0  0  0  0  0  0  0
    0.1380    3.2419    2.3423 H   0  0  0  0  0  0  0  0  0  0  0  0
    1.9105    3.1761    2.4261 H   0  0  0  0  0  0  0  0  0  0  0  0
    1.1195    3.8045    0.9656 H   0  0  0  0  0  0  0  0  0  0  0  0
  1  2  1  0  0  0  0
  2  3  1  0  0  0  0
  2  4  1  0  0  0  0
  2  5  1  0  0  0  0
  5  6  2  0  0  0  0
  5  7  1  0  0  0  0
  7  8  1  0  0  0  0
  7  9  1  0  0  0  0
  9 10  1  0  0  0  0
  9 11  1  0  0  0  0
  9 17  1  0  0  0  0
 11 12  1  0  0  0  0
 11 13  1  0  0  0  0
 11 14  1  0  0  0  0
 14 15  1  0  0  0  0
 14 16  2  0  0  0  0
 17 18  2  0  0  0  0
 17 19  1  0  0  0  0
 19 20  1  0  0  0  0
 19 21  1  0  0  0  0
 21 22  1  0  0  0  0
 21 23  1  0  0  0  0
 21 24  1  0  0  0  0
M  CHG  1  15  -1
M  END
$$$$

  -OEChem-03222214023D

 24 23  0     1  0  0  0  0  0999 V2000
   -2.6398   -3.8910    0.3475 H   0  0  0  0  0  0  0  0  0  0  0  0
   -2.6560   -2.8702   -0.0434 C   0  0  0  0  0  0  0  0  0  0  0  0
   -3.5354   -2.3527    0.3473 H   0  0  0  0  0  0  0  0  0  0  0  0
   -2.7237   -2.9111   -1.1341 H   0  0  0  0  0  0  0  0  0  0  0  0
   -1.3960   -2.1286    0.3650 C   0  0  0  0  0  0  0  0  0  0  0  0
   -0.6033   -2.6529    1.1374 O   0  0  0  0  0  0  0  0  0  0  0  0
   -1.1741   -0.8636   -0.1261 N   0  0  0  0  0  0  0  0  0  0  0  0
   -1.7991   -0.5609   -0.8847 H   0  0  0  0  0  0  0  0  0  0  0  0
    0.1281   -0.1972   -0.1611 C   0  0  1  0  0  0  0  0  0  0  0  0
    0.8005   -0.7042    0.5369 H   0  0  0  0  0  0  0  0  0  0  0  0
    0.7641   -0.3187   -1.5693 C   0  0  0  0  0  0  0  0  0  0  0  0
    1.4490    0.5160   -1.7380 H   0  0  0  0  0  0  0  0  0  0  0  0
    1.3637   -1.2334   -1.5760 H   0  0  0  0  0  0  0  0  0  0  0  0
   -0.1878   -0.4026   -2.7704 C   0  0  0  0  0  0  0  0  0  0  0  0
    0.2416   -1.0538   -3.7527 O   0  5  0  0  0  0  0  0  0  0  0  0
   -1.3601    0.0454   -2.6797 O   0  0  0  0  0  0  0  0  0  0  0  0
    0.0648    1.2730    0.3195 C   0  0  0  0  0  0  0  0  0  0  0  0
   -0.8713    2.0229    0.0679 O   0  0  0  0  0  0  0  0  0  0  0  0
    1.0388    1.7254    1.1944 N   0  0  0  0  0  0  0  0  0  0  0  0
    1.7739    1.0717    1.4428 H   0  0  0  0  0  0  0  0  0  0  0  0
    1.0474    3.0596    1.7766 C   0  0  0  0  0  0  0  0  0  0  0  0
    0.1453    3.2217    2.3752 H   0  0  0  0  0  0  0  0  0  0  0  0
    1.9201    3.1805    2.4250 H   0  0  0  0  0  0  0  0  0  0  0  0
    1.0925    3.8194    0.9896 H   0  0  0  0  0  0  0  0  0  0  0  0
  1  2  1  0  0  0  0
  2  3  1  0  0  0  0
  2  4  1  0  0  0  0
  2  5  1  0  0  0  0
  5  6  2  0  0  0  0
  5  7  1  0  0  0  0
  7  8  1  0  0  0  0
  7  9  1  0  0  0  0
  9 10  1  0  0  0  0
  9 11  1  0  0  0  0
  9 17  1  0  0  0  0
 11 12  1  0  0  0  0
 11 13  1  0  0  0  0
 11 14  1  0  0  0  0
 14 15  1  0  0  0  0
 14 16  2  0  0  0  0
 17 18  2  0  0  0  0
 17 19  1  0  0  0  0
 19 20  1  0  0  0  0
 19 21  1  0  0  0  0
 21 22  1  0  0  0  0
 21 23  1  0  0  0  0
 21 24  1  0  0  0  0
M  CHG  1  15  -1
M  END
$$$$

  -OEChem-03222214023D

 24 23  0     1  0  0  0  0  0999 V2000
   -2.6612   -3.8578    0.3656 H   0  0  0  0  0  0  0  0  0  0  0  0
   -2.6511   -2.8529   -0.0644 C   0  0  0  0  0  0  0  0  0  0  0  0
   -3.5315   -2.3077    0.2839 H   0  0  0  0  0  0  0  0  0  0  0  0
   -2.6912   -2.9347   -1.1541 H   0  0  0  0  0  0  0  0  0  0  0  0
   -1.3896   -2.1158    0.3466 C   0  0  0  0  0  0  0  0  0  0  0  0
   -0.6013   -2.6406    1.1233 O   0  0  0  0  0  0  0  0  0  0  0  0
   -1.1626   -0.8521   -0.1460 N   0  0  0  0  0  0  0  0  0  0  0  0
   -1.7967   -0.5338   -0.8884 H   0  0  0  0  0  0  0  0  0  0  0  0
    0.1398   -0.1851   -0.1754 C   0  0  1  0  0  0  0  0  0  0  0  0
    0.8042   -0.6889    0.5325 H   0  0  0  0  0  0  0  0  0  0  0  0
    0.7835   -0.3343   -1.5758 C   0  0  0  0  0  0  0  0  0  0  0  0
    1.4639    0.4994   -1.7656 H   0  0  0  0  0  0  0  0  0  0  0  0
    1.3849   -1.2479   -1.5679 H   0  0  0  0  0  0  0  0  0  0  0  0
   -0.1929   -0.4381   -2.7525 C   0  0  0  0  0  0  0  0  0  0  0  0
    0.0605   -1.3258   -3.6018 O   0  5  0  0  0  0  0  0  0  0  0  0
   -1.2615    0.2215   -2.7213 O   0  0  0  0  0  0  0  0  0  0  0  0
    0.0785    1.2873    0.3001 C   0  0  0  0  0  0  0  0  0  0  0  0
   -0.8730    2.0272    0.0782 O   0  0  0  0  0  0  0  0  0  0  0  0
    1.0514    1.7373    1.1778 N   0  0  0  0  0  0  0  0  0  0  0  0
    1.7857    1.0825    1.4255 H   0  0  0  0  0  0  0  0  0  0  0  0
    1.0374    3.0558    1.7947 C   0  0  0  0  0  0  0  0  0  0  0  0
    0.1537    3.1710    2.4304 H   0  0  0  0  0  0  0  0  0  0  0  0
    1.9298    3.1910    2.4126 H   0  0  0  0  0  0  0  0  0  0  0  0
    1.0268    3.8366    1.0273 H   0  0  0  0  0  0  0  0  0  0  0  0
  1  2  1  0  0  0  0
  2  3  1  0  0  0  0
  2  4  1  0  0  0  0
  2  5  1  0  0  0  0
  5  6  2  0  0  0  0
  5  7  1  0  0  0  0
  7  8  1  0  0  0  0
  7  9  1  0  0  0  0
  9 10  1  0  0  0  0
  9 11  1  0  0  0  0
  9 17  1  0  0  0  0
 11 12  1  0  0  0  0
 11 13  1  0  0  0  0
 11 14  1  0  0  0  0
 14 15  1  0  0  0  0
 14 16  2  0  0  0  0
 17 18  2  0  0  0  0
 17 19  1  0  0  0  0
 19 20  1  0  0  0  0
 19 21  1  0  0  0  0
 21 22  1  0  0  0  0
 21 23  1  0  0  0  0
 21 24  1  0  0  0  0
M  CHG  1  15  -1
M  END
$$$$

  -OEChem-03222214023D

 24 23  0     1  0  0  0  0  0999 V2000
   -2.6486   -3.8593    0.3368 H   0  0  0  0  0  0  0  0  0  0  0  0
   -2.6466   -2.8482   -0.0790 C   0  0  0  0  0  0  0  0  0  0  0  0
   -3.5283   -2.3129    0.2811 H   0  0  0  0  0  0  0  0  0  0  0  0
   -2.6915   -2.9156   -1.1697 H   0  0  0  0  0  0  0  0  0  0  0  0
   -1.3874   -2.1090    0.3353 C   0  0  0  0  0  0  0  0  0  0  0  0
   -0.6046   -2.6290    1.1209 O   0  0  0  0  0  0  0  0  0  0  0  0
   -1.1601   -0.8458   -0.1597 N   0  0  0  0  0  0  0  0  0  0  0  0
   -1.8053   -0.5196   -0.8853 H   0  0  0  0  0  0  0  0  0  0  0  0
    0.1442   -0.1799   -0.1840 C   0  0  1  0  0  0  0  0  0  0  0  0
    0.8015   -0.6804    0.5330 H   0  0  0  0  0  0  0  0  0  0  0  0
    0.8001   -0.3471   -1.5749 C   0  0  0  0  0  0  0  0  0  0  0  0
    1.4771    0.4868   -1.7759 H   0  0  0  0  0  0  0  0  0  0  0  0
    1.4029   -1.2597   -1.5587 H   0  0  0  0  0  0  0  0  0  0  0  0
   -0.1916   -0.4614   -2.7330 C   0  0  0  0  0  0  0  0  0  0  0  0
   -0.1433   -1.5154   -3.4117 O   0  5  0  0  0  0  0  0  0  0  0  0
   -1.1057    0.3920   -2.8218 O   0  0  0  0  0  0  0  0  0  0  0  0
    0.0826    1.2935    0.2879 C   0  0  0  0  0  0  0  0  0  0  0  0
   -0.8844    2.0208    0.0916 O   0  0  0  0  0  0  0  0  0  0  0  0
    1.0534    1.7418    1.1689 N   0  0  0  0  0  0  0  0  0  0  0  0
    1.7987    1.0934    1.3999 H   0  0  0  0  0  0  0  0  0  0  0  0
    1.0338    3.0550    1.7964 C   0  0  0  0  0  0  0  0  0  0  0  0
    0.1457    3.1642    2.4271 H   0  0  0  0  0  0  0  0  0  0  0  0
    1.9218    3.1857    2.4216 H   0  0  0  0  0  0  0  0  0  0  0  0
    1.0275    3.8419    1.0352 H   0  0  0  0  0  0  0  0  0  0  0  0
  1  2  1  0  0  0  0
  2  3  1  0  0  0  0
  2  4  1  0  0  0  0
  2  5  1  0  0  0  0
  5  6  2  0  0  0  0
  5  7  1  0  0  0  0
  7  8  1  0  0  0  0
  7  9  1  0  0  0  0
  9 10  1  0  0  0  0
  9 11  1  0  0  0  0
  9 17  1  0  0  0  0
 11 12  1  0  0  0  0
 11 13  1  0  0  0  0
 11 14  1  0  0  0  0
 14 15  1  0  0  0  0
 14 16  2  0  0  0  0
 17 18  2  0  0  0  0
 17 19  1  0  0  0  0
 19 20  1  0  0  0  0
 19 21  1  0  0  0  0
 21 22  1  0  0  0  0
 21 23  1  0  0  0  0
 21 24  1  0  0  0  0
M  CHG  1  15  -1
M  END
$$$$

  -OEChem-03222214023D

 24 23  0     1  0  0  0  0  0999 V2000
   -2.6648   -3.8477    0.3696 H   0  0  0  0  0  0  0  0  0  0  0  0
   -2.6511   -2.8459   -0.0677 C   0  0  0  0  0  0  0  0  0  0  0  0
   -3.5291   -2.2944    0.2768 H   0  0  0  0  0  0  0  0  0  0  0  0
   -2.6911   -2.9363   -1.1570 H   0  0  0  0  0  0  0  0  0  0  0  0
   -1.3860   -2.1109    0.3363 C   0  0  0  0  0  0  0  0  0  0  0  0
   -0.6042   -2.6291    1.1243 O   0  0  0  0  0  0  0  0  0  0  0  0
   -1.1556   -0.8498   -0.1644 N   0  0  0  0  0  0  0  0  0  0  0  0
   -1.8116   -0.5221   -0.8753 H   0  0  0  0  0  0  0  0  0  0  0  0
    0.1552   -0.1932   -0.1883 C   0  0  1  0  0  0  0  0  0  0  0  0
    0.8107   -0.6940    0.5300 H   0  0  0  0  0  0  0  0  0  0  0  0
    0.8144   -0.3564   -1.5767 C   0  0  0  0  0  0  0  0  0  0  0  0
    1.4975    0.4741   -1.7719 H   0  0  0  0  0  0  0  0  0  0  0  0
    1.4099   -1.2735   -1.5723 H   0  0  0  0  0  0  0  0  0  0  0  0
   -0.1866   -0.4534   -2.7241 C   0  0  0  0  0  0  0  0  0  0  0  0
   -0.3711   -1.5872   -3.2300 O   0  5  0  0  0  0  0  0  0  0  0  0
   -0.8505    0.5674   -3.0139 O   0  0  0  0  0  0  0  0  0  0  0  0
    0.0862    1.2805    0.2812 C   0  0  0  0  0  0  0  0  0  0  0  0
   -0.8957    1.9909    0.0950 O   0  0  0  0  0  0  0  0  0  0  0  0
    1.0493    1.7363    1.1665 N   0  0  0  0  0  0  0  0  0  0  0  0
    1.8104    1.1020    1.3847 H   0  0  0  0  0  0  0  0  0  0  0  0
    1.0185    3.0509    1.7909 C   0  0  0  0  0  0  0  0  0  0  0  0
    0.1304    3.1536    2.4229 H   0  0  0  0  0  0  0  0  0  0  0  0
    1.9064    3.1908    2.4143 H   0  0  0  0  0  0  0  0  0  0  0  0
    1.0042    3.8359    1.0278 H   0  0  0  0  0  0  0  0  0  0  0  0
  1  2  1  0  0  0  0
  2  3  1  0  0  0  0
  2  4  1  0  0  0  0
  2  5  1  0  0  0  0
  5  6  2  0  0  0  0
  5  7  1  0  0  0  0
  7  8  1  0  0  0  0
  7  9  1  0  0  0  0
  9 10  1  0  0  0  0
  9 11  1  0  0  0  0
  9 17  1  0  0  0  0
 11 12  1  0  0  0  0
 11 13  1  0  0  0  0
 11 14  1  0  0  0  0
 14 15  1  0  0  0  0
 14 16  2  0  0  0  0
 17 18  2  0  0  0  0
 17 19  1  0  0  0  0
 19 20  1  0  0  0  0
 19 21  1  0  0  0  0
 21 22  1  0  0  0  0
 21 23  1  0  0  0  0
 21 24  1  0  0  0  0
M  CHG  1  15  -1
M  END
$$$$

  -OEChem-03222214023D

 24 23  0     1  0  0  0  0  0999 V2000
   -2.6670   -3.8450    0.4112 H   0  0  0  0  0  0  0  0  0  0  0  0
   -2.6393   -2.8594   -0.0609 C   0  0  0  0  0  0  0  0  0  0  0  0
   -3.5317   -2.3002    0.2299 H   0  0  0  0  0  0  0  0  0  0  0  0
   -2.6374   -2.9881   -1.1472 H   0  0  0  0  0  0  0  0  0  0  0  0
   -1.3924   -2.1052    0.3636 C   0  0  0  0  0  0  0  0  0  0  0  0
   -0.6256   -2.6040    1.1788 O   0  0  0  0  0  0  0  0  0  0  0  0
   -1.1636   -0.8484   -0.1494 N   0  0  0  0  0  0  0  0  0  0  0  0
   -1.7968   -0.5655   -0.8975 H   0  0  0  0  0  0  0  0  0  0  0  0
    0.1578   -0.2100   -0.1780 C   0  0  1  0  0  0  0  0  0  0  0  0
    0.8180   -0.7158    0.5326 H   0  0  0  0  0  0  0  0  0  0  0  0
    0.8007   -0.3566   -1.5765 C   0  0  0  0  0  0  0  0  0  0  0  0
    1.5004    0.4635   -1.7589 H   0  0  0  0  0  0  0  0  0  0  0  0
    1.3759   -1.2861   -1.5984 H   0  0  0  0  0  0  0  0  0  0  0  0
   -0.2103   -0.4143   -2.7172 C   0  0  0  0  0  0  0  0  0  0  0  0
   -0.6407   -1.5456   -3.0538 O   0  5  0  0  0  0  0  0  0  0  0  0
   -0.5679    0.6656   -3.2390 O   0  0  0  0  0  0  0  0  0  0  0  0
    0.0913    1.2652    0.2856 C   0  0  0  0  0  0  0  0  0  0  0  0
   -0.8795    1.9812    0.0650 O   0  0  0  0  0  0  0  0  0  0  0  0
    1.0497    1.7279    1.1723 N   0  0  0  0  0  0  0  0  0  0  0  0
    1.8037    1.0919    1.4087 H   0  0  0  0  0  0  0  0  0  0  0  0
    1.0174    3.0497    1.7812 C   0  0  0  0  0  0  0  0  0  0  0  0
    0.1246    3.1618    2.4046 H   0  0  0  0  0  0  0  0  0  0  0  0
    1.9003    3.1951    2.4104 H   0  0  0  0  0  0  0  0  0  0  0  0
    1.0109    3.8261    1.0094 H   0  0  0  0  0  0  0  0  0  0  0  0
  1  2  1  0  0  0  0
  2  3  1  0  0  0  0
  2  4  1  0  0  0  0
  2  5  1  0  0  0  0
  5  6  2  0  0  0  0
  5  7  1  0  0  0  0
  7  8  1  0  0  0  0
  7  9  1  0  0  0  0
  9 10  1  0  0  0  0
  9 11  1  0  0  0  0
  9 17  1  0  0  0  0
 11 12  1  0  0  0  0
 11 13  1  0  0  0  0
 11 14  1  0  0  0  0
 14 15  1  0  0  0  0
 14 16  2  0  0  0  0
 17 18  2  0  0  0  0
 17 19  1  0  0  0  0
 19 20  1  0  0  0  0
 19 21  1  0  0  0  0
 21 22  1  0  0  0  0
 21 23  1  0  0  0  0
 21 24  1  0  0  0  0
M  CHG  1  15  -1
M  END
$$$$

  -OEChem-03222214023D

 24 23  0     1  0  0  0  0  0999 V2000
   -2.6105   -3.8914    0.3762 H   0  0  0  0  0  0  0  0  0  0  0  0
   -2.6201   -2.8908   -0.0635 C   0  0  0  0  0  0  0  0  0  0  0  0
   -3.5392   -2.3799    0.2325 H   0  0  0  0  0  0  0  0  0  0  0  0
   -2.6003   -2.9849   -1.1530 H   0  0  0  0  0  0  0  0  0  0  0  0
   -1.4127   -2.0975    0.4024 C   0  0  0  0  0  0  0  0  0  0  0  0
   -0.6741   -2.5623    1.2627 O   0  0  0  0  0  0  0  0  0  0  0  0
   -1.1893   -0.8452   -0.1241 N   0  0  0  0  0  0  0  0  0  0  0  0
   -1.7637   -0.6456   -0.9451 H   0  0  0  0  0  0  0  0  0  0  0  0
    0.1429   -0.2269   -0.1527 C   0  0  1  0  0  0  0  0  0  0  0  0
    0.8072   -0.7412    0.5478 H   0  0  0  0  0  0  0  0  0  0  0  0
    0.7712   -0.3440   -1.5632 C   0  0  0  0  0  0  0  0  0  0  0  0
    1.4901    0.4649   -1.7217 H   0  0  0  0  0  0  0  0  0  0  0  0
    1.3253   -1.2848   -1.6155 H   0  0  0  0  0  0  0  0  0  0  0  0
   -0.2366   -0.3532   -2.7112 C   0  0  0  0  0  0  0  0  0  0  0  0
   -0.9021   -1.4041   -2.8990 O   0  5  0  0  0  0  0  0  0  0  0  0
   -0.3021    0.6670   -3.4341 O   0  0  0  0  0  0  0  0  0  0  0  0
    0.0853    1.2504    0.3041 C   0  0  0  0  0  0  0  0  0  0  0  0
   -0.8550    1.9879    0.0289 O   0  0  0  0  0  0  0  0  0  0  0  0
    1.0404    1.7131    1.1939 N   0  0  0  0  0  0  0  0  0  0  0  0
    1.7734    1.0649    1.4621 H   0  0  0  0  0  0  0  0  0  0  0  0
    1.0404    3.0575    1.7517 C   0  0  0  0  0  0  0  0  0  0  0  0
    0.1327    3.2279    2.3393 H   0  0  0  0  0  0  0  0  0  0  0  0
    1.9072    3.1933    2.4050 H   0  0  0  0  0  0  0  0  0  0  0  0
    1.0901    3.8030    0.9515 H   0  0  0  0  0  0  0  0  0  0  0  0
  1  2  1  0  0  0  0
  2  3  1  0  0  0  0
  2  4  1  0  0  0  0
  2  5  1  0  0  0  0
  5  6  2  0  0  0  0
  5  7  1  0  0  0  0
  7  8  1  0  0  0  0
  7  9  1  0  0  0  0
  9 10  1  0  0  0  0
  9 11  1  0  0  0  0
  9 17  1  0  0  0  0
 11 12  1  0  0  0  0
 11 13  1  0  0  0  0
 11 14  1  0  0  0  0
 14 15  1  0  0  0  0
 14 16  2  0  0  0  0
 17 18  2  0  0  0  0
 17 19  1  0  0  0  0
 19 20  1  0  0  0  0
 19 21  1  0  0  0  0
 21 22  1  0  0  0  0
 21 23  1  0  0  0  0
 21 24  1  0  0  0  0
M  CHG  1  15  -1
M  END
$$$$

  -OEChem-03222214023D

 24 23  0     1  0  0  0  0  0999 V2000
   -2.6267   -3.8823    0.4421 H   0  0  0  0  0  0  0  0  0  0  0  0
   -2.6165   -2.9007   -0.0386 C   0  0  0  0  0  0  0  0  0  0  0  0
   -3.5399   -2.3722    0.2097 H   0  0  0  0  0  0  0  0  0  0  0  0
   -2.5669   -3.0392   -1.1224 H   0  0  0  0  0  0  0  0  0  0  0  0
   -1.4178   -2.0954    0.4290 C   0  0  0  0  0  0  0  0  0  0  0  0
   -0.6841   -2.5479    1.3003 O   0  0  0  0  0  0  0  0  0  0  0  0
   -1.1977   -0.8470   -0.1068 N   0  0  0  0  0  0  0  0  0  0  0  0
   -1.7394   -0.6933   -0.9632 H   0  0  0  0  0  0  0  0  0  0  0  0
    0.1380   -0.2401   -0.1462 C   0  0  1  0  0  0  0  0  0  0  0  0
    0.8106   -0.7585    0.5434 H   0  0  0  0  0  0  0  0  0  0  0  0
    0.7526   -0.3300   -1.5679 C   0  0  0  0  0  0  0  0  0  0  0  0
    1.4859    0.4704   -1.7041 H   0  0  0  0  0  0  0  0  0  0  0  0
    1.2928   -1.2773   -1.6386 H   0  0  0  0  0  0  0  0  0  0  0  0
   -0.2365   -0.3086   -2.7373 C   0  0  0  0  0  0  0  0  0  0  0  0
   -1.1089   -1.2147   -2.8066 O   0  5  0  0  0  0  0  0  0  0  0  0
   -0.0582    0.5701   -3.6123 O   0  0  0  0  0  0  0  0  0  0  0  0
    0.0828    1.2384    0.3067 C   0  0  0  0  0  0  0  0  0  0  0  0
   -0.8376    1.9876   -0.0026 O   0  0  0  0  0  0  0  0  0  0  0  0
    1.0401    1.7049    1.1920 N   0  0  0  0  0  0  0  0  0  0  0  0
    1.7586    1.0498    1.4816 H   0  0  0  0  0  0  0  0  0  0  0  0
    1.0404    3.0514    1.7446 C   0  0  0  0  0  0  0  0  0  0  0  0
    0.1238    3.2304    2.3157 H   0  0  0  0  0  0  0  0  0  0  0  0
    1.8963    3.1829    2.4131 H   0  0  0  0  0  0  0  0  0  0  0  0
    1.1095    3.7937    0.9428 H   0  0  0  0  0  0  0  0  0  0  0  0
  1  2  1  0  0  0  0
  2  3  1  0  0  0  0
  2  4  1  0  0  0  0
  2  5  1  0  0  0  0
  5  6  2  0  0  0  0
  5  7  1  0  0  0  0
  7  8  1  0  0  0  0
  7  9  1  0  0  0  0
  9 10  1  0  0  0  0
  9 11  1  0  0  0  0
  9 17  1  0  0  0  0
 11 12  1  0  0  0  0
 11 13  1  0  0  0  0
 11 14  1  0  0  0  0
 14 15  1  0  0  0  0
 14 16  2  0  0  0  0
 17 18  2  0  0  0  0
 17 19  1  0  0  0  0
 19 20  1  0  0  0  0
 19 21  1  0  0  0  0
 21 22  1  0  0  0  0
 21 23  1  0  0  0  0
 21 24  1  0  0  0  0
M  CHG  1  15  -1
M  END
$$$$

  -OEChem-03222214023D

 24 23  0     1  0  0  0  0  0999 V2000
   -2.6307   -3.8975    0.4464 H   0  0  0  0  0  0  0  0  0  0  0  0
   -2.6234   -2.9120   -0.0263 C   0  0  0  0  0  0  0  0  0  0  0  0
   -3.5455   -2.3859    0.2314 H   0  0  0  0  0  0  0  0  0  0  0  0
   -2.5800   -3.0405   -1.1115 H   0  0  0  0  0  0  0  0  0  0  0  0
   -1.4224   -2.1099    0.4410 C   0  0  0  0  0  0  0  0  0  0  0  0
   -0.6785   -2.5720    1.2986 O   0  0  0  0  0  0  0  0  0  0  0  0
   -1.2059   -0.8584   -0.0880 N   0  0  0  0  0  0  0  0  0  0  0  0
   -1.7513   -0.6977   -0.9434 H   0  0  0  0  0  0  0  0  0  0  0  0
    0.1246   -0.2459   -0.1362 C   0  0  1  0  0  0  0  0  0  0  0  0
    0.8037   -0.7654    0.5463 H   0  0  0  0  0  0  0  0  0  0  0  0
    0.7391   -0.3147   -1.5616 C   0  0  0  0  0  0  0  0  0  0  0  0
    1.4707    0.4905   -1.6784 H   0  0  0  0  0  0  0  0  0  0  0  0
    1.2851   -1.2585   -1.6341 H   0  0  0  0  0  0  0  0  0  0  0  0
   -0.2159   -0.2897   -2.7641 C   0  0  0  0  0  0  0  0  0  0  0  0
   -1.2533   -1.0057   -2.7555 O   0  5  0  0  0  0  0  0  0  0  0  0
    0.1603    0.3934   -3.7456 O   0  0  0  0  0  0  0  0  0  0  0  0
    0.0655    1.2296    0.3256 C   0  0  0  0  0  0  0  0  0  0  0  0
   -0.8431    1.9863   -0.0005 O   0  0  0  0  0  0  0  0  0  0  0  0
    1.0274    1.6972    1.2051 N   0  0  0  0  0  0  0  0  0  0  0  0
    1.7483    1.0431    1.4911 H   0  0  0  0  0  0  0  0  0  0  0  0
    1.0498    3.0546    1.7299 C   0  0  0  0  0  0  0  0  0  0  0  0
    0.1470    3.2527    2.3165 H   0  0  0  0  0  0  0  0  0  0  0  0
    1.9212    3.1927    2.3768 H   0  0  0  0  0  0  0  0  0  0  0  0
    1.1081    3.7797    0.9117 H   0  0  0  0  0  0  0  0  0  0  0  0
  1  2  1  0  0  0  0
  2  3  1  0  0  0  0
  2  4  1  0  0  0  0
  2  5  1  0  0  0  0
  5  6  2  0  0  0  0
  5  7  1  0  0  0  0
  7  8  1  0  0  0  0
  7  9  1  0  0  0  0
  9 10  1  0  0  0  0
  9 11  1  0  0  0  0
  9 17  1  0  0  0  0
 11 12  1  0  0  0  0
 11 13  1  0  0  0  0
 11 14  1  0  0  0  0
 14 15  1  0  0  0  0
 14 16  2  0  0  0  0
 17 18  2  0  0  0  0
 17 19  1  0  0  0  0
 19 20  1  0  0  0  0
 19 21  1  0  0  0  0
 21 22  1  0  0  0  0
 21 23  1  0  0  0  0
 21 24  1  0  0  0  0
M  CHG  1  15  -1
M  END
$$$$

  -OEChem-03222214023D

 24 23  0     1  0  0  0  0  0999 V2000
   -2.6032   -3.9279    0.3925 H   0  0  0  0  0  0  0  0  0  0  0  0
   -2.6366   -2.9130   -0.0122 C   0  0  0  0  0  0  0  0  0  0  0  0
   -3.5491   -2.4209    0.3325 H   0  0  0  0  0  0  0  0  0  0  0  0
   -2.6545   -2.9689   -1.1043 H   0  0  0  0  0  0  0  0  0  0  0  0
   -1.4213   -2.1237    0.4392 C   0  0  0  0  0  0  0  0  0  0  0  0
   -0.6587   -2.6032    1.2698 O   0  0  0  0  0  0  0  0  0  0  0  0
   -1.2082   -0.8681   -0.0800 N   0  0  0  0  0  0  0  0  0  0  0  0
   -1.7721   -0.6795   -0.9189 H   0  0  0  0  0  0  0  0  0  0  0  0
    0.1147   -0.2430   -0.1339 C   0  0  1  0  0  0  0  0  0  0  0  0
    0.7966   -0.7594    0.5480 H   0  0  0  0  0  0  0  0  0  0  0  0
    0.7353   -0.3076   -1.5580 C   0  0  0  0  0  0  0  0  0  0  0  0
    1.4583    0.5060   -1.6685 H   0  0  0  0  0  0  0  0  0  0  0  0
    1.2939   -1.2447   -1.6190 H   0  0  0  0  0  0  0  0  0  0  0  0
   -0.1896   -0.2990   -2.7866 C   0  0  0  0  0  0  0  0  0  0  0  0
   -1.3497   -0.7887   -2.7255 O   0  5  0  0  0  0  0  0  0  0  0  0
    0.3304    0.1460   -3.8374 O   0  0  0  0  0  0  0  0  0  0  0  0
    0.0514    1.2293    0.3367 C   0  0  0  0  0  0  0  0  0  0  0  0
   -0.8556    1.9880    0.0119 O   0  0  0  0  0  0  0  0  0  0  0  0
    1.0186    1.6964    1.2105 N   0  0  0  0  0  0  0  0  0  0  0  0
    1.7471    1.0448    1.4830 H   0  0  0  0  0  0  0  0  0  0  0  0
    1.0538    3.0583    1.7228 C   0  0  0  0  0  0  0  0  0  0  0  0
    0.1434    3.2774    2.2898 H   0  0  0  0  0  0  0  0  0  0  0  0
    1.9145    3.1878    2.3855 H   0  0  0  0  0  0  0  0  0  0  0  0
    1.1399    3.7741    0.8989 H   0  0  0  0  0  0  0  0  0  0  0  0
  1  2  1  0  0  0  0
  2  3  1  0  0  0  0
  2  4  1  0  0  0  0
  2  5  1  0  0  0  0
  5  6  2  0  0  0  0
  5  7  1  0  0  0  0
  7  8  1  0  0  0  0
  7  9  1  0  0  0  0
  9 10  1  0  0  0  0
  9 11  1  0  0  0  0
  9 17  1  0  0  0  0
 11 12  1  0  0  0  0
 11 13  1  0  0  0  0
 11 14  1  0  0  0  0
 14 15  1  0  0  0  0
 14 16  2  0  0  0  0
 17 18  2  0  0  0  0
 17 19  1  0  0  0  0
 19 20  1  0  0  0  0
 19 21  1  0  0  0  0
 21 22  1  0  0  0  0
 21 23  1  0  0  0  0
 21 24  1  0  0  0  0
M  CHG  1  15  -1
M  END
$$$$

  -OEChem-03222214023D

 24 23  0     1  0  0  0  0  0999 V2000
   -2.6170   -3.9255    0.3864 H   0  0  0  0  0  0  0  0  0  0  0  0
   -2.6490   -2.9050   -0.0041 C   0  0  0  0  0  0  0  0  0  0  0  0
   -3.5473   -2.4075    0.3692 H   0  0  0  0  0  0  0  0  0  0  0  0
   -2.6942   -2.9458   -1.0961 H   0  0  0  0  0  0  0  0  0  0  0  0
   -1.4145   -2.1347    0.4277 C   0  0  0  0  0  0  0  0  0  0  0  0
   -0.6364   -2.6324    1.2327 O   0  0  0  0  0  0  0  0  0  0  0  0
   -1.1997   -0.8760   -0.0824 N   0  0  0  0  0  0  0  0  0  0  0  0
   -1.7860   -0.6522   -0.8978 H   0  0  0  0  0  0  0  0  0  0  0  0
    0.1161   -0.2379   -0.1384 C   0  0  1  0  0  0  0  0  0  0  0  0
    0.8000   -0.7520    0.5433 H   0  0  0  0  0  0  0  0  0  0  0  0
    0.7380   -0.3071   -1.5616 C   0  0  0  0  0  0  0  0  0  0  0  0
    1.4484    0.5162   -1.6777 H   0  0  0  0  0  0  0  0  0  0  0  0
    1.3103   -1.2368   -1.6112 H   0  0  0  0  0  0  0  0  0  0  0  0
   -0.1759   -0.3193   -2.7992 C   0  0  0  0  0  0  0  0  0  0  0  0
   -1.4105   -0.5545   -2.7019 O   0  5  0  0  0  0  0  0  0  0  0  0
    0.4208   -0.1412   -3.8880 O   0  0  0  0  0  0  0  0  0  0  0  0
    0.0489    1.2326    0.3383 C   0  0  0  0  0  0  0  0  0  0  0  0
   -0.8645    1.9892    0.0271 O   0  0  0  0  0  0  0  0  0  0  0  0
    1.0196    1.6997    1.2085 N   0  0  0  0  0  0  0  0  0  0  0  0
    1.7546    1.0511    1.4704 H   0  0  0  0  0  0  0  0  0  0  0  0
    1.0505    3.0581    1.7302 C   0  0  0  0  0  0  0  0  0  0  0  0
    0.1407    3.2701    2.3009 H   0  0  0  0  0  0  0  0  0  0  0  0
    1.9119    3.1864    2.3921 H   0  0  0  0  0  0  0  0  0  0  0  0
    1.1320    3.7800    0.9111 H   0  0  0  0  0  0  0  0  0  0  0  0
  1  2  1  0  0  0  0
  2  3  1  0  0  0  0
  2  4  1  0  0  0  0
  2  5  1  0  0  0  0
  5  6  2  0  0  0  0
  5  7  1  0  0  0  0
  7  8  1  0  0  0  0
  7  9  1  0  0  0  0
  9 10  1  0  0  0  0
  9 11  1  0  0  0  0
  9 17  1  0  0  0  0
 11 12  1  0  0  0  0
 11 13  1  0  0  0  0
 11 14  1  0  0  0  0
 14 15  1  0  0  0  0
 14 16  2  0  0  0  0
 17 18  2  0  0  0  0
 17 19  1  0  0  0  0
 19 20  1  0  0  0  0
 19 21  1  0  0  0  0
 21 22  1  0  0  0  0
 21 23  1  0  0  0  0
 21 24  1  0  0  0  0
M  CHG  1  15  -1
M  END
$$$$

  -OEChem-03222214023D

 24 23  0     1  0  0  0  0  0999 V2000
   -2.6349   -3.9125    0.3882 H   0  0  0  0  0  0  0  0  0  0  0  0
   -2.6550   -2.8939   -0.0084 C   0  0  0  0  0  0  0  0  0  0  0  0
   -3.5422   -2.3807    0.3702 H   0  0  0  0  0  0  0  0  0  0  0  0
   -2.7109   -2.9409   -1.0996 H   0  0  0  0  0  0  0  0  0  0  0  0
   -1.4054   -2.1391    0.4072 C   0  0  0  0  0  0  0  0  0  0  0  0
   -0.6149   -2.6521    1.1898 O   0  0  0  0  0  0  0  0  0  0  0  0
   -1.1895   -0.8774   -0.0942 N   0  0  0  0  0  0  0  0  0  0  0  0
   -1.7955   -0.6192   -0.8849 H   0  0  0  0  0  0  0  0  0  0  0  0
    0.1190   -0.2254   -0.1467 C   0  0  1  0  0  0  0  0  0  0  0  0
    0.8016   -0.7355    0.5392 H   0  0  0  0  0  0  0  0  0  0  0  0
    0.7442   -0.3116   -1.5659 C   0  0  0  0  0  0  0  0  0  0  0  0
    1.4396    0.5217   -1.6988 H   0  0  0  0  0  0  0  0  0  0  0  0
    1.3310   -1.2333   -1.5989 H   0  0  0  0  0  0  0  0  0  0  0  0
   -0.1740   -0.3539   -2.7984 C   0  0  0  0  0  0  0  0  0  0  0  0
   -1.4284   -0.3207   -2.6837 O   0  5  0  0  0  0  0  0  0  0  0  0
    0.4287   -0.4632   -3.8930 O   0  0  0  0  0  0  0  0  0  0  0  0
    0.0510    1.2442    0.3334 C   0  0  0  0  0  0  0  0  0  0  0  0
   -0.8712    1.9981    0.0438 O   0  0  0  0  0  0  0  0  0  0  0  0
    1.0251    1.7074    1.2023 N   0  0  0  0  0  0  0  0  0  0  0  0
    1.7621    1.0580    1.4568 H   0  0  0  0  0  0  0  0  0  0  0  0
    1.0466    3.0567    1.7481 C   0  0  0  0  0  0  0  0  0  0  0  0
    0.1444    3.2454    2.3389 H   0  0  0  0  0  0  0  0  0  0  0  0
    1.9184    3.1853    2.3960 H   0  0  0  0  0  0  0  0  0  0  0  0
    1.1034    3.7945    0.9413 H   0  0  0  0  0  0  0  0  0  0  0  0
  1  2  1  0  0  0  0
  2  3  1  0  0  0  0
  2  4  1  0  0  0  0
  2  5  1  0  0  0  0
  5  6  2  0  0  0  0
  5  7  1  0  0  0  0
  7  8  1  0  0  0  0
  7  9  1  0  0  0  0
  9 10  1  0  0  0  0
  9 11  1  0  0  0  0
  9 17  1  0  0  0  0
 11 12  1  0  0  0  0
 11 13  1  0  0  0  0
 11 14  1  0  0  0  0
 14 15  1  0  0  0  0
 14 16  2  0  0  0  0
 17 18  2  0  0  0  0
 17 19  1  0  0  0  0
 19 20  1  0  0  0  0
 19 21  1  0  0  0  0
 21 22  1  0  0  0  0
 21 23  1  0  0  0  0
 21 24  1  0  0  0  0
M  CHG  1  15  -1
M  END
$$$$

  -OEChem-03222214023D

 24 23  0     1  0  0  0  0  0999 V2000
   -2.6490   -3.8958    0.3818 H   0  0  0  0  0  0  0  0  0  0  0  0
   -2.6600   -2.8791   -0.0196 C   0  0  0  0  0  0  0  0  0  0  0  0
   -3.5374   -2.3534    0.3649 H   0  0  0  0  0  0  0  0  0  0  0  0
   -2.7268   -2.9305   -1.1100 H   0  0  0  0  0  0  0  0  0  0  0  0
   -1.3971   -2.1389    0.3817 C   0  0  0  0  0  0  0  0  0  0  0  0
   -0.5995   -2.6643    1.1485 O   0  0  0  0  0  0  0  0  0  0  0  0
   -1.1771   -0.8755   -0.1137 N   0  0  0  0  0  0  0  0  0  0  0  0
   -1.7990   -0.5846   -0.8800 H   0  0  0  0  0  0  0  0  0  0  0  0
    0.1261   -0.2121   -0.1564 C   0  0  1  0  0  0  0  0  0  0  0  0
    0.8030   -0.7180    0.5384 H   0  0  0  0  0  0  0  0  0  0  0  0
    0.7597   -0.3222   -1.5681 C   0  0  0  0  0  0  0  0  0  0  0  0
    1.4422    0.5177   -1.7223 H   0  0  0  0  0  0  0  0  0  0  0  0
    1.3587   -1.2369   -1.5832 H   0  0  0  0  0  0  0  0  0  0  0  0
   -0.1771   -0.3954   -2.7827 C   0  0  0  0  0  0  0  0  0  0  0  0
   -1.3942   -0.0906   -2.6774 O   0  5  0  0  0  0  0  0  0  0  0  0
    0.3595   -0.7936   -3.8441 O   0  0  0  0  0  0  0  0  0  0  0  0
    0.0572    1.2580    0.3231 C   0  0  0  0  0  0  0  0  0  0  0  0
   -0.8794    2.0046    0.0626 O   0  0  0  0  0  0  0  0  0  0  0  0
    1.0304    1.7172    1.1951 N   0  0  0  0  0  0  0  0  0  0  0  0
    1.7718    1.0693    1.4398 H   0  0  0  0  0  0  0  0  0  0  0  0
    1.0401    3.0566    1.7646 C   0  0  0  0  0  0  0  0  0  0  0  0
    0.1423    3.2221    2.3686 H   0  0  0  0  0  0  0  0  0  0  0  0
    1.9175    3.1857    2.4048 H   0  0  0  0  0  0  0  0  0  0  0  0
    1.0771    3.8090    0.9702 H   0  0  0  0  0  0  0  0  0  0  0  0
  1  2  1  0  0  0  0
  2  3  1  0  0  0  0
  2  4  1  0  0  0  0
  2  5  1  0  0  0  0
  5  6  2  0  0  0  0
  5  7  1  0  0  0  0
  7  8  1  0  0  0  0
  7  9  1  0  0  0  0
  9 10  1  0  0  0  0
  9 11  1  0  0  0  0
  9 17  1  0  0  0  0
 11 12  1  0  0  0  0
 11 13  1  0  0  0  0
 11 14  1  0  0  0  0
 14 15  1  0  0  0  0
 14 16  2  0  0  0  0
 17 18  2  0  0  0  0
 17 19  1  0  0  0  0
 19 20  1  0  0  0  0
 19 21  1  0  0  0  0
 21 22  1  0  0  0  0
 21 23  1  0  0  0  0
 21 24  1  0  0  0  0
M  CHG  1  15  -1
M  END
$$$$

  -OEChem-03222214023D

 24 23  0     1  0  0  0  0  0999 V2000
   -2.6530   -3.8842    0.3609 H   0  0  0  0  0  0  0  0  0  0  0  0
   -2.6612   -2.8655   -0.0354 C   0  0  0  0  0  0  0  0  0  0  0  0
   -3.5301   -2.3355    0.3620 H   0  0  0  0  0  0  0  0  0  0  0  0
   -2.7407   -2.9115   -1.1251 H   0  0  0  0  0  0  0  0  0  0  0  0
   -1.3882   -2.1366    0.3550 C   0  0  0  0  0  0  0  0  0  0  0  0
   -0.5870   -2.6704    1.1118 O   0  0  0  0  0  0  0  0  0  0  0  0
   -1.1643   -0.8717   -0.1356 N   0  0  0  0  0  0  0  0  0  0  0  0
   -1.8026   -0.5520   -0.8747 H   0  0  0  0  0  0  0  0  0  0  0  0
    0.1349   -0.1989   -0.1678 C   0  0  1  0  0  0  0  0  0  0  0  0
    0.8043   -0.7004    0.5372 H   0  0  0  0  0  0  0  0  0  0  0  0
    0.7787   -0.3347   -1.5698 C   0  0  0  0  0  0  0  0  0  0  0  0
    1.4473    0.5113   -1.7475 H   0  0  0  0  0  0  0  0  0  0  0  0
    1.3887   -1.2423   -1.5688 H   0  0  0  0  0  0  0  0  0  0  0  0
   -0.1853   -0.4367   -2.7572 C   0  0  0  0  0  0  0  0  0  0  0  0
   -1.3093    0.1241   -2.7012 O   0  5  0  0  0  0  0  0  0  0  0  0
    0.2195   -1.1110   -3.7344 O   0  0  0  0  0  0  0  0  0  0  0  0
    0.0648    1.2721    0.3103 C   0  0  0  0  0  0  0  0  0  0  0  0
   -0.8882    2.0081    0.0817 O   0  0  0  0  0  0  0  0  0  0  0  0
    1.0360    1.7283    1.1866 N   0  0  0  0  0  0  0  0  0  0  0  0
    1.7838    1.0839    1.4210 H   0  0  0  0  0  0  0  0  0  0  0  0
    1.0325    3.0583    1.7785 C   0  0  0  0  0  0  0  0  0  0  0  0
    0.1313    3.2062    2.3822 H   0  0  0  0  0  0  0  0  0  0  0  0
    1.9068    3.1835    2.4240 H   0  0  0  0  0  0  0  0  0  0  0  0
    1.0660    3.8241    0.9968 H   0  0  0  0  0  0  0  0  0  0  0  0
  1  2  1  0  0  0  0
  2  3  1  0  0  0  0
  2  4  1  0  0  0  0
  2  5  1  0  0  0  0
  5  6  2  0  0  0  0
  5  7  1  0  0  0  0
  7  8  1  0  0  0  0
  7  9  1  0  0  0  0
  9 10  1  0  0  0  0
  9 11  1  0  0  0  0
  9 17  1  0  0  0  0
 11 12  1  0  0  0  0
 11 13  1  0  0  0  0
 11 14  1  0  0  0  0
 14 15  1  0  0  0  0
 14 16  2  0  0  0  0
 17 18  2  0  0  0  0
 17 19  1  0  0  0  0
 19 20  1  0  0  0  0
 19 21  1  0  0  0  0
 21 22  1  0  0  0  0
 21 23  1  0  0  0  0
 21 24  1  0  0  0  0
M  CHG  1  15  -1
M  END
$$$$

  -OEChem-03222214023D

 24 23  0     1  0  0  0  0  0999 V2000
   -2.6580   -3.8685    0.3602 H   0  0  0  0  0  0  0  0  0  0  0  0
   -2.6593   -2.8552   -0.0500 C   0  0  0  0  0  0  0  0  0  0  0  0
   -3.5286   -2.3164    0.3343 H   0  0  0  0  0  0  0  0  0  0  0  0
   -2.7313   -2.9161   -1.1395 H   0  0  0  0  0  0  0  0  0  0  0  0
   -1.3853   -2.1273    0.3387 C   0  0  0  0  0  0  0  0  0  0  0  0
   -0.5864   -2.6598    1.0987 O   0  0  0  0  0  0  0  0  0  0  0  0
   -1.1588   -0.8629   -0.1533 N   0  0  0  0  0  0  0  0  0  0  0  0
   -1.8136   -0.5240   -0.8653 H   0  0  0  0  0  0  0  0  0  0  0  0
    0.1417   -0.1898   -0.1805 C   0  0  1  0  0  0  0  0  0  0  0  0
    0.8033   -0.6882    0.5340 H   0  0  0  0  0  0  0  0  0  0  0  0
    0.7979   -0.3461   -1.5726 C   0  0  0  0  0  0  0  0  0  0  0  0
    1.4626    0.4996   -1.7659 H   0  0  0  0  0  0  0  0  0  0  0  0
    1.4103   -1.2522   -1.5607 H   0  0  0  0  0  0  0  0  0  0  0  0
   -0.1874   -0.4622   -2.7364 C   0  0  0  0  0  0  0  0  0  0  0  0
   -1.1659    0.3216   -2.7834 O   0  5  0  0  0  0  0  0  0  0  0  0
    0.0315   -1.3726   -3.5714 O   0  0  0  0  0  0  0  0  0  0  0  0
    0.0717    1.2826    0.2943 C   0  0  0  0  0  0  0  0  0  0  0  0
   -0.9006    2.0035    0.1009 O   0  0  0  0  0  0  0  0  0  0  0  0
    1.0417    1.7363    1.1735 N   0  0  0  0  0  0  0  0  0  0  0  0
    1.8005    1.0985    1.3895 H   0  0  0  0  0  0  0  0  0  0  0  0
    1.0244    3.0546    1.7906 C   0  0  0  0  0  0  0  0  0  0  0  0
    0.1372    3.1704    2.4212 H   0  0  0  0  0  0  0  0  0  0  0  0
    1.9132    3.1881    2.4142 H   0  0  0  0  0  0  0  0  0  0  0  0
    1.0193    3.8355    1.0232 H   0  0  0  0  0  0  0  0  0  0  0  0
  1  2  1  0  0  0  0
  2  3  1  0  0  0  0
  2  4  1  0  0  0  0
  2  5  1  0  0  0  0
  5  6  2  0  0  0  0
  5  7  1  0  0  0  0
  7  8  1  0  0  0  0
  7  9  1  0  0  0  0
  9 10  1  0  0  0  0
  9 11  1  0  0  0  0
  9 17  1  0  0  0  0
 11 12  1  0  0  0  0
 11 13  1  0  0  0  0
 11 14  1  0  0  0  0
 14 15  1  0  0  0  0
 14 16  2  0  0  0  0
 17 18  2  0  0  0  0
 17 19  1  0  0  0  0
 19 20  1  0  0  0  0
 19 21  1  0  0  0  0
 21 22  1  0  0  0  0
 21 23  1  0  0  0  0
 21 24  1  0  0  0  0
M  CHG  1  15  -1
M  END
$$$$

  -OEChem-03222214023D

 24 23  0     1  0  0  0  0  0999 V2000
   -2.6766   -3.8369    0.4057 H   0  0  0  0  0  0  0  0  0  0  0  0
   -2.6551   -2.8435   -0.0499 C   0  0  0  0  0  0  0  0  0  0  0  0
   -3.5248   -2.2769    0.2908 H   0  0  0  0  0  0  0  0  0  0  0  0
   -2.7039   -2.9528   -1.1369 H   0  0  0  0  0  0  0  0  0  0  0  0
   -1.3798   -2.1154    0.3333 C   0  0  0  0  0  0  0  0  0  0  0  0
   -0.5850   -2.6419    1.1018 O   0  0  0  0  0  0  0  0  0  0  0  0
   -1.1519   -0.8537   -0.1661 N   0  0  0  0  0  0  0  0  0  0  0  0
   -1.8180   -0.5112   -0.8619 H   0  0  0  0  0  0  0  0  0  0  0  0
    0.1541   -0.1894   -0.1947 C   0  0  1  0  0  0  0  0  0  0  0  0
    0.8122   -0.6868    0.5239 H   0  0  0  0  0  0  0  0  0  0  0  0
    0.8128   -0.3550   -1.5831 C   0  0  0  0  0  0  0  0  0  0  0  0
    1.4836    0.4846   -1.7814 H   0  0  0  0  0  0  0  0  0  0  0  0
    1.4189   -1.2653   -1.5727 H   0  0  0  0  0  0  0  0  0  0  0  0
   -0.1861   -0.4654   -2.7324 C   0  0  0  0  0  0  0  0  0  0  0  0
   -0.9758    0.4871   -2.9266 O   0  5  0  0  0  0  0  0  0  0  0  0
   -0.2019   -1.5427   -3.3756 O   0  0  0  0  0  0  0  0  0  0  0  0
    0.0836    1.2844    0.2747 C   0  0  0  0  0  0  0  0  0  0  0  0
   -0.9013    1.9929    0.0977 O   0  0  0  0  0  0  0  0  0  0  0  0
    1.0510    1.7407    1.1552 N   0  0  0  0  0  0  0  0  0  0  0  0
    1.8083    1.1029    1.3765 H   0  0  0  0  0  0  0  0  0  0  0  0
    1.0087    3.0441    1.8023 C   0  0  0  0  0  0  0  0  0  0  0  0
    0.1301    3.1211    2.4507 H   0  0  0  0  0  0  0  0  0  0  0  0
    1.9046    3.1888    2.4131 H   0  0  0  0  0  0  0  0  0  0  0  0
    0.9682    3.8418    1.0535 H   0  0  0  0  0  0  0  0  0  0  0  0
  1  2  1  0  0  0  0
  2  3  1  0  0  0  0
  2  4  1  0  0  0  0
  2  5  1  0  0  0  0
  5  6  2  0  0  0  0
  5  7  1  0  0  0  0
  7  8  1  0  0  0  0
  7  9  1  0  0  0  0
  9 10  1  0  0  0  0
  9 11  1  0  0  0  0
  9 17  1  0  0  0  0
 11 12  1  0  0  0  0
 11 13  1  0  0  0  0
 11 14  1  0  0  0  0
 14 15  1  0  0  0  0
 14 16  2  0  0  0  0
 17 18  2  0  0  0  0
 17 19  1  0  0  0  0
 19 20  1  0  0  0  0
 19 21  1  0  0  0  0
 21 22  1  0  0  0  0
 21 23  1  0  0  0  0
 21 24  1  0  0  0  0
M  CHG  1  15  -1
M  END
$$$$

  -OEChem-03222214023D

 24 23  0     1  0  0  0  0  0999 V2000
   -2.6446   -3.8615    0.3612 H   0  0  0  0  0  0  0  0  0  0  0  0
   -2.6398   -2.8572   -0.0704 C   0  0  0  0  0  0  0  0  0  0  0  0
   -3.5275   -2.3185    0.2693 H   0  0  0  0  0  0  0  0  0  0  0  0
   -2.6693   -2.9421   -1.1607 H   0  0  0  0  0  0  0  0  0  0  0  0
   -1.3874   -2.1089    0.3480 C   0  0  0  0  0  0  0  0  0  0  0  0
   -0.6124   -2.6163    1.1498 O   0  0  0  0  0  0  0  0  0  0  0  0
   -1.1608   -0.8490   -0.1575 N   0  0  0  0  0  0  0  0  0  0  0  0
   -1.8089   -0.5393   -0.8828 H   0  0  0  0  0  0  0  0  0  0  0  0
    0.1530   -0.1975   -0.1839 C   0  0  1  0  0  0  0  0  0  0  0  0
    0.8099   -0.6989    0.5328 H   0  0  0  0  0  0  0  0  0  0  0  0
    0.8074   -0.3587   -1.5750 C   0  0  0  0  0  0  0  0  0  0  0  0
    1.4912    0.4723   -1.7669 H   0  0  0  0  0  0  0  0  0  0  0  0
    1.4000   -1.2778   -1.5781 H   0  0  0  0  0  0  0  0  0  0  0  0
   -0.1980   -0.4464   -2.7187 C   0  0  0  0  0  0  0  0  0  0  0  0
   -0.7683    0.6070   -3.0810 O   0  5  0  0  0  0  0  0  0  0  0  0
   -0.4809   -1.5914   -3.1491 O   0  0  0  0  0  0  0  0  0  0  0  0
    0.0855    1.2768    0.2831 C   0  0  0  0  0  0  0  0  0  0  0  0
   -0.8938    1.9885    0.0884 O   0  0  0  0  0  0  0  0  0  0  0  0
    1.0482    1.7348    1.1677 N   0  0  0  0  0  0  0  0  0  0  0  0
    1.8081    1.1004    1.3894 H   0  0  0  0  0  0  0  0  0  0  0  0
    1.0185    3.0522    1.7867 C   0  0  0  0  0  0  0  0  0  0  0  0
    0.1285    3.1606    2.4148 H   0  0  0  0  0  0  0  0  0  0  0  0
    1.9041    3.1921    2.4133 H   0  0  0  0  0  0  0  0  0  0  0  0
    1.0095    3.8342    1.0205 H   0  0  0  0  0  0  0  0  0  0  0  0
  1  2  1  0  0  0  0
  2  3  1  0  0  0  0
  2  4  1  0  0  0  0
  2  5  1  0  0  0  0
  5  6  2  0  0  0  0
  5  7  1  0  0  0  0
  7  8  1  0  0  0  0
  7  9  1  0  0  0  0
  9 10  1  0  0  0  0
  9 11  1  0  0  0  0
  9 17  1  0  0  0  0
 11 12  1  0  0  0  0
 11 13  1  0  0  0  0
 11 14  1  0  0  0  0
 14 15  1  0  0  0  0
 14 16  2  0  0  0  0
 17 18  2  0  0  0  0
 17 19  1  0  0  0  0
 19 20  1  0  0  0  0
 19 21  1  0  0  0  0
 21 22  1  0  0  0  0
 21 23  1  0  0  0  0
 21 24  1  0  0  0  0
M  CHG  1  15  -1
M  END
$$$$

  -OEChem-03222214023D

 24 23  0     1  0  0  0  0  0999 V2000
   -2.6502   -3.8579    0.4033 H   0  0  0  0  0  0  0  0  0  0  0  0
   -2.6260   -2.8738   -0.0717 C   0  0  0  0  0  0  0  0  0  0  0  0
   -3.5309   -2.3249    0.1992 H   0  0  0  0  0  0  0  0  0  0  0  0
   -2.6015   -3.0063   -1.1572 H   0  0  0  0  0  0  0  0  0  0  0  0
   -1.3977   -2.1018    0.3743 C   0  0  0  0  0  0  0  0  0  0  0  0
   -0.6437   -2.5854    1.2107 O   0  0  0  0  0  0  0  0  0  0  0  0
   -1.1729   -0.8463   -0.1434 N   0  0  0  0  0  0  0  0  0  0  0  0
   -1.7807   -0.5979   -0.9249 H   0  0  0  0  0  0  0  0  0  0  0  0
    0.1504   -0.2119   -0.1714 C   0  0  1  0  0  0  0  0  0  0  0  0
    0.8098   -0.7188    0.5389 H   0  0  0  0  0  0  0  0  0  0  0  0
    0.7937   -0.3557   -1.5713 C   0  0  0  0  0  0  0  0  0  0  0  0
    1.4945    0.4648   -1.7477 H   0  0  0  0  0  0  0  0  0  0  0  0
    1.3692   -1.2850   -1.5972 H   0  0  0  0  0  0  0  0  0  0  0  0
   -0.2106   -0.4075   -2.7192 C   0  0  0  0  0  0  0  0  0  0  0  0
   -0.5446    0.6754   -3.2500 O   0  5  0  0  0  0  0  0  0  0  0  0
   -0.7405   -1.5181   -2.9750 O   0  0  0  0  0  0  0  0  0  0  0  0
    0.0885    1.2646    0.2886 C   0  0  0  0  0  0  0  0  0  0  0  0
   -0.8748    1.9879    0.0594 O   0  0  0  0  0  0  0  0  0  0  0  0
    1.0476    1.7254    1.1755 N   0  0  0  0  0  0  0  0  0  0  0  0
    1.7937    1.0836    1.4214 H   0  0  0  0  0  0  0  0  0  0  0  0
    1.0259    3.0528    1.7725 C   0  0  0  0  0  0  0  0  0  0  0  0
    0.1397    3.1727    2.4039 H   0  0  0  0  0  0  0  0  0  0  0  0
    1.9161    3.2011    2.3909 H   0  0  0  0  0  0  0  0  0  0  0  0
    1.0140    3.8226    0.9939 H   0  0  0  0  0  0  0  0  0  0  0  0
  1  2  1  0  0  0  0
  2  3  1  0  0  0  0
  2  4  1  0  0  0  0
  2  5  1  0  0  0  0
  5  6  2  0  0  0  0
  5  7  1  0  0  0  0
  7  8  1  0  0  0  0
  7  9  1  0  0  0  0
  9 10  1  0  0  0  0
  9 11  1  0  0  0  0
  9 17  1  0  0  0  0
 11 12  1  0  0  0  0
 11 13  1  0  0  0  0
 11 14  1  0  0  0  0
 14 15  1  0  0  0  0
 14 16  2  0  0  0  0
 17 18  2  0  0  0  0
 17 19  1  0  0  0  0
 19 20  1  0  0  0  0
 19 21  1  0  0  0  0
 21 22  1  0  0  0  0
 21 23  1  0  0  0  0
 21 24  1  0  0  0  0
M  CHG  1  15  -1
M  END
$$$$

  -OEChem-03222214023D

 24 23  0     1  0  0  0  0  0999 V2000
   -2.6430   -3.8674    0.4316 H   0  0  0  0  0  0  0  0  0  0  0  0
   -2.6203   -2.8890   -0.0551 C   0  0  0  0  0  0  0  0  0  0  0  0
   -3.5354   -2.3461    0.1927 H   0  0  0  0  0  0  0  0  0  0  0  0
   -2.5754   -3.0343   -1.1382 H   0  0  0  0  0  0  0  0  0  0  0  0
   -1.4090   -2.0975    0.4036 C   0  0  0  0  0  0  0  0  0  0  0  0
   -0.6684   -2.5616    1.2629 O   0  0  0  0  0  0  0  0  0  0  0  0
   -1.1872   -0.8468   -0.1268 N   0  0  0  0  0  0  0  0  0  0  0  0
   -1.7496   -0.6635   -0.9611 H   0  0  0  0  0  0  0  0  0  0  0  0
    0.1435   -0.2277   -0.1578 C   0  0  1  0  0  0  0  0  0  0  0  0
    0.8074   -0.7389    0.5454 H   0  0  0  0  0  0  0  0  0  0  0  0
    0.7758   -0.3478   -1.5671 C   0  0  0  0  0  0  0  0  0  0  0  0
    1.4943    0.4621   -1.7220 H   0  0  0  0  0  0  0  0  0  0  0  0
    1.3340   -1.2862   -1.6139 H   0  0  0  0  0  0  0  0  0  0  0  0
   -0.2178   -0.3635   -2.7288 C   0  0  0  0  0  0  0  0  0  0  0  0
   -0.3132    0.6768   -3.4187 O   0  5  0  0  0  0  0  0  0  0  0  0
   -0.9500   -1.3777   -2.8657 O   0  0  0  0  0  0  0  0  0  0  0  0
    0.0852    1.2512    0.2948 C   0  0  0  0  0  0  0  0  0  0  0  0
   -0.8580    1.9876    0.0268 O   0  0  0  0  0  0  0  0  0  0  0  0
    1.0420    1.7141    1.1828 N   0  0  0  0  0  0  0  0  0  0  0  0
    1.7759    1.0661    1.4482 H   0  0  0  0  0  0  0  0  0  0  0  0
    1.0335    3.0524    1.7549 C   0  0  0  0  0  0  0  0  0  0  0  0
    0.1339    3.2042    2.3598 H   0  0  0  0  0  0  0  0  0  0  0  0
    1.9096    3.1923    2.3947 H   0  0  0  0  0  0  0  0  0  0  0  0
    1.0597    3.8069    0.9620 H   0  0  0  0  0  0  0  0  0  0  0  0
  1  2  1  0  0  0  0
  2  3  1  0  0  0  0
  2  4  1  0  0  0  0
  2  5  1  0  0  0  0
  5  6  2  0  0  0  0
  5  7  1  0  0  0  0
  7  8  1  0  0  0  0
  7  9  1  0  0  0  0
  9 10  1  0  0  0  0
  9 11  1  0  0  0  0
  9 17  1  0  0  0  0
 11 12  1  0  0  0  0
 11 13  1  0  0  0  0
 11 14  1  0  0  0  0
 14 15  1  0  0  0  0
 14 16  2  0  0  0  0
 17 18  2  0  0  0  0
 17 19  1  0  0  0  0
 19 20  1  0  0  0  0
 19 21  1  0  0  0  0
 21 22  1  0  0  0  0
 21 23  1  0  0  0  0
 21 24  1  0  0  0  0
M  CHG  1  15  -1
M  END
$$$$

  -OEChem-03222214023D

 24 23  0     1  0  0  0  0  0999 V2000
   -2.6160   -3.9000    0.4098 H   0  0  0  0  0  0  0  0  0  0  0  0
   -2.6217   -2.9046   -0.0415 C   0  0  0  0  0  0  0  0  0  0  0  0
   -3.5441   -2.3906    0.2386 H   0  0  0  0  0  0  0  0  0  0  0  0
   -2.5912   -3.0109   -1.1296 H   0  0  0  0  0  0  0  0  0  0  0  0
   -1.4207   -2.1034    0.4278 C   0  0  0  0  0  0  0  0  0  0  0  0
   -0.6852   -2.5613    1.2947 O   0  0  0  0  0  0  0  0  0  0  0  0
   -1.1993   -0.8540   -0.1052 N   0  0  0  0  0  0  0  0  0  0  0  0
   -1.7392   -0.6975   -0.9626 H   0  0  0  0  0  0  0  0  0  0  0  0
    0.1339   -0.2427   -0.1409 C   0  0  1  0  0  0  0  0  0  0  0  0
    0.8042   -0.7590    0.5526 H   0  0  0  0  0  0  0  0  0  0  0  0
    0.7577   -0.3354   -1.5587 C   0  0  0  0  0  0  0  0  0  0  0  0
    1.4849    0.4710   -1.6914 H   0  0  0  0  0  0  0  0  0  0  0  0
    1.3098   -1.2762   -1.6242 H   0  0  0  0  0  0  0  0  0  0  0  0
   -0.2187   -0.3233   -2.7394 C   0  0  0  0  0  0  0  0  0  0  0  0
   -0.0904    0.6064   -3.5692 O   0  5  0  0  0  0  0  0  0  0  0  0
   -1.1103   -1.2112   -2.7985 O   0  0  0  0  0  0  0  0  0  0  0  0
    0.0749    1.2356    0.3130 C   0  0  0  0  0  0  0  0  0  0  0  0
   -0.8483    1.9832    0.0081 O   0  0  0  0  0  0  0  0  0  0  0  0
    1.0302    1.7025    1.2001 N   0  0  0  0  0  0  0  0  0  0  0  0
    1.7566    1.0524    1.4805 H   0  0  0  0  0  0  0  0  0  0  0  0
    1.0447    3.0578    1.7306 C   0  0  0  0  0  0  0  0  0  0  0  0
    0.1371    3.2513    2.3114 H   0  0  0  0  0  0  0  0  0  0  0  0
    1.9110    3.1956    2.3842 H   0  0  0  0  0  0  0  0  0  0  0  0
    1.1064    3.7858    0.9151 H   0  0  0  0  0  0  0  0  0  0  0  0
  1  2  1  0  0  0  0
  2  3  1  0  0  0  0
  2  4  1  0  0  0  0
  2  5  1  0  0  0  0
  5  6  2  0  0  0  0
  5  7  1  0  0  0  0
  7  8  1  0  0  0  0
  7  9  1  0  0  0  0
  9 10  1  0  0  0  0
  9 11  1  0  0  0  0
  9 17  1  0  0  0  0
 11 12  1  0  0  0  0
 11 13  1  0  0  0  0
 11 14  1  0  0  0  0
 14 15  1  0  0  0  0
 14 16  2  0  0  0  0
 17 18  2  0  0  0  0
 17 19  1  0  0  0  0
 19 20  1  0  0  0  0
 19 21  1  0  0  0  0
 21 22  1  0  0  0  0
 21 23  1  0  0  0  0
 21 24  1  0  0  0  0
M  CHG  1  15  -1
M  END
$$$$

  -OEChem-03222214023D

 24 23  0     1  0  0  0  0  0999 V2000
   -2.6413   -3.8911    0.4556 H   0  0  0  0  0  0  0  0  0  0  0  0
   -2.6311   -2.9059   -0.0176 C   0  0  0  0  0  0  0  0  0  0  0  0
   -3.5473   -2.3733    0.2481 H   0  0  0  0  0  0  0  0  0  0  0  0
   -2.5986   -3.0351   -1.1031 H   0  0  0  0  0  0  0  0  0  0  0  0
   -1.4199   -2.1123    0.4382 C   0  0  0  0  0  0  0  0  0  0  0  0
   -0.6721   -2.5792    1.2896 O   0  0  0  0  0  0  0  0  0  0  0  0
   -1.2016   -0.8613   -0.0912 N   0  0  0  0  0  0  0  0  0  0  0  0
   -1.7484   -0.6991   -0.9452 H   0  0  0  0  0  0  0  0  0  0  0  0
    0.1286   -0.2478   -0.1393 C   0  0  1  0  0  0  0  0  0  0  0  0
    0.8062   -0.7651    0.5462 H   0  0  0  0  0  0  0  0  0  0  0  0
    0.7459   -0.3223   -1.5632 C   0  0  0  0  0  0  0  0  0  0  0  0
    1.4719    0.4876   -1.6819 H   0  0  0  0  0  0  0  0  0  0  0  0
    1.3029   -1.2594   -1.6356 H   0  0  0  0  0  0  0  0  0  0  0  0
   -0.2091   -0.3032   -2.7654 C   0  0  0  0  0  0  0  0  0  0  0  0
    0.1161    0.4493   -3.7135 O   0  5  0  0  0  0  0  0  0  0  0  0
   -1.2355   -1.0350   -2.7610 O   0  0  0  0  0  0  0  0  0  0  0  0
    0.0671    1.2281    0.3215 C   0  0  0  0  0  0  0  0  0  0  0  0
   -0.8503    1.9792    0.0079 O   0  0  0  0  0  0  0  0  0  0  0  0
    1.0279    1.6977    1.2012 N   0  0  0  0  0  0  0  0  0  0  0  0
    1.7569    1.0487    1.4779 H   0  0  0  0  0  0  0  0  0  0  0  0
    1.0444    3.0540    1.7294 C   0  0  0  0  0  0  0  0  0  0  0  0
    0.1377    3.2492    2.3110 H   0  0  0  0  0  0  0  0  0  0  0  0
    1.9112    3.1927    2.3819 H   0  0  0  0  0  0  0  0  0  0  0  0
    1.1055    3.7811    0.9131 H   0  0  0  0  0  0  0  0  0  0  0  0
  1  2  1  0  0  0  0
  2  3  1  0  0  0  0
  2  4  1  0  0  0  0
  2  5  1  0  0  0  0
  5  6  2  0  0  0  0
  5  7  1  0  0  0  0
  7  8  1  0  0  0  0
  7  9  1  0  0  0  0
  9 10  1  0  0  0  0
  9 11  1  0  0  0  0
  9 17  1  0  0  0  0
 11 12  1  0  0  0  0
 11 13  1  0  0  0  0
 11 14  1  0  0  0  0
 14 15  1  0  0  0  0
 14 16  2  0  0  0  0
 17 18  2  0  0  0  0
 17 19  1  0  0  0  0
 19 20  1  0  0  0  0
 19 21  1  0  0  0  0
 21 22  1  0  0  0  0
 21 23  1  0  0  0  0
 21 24  1  0  0  0  0
M  CHG  1  15  -1
M  END
$$$$

  -OEChem-03222214023D

 24 23  0     1  0  0  0  0  0999 V2000
   -2.6063   -3.9231    0.4002 H   0  0  0  0  0  0  0  0  0  0  0  0
   -2.6389   -2.9089   -0.0063 C   0  0  0  0  0  0  0  0  0  0  0  0
   -3.5500   -2.4149    0.3391 H   0  0  0  0  0  0  0  0  0  0  0  0
   -2.6589   -2.9666   -1.0984 H   0  0  0  0  0  0  0  0  0  0  0  0
   -1.4220   -2.1203    0.4421 C   0  0  0  0  0  0  0  0  0  0  0  0
   -0.6619   -2.5972    1.2767 O   0  0  0  0  0  0  0  0  0  0  0  0
   -1.2074   -0.8662   -0.0802 N   0  0  0  0  0  0  0  0  0  0  0  0
   -1.7684   -0.6839   -0.9221 H   0  0  0  0  0  0  0  0  0  0  0  0
    0.1172   -0.2446   -0.1353 C   0  0  1  0  0  0  0  0  0  0  0  0
    0.7991   -0.7612    0.5464 H   0  0  0  0  0  0  0  0  0  0  0  0
    0.7347   -0.3126   -1.5605 C   0  0  0  0  0  0  0  0  0  0  0  0
    1.4537    0.5043   -1.6727 H   0  0  0  0  0  0  0  0  0  0  0  0
    1.3018   -1.2443   -1.6271 H   0  0  0  0  0  0  0  0  0  0  0  0
   -0.1955   -0.3023   -2.7851 C   0  0  0  0  0  0  0  0  0  0  0  0
    0.2902    0.2144   -3.8192 O   0  5  0  0  0  0  0  0  0  0  0  0
   -1.3372   -0.8343   -2.7304 O   0  0  0  0  0  0  0  0  0  0  0  0
    0.0546    1.2289    0.3327 C   0  0  0  0  0  0  0  0  0  0  0  0
   -0.8560    1.9857    0.0131 O   0  0  0  0  0  0  0  0  0  0  0  0
    1.0219    1.6963    1.2064 N   0  0  0  0  0  0  0  0  0  0  0  0
    1.7518    1.0458    1.4771 H   0  0  0  0  0  0  0  0  0  0  0  0
    1.0532    3.0563    1.7241 C   0  0  0  0  0  0  0  0  0  0  0  0
    0.1384    3.2735    2.2850 H   0  0  0  0  0  0  0  0  0  0  0  0
    1.9086    3.1833    2.3940 H   0  0  0  0  0  0  0  0  0  0  0  0
    1.1458    3.7751    0.9035 H   0  0  0  0  0  0  0  0  0  0  0  0
  1  2  1  0  0  0  0
  2  3  1  0  0  0  0
  2  4  1  0  0  0  0
  2  5  1  0  0  0  0
  5  6  2  0  0  0  0
  5  7  1  0  0  0  0
  7  8  1  0  0  0  0
  7  9  1  0  0  0  0
  9 10  1  0  0  0  0
  9 11  1  0  0  0  0
  9 17  1  0  0  0  0
 11 12  1  0  0  0  0
 11 13  1  0  0  0  0
 11 14  1  0  0  0  0
 14 15  1  0  0  0  0
 14 16  2  0  0  0  0
 17 18  2  0  0  0  0
 17 19  1  0  0  0  0
 19 20  1  0  0  0  0
 19 21  1  0  0  0  0
 21 22  1  0  0  0  0
 21 23  1  0  0  0  0
 21 24  1  0  0  0  0
M  CHG  1  15  -1
M  END
$$$$

  -OEChem-03222214023D

 24 23  0     1  0  0  0  0  0999 V2000
   -2.6131   -3.9259    0.3878 H   0  0  0  0  0  0  0  0  0  0  0  0
   -2.6475   -2.9061   -0.0042 C   0  0  0  0  0  0  0  0  0  0  0  0
   -3.5501   -2.4125    0.3637 H   0  0  0  0  0  0  0  0  0  0  0  0
   -2.6864   -2.9483   -1.0965 H   0  0  0  0  0  0  0  0  0  0  0  0
   -1.4189   -2.1300    0.4337 C   0  0  0  0  0  0  0  0  0  0  0  0
   -0.6440   -2.6233    1.2444 O   0  0  0  0  0  0  0  0  0  0  0  0
   -1.2054   -0.8718   -0.0782 N   0  0  0  0  0  0  0  0  0  0  0  0
   -1.7880   -0.6553   -0.8980 H   0  0  0  0  0  0  0  0  0  0  0  0
    0.1123   -0.2377   -0.1362 C   0  0  1  0  0  0  0  0  0  0  0  0
    0.7965   -0.7531    0.5442 H   0  0  0  0  0  0  0  0  0  0  0  0
    0.7314   -0.3065   -1.5607 C   0  0  0  0  0  0  0  0  0  0  0  0
    1.4406    0.5182   -1.6763 H   0  0  0  0  0  0  0  0  0  0  0  0
    1.3098   -1.2321   -1.6172 H   0  0  0  0  0  0  0  0  0  0  0  0
   -0.1843   -0.3137   -2.7968 C   0  0  0  0  0  0  0  0  0  0  0  0
    0.4000   -0.0747   -3.8804 O   0  5  0  0  0  0  0  0  0  0  0  0
   -1.4076   -0.6030   -2.7041 O   0  0  0  0  0  0  0  0  0  0  0  0
    0.0490    1.2331    0.3400 C   0  0  0  0  0  0  0  0  0  0  0  0
   -0.8609    1.9926    0.0256 O   0  0  0  0  0  0  0  0  0  0  0  0
    1.0216    1.6984    1.2091 N   0  0  0  0  0  0  0  0  0  0  0  0
    1.7536    1.0473    1.4730 H   0  0  0  0  0  0  0  0  0  0  0  0
    1.0566    3.0575    1.7290 C   0  0  0  0  0  0  0  0  0  0  0  0
    0.1491    3.2712    2.3028 H   0  0  0  0  0  0  0  0  0  0  0  0
    1.9210    3.1855    2.3871 H   0  0  0  0  0  0  0  0  0  0  0  0
    1.1358    3.7780    0.9085 H   0  0  0  0  0  0  0  0  0  0  0  0
  1  2  1  0  0  0  0
  2  3  1  0  0  0  0
  2  4  1  0  0  0  0
  2  5  1  0  0  0  0
  5  6  2  0  0  0  0
  5  7  1  0  0  0  0
  7  8  1  0  0  0  0
  7  9  1  0  0  0  0
  9 10  1  0  0  0  0
  9 11  1  0  0  0  0
  9 17  1  0  0  0  0
 11 12  1  0  0  0  0
 11 13  1  0  0  0  0
 11 14  1  0  0  0  0
 14 15  1  0  0  0  0
 14 16  2  0  0  0  0
 17 18  2  0  0  0  0
 17 19  1  0  0  0  0
 19 20  1  0  0  0  0
 19 21  1  0  0  0  0
 21 22  1  0  0  0  0
 21 23  1  0  0  0  0
 21 24  1  0  0  0  0
M  CHG  1  15  -1
M  END
$$$$

  -OEChem-03222214023D

 24 23  0     1  0  0  0  0  0999 V2000
   -2.6395   -3.8933    0.3457 H   0  0  0  0  0  0  0  0  0  0  0  0
   -2.6597   -2.8681   -0.0335 C   0  0  0  0  0  0  0  0  0  0  0  0
   -3.5299   -2.3525    0.3795 H   0  0  0  0  0  0  0  0  0  0  0  0
   -2.7477   -2.8963   -1.1230 H   0  0  0  0  0  0  0  0  0  0  0  0
   -1.3902   -2.1346    0.3599 C   0  0  0  0  0  0  0  0  0  0  0  0
   -0.5837   -2.6731    1.1077 O   0  0  0  0  0  0  0  0  0  0  0  0
   -1.1723   -0.8663   -0.1236 N   0  0  0  0  0  0  0  0  0  0  0  0
   -1.7999   -0.5591   -0.8787 H   0  0  0  0  0  0  0  0  0  0  0  0
    0.1240   -0.1902   -0.1555 C   0  0  1  0  0  0  0  0  0  0  0  0
    0.7993   -0.6991    0.5382 H   0  0  0  0  0  0  0  0  0  0  0  0
    0.7538   -0.3097   -1.5631 C   0  0  0  0  0  0  0  0  0  0  0  0
    1.6082    0.3689   -1.6277 H   0  0  0  0  0  0  0  0  0  0  0  0
    1.1389   -1.3271   -1.6709 H   0  0  0  0  0  0  0  0  0  0  0  0
   -0.1468   -0.0508   -2.7791 C   0  0  0  0  0  0  0  0  0  0  0  0
    0.4259   -0.1617   -3.8896 O   0  5  0  0  0  0  0  0  0  0  0  0
   -1.3904    0.0866   -2.6362 O   0  0  0  0  0  0  0  0  0  0  0  0
    0.0601    1.2781    0.3304 C   0  0  0  0  0  0  0  0  0  0  0  0
   -0.8849    2.0221    0.0957 O   0  0  0  0  0  0  0  0  0  0  0  0
    1.0361    1.7278    1.2046 N   0  0  0  0  0  0  0  0  0  0  0  0
    1.7877    1.0836    1.4264 H   0  0  0  0  0  0  0  0  0  0  0  0
    1.0492    3.0619    1.7866 C   0  0  0  0  0  0  0  0  0  0  0  0
    0.1433    3.2305    2.3778 H   0  0  0  0  0  0  0  0  0  0  0  0
    1.9170    3.1766    2.4428 H   0  0  0  0  0  0  0  0  0  0  0  0
    1.1065    3.8212    0.9999 H   0  0  0  0  0  0  0  0  0  0  0  0
  1  2  1  0  0  0  0
  2  3  1  0  0  0  0
  2  4  1  0  0  0  0
  2  5  1  0  0  0  0
  5  6  2  0  0  0  0
  5  7  1  0  0  0  0
  7  8  1  0  0  0  0
  7  9  1  0  0  0  0
  9 10  1  0  0  0  0
  9 11  1  0  0  0  0
  9 17  1  0  0  0  0
 11 12  1  0  0  0  0
 11 13  1  0  0  0  0
 11 14  1  0  0  0  0
 14 15  1  0  0  0  0
 14 16  2  0  0  0  0
 17 18  2  0  0  0  0
 17 19  1  0  0  0  0
 19 20  1  0  0  0  0
 19 21  1  0  0  0  0
 21 22  1  0  0  0  0
 21 23  1  0  0  0  0
 21 24  1  0  0  0  0
M  CHG  1  15  -1
M  END
$$$$

  -OEChem-03222214023D

 24 23  0     1  0  0  0  0  0999 V2000
   -2.6557   -3.8710    0.3488 H   0  0  0  0  0  0  0  0  0  0  0  0
   -2.6644   -2.8493   -0.0402 C   0  0  0  0  0  0  0  0  0  0  0  0
   -3.5227   -2.3168    0.3763 H   0  0  0  0  0  0  0  0  0  0  0  0
   -2.7632   -2.8862   -1.1286 H   0  0  0  0  0  0  0  0  0  0  0  0
   -1.3810   -2.1306    0.3343 C   0  0  0  0  0  0  0  0  0  0  0  0
   -0.5670   -2.6792    1.0665 O   0  0  0  0  0  0  0  0  0  0  0  0
   -1.1628   -0.8600   -0.1429 N   0  0  0  0  0  0  0  0  0  0  0  0
   -1.8072   -0.5269   -0.8710 H   0  0  0  0  0  0  0  0  0  0  0  0
    0.1283   -0.1743   -0.1694 C   0  0  1  0  0  0  0  0  0  0  0  0
    0.7974   -0.6791    0.5333 H   0  0  0  0  0  0  0  0  0  0  0  0
    0.7702   -0.3176   -1.5680 C   0  0  0  0  0  0  0  0  0  0  0  0
    1.6198    0.3653   -1.6463 H   0  0  0  0  0  0  0  0  0  0  0  0
    1.1616   -1.3353   -1.6514 H   0  0  0  0  0  0  0  0  0  0  0  0
   -0.1365   -0.0875   -2.7834 C   0  0  0  0  0  0  0  0  0  0  0  0
    0.3310   -0.4909   -3.8753 O   0  5  0  0  0  0  0  0  0  0  0  0
   -1.3248    0.2920   -2.6229 O   0  0  0  0  0  0  0  0  0  0  0  0
    0.0639    1.2941    0.3191 C   0  0  0  0  0  0  0  0  0  0  0  0
   -0.9000    2.0263    0.1283 O   0  0  0  0  0  0  0  0  0  0  0  0
    1.0422    1.7383    1.1939 N   0  0  0  0  0  0  0  0  0  0  0  0
    1.8022    1.0979    1.3974 H   0  0  0  0  0  0  0  0  0  0  0  0
    1.0424    3.0589    1.8071 C   0  0  0  0  0  0  0  0  0  0  0  0
    0.1493    3.1944    2.4256 H   0  0  0  0  0  0  0  0  0  0  0  0
    1.9248    3.1775    2.4426 H   0  0  0  0  0  0  0  0  0  0  0  0
    1.0625    3.8370    1.0372 H   0  0  0  0  0  0  0  0  0  0  0  0
  1  2  1  0  0  0  0
  2  3  1  0  0  0  0
  2  4  1  0  0  0  0
  2  5  1  0  0  0  0
  5  6  2  0  0  0  0
  5  7  1  0  0  0  0
  7  8  1  0  0  0  0
  7  9  1  0  0  0  0
  9 10  1  0  0  0  0
  9 11  1  0  0  0  0
  9 17  1  0  0  0  0
 11 12  1  0  0  0  0
 11 13  1  0  0  0  0
 11 14  1  0  0  0  0
 14 15  1  0  0  0  0
 14 16  2  0  0  0  0
 17 18  2  0  0  0  0
 17 19  1  0  0  0  0
 19 20  1  0  0  0  0
 19 21  1  0  0  0  0
 21 22  1  0  0  0  0
 21 23  1  0  0  0  0
 21 24  1  0  0  0  0
M  CHG  1  15  -1
M  END
$$$$

  -OEChem-03222214023D

 24 23  0     1  0  0  0  0  0999 V2000
   -2.6808   -3.8338    0.3800 H   0  0  0  0  0  0  0  0  0  0  0  0
   -2.6708   -2.8256   -0.0423 C   0  0  0  0  0  0  0  0  0  0  0  0
   -3.5208   -2.2654    0.3549 H   0  0  0  0  0  0  0  0  0  0  0  0
   -2.7686   -2.8971   -1.1289 H   0  0  0  0  0  0  0  0  0  0  0  0
   -1.3745   -2.1189    0.3109 C   0  0  0  0  0  0  0  0  0  0  0  0
   -0.5546   -2.6756    1.0300 O   0  0  0  0  0  0  0  0  0  0  0  0
   -1.1520   -0.8489   -0.1670 N   0  0  0  0  0  0  0  0  0  0  0  0
   -1.8164   -0.4910   -0.8615 H   0  0  0  0  0  0  0  0  0  0  0  0
    0.1378   -0.1597   -0.1914 C   0  0  1  0  0  0  0  0  0  0  0  0
    0.7980   -0.6585    0.5240 H   0  0  0  0  0  0  0  0  0  0  0  0
    0.7957   -0.3329   -1.5776 C   0  0  0  0  0  0  0  0  0  0  0  0
    1.6415    0.3528   -1.6698 H   0  0  0  0  0  0  0  0  0  0  0  0
    1.1925   -1.3505   -1.6344 H   0  0  0  0  0  0  0  0  0  0  0  0
   -0.1199   -0.1287   -2.7882 C   0  0  0  0  0  0  0  0  0  0  0  0
    0.1816   -0.7919   -3.8096 O   0  5  0  0  0  0  0  0  0  0  0  0
   -1.1985    0.4990   -2.6504 O   0  0  0  0  0  0  0  0  0  0  0  0
    0.0735    1.3108    0.2933 C   0  0  0  0  0  0  0  0  0  0  0  0
   -0.9162    2.0213    0.1587 O   0  0  0  0  0  0  0  0  0  0  0  0
    1.0539    1.7523    1.1679 N   0  0  0  0  0  0  0  0  0  0  0  0
    1.8202    1.1154    1.3581 H   0  0  0  0  0  0  0  0  0  0  0  0
    1.0262    3.0478    1.8318 C   0  0  0  0  0  0  0  0  0  0  0  0
    0.1626    3.1159    2.5011 H   0  0  0  0  0  0  0  0  0  0  0  0
    1.9358    3.1859    2.4237 H   0  0  0  0  0  0  0  0  0  0  0  0
    0.9682    3.8543    1.0936 H   0  0  0  0  0  0  0  0  0  0  0  0
  1  2  1  0  0  0  0
  2  3  1  0  0  0  0
  2  4  1  0  0  0  0
  2  5  1  0  0  0  0
  5  6  2  0  0  0  0
  5  7  1  0  0  0  0
  7  8  1  0  0  0  0
  7  9  1  0  0  0  0
  9 10  1  0  0  0  0
  9 11  1  0  0  0  0
  9 17  1  0  0  0  0
 11 12  1  0  0  0  0
 11 13  1  0  0  0  0
 11 14  1  0  0  0  0
 14 15  1  0  0  0  0
 14 16  2  0  0  0  0
 17 18  2  0  0  0  0
 17 19  1  0  0  0  0
 19 20  1  0  0  0  0
 19 21  1  0  0  0  0
 21 22  1  0  0  0  0
 21 23  1  0  0  0  0
 21 24  1  0  0  0  0
M  CHG  1  15  -1
M  END
$$$$

  -OEChem-03222214023D

 24 23  0     1  0  0  0  0  0999 V2000
   -2.6851   -3.8214    0.3748 H   0  0  0  0  0  0  0  0  0  0  0  0
   -2.6770   -2.8093   -0.0382 C   0  0  0  0  0  0  0  0  0  0  0  0
   -3.5151   -2.2472    0.3808 H   0  0  0  0  0  0  0  0  0  0  0  0
   -2.7954   -2.8702   -1.1234 H   0  0  0  0  0  0  0  0  0  0  0  0
   -1.3694   -2.1145    0.2956 C   0  0  0  0  0  0  0  0  0  0  0  0
   -0.5431   -2.6796    1.0005 O   0  0  0  0  0  0  0  0  0  0  0  0
   -1.1443   -0.8453   -0.1845 N   0  0  0  0  0  0  0  0  0  0  0  0
   -1.8340   -0.4630   -0.8355 H   0  0  0  0  0  0  0  0  0  0  0  0
    0.1477   -0.1587   -0.2070 C   0  0  1  0  0  0  0  0  0  0  0  0
    0.8004   -0.6523    0.5187 H   0  0  0  0  0  0  0  0  0  0  0  0
    0.8202   -0.3509   -1.5820 C   0  0  0  0  0  0  0  0  0  0  0  0
    1.6659    0.3337   -1.6795 H   0  0  0  0  0  0  0  0  0  0  0  0
    1.2169   -1.3693   -1.6250 H   0  0  0  0  0  0  0  0  0  0  0  0
   -0.1015   -0.1557   -2.7853 C   0  0  0  0  0  0  0  0  0  0  0  0
   -0.0134   -1.0142   -3.6961 O   0  5  0  0  0  0  0  0  0  0  0  0
   -0.9853    0.7306   -2.7358 O   0  0  0  0  0  0  0  0  0  0  0  0
    0.0753    1.3123    0.2764 C   0  0  0  0  0  0  0  0  0  0  0  0
   -0.9408    1.9934    0.1890 O   0  0  0  0  0  0  0  0  0  0  0  0
    1.0521    1.7557    1.1542 N   0  0  0  0  0  0  0  0  0  0  0  0
    1.8383    1.1359    1.3171 H   0  0  0  0  0  0  0  0  0  0  0  0
    1.0078    3.0404    1.8377 C   0  0  0  0  0  0  0  0  0  0  0  0
    0.1505    3.0827    2.5171 H   0  0  0  0  0  0  0  0  0  0  0  0
    1.9213    3.1865    2.4213 H   0  0  0  0  0  0  0  0  0  0  0  0
    0.9268    3.8564    1.1123 H   0  0  0  0  0  0  0  0  0  0  0  0
  1  2  1  0  0  0  0
  2  3  1  0  0  0  0
  2  4  1  0  0  0  0
  2  5  1  0  0  0  0
  5  6  2  0  0  0  0
  5  7  1  0  0  0  0
  7  8  1  0  0  0  0
  7  9  1  0  0  0  0
  9 10  1  0  0  0  0
  9 11  1  0  0  0  0
  9 17  1  0  0  0  0
 11 12  1  0  0  0  0
 11 13  1  0  0  0  0
 11 14  1  0  0  0  0
 14 15  1  0  0  0  0
 14 16  2  0  0  0  0
 17 18  2  0  0  0  0
 17 19  1  0  0  0  0
 19 20  1  0  0  0  0
 19 21  1  0  0  0  0
 21 22  1  0  0  0  0
 21 23  1  0  0  0  0
 21 24  1  0  0  0  0
M  CHG  1  15  -1
M  END
$$$$

  -OEChem-03222214023D

 24 23  0     1  0  0  0  0  0999 V2000
   -2.7033   -3.8113    0.3952 H   0  0  0  0  0  0  0  0  0  0  0  0
   -2.6873   -2.8005   -0.0209 C   0  0  0  0  0  0  0  0  0  0  0  0
   -3.5118   -2.2261    0.4081 H   0  0  0  0  0  0  0  0  0  0  0  0
   -2.8223   -2.8631   -1.1042 H   0  0  0  0  0  0  0  0  0  0  0  0
   -1.3659   -2.1223    0.2922 C   0  0  0  0  0  0  0  0  0  0  0  0
   -0.5381   -2.6953    0.9887 O   0  0  0  0  0  0  0  0  0  0  0  0
   -1.1325   -0.8560   -0.1928 N   0  0  0  0  0  0  0  0  0  0  0  0
   -1.8411   -0.4556   -0.8076 H   0  0  0  0  0  0  0  0  0  0  0  0
    0.1663   -0.1785   -0.2126 C   0  0  1  0  0  0  0  0  0  0  0  0
    0.8175   -0.6714    0.5149 H   0  0  0  0  0  0  0  0  0  0  0  0
    0.8402   -0.3645   -1.5862 C   0  0  0  0  0  0  0  0  0  0  0  0
    1.6886    0.3175   -1.6802 H   0  0  0  0  0  0  0  0  0  0  0  0
    1.2316   -1.3841   -1.6432 H   0  0  0  0  0  0  0  0  0  0  0  0
   -0.0932   -0.1464   -2.7723 C   0  0  0  0  0  0  0  0  0  0  0  0
   -0.2568   -1.1136   -3.5552 O   0  5  0  0  0  0  0  0  0  0  0  0
   -0.6750    0.9565   -2.8769 O   0  0  0  0  0  0  0  0  0  0  0  0
    0.0787    1.2919    0.2682 C   0  0  0  0  0  0  0  0  0  0  0  0
   -0.9576    1.9445    0.1927 O   0  0  0  0  0  0  0  0  0  0  0  0
    1.0428    1.7468    1.1538 N   0  0  0  0  0  0  0  0  0  0  0  0
    1.8562    1.1562    1.2894 H   0  0  0  0  0  0  0  0  0  0  0  0
    0.9811    3.0352    1.8290 C   0  0  0  0  0  0  0  0  0  0  0  0
    0.1153    3.0760    2.4975 H   0  0  0  0  0  0  0  0  0  0  0  0
    1.8859    3.1909    2.4237 H   0  0  0  0  0  0  0  0  0  0  0  0
    0.9032    3.8464    1.0978 H   0  0  0  0  0  0  0  0  0  0  0  0
  1  2  1  0  0  0  0
  2  3  1  0  0  0  0
  2  4  1  0  0  0  0
  2  5  1  0  0  0  0
  5  6  2  0  0  0  0
  5  7  1  0  0  0  0
  7  8  1  0  0  0  0
  7  9  1  0  0  0  0
  9 10  1  0  0  0  0
  9 11  1  0  0  0  0
  9 17  1  0  0  0  0
 11 12  1  0  0  0  0
 11 13  1  0  0  0  0
 11 14  1  0  0  0  0
 14 15  1  0  0  0  0
 14 16  2  0  0  0  0
 17 18  2  0  0  0  0
 17 19  1  0  0  0  0
 19 20  1  0  0  0  0
 19 21  1  0  0  0  0
 21 22  1  0  0  0  0
 21 23  1  0  0  0  0
 21 24  1  0  0  0  0
M  CHG  1  15  -1
M  END
$$$$

  -OEChem-03222214023D

 24 23  0     1  0  0  0  0  0999 V2000
   -2.6860   -3.8299    0.3769 H   0  0  0  0  0  0  0  0  0  0  0  0
   -2.6744   -2.8174   -0.0352 C   0  0  0  0  0  0  0  0  0  0  0  0
   -3.5195   -2.2576    0.3725 H   0  0  0  0  0  0  0  0  0  0  0  0
   -2.7778   -2.8782   -1.1222 H   0  0  0  0  0  0  0  0  0  0  0  0
   -1.3724   -2.1205    0.3159 C   0  0  0  0  0  0  0  0  0  0  0  0
   -0.5633   -2.6763    1.0477 O   0  0  0  0  0  0  0  0  0  0  0  0
   -1.1341   -0.8587   -0.1789 N   0  0  0  0  0  0  0  0  0  0  0  0
   -1.8202   -0.4919   -0.8376 H   0  0  0  0  0  0  0  0  0  0  0  0
    0.1746   -0.1973   -0.1952 C   0  0  1  0  0  0  0  0  0  0  0  0
    0.8292   -0.6959    0.5257 H   0  0  0  0  0  0  0  0  0  0  0  0
    0.8279   -0.3700   -1.5789 C   0  0  0  0  0  0  0  0  0  0  0  0
    1.6871    0.2989   -1.6726 H   0  0  0  0  0  0  0  0  0  0  0  0
    1.1995   -1.3948   -1.6658 H   0  0  0  0  0  0  0  0  0  0  0  0
   -0.1294   -0.1110   -2.7352 C   0  0  0  0  0  0  0  0  0  0  0  0
   -0.5617   -1.1099   -3.3614 O   0  5  0  0  0  0  0  0  0  0  0  0
   -0.4002    1.0780   -3.0167 O   0  0  0  0  0  0  0  0  0  0  0  0
    0.0873    1.2748    0.2780 C   0  0  0  0  0  0  0  0  0  0  0  0
   -0.9395    1.9358    0.1592 O   0  0  0  0  0  0  0  0  0  0  0  0
    1.0408    1.7374    1.1703 N   0  0  0  0  0  0  0  0  0  0  0  0
    1.8556    1.1512    1.3161 H   0  0  0  0  0  0  0  0  0  0  0  0
    0.9842    3.0451    1.8075 C   0  0  0  0  0  0  0  0  0  0  0  0
    0.0941    3.1243    2.4398 H   0  0  0  0  0  0  0  0  0  0  0  0
    1.8684    3.1960    2.4336 H   0  0  0  0  0  0  0  0  0  0  0  0
    0.9551    3.8370    1.0521 H   0  0  0  0  0  0  0  0  0  0  0  0
  1  2  1  0  0  0  0
  2  3  1  0  0  0  0
  2  4  1  0  0  0  0
  2  5  1  0  0  0  0
  5  6  2  0  0  0  0
  5  7  1  0  0  0  0
  7  8  1  0  0  0  0
  7  9  1  0  0  0  0
  9 10  1  0  0  0  0
  9 11  1  0  0  0  0
  9 17  1  0  0  0  0
 11 12  1  0  0  0  0
 11 13  1  0  0  0  0
 11 14  1  0  0  0  0
 14 15  1  0  0  0  0
 14 16  2  0  0  0  0
 17 18  2  0  0  0  0
 17 19  1  0  0  0  0
 19 20  1  0  0  0  0
 19 21  1  0  0  0  0
 21 22  1  0  0  0  0
 21 23  1  0  0  0  0
 21 24  1  0  0  0  0
M  CHG  1  15  -1
M  END
$$$$

  -OEChem-03222214023D

 24 23  0     1  0  0  0  0  0999 V2000
   -2.6603   -3.8462    0.3741 H   0  0  0  0  0  0  0  0  0  0  0  0
   -2.6422   -2.8473   -0.0698 C   0  0  0  0  0  0  0  0  0  0  0  0
   -3.5298   -2.2980    0.2532 H   0  0  0  0  0  0  0  0  0  0  0  0
   -2.6606   -2.9444   -1.1591 H   0  0  0  0  0  0  0  0  0  0  0  0
   -1.3892   -2.1034    0.3551 C   0  0  0  0  0  0  0  0  0  0  0  0
   -0.6160   -2.6192    1.1528 O   0  0  0  0  0  0  0  0  0  0  0  0
   -1.1530   -0.8476   -0.1555 N   0  0  0  0  0  0  0  0  0  0  0  0
   -1.7717   -0.5733   -0.9200 H   0  0  0  0  0  0  0  0  0  0  0  0
    0.1675   -0.2063   -0.1685 C   0  0  1  0  0  0  0  0  0  0  0  0
    0.8259   -0.7136    0.5425 H   0  0  0  0  0  0  0  0  0  0  0  0
    0.7924   -0.3687   -1.5670 C   0  0  0  0  0  0  0  0  0  0  0  0
    1.6648    0.2831   -1.6643 H   0  0  0  0  0  0  0  0  0  0  0  0
    1.1380   -1.3995   -1.6839 H   0  0  0  0  0  0  0  0  0  0  0  0
   -0.1878   -0.0673   -2.6943 C   0  0  0  0  0  0  0  0  0  0  0  0
   -0.8731   -1.0264   -3.1313 O   0  5  0  0  0  0  0  0  0  0  0  0
   -0.1903    1.0890   -3.1740 O   0  0  0  0  0  0  0  0  0  0  0  0
    0.0972    1.2702    0.2921 C   0  0  0  0  0  0  0  0  0  0  0  0
   -0.8963    1.9648    0.1055 O   0  0  0  0  0  0  0  0  0  0  0  0
    1.0470    1.7322    1.1881 N   0  0  0  0  0  0  0  0  0  0  0  0
    1.8305    1.1190    1.3855 H   0  0  0  0  0  0  0  0  0  0  0  0
    1.0129    3.0577    1.7892 C   0  0  0  0  0  0  0  0  0  0  0  0
    0.1180    3.1733    2.4089 H   0  0  0  0  0  0  0  0  0  0  0  0
    1.8937    3.2062    2.4206 H   0  0  0  0  0  0  0  0  0  0  0  0
    1.0093    3.8297    1.0128 H   0  0  0  0  0  0  0  0  0  0  0  0
  1  2  1  0  0  0  0
  2  3  1  0  0  0  0
  2  4  1  0  0  0  0
  2  5  1  0  0  0  0
  5  6  2  0  0  0  0
  5  7  1  0  0  0  0
  7  8  1  0  0  0  0
  7  9  1  0  0  0  0
  9 10  1  0  0  0  0
  9 11  1  0  0  0  0
  9 17  1  0  0  0  0
 11 12  1  0  0  0  0
 11 13  1  0  0  0  0
 11 14  1  0  0  0  0
 14 15  1  0  0  0  0
 14 16  2  0  0  0  0
 17 18  2  0  0  0  0
 17 19  1  0  0  0  0
 19 20  1  0  0  0  0
 19 21  1  0  0  0  0
 21 22  1  0  0  0  0
 21 23  1  0  0  0  0
 21 24  1  0  0  0  0
M  CHG  1  15  -1
M  END
$$$$

  -OEChem-03222214023D

 24 23  0     1  0  0  0  0  0999 V2000
   -2.6127   -3.8855    0.3283 H   0  0  0  0  0  0  0  0  0  0  0  0
   -2.6233   -2.8729   -0.0835 C   0  0  0  0  0  0  0  0  0  0  0  0
   -3.5344   -2.3649    0.2413 H   0  0  0  0  0  0  0  0  0  0  0  0
   -2.6216   -2.9356   -1.1755 H   0  0  0  0  0  0  0  0  0  0  0  0
   -1.4049   -2.0986    0.3851 C   0  0  0  0  0  0  0  0  0  0  0  0
   -0.6574   -2.5878    1.2235 O   0  0  0  0  0  0  0  0  0  0  0  0
   -1.1711   -0.8465   -0.1343 N   0  0  0  0  0  0  0  0  0  0  0  0
   -1.7324   -0.6405   -0.9669 H   0  0  0  0  0  0  0  0  0  0  0  0
    0.1548   -0.2172   -0.1445 C   0  0  1  0  0  0  0  0  0  0  0  0
    0.8181   -0.7321    0.5566 H   0  0  0  0  0  0  0  0  0  0  0  0
    0.7641   -0.3560   -1.5548 C   0  0  0  0  0  0  0  0  0  0  0  0
    1.6459    0.2850   -1.6412 H   0  0  0  0  0  0  0  0  0  0  0  0
    1.0940   -1.3885   -1.6965 H   0  0  0  0  0  0  0  0  0  0  0  0
   -0.2146   -0.0230   -2.6788 C   0  0  0  0  0  0  0  0  0  0  0  0
   -1.1068   -0.8730   -2.9399 O   0  5  0  0  0  0  0  0  0  0  0  0
    0.0011    1.0140   -3.3474 O   0  0  0  0  0  0  0  0  0  0  0  0
    0.0950    1.2613    0.3093 C   0  0  0  0  0  0  0  0  0  0  0  0
   -0.8607    1.9863    0.0555 O   0  0  0  0  0  0  0  0  0  0  0  0
    1.0422    1.7228    1.2080 N   0  0  0  0  0  0  0  0  0  0  0  0
    1.7994    1.0912    1.4454 H   0  0  0  0  0  0  0  0  0  0  0  0
    1.0370    3.0674    1.7650 C   0  0  0  0  0  0  0  0  0  0  0  0
    0.1245    3.2372    2.3454 H   0  0  0  0  0  0  0  0  0  0  0  0
    1.8983    3.2030    2.4256 H   0  0  0  0  0  0  0  0  0  0  0  0
    1.0930    3.8126    0.9649 H   0  0  0  0  0  0  0  0  0  0  0  0
  1  2  1  0  0  0  0
  2  3  1  0  0  0  0
  2  4  1  0  0  0  0
  2  5  1  0  0  0  0
  5  6  2  0  0  0  0
  5  7  1  0  0  0  0
  7  8  1  0  0  0  0
  7  9  1  0  0  0  0
  9 10  1  0  0  0  0
  9 11  1  0  0  0  0
  9 17  1  0  0  0  0
 11 12  1  0  0  0  0
 11 13  1  0  0  0  0
 11 14  1  0  0  0  0
 14 15  1  0  0  0  0
 14 16  2  0  0  0  0
 17 18  2  0  0  0  0
 17 19  1  0  0  0  0
 19 20  1  0  0  0  0
 19 21  1  0  0  0  0
 21 22  1  0  0  0  0
 21 23  1  0  0  0  0
 21 24  1  0  0  0  0
M  CHG  1  15  -1
M  END
$$$$

  -OEChem-03222214023D

 24 23  0     1  0  0  0  0  0999 V2000
   -2.6201   -3.8928    0.3538 H   0  0  0  0  0  0  0  0  0  0  0  0
   -2.6274   -2.8840   -0.0668 C   0  0  0  0  0  0  0  0  0  0  0  0
   -3.5378   -2.3712    0.2521 H   0  0  0  0  0  0  0  0  0  0  0  0
   -2.6246   -2.9559   -1.1581 H   0  0  0  0  0  0  0  0  0  0  0  0
   -1.4079   -2.1084    0.3971 C   0  0  0  0  0  0  0  0  0  0  0  0
   -0.6526   -2.6005    1.2267 O   0  0  0  0  0  0  0  0  0  0  0  0
   -1.1785   -0.8546   -0.1195 N   0  0  0  0  0  0  0  0  0  0  0  0
   -1.7373   -0.6503   -0.9573 H   0  0  0  0  0  0  0  0  0  0  0  0
    0.1439   -0.2224   -0.1397 C   0  0  1  0  0  0  0  0  0  0  0  0
    0.8130   -0.7392    0.5543 H   0  0  0  0  0  0  0  0  0  0  0  0
    0.7544   -0.3380   -1.5546 C   0  0  0  0  0  0  0  0  0  0  0  0
    1.6382    0.3028   -1.6221 H   0  0  0  0  0  0  0  0  0  0  0  0
    1.0854   -1.3690   -1.7022 H   0  0  0  0  0  0  0  0  0  0  0  0
   -0.1974   -0.0030   -2.7065 C   0  0  0  0  0  0  0  0  0  0  0  0
   -1.2477   -0.6894   -2.8328 O   0  5  0  0  0  0  0  0  0  0  0  0
    0.1889    0.8634   -3.5257 O   0  0  0  0  0  0  0  0  0  0  0  0
    0.0842    1.2543    0.3193 C   0  0  0  0  0  0  0  0  0  0  0  0
   -0.8535    1.9924    0.0380 O   0  0  0  0  0  0  0  0  0  0  0  0
    1.0368    1.7175    1.2113 N   0  0  0  0  0  0  0  0  0  0  0  0
    1.7824    1.0778    1.4635 H   0  0  0  0  0  0  0  0  0  0  0  0
    1.0428    3.0670    1.7568 C   0  0  0  0  0  0  0  0  0  0  0  0
    0.1294    3.2514    2.3315 H   0  0  0  0  0  0  0  0  0  0  0  0
    1.9024    3.1997    2.4202 H   0  0  0  0  0  0  0  0  0  0  0  0
    1.1098    3.8048    0.9505 H   0  0  0  0  0  0  0  0  0  0  0  0
  1  2  1  0  0  0  0
  2  3  1  0  0  0  0
  2  4  1  0  0  0  0
  2  5  1  0  0  0  0
  5  6  2  0  0  0  0
  5  7  1  0  0  0  0
  7  8  1  0  0  0  0
  7  9  1  0  0  0  0
  9 10  1  0  0  0  0
  9 11  1  0  0  0  0
  9 17  1  0  0  0  0
 11 12  1  0  0  0  0
 11 13  1  0  0  0  0
 11 14  1  0  0  0  0
 14 15  1  0  0  0  0
 14 16  2  0  0  0  0
 17 18  2  0  0  0  0
 17 19  1  0  0  0  0
 19 20  1  0  0  0  0
 19 21  1  0  0  0  0
 21 22  1  0  0  0  0
 21 23  1  0  0  0  0
 21 24  1  0  0  0  0
M  CHG  1  15  -1
M  END
$$$$

  -OEChem-03222214023D

 24 23  0     1  0  0  0  0  0999 V2000
   -2.6130   -3.9141    0.3351 H   0  0  0  0  0  0  0  0  0  0  0  0
   -2.6385   -2.8920   -0.0518 C   0  0  0  0  0  0  0  0  0  0  0  0
   -3.5398   -2.3941    0.3135 H   0  0  0  0  0  0  0  0  0  0  0  0
   -2.6716   -2.9287   -1.1444 H   0  0  0  0  0  0  0  0  0  0  0  0
   -1.4075   -2.1260    0.3975 C   0  0  0  0  0  0  0  0  0  0  0  0
   -0.6374   -2.6315    1.2051 O   0  0  0  0  0  0  0  0  0  0  0  0
   -1.1827   -0.8677   -0.1087 N   0  0  0  0  0  0  0  0  0  0  0  0
   -1.7583   -0.6378   -0.9297 H   0  0  0  0  0  0  0  0  0  0  0  0
    0.1320   -0.2236   -0.1356 C   0  0  1  0  0  0  0  0  0  0  0  0
    0.8053   -0.7392    0.5551 H   0  0  0  0  0  0  0  0  0  0  0  0
    0.7509   -0.3221   -1.5504 C   0  0  0  0  0  0  0  0  0  0  0  0
    1.6289    0.3282   -1.6009 H   0  0  0  0  0  0  0  0  0  0  0  0
    1.0957   -1.3489   -1.6950 H   0  0  0  0  0  0  0  0  0  0  0  0
   -0.1711    0.0007   -2.7340 C   0  0  0  0  0  0  0  0  0  0  0  0
   -1.3375   -0.4781   -2.7595 O   0  5  0  0  0  0  0  0  0  0  0  0
    0.3470    0.6537   -3.6708 O   0  0  0  0  0  0  0  0  0  0  0  0
    0.0675    1.2493    0.3336 C   0  0  0  0  0  0  0  0  0  0  0  0
   -0.8627    1.9936    0.0450 O   0  0  0  0  0  0  0  0  0  0  0  0
    1.0256    1.7125    1.2198 N   0  0  0  0  0  0  0  0  0  0  0  0
    1.7759    1.0744    1.4628 H   0  0  0  0  0  0  0  0  0  0  0  0
    1.0477    3.0693    1.7464 C   0  0  0  0  0  0  0  0  0  0  0  0
    0.1354    3.2734    2.3159 H   0  0  0  0  0  0  0  0  0  0  0  0
    1.9071    3.2006    2.4104 H   0  0  0  0  0  0  0  0  0  0  0  0
    1.1262    3.7946    0.9301 H   0  0  0  0  0  0  0  0  0  0  0  0
  1  2  1  0  0  0  0
  2  3  1  0  0  0  0
  2  4  1  0  0  0  0
  2  5  1  0  0  0  0
  5  6  2  0  0  0  0
  5  7  1  0  0  0  0
  7  8  1  0  0  0  0
  7  9  1  0  0  0  0
  9 10  1  0  0  0  0
  9 11  1  0  0  0  0
  9 17  1  0  0  0  0
 11 12  1  0  0  0  0
 11 13  1  0  0  0  0
 11 14  1  0  0  0  0
 14 15  1  0  0  0  0
 14 16  2  0  0  0  0
 17 18  2  0  0  0  0
 17 19  1  0  0  0  0
 19 20  1  0  0  0  0
 19 21  1  0  0  0  0
 21 22  1  0  0  0  0
 21 23  1  0  0  0  0
 21 24  1  0  0  0  0
M  CHG  1  15  -1
M  END
$$$$

  -OEChem-03222214023D

 24 23  0     1  0  0  0  0  0999 V2000
   -2.6285   -3.9097    0.3493 H   0  0  0  0  0  0  0  0  0  0  0  0
   -2.6511   -2.8855   -0.0320 C   0  0  0  0  0  0  0  0  0  0  0  0
   -3.5344   -2.3774    0.3622 H   0  0  0  0  0  0  0  0  0  0  0  0
   -2.7169   -2.9159   -1.1231 H   0  0  0  0  0  0  0  0  0  0  0  0
   -1.3974   -2.1389    0.3857 C   0  0  0  0  0  0  0  0  0  0  0  0
   -0.6087   -2.6610    1.1640 O   0  0  0  0  0  0  0  0  0  0  0  0
   -1.1755   -0.8767   -0.1111 N   0  0  0  0  0  0  0  0  0  0  0  0
   -1.7744   -0.6135   -0.9054 H   0  0  0  0  0  0  0  0  0  0  0  0
    0.1305   -0.2183   -0.1432 C   0  0  1  0  0  0  0  0  0  0  0  0
    0.8078   -0.7306    0.5462 H   0  0  0  0  0  0  0  0  0  0  0  0
    0.7538   -0.3152   -1.5567 C   0  0  0  0  0  0  0  0  0  0  0  0
    1.6229    0.3468   -1.6041 H   0  0  0  0  0  0  0  0  0  0  0  0
    1.1136   -1.3383   -1.6897 H   0  0  0  0  0  0  0  0  0  0  0  0
   -0.1505   -0.0148   -2.7614 C   0  0  0  0  0  0  0  0  0  0  0  0
   -1.3871   -0.2532   -2.7033 O   0  5  0  0  0  0  0  0  0  0  0  0
    0.4440    0.3864   -3.7904 O   0  0  0  0  0  0  0  0  0  0  0  0
    0.0603    1.2518    0.3339 C   0  0  0  0  0  0  0  0  0  0  0  0
   -0.8748    1.9948    0.0583 O   0  0  0  0  0  0  0  0  0  0  0  0
    1.0239    1.7144    1.2144 N   0  0  0  0  0  0  0  0  0  0  0  0
    1.7777    1.0773    1.4488 H   0  0  0  0  0  0  0  0  0  0  0  0
    1.0411    3.0656    1.7550 C   0  0  0  0  0  0  0  0  0  0  0  0
    0.1268    3.2623    2.3242 H   0  0  0  0  0  0  0  0  0  0  0  0
    1.8982    3.1918    2.4229 H   0  0  0  0  0  0  0  0  0  0  0  0
    1.1208    3.7993    0.9464 H   0  0  0  0  0  0  0  0  0  0  0  0
  1  2  1  0  0  0  0
  2  3  1  0  0  0  0
  2  4  1  0  0  0  0
  2  5  1  0  0  0  0
  5  6  2  0  0  0  0
  5  7  1  0  0  0  0
  7  8  1  0  0  0  0
  7  9  1  0  0  0  0
  9 10  1  0  0  0  0
  9 11  1  0  0  0  0
  9 17  1  0  0  0  0
 11 12  1  0  0  0  0
 11 13  1  0  0  0  0
 11 14  1  0  0  0  0
 14 15  1  0  0  0  0
 14 16  2  0  0  0  0
 17 18  2  0  0  0  0
 17 19  1  0  0  0  0
 19 20  1  0  0  0  0
 19 21  1  0  0  0  0
 21 22  1  0  0  0  0
 21 23  1  0  0  0  0
 21 24  1  0  0  0  0
M  CHG  1  15  -1
M  END
$$$$

  -OEChem-03222214023D

 24 23  0     1  0  0  0  0  0999 V2000
   -2.6414   -3.9020    0.3552 H   0  0  0  0  0  0  0  0  0  0  0  0
   -2.6590   -2.8780   -0.0276 C   0  0  0  0  0  0  0  0  0  0  0  0
   -3.5305   -2.3597    0.3799 H   0  0  0  0  0  0  0  0  0  0  0  0
   -2.7424   -2.9095   -1.1174 H   0  0  0  0  0  0  0  0  0  0  0  0
   -1.3907   -2.1442    0.3683 C   0  0  0  0  0  0  0  0  0  0  0  0
   -0.5875   -2.6800    1.1218 O   0  0  0  0  0  0  0  0  0  0  0  0
   -1.1708   -0.8783   -0.1199 N   0  0  0  0  0  0  0  0  0  0  0  0
   -1.7913   -0.5821   -0.8854 H   0  0  0  0  0  0  0  0  0  0  0  0
    0.1275   -0.2059   -0.1513 C   0  0  1  0  0  0  0  0  0  0  0  0
    0.8032   -0.7138    0.5428 H   0  0  0  0  0  0  0  0  0  0  0  0
    0.7584   -0.3167   -1.5597 C   0  0  0  0  0  0  0  0  0  0  0  0
    1.6173    0.3577   -1.6148 H   0  0  0  0  0  0  0  0  0  0  0  0
    1.1333   -1.3369   -1.6735 H   0  0  0  0  0  0  0  0  0  0  0  0
   -0.1395   -0.0466   -2.7755 C   0  0  0  0  0  0  0  0  0  0  0  0
   -1.3936   -0.0243   -2.6564 O   0  5  0  0  0  0  0  0  0  0  0  0
    0.4687    0.0799   -3.8652 O   0  0  0  0  0  0  0  0  0  0  0  0
    0.0570    1.2633    0.3308 C   0  0  0  0  0  0  0  0  0  0  0  0
   -0.8883    2.0031    0.0839 O   0  0  0  0  0  0  0  0  0  0  0  0
    1.0264    1.7209    1.2080 N   0  0  0  0  0  0  0  0  0  0  0  0
    1.7848    1.0843    1.4291 H   0  0  0  0  0  0  0  0  0  0  0  0
    1.0395    3.0641    1.7691 C   0  0  0  0  0  0  0  0  0  0  0  0
    0.1343    3.2414    2.3587 H   0  0  0  0  0  0  0  0  0  0  0  0
    1.9083    3.1896    2.4217 H   0  0  0  0  0  0  0  0  0  0  0  0
    1.0949    3.8109    0.9705 H   0  0  0  0  0  0  0  0  0  0  0  0
  1  2  1  0  0  0  0
  2  3  1  0  0  0  0
  2  4  1  0  0  0  0
  2  5  1  0  0  0  0
  5  6  2  0  0  0  0
  5  7  1  0  0  0  0
  7  8  1  0  0  0  0
  7  9  1  0  0  0  0
  9 10  1  0  0  0  0
  9 11  1  0  0  0  0
  9 17  1  0  0  0  0
 11 12  1  0  0  0  0
 11 13  1  0  0  0  0
 11 14  1  0  0  0  0
 14 15  1  0  0  0  0
 14 16  2  0  0  0  0
 17 18  2  0  0  0  0
 17 19  1  0  0  0  0
 19 20  1  0  0  0  0
 19 21  1  0  0  0  0
 21 22  1  0  0  0  0
 21 23  1  0  0  0  0
 21 24  1  0  0  0  0
M  CHG  1  15  -1
M  END
$$$$

  -OEChem-03222214023D

 24 23  0     1  0  0  0  0  0999 V2000
   -2.6574   -3.8848    0.3628 H   0  0  0  0  0  0  0  0  0  0  0  0
   -2.6677   -2.8628   -0.0249 C   0  0  0  0  0  0  0  0  0  0  0  0
   -3.5240   -2.3308    0.3965 H   0  0  0  0  0  0  0  0  0  0  0  0
   -2.7723   -2.8990   -1.1126 H   0  0  0  0  0  0  0  0  0  0  0  0
   -1.3820   -2.1450    0.3436 C   0  0  0  0  0  0  0  0  0  0  0  0
   -0.5650   -2.6954    1.0708 O   0  0  0  0  0  0  0  0  0  0  0  0
   -1.1631   -0.8759   -0.1372 N   0  0  0  0  0  0  0  0  0  0  0  0
   -1.8066   -0.5463   -0.8681 H   0  0  0  0  0  0  0  0  0  0  0  0
    0.1284   -0.1904   -0.1653 C   0  0  1  0  0  0  0  0  0  0  0  0
    0.7991   -0.6930    0.5374 H   0  0  0  0  0  0  0  0  0  0  0  0
    0.7714   -0.3252   -1.5644 C   0  0  0  0  0  0  0  0  0  0  0  0
    1.6187    0.3620   -1.6328 H   0  0  0  0  0  0  0  0  0  0  0  0
    1.1616   -1.3424   -1.6541 H   0  0  0  0  0  0  0  0  0  0  0  0
   -0.1306   -0.0892   -2.7821 C   0  0  0  0  0  0  0  0  0  0  0  0
   -1.3462    0.1997   -2.6323 O   0  5  0  0  0  0  0  0  0  0  0  0
    0.4279   -0.2410   -3.8949 O   0  0  0  0  0  0  0  0  0  0  0  0
    0.0577    1.2786    0.3198 C   0  0  0  0  0  0  0  0  0  0  0  0
   -0.9077    2.0064    0.1196 O   0  0  0  0  0  0  0  0  0  0  0  0
    1.0318    1.7308    1.1951 N   0  0  0  0  0  0  0  0  0  0  0  0
    1.8013    1.1000    1.3931 H   0  0  0  0  0  0  0  0  0  0  0  0
    1.0325    3.0598    1.7890 C   0  0  0  0  0  0  0  0  0  0  0  0
    0.1352    3.2068    2.3986 H   0  0  0  0  0  0  0  0  0  0  0  0
    1.9104    3.1845    2.4296 H   0  0  0  0  0  0  0  0  0  0  0  0
    1.0611    3.8270    1.0084 H   0  0  0  0  0  0  0  0  0  0  0  0
  1  2  1  0  0  0  0
  2  3  1  0  0  0  0
  2  4  1  0  0  0  0
  2  5  1  0  0  0  0
  5  6  2  0  0  0  0
  5  7  1  0  0  0  0
  7  8  1  0  0  0  0
  7  9  1  0  0  0  0
  9 10  1  0  0  0  0
  9 11  1  0  0  0  0
  9 17  1  0  0  0  0
 11 12  1  0  0  0  0
 11 13  1  0  0  0  0
 11 14  1  0  0  0  0
 14 15  1  0  0  0  0
 14 16  2  0  0  0  0
 17 18  2  0  0  0  0
 17 19  1  0  0  0  0
 19 20  1  0  0  0  0
 19 21  1  0  0  0  0
 21 22  1  0  0  0  0
 21 23  1  0  0  0  0
 21 24  1  0  0  0  0
M  CHG  1  15  -1
M  END
$$$$

  -OEChem-03222214023D

 24 23  0     1  0  0  0  0  0999 V2000
   -2.6837   -3.8470    0.3988 H   0  0  0  0  0  0  0  0  0  0  0  0
   -2.6750   -2.8371   -0.0200 C   0  0  0  0  0  0  0  0  0  0  0  0
   -3.5191   -2.2759    0.3881 H   0  0  0  0  0  0  0  0  0  0  0  0
   -2.7842   -2.9037   -1.1058 H   0  0  0  0  0  0  0  0  0  0  0  0
   -1.3736   -2.1345    0.3225 C   0  0  0  0  0  0  0  0  0  0  0  0
   -0.5478   -2.6946    1.0318 O   0  0  0  0  0  0  0  0  0  0  0  0
   -1.1513   -0.8659   -0.1588 N   0  0  0  0  0  0  0  0  0  0  0  0
   -1.8189   -0.5066   -0.8501 H   0  0  0  0  0  0  0  0  0  0  0  0
    0.1376   -0.1755   -0.1875 C   0  0  1  0  0  0  0  0  0  0  0  0
    0.8018   -0.6718    0.5257 H   0  0  0  0  0  0  0  0  0  0  0  0
    0.7919   -0.3412   -1.5762 C   0  0  0  0  0  0  0  0  0  0  0  0
    1.6324    0.3519   -1.6615 H   0  0  0  0  0  0  0  0  0  0  0  0
    1.1905   -1.3575   -1.6411 H   0  0  0  0  0  0  0  0  0  0  0  0
   -0.1216   -0.1343   -2.7875 C   0  0  0  0  0  0  0  0  0  0  0  0
   -1.2410    0.4180   -2.6463 O   0  5  0  0  0  0  0  0  0  0  0  0
    0.3240   -0.5616   -3.8794 O   0  0  0  0  0  0  0  0  0  0  0  0
    0.0669    1.2956    0.2938 C   0  0  0  0  0  0  0  0  0  0  0  0
   -0.9246    2.0018    0.1511 O   0  0  0  0  0  0  0  0  0  0  0  0
    1.0447    1.7455    1.1667 N   0  0  0  0  0  0  0  0  0  0  0  0
    1.8186    1.1170    1.3539 H   0  0  0  0  0  0  0  0  0  0  0  0
    1.0142    3.0478    1.8170 C   0  0  0  0  0  0  0  0  0  0  0  0
    0.1452    3.1245    2.4784 H   0  0  0  0  0  0  0  0  0  0  0  0
    1.9191    3.1902    2.4149 H   0  0  0  0  0  0  0  0  0  0  0  0
    0.9636    3.8472    1.0705 H   0  0  0  0  0  0  0  0  0  0  0  0
  1  2  1  0  0  0  0
  2  3  1  0  0  0  0
  2  4  1  0  0  0  0
  2  5  1  0  0  0  0
  5  6  2  0  0  0  0
  5  7  1  0  0  0  0
  7  8  1  0  0  0  0
  7  9  1  0  0  0  0
  9 10  1  0  0  0  0
  9 11  1  0  0  0  0
  9 17  1  0  0  0  0
 11 12  1  0  0  0  0
 11 13  1  0  0  0  0
 11 14  1  0  0  0  0
 14 15  1  0  0  0  0
 14 16  2  0  0  0  0
 17 18  2  0  0  0  0
 17 19  1  0  0  0  0
 19 20  1  0  0  0  0
 19 21  1  0  0  0  0
 21 22  1  0  0  0  0
 21 23  1  0  0  0  0
 21 24  1  0  0  0  0
M  CHG  1  15  -1
M  END
$$$$

  -OEChem-03222214023D

 24 23  0     1  0  0  0  0  0999 V2000
   -2.7024   -3.8184    0.4268 H   0  0  0  0  0  0  0  0  0  0  0  0
   -2.6865   -2.8143   -0.0057 C   0  0  0  0  0  0  0  0  0  0  0  0
   -3.5124   -2.2341    0.4129 H   0  0  0  0  0  0  0  0  0  0  0  0
   -2.8199   -2.8938   -1.0879 H   0  0  0  0  0  0  0  0  0  0  0  0
   -1.3665   -2.1295    0.2997 C   0  0  0  0  0  0  0  0  0  0  0  0
   -0.5305   -2.7015    0.9869 O   0  0  0  0  0  0  0  0  0  0  0  0
   -1.1423   -0.8605   -0.1813 N   0  0  0  0  0  0  0  0  0  0  0  0
   -1.8373   -0.4722   -0.8242 H   0  0  0  0  0  0  0  0  0  0  0  0
    0.1467   -0.1689   -0.2087 C   0  0  1  0  0  0  0  0  0  0  0  0
    0.8042   -0.6602    0.5144 H   0  0  0  0  0  0  0  0  0  0  0  0
    0.8175   -0.3515   -1.5861 C   0  0  0  0  0  0  0  0  0  0  0  0
    1.6535    0.3460   -1.6770 H   0  0  0  0  0  0  0  0  0  0  0  0
    1.2229   -1.3661   -1.6358 H   0  0  0  0  0  0  0  0  0  0  0  0
   -0.1008   -0.1580   -2.7927 C   0  0  0  0  0  0  0  0  0  0  0  0
   -1.0726    0.6300   -2.7098 O   0  5  0  0  0  0  0  0  0  0  0  0
    0.1838   -0.8265   -3.8154 O   0  0  0  0  0  0  0  0  0  0  0  0
    0.0684    1.3020    0.2735 C   0  0  0  0  0  0  0  0  0  0  0  0
   -0.9489    1.9807    0.1824 O   0  0  0  0  0  0  0  0  0  0  0  0
    1.0452    1.7511    1.1482 N   0  0  0  0  0  0  0  0  0  0  0  0
    1.8362    1.1365    1.3078 H   0  0  0  0  0  0  0  0  0  0  0  0
    0.9942    3.0345    1.8338 C   0  0  0  0  0  0  0  0  0  0  0  0
    0.1392    3.0692    2.5166 H   0  0  0  0  0  0  0  0  0  0  0  0
    1.9087    3.1863    2.4146 H   0  0  0  0  0  0  0  0  0  0  0  0
    0.9045    3.8513    1.1102 H   0  0  0  0  0  0  0  0  0  0  0  0
  1  2  1  0  0  0  0
  2  3  1  0  0  0  0
  2  4  1  0  0  0  0
  2  5  1  0  0  0  0
  5  6  2  0  0  0  0
  5  7  1  0  0  0  0
  7  8  1  0  0  0  0
  7  9  1  0  0  0  0
  9 10  1  0  0  0  0
  9 11  1  0  0  0  0
  9 17  1  0  0  0  0
 11 12  1  0  0  0  0
 11 13  1  0  0  0  0
 11 14  1  0  0  0  0
 14 15  1  0  0  0  0
 14 16  2  0  0  0  0
 17 18  2  0  0  0  0
 17 19  1  0  0  0  0
 19 20  1  0  0  0  0
 19 21  1  0  0  0  0
 21 22  1  0  0  0  0
 21 23  1  0  0  0  0
 21 24  1  0  0  0  0
M  CHG  1  15  -1
M  END
$$$$

  -OEChem-03222214023D

 24 23  0     1  0  0  0  0  0999 V2000
   -2.7017   -3.8176    0.4057 H   0  0  0  0  0  0  0  0  0  0  0  0
   -2.6905   -2.8057   -0.0080 C   0  0  0  0  0  0  0  0  0  0  0  0
   -3.5087   -2.2322    0.4340 H   0  0  0  0  0  0  0  0  0  0  0  0
   -2.8404   -2.8651   -1.0893 H   0  0  0  0  0  0  0  0  0  0  0  0
   -1.3645   -2.1296    0.2896 C   0  0  0  0  0  0  0  0  0  0  0  0
   -0.5273   -2.7074    0.9705 O   0  0  0  0  0  0  0  0  0  0  0  0
   -1.1368   -0.8607   -0.1909 N   0  0  0  0  0  0  0  0  0  0  0  0
   -1.8485   -0.4548   -0.8004 H   0  0  0  0  0  0  0  0  0  0  0  0
    0.1557   -0.1738   -0.2141 C   0  0  1  0  0  0  0  0  0  0  0  0
    0.8087   -0.6646    0.5133 H   0  0  0  0  0  0  0  0  0  0  0  0
    0.8336   -0.3591   -1.5865 C   0  0  0  0  0  0  0  0  0  0  0  0
    1.6716    0.3362   -1.6762 H   0  0  0  0  0  0  0  0  0  0  0  0
    1.2369   -1.3746   -1.6361 H   0  0  0  0  0  0  0  0  0  0  0  0
   -0.0912   -0.1575   -2.7841 C   0  0  0  0  0  0  0  0  0  0  0  0
   -0.8672    0.8250   -2.7904 O   0  5  0  0  0  0  0  0  0  0  0  0
   -0.0279   -1.0177   -3.6955 O   0  0  0  0  0  0  0  0  0  0  0  0
    0.0695    1.2960    0.2704 C   0  0  0  0  0  0  0  0  0  0  0  0
   -0.9641    1.9533    0.2017 O   0  0  0  0  0  0  0  0  0  0  0  0
    1.0399    1.7479    1.1508 N   0  0  0  0  0  0  0  0  0  0  0  0
    1.8516    1.1540    1.2825 H   0  0  0  0  0  0  0  0  0  0  0  0
    0.9840    3.0339    1.8310 C   0  0  0  0  0  0  0  0  0  0  0  0
    0.1183    3.0764    2.4997 H   0  0  0  0  0  0  0  0  0  0  0  0
    1.8896    3.1830    2.4263 H   0  0  0  0  0  0  0  0  0  0  0  0
    0.9100    3.8482    1.1029 H   0  0  0  0  0  0  0  0  0  0  0  0
  1  2  1  0  0  0  0
  2  3  1  0  0  0  0
  2  4  1  0  0  0  0
  2  5  1  0  0  0  0
  5  6  2  0  0  0  0
  5  7  1  0  0  0  0
  7  8  1  0  0  0  0
  7  9  1  0  0  0  0
  9 10  1  0  0  0  0
  9 11  1  0  0  0  0
  9 17  1  0  0  0  0
 11 12  1  0  0  0  0
 11 13  1  0  0  0  0
 11 14  1  0  0  0  0
 14 15  1  0  0  0  0
 14 16  2  0  0  0  0
 17 18  2  0  0  0  0
 17 19  1  0  0  0  0
 19 20  1  0  0  0  0
 19 21  1  0  0  0  0
 21 22  1  0  0  0  0
 21 23  1  0  0  0  0
 21 24  1  0  0  0  0
M  CHG  1  15  -1
M  END
$$$$

  -OEChem-03222214023D

 24 23  0     1  0  0  0  0  0999 V2000
   -2.6968   -3.8156    0.3922 H   0  0  0  0  0  0  0  0  0  0  0  0
   -2.6816   -2.8055   -0.0260 C   0  0  0  0  0  0  0  0  0  0  0  0
   -3.5130   -2.2341    0.3939 H   0  0  0  0  0  0  0  0  0  0  0  0
   -2.8054   -2.8710   -1.1105 H   0  0  0  0  0  0  0  0  0  0  0  0
   -1.3662   -2.1205    0.2977 C   0  0  0  0  0  0  0  0  0  0  0  0
   -0.5433   -2.6874    1.0051 O   0  0  0  0  0  0  0  0  0  0  0  0
   -1.1331   -0.8554   -0.1905 N   0  0  0  0  0  0  0  0  0  0  0  0
   -1.8358   -0.4648   -0.8183 H   0  0  0  0  0  0  0  0  0  0  0  0
    0.1669   -0.1803   -0.2103 C   0  0  1  0  0  0  0  0  0  0  0  0
    0.8180   -0.6728    0.5180 H   0  0  0  0  0  0  0  0  0  0  0  0
    0.8382   -0.3689   -1.5850 C   0  0  0  0  0  0  0  0  0  0  0  0
    1.6835    0.3173   -1.6783 H   0  0  0  0  0  0  0  0  0  0  0  0
    1.2312   -1.3880   -1.6449 H   0  0  0  0  0  0  0  0  0  0  0  0
   -0.1001   -0.1479   -2.7664 C   0  0  0  0  0  0  0  0  0  0  0  0
   -0.6432    0.9723   -2.8918 O   0  5  0  0  0  0  0  0  0  0  0  0
   -0.3264   -1.1351   -3.5080 O   0  0  0  0  0  0  0  0  0  0  0  0
    0.0799    1.2910    0.2674 C   0  0  0  0  0  0  0  0  0  0  0  0
   -0.9549    1.9453    0.1867 O   0  0  0  0  0  0  0  0  0  0  0  0
    1.0429    1.7471    1.1535 N   0  0  0  0  0  0  0  0  0  0  0  0
    1.8553    1.1559    1.2925 H   0  0  0  0  0  0  0  0  0  0  0  0
    0.9800    3.0366    1.8260 C   0  0  0  0  0  0  0  0  0  0  0  0
    0.1142    3.0774    2.4947 H   0  0  0  0  0  0  0  0  0  0  0  0
    1.8846    3.1945    2.4202 H   0  0  0  0  0  0  0  0  0  0  0  0
    0.9020    3.8462    1.0930 H   0  0  0  0  0  0  0  0  0  0  0  0
  1  2  1  0  0  0  0
  2  3  1  0  0  0  0
  2  4  1  0  0  0  0
  2  5  1  0  0  0  0
  5  6  2  0  0  0  0
  5  7  1  0  0  0  0
  7  8  1  0  0  0  0
  7  9  1  0  0  0  0
  9 10  1  0  0  0  0
  9 11  1  0  0  0  0
  9 17  1  0  0  0  0
 11 12  1  0  0  0  0
 11 13  1  0  0  0  0
 11 14  1  0  0  0  0
 14 15  1  0  0  0  0
 14 16  2  0  0  0  0
 17 18  2  0  0  0  0
 17 19  1  0  0  0  0
 19 20  1  0  0  0  0
 19 21  1  0  0  0  0
 21 22  1  0  0  0  0
 21 23  1  0  0  0  0
 21 24  1  0  0  0  0
M  CHG  1  15  -1
M  END
$$$$

  -OEChem-03222214023D

 24 23  0     1  0  0  0  0  0999 V2000
   -2.6569   -3.8400    0.3467 H   0  0  0  0  0  0  0  0  0  0  0  0
   -2.6521   -2.8279   -0.0665 C   0  0  0  0  0  0  0  0  0  0  0  0
   -3.5219   -2.2847    0.3105 H   0  0  0  0  0  0  0  0  0  0  0  0
   -2.7163   -2.8915   -1.1565 H   0  0  0  0  0  0  0  0  0  0  0  0
   -1.3783   -2.1031    0.3279 C   0  0  0  0  0  0  0  0  0  0  0  0
   -0.5878   -2.6367    1.0964 O   0  0  0  0  0  0  0  0  0  0  0  0
   -1.1439   -0.8439   -0.1749 N   0  0  0  0  0  0  0  0  0  0  0  0
   -1.7955   -0.5244   -0.8922 H   0  0  0  0  0  0  0  0  0  0  0  0
    0.1673   -0.1874   -0.1903 C   0  0  1  0  0  0  0  0  0  0  0  0
    0.8181   -0.6850    0.5344 H   0  0  0  0  0  0  0  0  0  0  0  0
    0.8183   -0.3791   -1.5738 C   0  0  0  0  0  0  0  0  0  0  0  0
    1.6780    0.2881   -1.6745 H   0  0  0  0  0  0  0  0  0  0  0  0
    1.1875   -1.4055   -1.6520 H   0  0  0  0  0  0  0  0  0  0  0  0
   -0.1389   -0.1274   -2.7325 C   0  0  0  0  0  0  0  0  0  0  0  0
   -0.4314    1.0582   -3.0044 O   0  5  0  0  0  0  0  0  0  0  0  0
   -0.6862   -1.1332   -3.2490 O   0  0  0  0  0  0  0  0  0  0  0  0
    0.0928    1.2887    0.2742 C   0  0  0  0  0  0  0  0  0  0  0  0
   -0.9229    1.9648    0.1476 O   0  0  0  0  0  0  0  0  0  0  0  0
    1.0503    1.7458    1.1655 N   0  0  0  0  0  0  0  0  0  0  0  0
    1.8457    1.1401    1.3362 H   0  0  0  0  0  0  0  0  0  0  0  0
    0.9997    3.0510    1.8086 C   0  0  0  0  0  0  0  0  0  0  0  0
    0.1163    3.1270    2.4506 H   0  0  0  0  0  0  0  0  0  0  0  0
    1.8906    3.2006    2.4256 H   0  0  0  0  0  0  0  0  0  0  0  0
    0.9616    3.8458    1.0566 H   0  0  0  0  0  0  0  0  0  0  0  0
  1  2  1  0  0  0  0
  2  3  1  0  0  0  0
  2  4  1  0  0  0  0
  2  5  1  0  0  0  0
  5  6  2  0  0  0  0
  5  7  1  0  0  0  0
  7  8  1  0  0  0  0
  7  9  1  0  0  0  0
  9 10  1  0  0  0  0
  9 11  1  0  0  0  0
  9 17  1  0  0  0  0
 11 12  1  0  0  0  0
 11 13  1  0  0  0  0
 11 14  1  0  0  0  0
 14 15  1  0  0  0  0
 14 16  2  0  0  0  0
 17 18  2  0  0  0  0
 17 19  1  0  0  0  0
 19 20  1  0  0  0  0
 19 21  1  0  0  0  0
 21 22  1  0  0  0  0
 21 23  1  0  0  0  0
 21 24  1  0  0  0  0
M  CHG  1  15  -1
M  END
$$$$

  -OEChem-03222214023D

 24 23  0     1  0  0  0  0  0999 V2000
   -2.6196   -3.8690    0.3190 H   0  0  0  0  0  0  0  0  0  0  0  0
   -2.6287   -2.8549   -0.0886 C   0  0  0  0  0  0  0  0  0  0  0  0
   -3.5299   -2.3410    0.2539 H   0  0  0  0  0  0  0  0  0  0  0  0
   -2.6459   -2.9135   -1.1808 H   0  0  0  0  0  0  0  0  0  0  0  0
   -1.3958   -2.0930    0.3623 C   0  0  0  0  0  0  0  0  0  0  0  0
   -0.6362   -2.5943    1.1826 O   0  0  0  0  0  0  0  0  0  0  0  0
   -1.1614   -0.8400   -0.1551 N   0  0  0  0  0  0  0  0  0  0  0  0
   -1.7479   -0.6029   -0.9590 H   0  0  0  0  0  0  0  0  0  0  0  0
    0.1590   -0.2002   -0.1658 C   0  0  1  0  0  0  0  0  0  0  0  0
    0.8124   -0.7045    0.5519 H   0  0  0  0  0  0  0  0  0  0  0  0
    0.7914   -0.3790   -1.5610 C   0  0  0  0  0  0  0  0  0  0  0  0
    1.6648    0.2715   -1.6580 H   0  0  0  0  0  0  0  0  0  0  0  0
    1.1378   -1.4108   -1.6638 H   0  0  0  0  0  0  0  0  0  0  0  0
   -0.1735   -0.0919   -2.7066 C   0  0  0  0  0  0  0  0  0  0  0  0
   -0.2289    1.0797   -3.1427 O   0  5  0  0  0  0  0  0  0  0  0  0
   -0.9640   -1.0148   -3.0327 O   0  0  0  0  0  0  0  0  0  0  0  0
    0.0963    1.2800    0.2858 C   0  0  0  0  0  0  0  0  0  0  0  0
   -0.8910    1.9835    0.1002 O   0  0  0  0  0  0  0  0  0  0  0  0
    1.0489    1.7374    1.1817 N   0  0  0  0  0  0  0  0  0  0  0  0
    1.8223    1.1149    1.3883 H   0  0  0  0  0  0  0  0  0  0  0  0
    1.0232    3.0630    1.7827 C   0  0  0  0  0  0  0  0  0  0  0  0
    0.1237    3.1885    2.3942 H   0  0  0  0  0  0  0  0  0  0  0  0
    1.8996    3.2020    2.4224 H   0  0  0  0  0  0  0  0  0  0  0  0
    1.0356    3.8346    1.0060 H   0  0  0  0  0  0  0  0  0  0  0  0
  1  2  1  0  0  0  0
  2  3  1  0  0  0  0
  2  4  1  0  0  0  0
  2  5  1  0  0  0  0
  5  6  2  0  0  0  0
  5  7  1  0  0  0  0
  7  8  1  0  0  0  0
  7  9  1  0  0  0  0
  9 10  1  0  0  0  0
  9 11  1  0  0  0  0
  9 17  1  0  0  0  0
 11 12  1  0  0  0  0
 11 13  1  0  0  0  0
 11 14  1  0  0  0  0
 14 15  1  0  0  0  0
 14 16  2  0  0  0  0
 17 18  2  0  0  0  0
 17 19  1  0  0  0  0
 19 20  1  0  0  0  0
 19 21  1  0  0  0  0
 21 22  1  0  0  0  0
 21 23  1  0  0  0  0
 21 24  1  0  0  0  0
M  CHG  1  15  -1
M  END
$$$$

  -OEChem-03222214023D

 24 23  0     1  0  0  0  0  0999 V2000
   -2.6045   -3.8898    0.3201 H   0  0  0  0  0  0  0  0  0  0  0  0
   -2.6232   -2.8739   -0.0832 C   0  0  0  0  0  0  0  0  0  0  0  0
   -3.5367   -2.3746    0.2483 H   0  0  0  0  0  0  0  0  0  0  0  0
   -2.6248   -2.9276   -1.1757 H   0  0  0  0  0  0  0  0  0  0  0  0
   -1.4082   -2.0954    0.3878 C   0  0  0  0  0  0  0  0  0  0  0  0
   -0.6600   -2.5840    1.2261 O   0  0  0  0  0  0  0  0  0  0  0  0
   -1.1742   -0.8449   -0.1353 N   0  0  0  0  0  0  0  0  0  0  0  0
   -1.7323   -0.6417   -0.9715 H   0  0  0  0  0  0  0  0  0  0  0  0
    0.1502   -0.2144   -0.1489 C   0  0  1  0  0  0  0  0  0  0  0  0
    0.8093   -0.7251    0.5588 H   0  0  0  0  0  0  0  0  0  0  0  0
    0.7704   -0.3670   -1.5542 C   0  0  0  0  0  0  0  0  0  0  0  0
    1.6515    0.2753   -1.6383 H   0  0  0  0  0  0  0  0  0  0  0  0
    1.1064   -1.3994   -1.6807 H   0  0  0  0  0  0  0  0  0  0  0  0
   -0.1893   -0.0522   -2.7004 C   0  0  0  0  0  0  0  0  0  0  0  0
   -0.0348    1.0353   -3.3019 O   0  5  0  0  0  0  0  0  0  0  0  0
   -1.1299   -0.8629   -2.9134 O   0  0  0  0  0  0  0  0  0  0  0  0
    0.0935    1.2662    0.2996 C   0  0  0  0  0  0  0  0  0  0  0  0
   -0.8694    1.9881    0.0652 O   0  0  0  0  0  0  0  0  0  0  0  0
    1.0450    1.7267    1.1948 N   0  0  0  0  0  0  0  0  0  0  0  0
    1.8040    1.0951    1.4264 H   0  0  0  0  0  0  0  0  0  0  0  0
    1.0368    3.0673    1.7618 C   0  0  0  0  0  0  0  0  0  0  0  0
    0.1280    3.2277    2.3507 H   0  0  0  0  0  0  0  0  0  0  0  0
    1.9024    3.2039    2.4165 H   0  0  0  0  0  0  0  0  0  0  0  0
    1.0817    3.8184    0.9665 H   0  0  0  0  0  0  0  0  0  0  0  0
  1  2  1  0  0  0  0
  2  3  1  0  0  0  0
  2  4  1  0  0  0  0
  2  5  1  0  0  0  0
  5  6  2  0  0  0  0
  5  7  1  0  0  0  0
  7  8  1  0  0  0  0
  7  9  1  0  0  0  0
  9 10  1  0  0  0  0
  9 11  1  0  0  0  0
  9 17  1  0  0  0  0
 11 12  1  0  0  0  0
 11 13  1  0  0  0  0
 11 14  1  0  0  0  0
 14 15  1  0  0  0  0
 14 16  2  0  0  0  0
 17 18  2  0  0  0  0
 17 19  1  0  0  0  0
 19 20  1  0  0  0  0
 19 21  1  0  0  0  0
 21 22  1  0  0  0  0
 21 23  1  0  0  0  0
 21 24  1  0  0  0  0
M  CHG  1  15  -1
M  END
$$$$

  -OEChem-03222214023D

 24 23  0     1  0  0  0  0  0999 V2000
   -2.6139   -3.8985    0.3385 H   0  0  0  0  0  0  0  0  0  0  0  0
   -2.6306   -2.8832   -0.0658 C   0  0  0  0  0  0  0  0  0  0  0  0
   -3.5395   -2.3794    0.2715 H   0  0  0  0  0  0  0  0  0  0  0  0
   -2.6399   -2.9376   -1.1580 H   0  0  0  0  0  0  0  0  0  0  0  0
   -1.4096   -2.1095    0.3971 C   0  0  0  0  0  0  0  0  0  0  0  0
   -0.6553   -2.6020    1.2275 O   0  0  0  0  0  0  0  0  0  0  0  0
   -1.1790   -0.8567   -0.1208 N   0  0  0  0  0  0  0  0  0  0  0  0
   -1.7368   -0.6520   -0.9591 H   0  0  0  0  0  0  0  0  0  0  0  0
    0.1426   -0.2235   -0.1398 C   0  0  1  0  0  0  0  0  0  0  0  0
    0.8090   -0.7376    0.5590 H   0  0  0  0  0  0  0  0  0  0  0  0
    0.7589   -0.3471   -1.5513 C   0  0  0  0  0  0  0  0  0  0  0  0
    1.6392    0.2985   -1.6182 H   0  0  0  0  0  0  0  0  0  0  0  0
    1.0996   -1.3754   -1.6943 H   0  0  0  0  0  0  0  0  0  0  0  0
   -0.1879   -0.0204   -2.7091 C   0  0  0  0  0  0  0  0  0  0  0  0
    0.1434    0.9211   -3.4669 O   0  5  0  0  0  0  0  0  0  0  0  0
   -1.2358   -0.7095   -2.8381 O   0  0  0  0  0  0  0  0  0  0  0  0
    0.0816    1.2540    0.3163 C   0  0  0  0  0  0  0  0  0  0  0  0
   -0.8644    1.9866    0.0492 O   0  0  0  0  0  0  0  0  0  0  0  0
    1.0338    1.7170    1.2089 N   0  0  0  0  0  0  0  0  0  0  0  0
    1.7877    1.0823    1.4491 H   0  0  0  0  0  0  0  0  0  0  0  0
    1.0432    3.0684    1.7493 C   0  0  0  0  0  0  0  0  0  0  0  0
    0.1330    3.2560    2.3277 H   0  0  0  0  0  0  0  0  0  0  0  0
    1.9060    3.2028    2.4079 H   0  0  0  0  0  0  0  0  0  0  0  0
    1.1072    3.8026    0.9397 H   0  0  0  0  0  0  0  0  0  0  0  0
  1  2  1  0  0  0  0
  2  3  1  0  0  0  0
  2  4  1  0  0  0  0
  2  5  1  0  0  0  0
  5  6  2  0  0  0  0
  5  7  1  0  0  0  0
  7  8  1  0  0  0  0
  7  9  1  0  0  0  0
  9 10  1  0  0  0  0
  9 11  1  0  0  0  0
  9 17  1  0  0  0  0
 11 12  1  0  0  0  0
 11 13  1  0  0  0  0
 11 14  1  0  0  0  0
 14 15  1  0  0  0  0
 14 16  2  0  0  0  0
 17 18  2  0  0  0  0
 17 19  1  0  0  0  0
 19 20  1  0  0  0  0
 19 21  1  0  0  0  0
 21 22  1  0  0  0  0
 21 23  1  0  0  0  0
 21 24  1  0  0  0  0
M  CHG  1  15  -1
M  END
$$$$

  -OEChem-03222214023D

 24 23  0     1  0  0  0  0  0999 V2000
   -2.6176   -3.9083    0.3425 H   0  0  0  0  0  0  0  0  0  0  0  0
   -2.6412   -2.8870   -0.0465 C   0  0  0  0  0  0  0  0  0  0  0  0
   -3.5412   -2.3865    0.3186 H   0  0  0  0  0  0  0  0  0  0  0  0
   -2.6753   -2.9256   -1.1389 H   0  0  0  0  0  0  0  0  0  0  0  0
   -1.4083   -2.1226    0.4001 C   0  0  0  0  0  0  0  0  0  0  0  0
   -0.6406   -2.6261    1.2112 O   0  0  0  0  0  0  0  0  0  0  0  0
   -1.1815   -0.8660   -0.1098 N   0  0  0  0  0  0  0  0  0  0  0  0
   -1.7528   -0.6428   -0.9354 H   0  0  0  0  0  0  0  0  0  0  0  0
    0.1353   -0.2260   -0.1367 C   0  0  1  0  0  0  0  0  0  0  0  0
    0.8081   -0.7414    0.5549 H   0  0  0  0  0  0  0  0  0  0  0  0
    0.7508   -0.3290   -1.5522 C   0  0  0  0  0  0  0  0  0  0  0  0
    1.6270    0.3236   -1.6056 H   0  0  0  0  0  0  0  0  0  0  0  0
    1.1022   -1.3528   -1.7019 H   0  0  0  0  0  0  0  0  0  0  0  0
   -0.1777   -0.0027   -2.7287 C   0  0  0  0  0  0  0  0  0  0  0  0
    0.2994    0.7348   -3.6235 O   0  5  0  0  0  0  0  0  0  0  0  0
   -1.3197   -0.5357   -2.7767 O   0  0  0  0  0  0  0  0  0  0  0  0
    0.0715    1.2481    0.3292 C   0  0  0  0  0  0  0  0  0  0  0  0
   -0.8634    1.9888    0.0459 O   0  0  0  0  0  0  0  0  0  0  0  0
    1.0284    1.7122    1.2160 N   0  0  0  0  0  0  0  0  0  0  0  0
    1.7811    1.0762    1.4567 H   0  0  0  0  0  0  0  0  0  0  0  0
    1.0468    3.0679    1.7454 C   0  0  0  0  0  0  0  0  0  0  0  0
    0.1313    3.2702    2.3107 H   0  0  0  0  0  0  0  0  0  0  0  0
    1.9026    3.1986    2.4143 H   0  0  0  0  0  0  0  0  0  0  0  0
    1.1292    3.7948    0.9307 H   0  0  0  0  0  0  0  0  0  0  0  0
  1  2  1  0  0  0  0
  2  3  1  0  0  0  0
  2  4  1  0  0  0  0
  2  5  1  0  0  0  0
  5  6  2  0  0  0  0
  5  7  1  0  0  0  0
  7  8  1  0  0  0  0
  7  9  1  0  0  0  0
  9 10  1  0  0  0  0
  9 11  1  0  0  0  0
  9 17  1  0  0  0  0
 11 12  1  0  0  0  0
 11 13  1  0  0  0  0
 11 14  1  0  0  0  0
 14 15  1  0  0  0  0
 14 16  2  0  0  0  0
 17 18  2  0  0  0  0
 17 19  1  0  0  0  0
 19 20  1  0  0  0  0
 19 21  1  0  0  0  0
 21 22  1  0  0  0  0
 21 23  1  0  0  0  0
 21 24  1  0  0  0  0
M  CHG  1  15  -1
M  END
$$$$

  -OEChem-03222214023D

 24 23  0     1  0  0  0  0  0999 V2000
   -2.6285   -3.9073    0.3540 H   0  0  0  0  0  0  0  0  0  0  0  0
   -2.6523   -2.8836   -0.0289 C   0  0  0  0  0  0  0  0  0  0  0  0
   -3.5388   -2.3772    0.3606 H   0  0  0  0  0  0  0  0  0  0  0  0
   -2.7131   -2.9159   -1.1204 H   0  0  0  0  0  0  0  0  0  0  0  0
   -1.4019   -2.1333    0.3925 C   0  0  0  0  0  0  0  0  0  0  0  0
   -0.6185   -2.6499    1.1799 O   0  0  0  0  0  0  0  0  0  0  0  0
   -1.1792   -0.8725   -0.1082 N   0  0  0  0  0  0  0  0  0  0  0  0
   -1.7703   -0.6226   -0.9126 H   0  0  0  0  0  0  0  0  0  0  0  0
    0.1306   -0.2208   -0.1411 C   0  0  1  0  0  0  0  0  0  0  0  0
    0.8080   -0.7350    0.5467 H   0  0  0  0  0  0  0  0  0  0  0  0
    0.7488   -0.3149   -1.5571 C   0  0  0  0  0  0  0  0  0  0  0  0
    1.6169    0.3489   -1.6046 H   0  0  0  0  0  0  0  0  0  0  0  0
    1.1153   -1.3341   -1.7019 H   0  0  0  0  0  0  0  0  0  0  0  0
   -0.1629   -0.0025   -2.7527 C   0  0  0  0  0  0  0  0  0  0  0  0
    0.4116    0.4818   -3.7570 O   0  5  0  0  0  0  0  0  0  0  0  0
   -1.3772   -0.3408   -2.7232 O   0  0  0  0  0  0  0  0  0  0  0  0
    0.0635    1.2501    0.3338 C   0  0  0  0  0  0  0  0  0  0  0  0
   -0.8680    1.9950    0.0516 O   0  0  0  0  0  0  0  0  0  0  0  0
    1.0267    1.7125    1.2149 N   0  0  0  0  0  0  0  0  0  0  0  0
    1.7766    1.0729    1.4550 H   0  0  0  0  0  0  0  0  0  0  0  0
    1.0464    3.0649    1.7529 C   0  0  0  0  0  0  0  0  0  0  0  0
    0.1286    3.2671    2.3141 H   0  0  0  0  0  0  0  0  0  0  0  0
    1.8986    3.1880    2.4275 H   0  0  0  0  0  0  0  0  0  0  0  0
    1.1362    3.7969    0.9438 H   0  0  0  0  0  0  0  0  0  0  0  0
  1  2  1  0  0  0  0
  2  3  1  0  0  0  0
  2  4  1  0  0  0  0
  2  5  1  0  0  0  0
  5  6  2  0  0  0  0
  5  7  1  0  0  0  0
  7  8  1  0  0  0  0
  7  9  1  0  0  0  0
  9 10  1  0  0  0  0
  9 11  1  0  0  0  0
  9 17  1  0  0  0  0
 11 12  1  0  0  0  0
 11 13  1  0  0  0  0
 11 14  1  0  0  0  0
 14 15  1  0  0  0  0
 14 16  2  0  0  0  0
 17 18  2  0  0  0  0
 17 19  1  0  0  0  0
 19 20  1  0  0  0  0
 19 21  1  0  0  0  0
 21 22  1  0  0  0  0
 21 23  1  0  0  0  0
 21 24  1  0  0  0  0
M  CHG  1  15  -1
M  END
$$$$

  -OEChem-03222214023D

 24 23  0     1  0  0  0  0  0999 V2000
   -2.6345   -3.9037    0.3517 H   0  0  0  0  0  0  0  0  0  0  0  0
   -2.6572   -2.8784   -0.0267 C   0  0  0  0  0  0  0  0  0  0  0  0
   -3.5341   -2.3679    0.3785 H   0  0  0  0  0  0  0  0  0  0  0  0
   -2.7351   -2.9057   -1.1171 H   0  0  0  0  0  0  0  0  0  0  0  0
   -1.3958   -2.1377    0.3787 C   0  0  0  0  0  0  0  0  0  0  0  0
   -0.5975   -2.6676    1.1417 O   0  0  0  0  0  0  0  0  0  0  0  0
   -1.1764   -0.8724   -0.1119 N   0  0  0  0  0  0  0  0  0  0  0  0
   -1.7876   -0.5922   -0.8910 H   0  0  0  0  0  0  0  0  0  0  0  0
    0.1263   -0.2079   -0.1464 C   0  0  1  0  0  0  0  0  0  0  0  0
    0.8047   -0.7201    0.5417 H   0  0  0  0  0  0  0  0  0  0  0  0
    0.7478   -0.3088   -1.5603 C   0  0  0  0  0  0  0  0  0  0  0  0
    1.6081    0.3641   -1.6128 H   0  0  0  0  0  0  0  0  0  0  0  0
    1.1252   -1.3263   -1.6901 H   0  0  0  0  0  0  0  0  0  0  0  0
   -0.1538   -0.0206   -2.7700 C   0  0  0  0  0  0  0  0  0  0  0  0
    0.4555    0.1731   -3.8492 O   0  5  0  0  0  0  0  0  0  0  0  0
   -1.4060   -0.1266   -2.6730 O   0  0  0  0  0  0  0  0  0  0  0  0
    0.0596    1.2609    0.3365 C   0  0  0  0  0  0  0  0  0  0  0  0
   -0.8743    2.0082    0.0693 O   0  0  0  0  0  0  0  0  0  0  0  0
    1.0296    1.7181    1.2132 N   0  0  0  0  0  0  0  0  0  0  0  0
    1.7792    1.0756    1.4467 H   0  0  0  0  0  0  0  0  0  0  0  0
    1.0485    3.0640    1.7672 C   0  0  0  0  0  0  0  0  0  0  0  0
    0.1352    3.2553    2.3398 H   0  0  0  0  0  0  0  0  0  0  0  0
    1.9067    3.1832    2.4350 H   0  0  0  0  0  0  0  0  0  0  0  0
    1.1267    3.8055    0.9656 H   0  0  0  0  0  0  0  0  0  0  0  0
  1  2  1  0  0  0  0
  2  3  1  0  0  0  0
  2  4  1  0  0  0  0
  2  5  1  0  0  0  0
  5  6  2  0  0  0  0
  5  7  1  0  0  0  0
  7  8  1  0  0  0  0
  7  9  1  0  0  0  0
  9 10  1  0  0  0  0
  9 11  1  0  0  0  0
  9 17  1  0  0  0  0
 11 12  1  0  0  0  0
 11 13  1  0  0  0  0
 11 14  1  0  0  0  0
 14 15  1  0  0  0  0
 14 16  2  0  0  0  0
 17 18  2  0  0  0  0
 17 19  1  0  0  0  0
 19 20  1  0  0  0  0
 19 21  1  0  0  0  0
 21 22  1  0  0  0  0
 21 23  1  0  0  0  0
 21 24  1  0  0  0  0
M  CHG  1  15  -1
M  END
$$$$

  -OEChem-03222214023D

 24 23  0     1  0  0  0  0  0999 V2000
   -2.6617   -3.8587    0.3331 H   0  0  0  0  0  0  0  0  0  0  0  0
   -2.6685   -2.8339   -0.0476 C   0  0  0  0  0  0  0  0  0  0  0  0
   -3.5138   -2.2974    0.3901 H   0  0  0  0  0  0  0  0  0  0  0  0
   -2.7893   -2.8615   -1.1338 H   0  0  0  0  0  0  0  0  0  0  0  0
   -1.3712   -2.1297    0.3074 C   0  0  0  0  0  0  0  0  0  0  0  0
   -0.5432   -2.6983    1.0073 O   0  0  0  0  0  0  0  0  0  0  0  0
   -1.1541   -0.8539   -0.1569 N   0  0  0  0  0  0  0  0  0  0  0  0
   -1.8158   -0.4941   -0.8536 H   0  0  0  0  0  0  0  0  0  0  0  0
    0.1284   -0.1526   -0.1734 C   0  0  1  0  0  0  0  0  0  0  0  0
    0.7890   -0.6576    0.5374 H   0  0  0  0  0  0  0  0  0  0  0  0
    0.7822   -0.3244   -1.5589 C   0  0  0  0  0  0  0  0  0  0  0  0
    1.7524    0.1788   -1.5544 H   0  0  0  0  0  0  0  0  0  0  0  0
    0.9659   -1.3886   -1.7297 H   0  0  0  0  0  0  0  0  0  0  0  0
   -0.0141    0.2048   -2.7539 C   0  0  0  0  0  0  0  0  0  0  0  0
    0.5398    0.0575   -3.8698 O   0  5  0  0  0  0  0  0  0  0  0  0
   -1.2245    0.5089   -2.6004 O   0  0  0  0  0  0  0  0  0  0  0  0
    0.0660    1.3145    0.3221 C   0  0  0  0  0  0  0  0  0  0  0  0
   -0.9236    2.0254    0.1908 O   0  0  0  0  0  0  0  0  0  0  0  0
    1.0471    1.7518    1.1975 N   0  0  0  0  0  0  0  0  0  0  0  0
    1.8319    1.1292    1.3569 H   0  0  0  0  0  0  0  0  0  0  0  0
    1.0401    3.0614    1.8336 C   0  0  0  0  0  0  0  0  0  0  0  0
    0.1545    3.1746    2.4671 H   0  0  0  0  0  0  0  0  0  0  0  0
    1.9302    3.1805    2.4584 H   0  0  0  0  0  0  0  0  0  0  0  0
    1.0390    3.8530    1.0771 H   0  0  0  0  0  0  0  0  0  0  0  0
  1  2  1  0  0  0  0
  2  3  1  0  0  0  0
  2  4  1  0  0  0  0
  2  5  1  0  0  0  0
  5  6  2  0  0  0  0
  5  7  1  0  0  0  0
  7  8  1  0  0  0  0
  7  9  1  0  0  0  0
  9 10  1  0  0  0  0
  9 11  1  0  0  0  0
  9 17  1  0  0  0  0
 11 12  1  0  0  0  0
 11 13  1  0  0  0  0
 11 14  1  0  0  0  0
 14 15  1  0  0  0  0
 14 16  2  0  0  0  0
 17 18  2  0  0  0  0
 17 19  1  0  0  0  0
 19 20  1  0  0  0  0
 19 21  1  0  0  0  0
 21 22  1  0  0  0  0
 21 23  1  0  0  0  0
 21 24  1  0  0  0  0
M  CHG  1  15  -1
M  END
$$$$

  -OEChem-03222214023D

 24 23  0     1  0  0  0  0  0999 V2000
   -2.6684   -3.8367    0.3468 H   0  0  0  0  0  0  0  0  0  0  0  0
   -2.6755   -2.8131   -0.0372 C   0  0  0  0  0  0  0  0  0  0  0  0
   -3.5073   -2.2689    0.4165 H   0  0  0  0  0  0  0  0  0  0  0  0
   -2.8192   -2.8439   -1.1206 H   0  0  0  0  0  0  0  0  0  0  0  0
   -1.3651   -2.1190    0.2878 C   0  0  0  0  0  0  0  0  0  0  0  0
   -0.5235   -2.6979    0.9622 O   0  0  0  0  0  0  0  0  0  0  0  0
   -1.1518   -0.8414   -0.1744 N   0  0  0  0  0  0  0  0  0  0  0  0
   -1.8455   -0.4528   -0.8185 H   0  0  0  0  0  0  0  0  0  0  0  0
    0.1279   -0.1349   -0.1980 C   0  0  1  0  0  0  0  0  0  0  0  0
    0.7816   -0.6330    0.5237 H   0  0  0  0  0  0  0  0  0  0  0  0
    0.8020   -0.3338   -1.5699 C   0  0  0  0  0  0  0  0  0  0  0  0
    1.7695    0.1739   -1.5673 H   0  0  0  0  0  0  0  0  0  0  0  0
    0.9928   -1.4016   -1.7092 H   0  0  0  0  0  0  0  0  0  0  0  0
    0.0188    0.1619   -2.7858 C   0  0  0  0  0  0  0  0  0  0  0  0
    0.4310   -0.2580   -3.8939 O   0  5  0  0  0  0  0  0  0  0  0  0
   -1.0796    0.7443   -2.6170 O   0  0  0  0  0  0  0  0  0  0  0  0
    0.0635    1.3319    0.3010 C   0  0  0  0  0  0  0  0  0  0  0  0
   -0.9563    2.0107    0.2472 O   0  0  0  0  0  0  0  0  0  0  0  0
    1.0535    1.7643    1.1697 N   0  0  0  0  0  0  0  0  0  0  0  0
    1.8557    1.1555    1.2905 H   0  0  0  0  0  0  0  0  0  0  0  0
    1.0251    3.0454    1.8611 C   0  0  0  0  0  0  0  0  0  0  0  0
    0.1642    3.0970    2.5353 H   0  0  0  0  0  0  0  0  0  0  0  0
    1.9364    3.1734    2.4525 H   0  0  0  0  0  0  0  0  0  0  0  0
    0.9619    3.8672    1.1405 H   0  0  0  0  0  0  0  0  0  0  0  0
  1  2  1  0  0  0  0
  2  3  1  0  0  0  0
  2  4  1  0  0  0  0
  2  5  1  0  0  0  0
  5  6  2  0  0  0  0
  5  7  1  0  0  0  0
  7  8  1  0  0  0  0
  7  9  1  0  0  0  0
  9 10  1  0  0  0  0
  9 11  1  0  0  0  0
  9 17  1  0  0  0  0
 11 12  1  0  0  0  0
 11 13  1  0  0  0  0
 11 14  1  0  0  0  0
 14 15  1  0  0  0  0
 14 16  2  0  0  0  0
 17 18  2  0  0  0  0
 17 19  1  0  0  0  0
 19 20  1  0  0  0  0
 19 21  1  0  0  0  0
 21 22  1  0  0  0  0
 21 23  1  0  0  0  0
 21 24  1  0  0  0  0
M  CHG  1  15  -1
M  END
$$$$

  -OEChem-03222214023D

 24 23  0     1  0  0  0  0  0999 V2000
   -2.7060   -3.8022    0.3978 H   0  0  0  0  0  0  0  0  0  0  0  0
   -2.7006   -2.7823    0.0037 C   0  0  0  0  0  0  0  0  0  0  0  0
   -3.4921   -2.2086    0.4921 H   0  0  0  0  0  0  0  0  0  0  0  0
   -2.8977   -2.8184   -1.0710 H   0  0  0  0  0  0  0  0  0  0  0  0
   -1.3551   -2.1265    0.2577 C   0  0  0  0  0  0  0  0  0  0  0  0
   -0.4936   -2.7328    0.8802 O   0  0  0  0  0  0  0  0  0  0  0  0
   -1.1359   -0.8482   -0.2013 N   0  0  0  0  0  0  0  0  0  0  0  0
   -1.8735   -0.4100   -0.7535 H   0  0  0  0  0  0  0  0  0  0  0  0
    0.1466   -0.1446   -0.2261 C   0  0  1  0  0  0  0  0  0  0  0  0
    0.7949   -0.6386    0.5037 H   0  0  0  0  0  0  0  0  0  0  0  0
    0.8400   -0.3483   -1.5877 C   0  0  0  0  0  0  0  0  0  0  0  0
    1.8088    0.1563   -1.5766 H   0  0  0  0  0  0  0  0  0  0  0  0
    1.0298   -1.4177   -1.7172 H   0  0  0  0  0  0  0  0  0  0  0  0
    0.0716    0.1442   -2.8120 C   0  0  0  0  0  0  0  0  0  0  0  0
    0.2824   -0.4819   -3.8788 O   0  5  0  0  0  0  0  0  0  0  0  0
   -0.7889    1.0437   -2.6797 O   0  0  0  0  0  0  0  0  0  0  0  0
    0.0591    1.3187    0.2814 C   0  0  0  0  0  0  0  0  0  0  0  0
   -0.9987    1.9415    0.2965 O   0  0  0  0  0  0  0  0  0  0  0  0
    1.0411    1.7594    1.1552 N   0  0  0  0  0  0  0  0  0  0  0  0
    1.8819    1.1957    1.2197 H   0  0  0  0  0  0  0  0  0  0  0  0
    0.9801    3.0252    1.8726 C   0  0  0  0  0  0  0  0  0  0  0  0
    0.1433    3.0251    2.5785 H   0  0  0  0  0  0  0  0  0  0  0  0
    1.9062    3.1844    2.4327 H   0  0  0  0  0  0  0  0  0  0  0  0
    0.8527    3.8561    1.1712 H   0  0  0  0  0  0  0  0  0  0  0  0
  1  2  1  0  0  0  0
  2  3  1  0  0  0  0
  2  4  1  0  0  0  0
  2  5  1  0  0  0  0
  5  6  2  0  0  0  0
  5  7  1  0  0  0  0
  7  8  1  0  0  0  0
  7  9  1  0  0  0  0
  9 10  1  0  0  0  0
  9 11  1  0  0  0  0
  9 17  1  0  0  0  0
 11 12  1  0  0  0  0
 11 13  1  0  0  0  0
 11 14  1  0  0  0  0
 14 15  1  0  0  0  0
 14 16  2  0  0  0  0
 17 18  2  0  0  0  0
 17 19  1  0  0  0  0
 19 20  1  0  0  0  0
 19 21  1  0  0  0  0
 21 22  1  0  0  0  0
 21 23  1  0  0  0  0
 21 24  1  0  0  0  0
M  CHG  1  15  -1
M  END
$$$$

  -OEChem-03222214023D

 24 23  0     1  0  0  0  0  0999 V2000
   -2.7371   -3.7816    0.4411 H   0  0  0  0  0  0  0  0  0  0  0  0
   -2.7186   -2.7639    0.0421 C   0  0  0  0  0  0  0  0  0  0  0  0
   -3.4732   -2.1662    0.5593 H   0  0  0  0  0  0  0  0  0  0  0  0
   -2.9597   -2.7982   -1.0236 H   0  0  0  0  0  0  0  0  0  0  0  0
   -1.3460   -2.1462    0.2386 C   0  0  0  0  0  0  0  0  0  0  0  0
   -0.4753   -2.7772    0.8224 O   0  0  0  0  0  0  0  0  0  0  0  0
   -1.1151   -0.8696   -0.2198 N   0  0  0  0  0  0  0  0  0  0  0  0
   -1.8788   -0.3888   -0.6925 H   0  0  0  0  0  0  0  0  0  0  0  0
    0.1743   -0.1761   -0.2361 C   0  0  1  0  0  0  0  0  0  0  0  0
    0.8221   -0.6724    0.4924 H   0  0  0  0  0  0  0  0  0  0  0  0
    0.8667   -0.3604   -1.6001 C   0  0  0  0  0  0  0  0  0  0  0  0
    1.8388    0.1377   -1.5825 H   0  0  0  0  0  0  0  0  0  0  0  0
    1.0500   -1.4282   -1.7515 H   0  0  0  0  0  0  0  0  0  0  0  0
    0.0920    0.1678   -2.8028 C   0  0  0  0  0  0  0  0  0  0  0  0
    0.0379   -0.5777   -3.8110 O   0  5  0  0  0  0  0  0  0  0  0  0
   -0.4078    1.3135   -2.7404 O   0  0  0  0  0  0  0  0  0  0  0  0
    0.0584    1.2830    0.2759 C   0  0  0  0  0  0  0  0  0  0  0  0
   -1.0228    1.8667    0.2964 O   0  0  0  0  0  0  0  0  0  0  0  0
    1.0193    1.7377    1.1652 N   0  0  0  0  0  0  0  0  0  0  0  0
    1.8935    1.2242    1.1886 H   0  0  0  0  0  0  0  0  0  0  0  0
    0.9347    3.0161    1.8570 C   0  0  0  0  0  0  0  0  0  0  0  0
    0.0682    3.0334    2.5260 H   0  0  0  0  0  0  0  0  0  0  0  0
    1.8360    3.1797    2.4548 H   0  0  0  0  0  0  0  0  0  0  0  0
    0.8427    3.8350    1.1359 H   0  0  0  0  0  0  0  0  0  0  0  0
  1  2  1  0  0  0  0
  2  3  1  0  0  0  0
  2  4  1  0  0  0  0
  2  5  1  0  0  0  0
  5  6  2  0  0  0  0
  5  7  1  0  0  0  0
  7  8  1  0  0  0  0
  7  9  1  0  0  0  0
  9 10  1  0  0  0  0
  9 11  1  0  0  0  0
  9 17  1  0  0  0  0
 11 12  1  0  0  0  0
 11 13  1  0  0  0  0
 11 14  1  0  0  0  0
 14 15  1  0  0  0  0
 14 16  2  0  0  0  0
 17 18  2  0  0  0  0
 17 19  1  0  0  0  0
 19 20  1  0  0  0  0
 19 21  1  0  0  0  0
 21 22  1  0  0  0  0
 21 23  1  0  0  0  0
 21 24  1  0  0  0  0
M  CHG  1  15  -1
M  END
$$$$

  -OEChem-03222214023D

 24 23  0     1  0  0  0  0  0999 V2000
   -2.7371   -3.7879    0.4260 H   0  0  0  0  0  0  0  0  0  0  0  0
   -2.7141   -2.7700    0.0276 C   0  0  0  0  0  0  0  0  0  0  0  0
   -3.4834   -2.1759    0.5268 H   0  0  0  0  0  0  0  0  0  0  0  0
   -2.9299   -2.8057   -1.0436 H   0  0  0  0  0  0  0  0  0  0  0  0
   -1.3490   -2.1464    0.2552 C   0  0  0  0  0  0  0  0  0  0  0  0
   -0.4935   -2.7681    0.8707 O   0  0  0  0  0  0  0  0  0  0  0  0
   -1.1075   -0.8754   -0.2134 N   0  0  0  0  0  0  0  0  0  0  0  0
   -1.8569   -0.4113   -0.7232 H   0  0  0  0  0  0  0  0  0  0  0  0
    0.1901   -0.1948   -0.2227 C   0  0  1  0  0  0  0  0  0  0  0  0
    0.8393   -0.6934    0.5030 H   0  0  0  0  0  0  0  0  0  0  0  0
    0.8635   -0.3713   -1.5949 C   0  0  0  0  0  0  0  0  0  0  0  0
    1.8416    0.1155   -1.5857 H   0  0  0  0  0  0  0  0  0  0  0  0
    1.0310   -1.4380   -1.7701 H   0  0  0  0  0  0  0  0  0  0  0  0
    0.0627    0.1928   -2.7611 C   0  0  0  0  0  0  0  0  0  0  0  0
   -0.2855   -0.6098   -3.6614 O   0  5  0  0  0  0  0  0  0  0  0  0
   -0.1095    1.4322   -2.8062 O   0  0  0  0  0  0  0  0  0  0  0  0
    0.0724    1.2680    0.2772 C   0  0  0  0  0  0  0  0  0  0  0  0
   -1.0050    1.8586    0.2549 O   0  0  0  0  0  0  0  0  0  0  0  0
    1.0198    1.7326    1.1754 N   0  0  0  0  0  0  0  0  0  0  0  0
    1.8944    1.2208    1.2156 H   0  0  0  0  0  0  0  0  0  0  0  0
    0.9302    3.0254    1.8391 C   0  0  0  0  0  0  0  0  0  0  0  0
    0.0517    3.0608    2.4913 H   0  0  0  0  0  0  0  0  0  0  0  0
    1.8209    3.1963    2.4506 H   0  0  0  0  0  0  0  0  0  0  0  0
    0.8572    3.8299    1.0999 H   0  0  0  0  0  0  0  0  0  0  0  0
  1  2  1  0  0  0  0
  2  3  1  0  0  0  0
  2  4  1  0  0  0  0
  2  5  1  0  0  0  0
  5  6  2  0  0  0  0
  5  7  1  0  0  0  0
  7  8  1  0  0  0  0
  7  9  1  0  0  0  0
  9 10  1  0  0  0  0
  9 11  1  0  0  0  0
  9 17  1  0  0  0  0
 11 12  1  0  0  0  0
 11 13  1  0  0  0  0
 11 14  1  0  0  0  0
 14 15  1  0  0  0  0
 14 16  2  0  0  0  0
 17 18  2  0  0  0  0
 17 19  1  0  0  0  0
 19 20  1  0  0  0  0
 19 21  1  0  0  0  0
 21 22  1  0  0  0  0
 21 23  1  0  0  0  0
 21 24  1  0  0  0  0
M  CHG  1  15  -1
M  END
$$$$

  -OEChem-03222214023D

 24 23  0     1  0  0  0  0  0999 V2000
   -2.7022   -3.8212    0.3689 H   0  0  0  0  0  0  0  0  0  0  0  0
   -2.6876   -2.8012   -0.0243 C   0  0  0  0  0  0  0  0  0  0  0  0
   -3.5088   -2.2361    0.4235 H   0  0  0  0  0  0  0  0  0  0  0  0
   -2.8300   -2.8390   -1.1078 H   0  0  0  0  0  0  0  0  0  0  0  0
   -1.3627   -2.1324    0.2954 C   0  0  0  0  0  0  0  0  0  0  0  0
   -0.5397   -2.7168    0.9878 O   0  0  0  0  0  0  0  0  0  0  0  0
   -1.1170   -0.8679   -0.1886 N   0  0  0  0  0  0  0  0  0  0  0  0
   -1.8150   -0.4750   -0.8185 H   0  0  0  0  0  0  0  0  0  0  0  0
    0.1895   -0.2015   -0.1914 C   0  0  1  0  0  0  0  0  0  0  0  0
    0.8417   -0.7047    0.5282 H   0  0  0  0  0  0  0  0  0  0  0  0
    0.8329   -0.3781   -1.5757 C   0  0  0  0  0  0  0  0  0  0  0  0
    1.8188    0.0935   -1.5853 H   0  0  0  0  0  0  0  0  0  0  0  0
    0.9777   -1.4442   -1.7726 H   0  0  0  0  0  0  0  0  0  0  0  0
   -0.0023    0.2201   -2.6986 C   0  0  0  0  0  0  0  0  0  0  0  0
   -0.6368   -0.5777   -3.4323 O   0  5  0  0  0  0  0  0  0  0  0  0
    0.0931    1.4534   -2.8964 O   0  0  0  0  0  0  0  0  0  0  0  0
    0.0886    1.2680    0.2901 C   0  0  0  0  0  0  0  0  0  0  0  0
   -0.9634    1.8954    0.2018 O   0  0  0  0  0  0  0  0  0  0  0  0
    1.0308    1.7338    1.1925 N   0  0  0  0  0  0  0  0  0  0  0  0
    1.8851    1.1938    1.2766 H   0  0  0  0  0  0  0  0  0  0  0  0
    0.9639    3.0479    1.8153 C   0  0  0  0  0  0  0  0  0  0  0  0
    0.0651    3.1329    2.4345 H   0  0  0  0  0  0  0  0  0  0  0  0
    1.8388    3.2058    2.4526 H   0  0  0  0  0  0  0  0  0  0  0  0
    0.9446    3.8321    1.0514 H   0  0  0  0  0  0  0  0  0  0  0  0
  1  2  1  0  0  0  0
  2  3  1  0  0  0  0
  2  4  1  0  0  0  0
  2  5  1  0  0  0  0
  5  6  2  0  0  0  0
  5  7  1  0  0  0  0
  7  8  1  0  0  0  0
  7  9  1  0  0  0  0
  9 10  1  0  0  0  0
  9 11  1  0  0  0  0
  9 17  1  0  0  0  0
 11 12  1  0  0  0  0
 11 13  1  0  0  0  0
 11 14  1  0  0  0  0
 14 15  1  0  0  0  0
 14 16  2  0  0  0  0
 17 18  2  0  0  0  0
 17 19  1  0  0  0  0
 19 20  1  0  0  0  0
 19 21  1  0  0  0  0
 21 22  1  0  0  0  0
 21 23  1  0  0  0  0
 21 24  1  0  0  0  0
M  CHG  1  15  -1
M  END
$$$$

  -OEChem-03222214023D

 24 23  0     1  0  0  0  0  0999 V2000
   -2.6558   -3.8537    0.3134 H   0  0  0  0  0  0  0  0  0  0  0  0
   -2.6516   -2.8337   -0.0804 C   0  0  0  0  0  0  0  0  0  0  0  0
   -3.5221   -2.2988    0.3072 H   0  0  0  0  0  0  0  0  0  0  0  0
   -2.7168   -2.8764   -1.1712 H   0  0  0  0  0  0  0  0  0  0  0  0
   -1.3791   -2.1148    0.3296 C   0  0  0  0  0  0  0  0  0  0  0  0
   -0.5951   -2.6579    1.0974 O   0  0  0  0  0  0  0  0  0  0  0  0
   -1.1351   -0.8551   -0.1665 N   0  0  0  0  0  0  0  0  0  0  0  0
   -1.7567   -0.5553   -0.9204 H   0  0  0  0  0  0  0  0  0  0  0  0
    0.1775   -0.2000   -0.1589 C   0  0  1  0  0  0  0  0  0  0  0  0
    0.8310   -0.7107    0.5543 H   0  0  0  0  0  0  0  0  0  0  0  0
    0.7919   -0.3802   -1.5544 C   0  0  0  0  0  0  0  0  0  0  0  0
    1.7836    0.0791   -1.5815 H   0  0  0  0  0  0  0  0  0  0  0  0
    0.9162   -1.4456   -1.7672 H   0  0  0  0  0  0  0  0  0  0  0  0
   -0.0718    0.2431   -2.6417 C   0  0  0  0  0  0  0  0  0  0  0  0
   -0.9485   -0.4945   -3.1605 O   0  5  0  0  0  0  0  0  0  0  0  0
    0.2289    1.3926   -3.0396 O   0  0  0  0  0  0  0  0  0  0  0  0
    0.1003    1.2750    0.3076 C   0  0  0  0  0  0  0  0  0  0  0  0
   -0.9121    1.9489    0.1462 O   0  0  0  0  0  0  0  0  0  0  0  0
    1.0407    1.7353    1.2144 N   0  0  0  0  0  0  0  0  0  0  0  0
    1.8621    1.1570    1.3538 H   0  0  0  0  0  0  0  0  0  0  0  0
    1.0087    3.0696    1.7955 C   0  0  0  0  0  0  0  0  0  0  0  0
    0.0959    3.2096    2.3835 H   0  0  0  0  0  0  0  0  0  0  0  0
    1.8699    3.2128    2.4548 H   0  0  0  0  0  0  0  0  0  0  0  0
    1.0438    3.8296    1.0081 H   0  0  0  0  0  0  0  0  0  0  0  0
  1  2  1  0  0  0  0
  2  3  1  0  0  0  0
  2  4  1  0  0  0  0
  2  5  1  0  0  0  0
  5  6  2  0  0  0  0
  5  7  1  0  0  0  0
  7  8  1  0  0  0  0
  7  9  1  0  0  0  0
  9 10  1  0  0  0  0
  9 11  1  0  0  0  0
  9 17  1  0  0  0  0
 11 12  1  0  0  0  0
 11 13  1  0  0  0  0
 11 14  1  0  0  0  0
 14 15  1  0  0  0  0
 14 16  2  0  0  0  0
 17 18  2  0  0  0  0
 17 19  1  0  0  0  0
 19 20  1  0  0  0  0
 19 21  1  0  0  0  0
 21 22  1  0  0  0  0
 21 23  1  0  0  0  0
 21 24  1  0  0  0  0
M  CHG  1  15  -1
M  END
$$$$

  -OEChem-03222214023D

 24 23  0     1  0  0  0  0  0999 V2000
   -2.6223   -3.8789    0.2825 H   0  0  0  0  0  0  0  0  0  0  0  0
   -2.6355   -2.8543   -0.0983 C   0  0  0  0  0  0  0  0  0  0  0  0
   -3.5272   -2.3459    0.2762 H   0  0  0  0  0  0  0  0  0  0  0  0
   -2.6763   -2.8839   -1.1906 H   0  0  0  0  0  0  0  0  0  0  0  0
   -1.3903   -2.1099    0.3479 C   0  0  0  0  0  0  0  0  0  0  0  0
   -0.6225   -2.6339    1.1453 O   0  0  0  0  0  0  0  0  0  0  0  0
   -1.1488   -0.8520   -0.1529 N   0  0  0  0  0  0  0  0  0  0  0  0
   -1.7297   -0.5923   -0.9579 H   0  0  0  0  0  0  0  0  0  0  0  0
    0.1638   -0.1996   -0.1422 C   0  0  1  0  0  0  0  0  0  0  0  0
    0.8192   -0.7142    0.5663 H   0  0  0  0  0  0  0  0  0  0  0  0
    0.7706   -0.3712   -1.5440 C   0  0  0  0  0  0  0  0  0  0  0  0
    1.7652    0.0824   -1.5690 H   0  0  0  0  0  0  0  0  0  0  0  0
    0.8869   -1.4356   -1.7654 H   0  0  0  0  0  0  0  0  0  0  0  0
   -0.0928    0.2597   -2.6309 C   0  0  0  0  0  0  0  0  0  0  0  0
   -1.1446   -0.3567   -2.9491 O   0  5  0  0  0  0  0  0  0  0  0  0
    0.3586    1.2676   -3.2237 O   0  0  0  0  0  0  0  0  0  0  0  0
    0.0992    1.2773    0.3181 C   0  0  0  0  0  0  0  0  0  0  0  0
   -0.8779    1.9850    0.0997 O   0  0  0  0  0  0  0  0  0  0  0  0
    1.0406    1.7343    1.2253 N   0  0  0  0  0  0  0  0  0  0  0  0
    1.8276    1.1240    1.4172 H   0  0  0  0  0  0  0  0  0  0  0  0
    1.0345    3.0794    1.7815 C   0  0  0  0  0  0  0  0  0  0  0  0
    0.1144    3.2552    2.3481 H   0  0  0  0  0  0  0  0  0  0  0  0
    1.8860    3.2107    2.4556 H   0  0  0  0  0  0  0  0  0  0  0  0
    1.1064    3.8235    0.9816 H   0  0  0  0  0  0  0  0  0  0  0  0
  1  2  1  0  0  0  0
  2  3  1  0  0  0  0
  2  4  1  0  0  0  0
  2  5  1  0  0  0  0
  5  6  2  0  0  0  0
  5  7  1  0  0  0  0
  7  8  1  0  0  0  0
  7  9  1  0  0  0  0
  9 10  1  0  0  0  0
  9 11  1  0  0  0  0
  9 17  1  0  0  0  0
 11 12  1  0  0  0  0
 11 13  1  0  0  0  0
 11 14  1  0  0  0  0
 14 15  1  0  0  0  0
 14 16  2  0  0  0  0
 17 18  2  0  0  0  0
 17 19  1  0  0  0  0
 19 20  1  0  0  0  0
 19 21  1  0  0  0  0
 21 22  1  0  0  0  0
 21 23  1  0  0  0  0
 21 24  1  0  0  0  0
M  CHG  1  15  -1
M  END
$$$$

  -OEChem-03222214023D

 24 23  0     1  0  0  0  0  0999 V2000
   -2.6271   -3.8885    0.2904 H   0  0  0  0  0  0  0  0  0  0  0  0
   -2.6414   -2.8622   -0.0858 C   0  0  0  0  0  0  0  0  0  0  0  0
   -3.5284   -2.3535    0.2996 H   0  0  0  0  0  0  0  0  0  0  0  0
   -2.6925   -2.8871   -1.1779 H   0  0  0  0  0  0  0  0  0  0  0  0
   -1.3906   -2.1221    0.3518 C   0  0  0  0  0  0  0  0  0  0  0  0
   -0.6130   -2.6529    1.1351 O   0  0  0  0  0  0  0  0  0  0  0  0
   -1.1537   -0.8615   -0.1432 N   0  0  0  0  0  0  0  0  0  0  0  0
   -1.7403   -0.5906   -0.9426 H   0  0  0  0  0  0  0  0  0  0  0  0
    0.1524   -0.2001   -0.1402 C   0  0  1  0  0  0  0  0  0  0  0  0
    0.8117   -0.7140    0.5653 H   0  0  0  0  0  0  0  0  0  0  0  0
    0.7687   -0.3545   -1.5425 C   0  0  0  0  0  0  0  0  0  0  0  0
    1.7608    0.1051   -1.5512 H   0  0  0  0  0  0  0  0  0  0  0  0
    0.8946   -1.4174   -1.7644 H   0  0  0  0  0  0  0  0  0  0  0  0
   -0.0753    0.2647   -2.6558 C   0  0  0  0  0  0  0  0  0  0  0  0
   -1.2449   -0.1783   -2.8166 O   0  5  0  0  0  0  0  0  0  0  0  0
    0.4883    1.0929   -3.4100 O   0  0  0  0  0  0  0  0  0  0  0  0
    0.0881    1.2747    0.3254 C   0  0  0  0  0  0  0  0  0  0  0  0
   -0.8736    1.9963    0.0869 O   0  0  0  0  0  0  0  0  0  0  0  0
    1.0363    1.7317    1.2256 N   0  0  0  0  0  0  0  0  0  0  0  0
    1.8143    1.1131    1.4276 H   0  0  0  0  0  0  0  0  0  0  0  0
    1.0396    3.0791    1.7763 C   0  0  0  0  0  0  0  0  0  0  0  0
    0.1173    3.2665    2.3355 H   0  0  0  0  0  0  0  0  0  0  0  0
    1.8874    3.2043    2.4561 H   0  0  0  0  0  0  0  0  0  0  0  0
    1.1246    3.8193    0.9740 H   0  0  0  0  0  0  0  0  0  0  0  0
  1  2  1  0  0  0  0
  2  3  1  0  0  0  0
  2  4  1  0  0  0  0
  2  5  1  0  0  0  0
  5  6  2  0  0  0  0
  5  7  1  0  0  0  0
  7  8  1  0  0  0  0
  7  9  1  0  0  0  0
  9 10  1  0  0  0  0
  9 11  1  0  0  0  0
  9 17  1  0  0  0  0
 11 12  1  0  0  0  0
 11 13  1  0  0  0  0
 11 14  1  0  0  0  0
 14 15  1  0  0  0  0
 14 16  2  0  0  0  0
 17 18  2  0  0  0  0
 17 19  1  0  0  0  0
 19 20  1  0  0  0  0
 19 21  1  0  0  0  0
 21 22  1  0  0  0  0
 21 23  1  0  0  0  0
 21 24  1  0  0  0  0
M  CHG  1  15  -1
M  END
$$$$

  -OEChem-03222214023D

 24 23  0     1  0  0  0  0  0999 V2000
   -2.6445   -3.8878    0.3157 H   0  0  0  0  0  0  0  0  0  0  0  0
   -2.6547   -2.8623   -0.0630 C   0  0  0  0  0  0  0  0  0  0  0  0
   -3.5249   -2.3412    0.3434 H   0  0  0  0  0  0  0  0  0  0  0  0
   -2.7338   -2.8887   -1.1532 H   0  0  0  0  0  0  0  0  0  0  0  0
   -1.3842   -2.1369    0.3417 C   0  0  0  0  0  0  0  0  0  0  0  0
   -0.5885   -2.6814    1.0966 O   0  0  0  0  0  0  0  0  0  0  0  0
   -1.1536   -0.8714   -0.1433 N   0  0  0  0  0  0  0  0  0  0  0  0
   -1.7628   -0.5715   -0.9154 H   0  0  0  0  0  0  0  0  0  0  0  0
    0.1437   -0.1954   -0.1474 C   0  0  1  0  0  0  0  0  0  0  0  0
    0.8055   -0.7066    0.5576 H   0  0  0  0  0  0  0  0  0  0  0  0
    0.7749   -0.3410   -1.5457 C   0  0  0  0  0  0  0  0  0  0  0  0
    1.7599    0.1337   -1.5396 H   0  0  0  0  0  0  0  0  0  0  0  0
    0.9202   -1.4032   -1.7579 H   0  0  0  0  0  0  0  0  0  0  0  0
   -0.0467    0.2543   -2.6916 C   0  0  0  0  0  0  0  0  0  0  0  0
   -1.2857    0.0245   -2.7266 O   0  5  0  0  0  0  0  0  0  0  0  0
    0.5927    0.8625   -3.5830 O   0  0  0  0  0  0  0  0  0  0  0  0
    0.0746    1.2764    0.3278 C   0  0  0  0  0  0  0  0  0  0  0  0
   -0.8878    2.0003    0.1006 O   0  0  0  0  0  0  0  0  0  0  0  0
    1.0306    1.7315    1.2209 N   0  0  0  0  0  0  0  0  0  0  0  0
    1.8119    1.1135    1.4120 H   0  0  0  0  0  0  0  0  0  0  0  0
    1.0353    3.0750    1.7813 C   0  0  0  0  0  0  0  0  0  0  0  0
    0.1166    3.2571    2.3482 H   0  0  0  0  0  0  0  0  0  0  0  0
    1.8876    3.1974    2.4561 H   0  0  0  0  0  0  0  0  0  0  0  0
    1.1138    3.8209    0.9837 H   0  0  0  0  0  0  0  0  0  0  0  0
  1  2  1  0  0  0  0
  2  3  1  0  0  0  0
  2  4  1  0  0  0  0
  2  5  1  0  0  0  0
  5  6  2  0  0  0  0
  5  7  1  0  0  0  0
  7  8  1  0  0  0  0
  7  9  1  0  0  0  0
  9 10  1  0  0  0  0
  9 11  1  0  0  0  0
  9 17  1  0  0  0  0
 11 12  1  0  0  0  0
 11 13  1  0  0  0  0
 11 14  1  0  0  0  0
 14 15  1  0  0  0  0
 14 16  2  0  0  0  0
 17 18  2  0  0  0  0
 17 19  1  0  0  0  0
 19 20  1  0  0  0  0
 19 21  1  0  0  0  0
 21 22  1  0  0  0  0
 21 23  1  0  0  0  0
 21 24  1  0  0  0  0
M  CHG  1  15  -1
M  END
$$$$

  -OEChem-03222214023D

 24 23  0     1  0  0  0  0  0999 V2000
   -2.6461   -3.8863    0.3213 H   0  0  0  0  0  0  0  0  0  0  0  0
   -2.6596   -2.8595   -0.0536 C   0  0  0  0  0  0  0  0  0  0  0  0
   -3.5214   -2.3374    0.3692 H   0  0  0  0  0  0  0  0  0  0  0  0
   -2.7570   -2.8823   -1.1424 H   0  0  0  0  0  0  0  0  0  0  0  0
   -1.3803   -2.1398    0.3325 C   0  0  0  0  0  0  0  0  0  0  0  0
   -0.5691   -2.6931    1.0640 O   0  0  0  0  0  0  0  0  0  0  0  0
   -1.1571   -0.8704   -0.1455 N   0  0  0  0  0  0  0  0  0  0  0  0
   -1.7899   -0.5433   -0.8863 H   0  0  0  0  0  0  0  0  0  0  0  0
    0.1321   -0.1807   -0.1567 C   0  0  1  0  0  0  0  0  0  0  0  0
    0.7930   -0.6869    0.5528 H   0  0  0  0  0  0  0  0  0  0  0  0
    0.7770   -0.3371   -1.5481 C   0  0  0  0  0  0  0  0  0  0  0  0
    1.7552    0.1513   -1.5383 H   0  0  0  0  0  0  0  0  0  0  0  0
    0.9395   -1.4009   -1.7392 H   0  0  0  0  0  0  0  0  0  0  0  0
   -0.0291    0.2244   -2.7225 C   0  0  0  0  0  0  0  0  0  0  0  0
   -1.2868    0.2368   -2.6551 O   0  5  0  0  0  0  0  0  0  0  0  0
    0.6345    0.5790   -3.7262 O   0  0  0  0  0  0  0  0  0  0  0  0
    0.0652    1.2897    0.3242 C   0  0  0  0  0  0  0  0  0  0  0  0
   -0.9081    2.0095    0.1344 O   0  0  0  0  0  0  0  0  0  0  0  0
    1.0329    1.7385    1.2081 N   0  0  0  0  0  0  0  0  0  0  0  0
    1.8180    1.1203    1.3822 H   0  0  0  0  0  0  0  0  0  0  0  0
    1.0356    3.0706    1.7951 C   0  0  0  0  0  0  0  0  0  0  0  0
    0.1282    3.2305    2.3863 H   0  0  0  0  0  0  0  0  0  0  0  0
    1.9017    3.1897    2.4523 H   0  0  0  0  0  0  0  0  0  0  0  0
    1.0876    3.8328    1.0110 H   0  0  0  0  0  0  0  0  0  0  0  0
  1  2  1  0  0  0  0
  2  3  1  0  0  0  0
  2  4  1  0  0  0  0
  2  5  1  0  0  0  0
  5  6  2  0  0  0  0
  5  7  1  0  0  0  0
  7  8  1  0  0  0  0
  7  9  1  0  0  0  0
  9 10  1  0  0  0  0
  9 11  1  0  0  0  0
  9 17  1  0  0  0  0
 11 12  1  0  0  0  0
 11 13  1  0  0  0  0
 11 14  1  0  0  0  0
 14 15  1  0  0  0  0
 14 16  2  0  0  0  0
 17 18  2  0  0  0  0
 17 19  1  0  0  0  0
 19 20  1  0  0  0  0
 19 21  1  0  0  0  0
 21 22  1  0  0  0  0
 21 23  1  0  0  0  0
 21 24  1  0  0  0  0
M  CHG  1  15  -1
M  END
$$$$

  -OEChem-03222214023D

 24 23  0     1  0  0  0  0  0999 V2000
   -2.6688   -3.8655    0.3558 H   0  0  0  0  0  0  0  0  0  0  0  0
   -2.6737   -2.8426   -0.0305 C   0  0  0  0  0  0  0  0  0  0  0  0
   -3.5125   -2.2998    0.4122 H   0  0  0  0  0  0  0  0  0  0  0  0
   -2.8042   -2.8750   -1.1155 H   0  0  0  0  0  0  0  0  0  0  0  0
   -1.3695   -2.1438    0.3093 C   0  0  0  0  0  0  0  0  0  0  0  0
   -0.5376   -2.7152    1.0024 O   0  0  0  0  0  0  0  0  0  0  0  0
   -1.1504   -0.8703   -0.1603 N   0  0  0  0  0  0  0  0  0  0  0  0
   -1.8158   -0.5077   -0.8521 H   0  0  0  0  0  0  0  0  0  0  0  0
    0.1315   -0.1679   -0.1768 C   0  0  1  0  0  0  0  0  0  0  0  0
    0.7906   -0.6683    0.5385 H   0  0  0  0  0  0  0  0  0  0  0  0
    0.7922   -0.3383   -1.5592 C   0  0  0  0  0  0  0  0  0  0  0  0
    1.7624    0.1652   -1.5483 H   0  0  0  0  0  0  0  0  0  0  0  0
    0.9713   -1.4030   -1.7298 H   0  0  0  0  0  0  0  0  0  0  0  0
   -0.0030    0.1909   -2.7545 C   0  0  0  0  0  0  0  0  0  0  0  0
   -1.2243    0.4589   -2.6203 O   0  5  0  0  0  0  0  0  0  0  0  0
    0.6317    0.2841   -3.8324 O   0  0  0  0  0  0  0  0  0  0  0  0
    0.0596    1.3007    0.3122 C   0  0  0  0  0  0  0  0  0  0  0  0
   -0.9390    1.9998    0.1847 O   0  0  0  0  0  0  0  0  0  0  0  0
    1.0352    1.7457    1.1897 N   0  0  0  0  0  0  0  0  0  0  0  0
    1.8344    1.1378    1.3338 H   0  0  0  0  0  0  0  0  0  0  0  0
    1.0209    3.0598    1.8166 C   0  0  0  0  0  0  0  0  0  0  0  0
    0.1264    3.1790    2.4366 H   0  0  0  0  0  0  0  0  0  0  0  0
    1.9016    3.1813    2.4538 H   0  0  0  0  0  0  0  0  0  0  0  0
    1.0323    3.8460    1.0548 H   0  0  0  0  0  0  0  0  0  0  0  0
  1  2  1  0  0  0  0
  2  3  1  0  0  0  0
  2  4  1  0  0  0  0
  2  5  1  0  0  0  0
  5  6  2  0  0  0  0
  5  7  1  0  0  0  0
  7  8  1  0  0  0  0
  7  9  1  0  0  0  0
  9 10  1  0  0  0  0
  9 11  1  0  0  0  0
  9 17  1  0  0  0  0
 11 12  1  0  0  0  0
 11 13  1  0  0  0  0
 11 14  1  0  0  0  0
 14 15  1  0  0  0  0
 14 16  2  0  0  0  0
 17 18  2  0  0  0  0
 17 19  1  0  0  0  0
 19 20  1  0  0  0  0
 19 21  1  0  0  0  0
 21 22  1  0  0  0  0
 21 23  1  0  0  0  0
 21 24  1  0  0  0  0
M  CHG  1  15  -1
M  END
$$$$

  -OEChem-03222214023D

 24 23  0     1  0  0  0  0  0999 V2000
   -2.6847   -3.8389    0.3906 H   0  0  0  0  0  0  0  0  0  0  0  0
   -2.6851   -2.8208   -0.0077 C   0  0  0  0  0  0  0  0  0  0  0  0
   -3.5015   -2.2596    0.4532 H   0  0  0  0  0  0  0  0  0  0  0  0
   -2.8483   -2.8638   -1.0877 H   0  0  0  0  0  0  0  0  0  0  0  0
   -1.3608   -2.1397    0.2860 C   0  0  0  0  0  0  0  0  0  0  0  0
   -0.5091   -2.7262    0.9408 O   0  0  0  0  0  0  0  0  0  0  0  0
   -1.1473   -0.8632   -0.1788 N   0  0  0  0  0  0  0  0  0  0  0  0
   -1.8475   -0.4676   -0.8120 H   0  0  0  0  0  0  0  0  0  0  0  0
    0.1305   -0.1535   -0.2012 C   0  0  1  0  0  0  0  0  0  0  0  0
    0.7850   -0.6480    0.5224 H   0  0  0  0  0  0  0  0  0  0  0  0
    0.8092   -0.3438   -1.5714 C   0  0  0  0  0  0  0  0  0  0  0  0
    1.7738    0.1696   -1.5599 H   0  0  0  0  0  0  0  0  0  0  0  0
    1.0003   -1.4103   -1.7172 H   0  0  0  0  0  0  0  0  0  0  0  0
    0.0254    0.1556   -2.7847 C   0  0  0  0  0  0  0  0  0  0  0  0
   -1.1039    0.6804   -2.6274 O   0  5  0  0  0  0  0  0  0  0  0  0
    0.5814   -0.0138   -3.8963 O   0  0  0  0  0  0  0  0  0  0  0  0
    0.0529    1.3135    0.2948 C   0  0  0  0  0  0  0  0  0  0  0  0
   -0.9737    1.9820    0.2386 O   0  0  0  0  0  0  0  0  0  0  0  0
    1.0359    1.7542    1.1666 N   0  0  0  0  0  0  0  0  0  0  0  0
    1.8511    1.1605    1.2747 H   0  0  0  0  0  0  0  0  0  0  0  0
    1.0043    3.0438    1.8417 C   0  0  0  0  0  0  0  0  0  0  0  0
    0.1354    3.1080    2.5045 H   0  0  0  0  0  0  0  0  0  0  0  0
    1.9086    3.1742    2.4432 H   0  0  0  0  0  0  0  0  0  0  0  0
    0.9543    3.8570    1.1103 H   0  0  0  0  0  0  0  0  0  0  0  0
  1  2  1  0  0  0  0
  2  3  1  0  0  0  0
  2  4  1  0  0  0  0
  2  5  1  0  0  0  0
  5  6  2  0  0  0  0
  5  7  1  0  0  0  0
  7  8  1  0  0  0  0
  7  9  1  0  0  0  0
  9 10  1  0  0  0  0
  9 11  1  0  0  0  0
  9 17  1  0  0  0  0
 11 12  1  0  0  0  0
 11 13  1  0  0  0  0
 11 14  1  0  0  0  0
 14 15  1  0  0  0  0
 14 16  2  0  0  0  0
 17 18  2  0  0  0  0
 17 19  1  0  0  0  0
 19 20  1  0  0  0  0
 19 21  1  0  0  0  0
 21 22  1  0  0  0  0
 21 23  1  0  0  0  0
 21 24  1  0  0  0  0
M  CHG  1  15  -1
M  END
$$$$

  -OEChem-03222214023D

 24 23  0     1  0  0  0  0  0999 V2000
   -2.6991   -3.8207    0.4061 H   0  0  0  0  0  0  0  0  0  0  0  0
   -2.6991   -2.8006    0.0127 C   0  0  0  0  0  0  0  0  0  0  0  0
   -3.4950   -2.2323    0.5002 H   0  0  0  0  0  0  0  0  0  0  0  0
   -2.8947   -2.8374   -1.0622 H   0  0  0  0  0  0  0  0  0  0  0  0
   -1.3576   -2.1374    0.2690 C   0  0  0  0  0  0  0  0  0  0  0  0
   -0.4929   -2.7399    0.8908 O   0  0  0  0  0  0  0  0  0  0  0  0
   -1.1425   -0.8596   -0.1927 N   0  0  0  0  0  0  0  0  0  0  0  0
   -1.8749   -0.4300   -0.7601 H   0  0  0  0  0  0  0  0  0  0  0  0
    0.1366   -0.1504   -0.2201 C   0  0  1  0  0  0  0  0  0  0  0  0
    0.7879   -0.6421    0.5086 H   0  0  0  0  0  0  0  0  0  0  0  0
    0.8282   -0.3496   -1.5832 C   0  0  0  0  0  0  0  0  0  0  0  0
    1.7902    0.1682   -1.5683 H   0  0  0  0  0  0  0  0  0  0  0  0
    1.0257   -1.4167   -1.7175 H   0  0  0  0  0  0  0  0  0  0  0  0
    0.0547    0.1396   -2.8056 C   0  0  0  0  0  0  0  0  0  0  0  0
   -0.9259    0.9055   -2.6577 O   0  5  0  0  0  0  0  0  0  0  0  0
    0.4725   -0.2721   -3.9146 O   0  0  0  0  0  0  0  0  0  0  0  0
    0.0513    1.3145    0.2825 C   0  0  0  0  0  0  0  0  0  0  0  0
   -0.9990    1.9493    0.2813 O   0  0  0  0  0  0  0  0  0  0  0  0
    1.0358    1.7569    1.1524 N   0  0  0  0  0  0  0  0  0  0  0  0
    1.8714    1.1865    1.2250 H   0  0  0  0  0  0  0  0  0  0  0  0
    0.9846    3.0304    1.8564 C   0  0  0  0  0  0  0  0  0  0  0  0
    0.1322    3.0541    2.5430 H   0  0  0  0  0  0  0  0  0  0  0  0
    1.9007    3.1757    2.4362 H   0  0  0  0  0  0  0  0  0  0  0  0
    0.8903    3.8567    1.1443 H   0  0  0  0  0  0  0  0  0  0  0  0
  1  2  1  0  0  0  0
  2  3  1  0  0  0  0
  2  4  1  0  0  0  0
  2  5  1  0  0  0  0
  5  6  2  0  0  0  0
  5  7  1  0  0  0  0
  7  8  1  0  0  0  0
  7  9  1  0  0  0  0
  9 10  1  0  0  0  0
  9 11  1  0  0  0  0
  9 17  1  0  0  0  0
 11 12  1  0  0  0  0
 11 13  1  0  0  0  0
 11 14  1  0  0  0  0
 14 15  1  0  0  0  0
 14 16  2  0  0  0  0
 17 18  2  0  0  0  0
 17 19  1  0  0  0  0
 19 20  1  0  0  0  0
 19 21  1  0  0  0  0
 21 22  1  0  0  0  0
 21 23  1  0  0  0  0
 21 24  1  0  0  0  0
M  CHG  1  15  -1
M  END
$$$$

  -OEChem-03222214023D

 24 23  0     1  0  0  0  0  0999 V2000
   -2.7157   -3.7989    0.4244 H   0  0  0  0  0  0  0  0  0  0  0  0
   -2.7097   -2.7788    0.0311 C   0  0  0  0  0  0  0  0  0  0  0  0
   -3.4844   -2.1984    0.5382 H   0  0  0  0  0  0  0  0  0  0  0  0
   -2.9317   -2.8125   -1.0388 H   0  0  0  0  0  0  0  0  0  0  0  0
   -1.3524   -2.1362    0.2539 C   0  0  0  0  0  0  0  0  0  0  0  0
   -0.4817   -2.7516    0.8544 O   0  0  0  0  0  0  0  0  0  0  0  0
   -1.1329   -0.8588   -0.2076 N   0  0  0  0  0  0  0  0  0  0  0  0
   -1.8861   -0.4027   -0.7219 H   0  0  0  0  0  0  0  0  0  0  0  0
    0.1502   -0.1552   -0.2346 C   0  0  1  0  0  0  0  0  0  0  0  0
    0.7988   -0.6462    0.4968 H   0  0  0  0  0  0  0  0  0  0  0  0
    0.8467   -0.3573   -1.5947 C   0  0  0  0  0  0  0  0  0  0  0  0
    1.8095    0.1590   -1.5769 H   0  0  0  0  0  0  0  0  0  0  0  0
    1.0438   -1.4250   -1.7258 H   0  0  0  0  0  0  0  0  0  0  0  0
    0.0782    0.1369   -2.8173 C   0  0  0  0  0  0  0  0  0  0  0  0
   -0.7006    1.1101   -2.7039 O   0  5  0  0  0  0  0  0  0  0  0  0
    0.2939   -0.4778   -3.8898 O   0  0  0  0  0  0  0  0  0  0  0  0
    0.0531    1.3076    0.2719 C   0  0  0  0  0  0  0  0  0  0  0  0
   -1.0146    1.9138    0.2975 O   0  0  0  0  0  0  0  0  0  0  0  0
    1.0316    1.7542    1.1465 N   0  0  0  0  0  0  0  0  0  0  0  0
    1.8840    1.2065    1.1952 H   0  0  0  0  0  0  0  0  0  0  0  0
    0.9606    3.0181    1.8663 C   0  0  0  0  0  0  0  0  0  0  0  0
    0.1127    3.0172    2.5588 H   0  0  0  0  0  0  0  0  0  0  0  0
    1.8777    3.1742    2.4417 H   0  0  0  0  0  0  0  0  0  0  0  0
    0.8454    3.8510    1.1651 H   0  0  0  0  0  0  0  0  0  0  0  0
  1  2  1  0  0  0  0
  2  3  1  0  0  0  0
  2  4  1  0  0  0  0
  2  5  1  0  0  0  0
  5  6  2  0  0  0  0
  5  7  1  0  0  0  0
  7  8  1  0  0  0  0
  7  9  1  0  0  0  0
  9 10  1  0  0  0  0
  9 11  1  0  0  0  0
  9 17  1  0  0  0  0
 11 12  1  0  0  0  0
 11 13  1  0  0  0  0
 11 14  1  0  0  0  0
 14 15  1  0  0  0  0
 14 16  2  0  0  0  0
 17 18  2  0  0  0  0
 17 19  1  0  0  0  0
 19 20  1  0  0  0  0
 19 21  1  0  0  0  0
 21 22  1  0  0  0  0
 21 23  1  0  0  0  0
 21 24  1  0  0  0  0
M  CHG  1  15  -1
M  END
$$$$

  -OEChem-03222214023D

 24 23  0     1  0  0  0  0  0999 V2000
   -2.7317   -3.7831    0.4342 H   0  0  0  0  0  0  0  0  0  0  0  0
   -2.7156   -2.7653    0.0356 C   0  0  0  0  0  0  0  0  0  0  0  0
   -3.4793   -2.1726    0.5450 H   0  0  0  0  0  0  0  0  0  0  0  0
   -2.9451   -2.8013   -1.0326 H   0  0  0  0  0  0  0  0  0  0  0  0
   -1.3491   -2.1387    0.2465 C   0  0  0  0  0  0  0  0  0  0  0  0
   -0.4820   -2.7618    0.8441 O   0  0  0  0  0  0  0  0  0  0  0  0
   -1.1191   -0.8638   -0.2168 N   0  0  0  0  0  0  0  0  0  0  0  0
   -1.8777   -0.3928   -0.7076 H   0  0  0  0  0  0  0  0  0  0  0  0
    0.1704   -0.1708   -0.2363 C   0  0  1  0  0  0  0  0  0  0  0  0
    0.8172   -0.6642    0.4951 H   0  0  0  0  0  0  0  0  0  0  0  0
    0.8630   -0.3667   -1.5991 C   0  0  0  0  0  0  0  0  0  0  0  0
    1.8299    0.1413   -1.5807 H   0  0  0  0  0  0  0  0  0  0  0  0
    1.0531   -1.4344   -1.7423 H   0  0  0  0  0  0  0  0  0  0  0  0
    0.0884    0.1523   -2.8062 C   0  0  0  0  0  0  0  0  0  0  0  0
   -0.4447    1.2826   -2.7406 O   0  5  0  0  0  0  0  0  0  0  0  0
    0.0318   -0.6031   -3.8068 O   0  0  0  0  0  0  0  0  0  0  0  0
    0.0600    1.2910    0.2699 C   0  0  0  0  0  0  0  0  0  0  0  0
   -1.0176    1.8810    0.2901 O   0  0  0  0  0  0  0  0  0  0  0  0
    1.0247    1.7445    1.1558 N   0  0  0  0  0  0  0  0  0  0  0  0
    1.8907    1.2180    1.1930 H   0  0  0  0  0  0  0  0  0  0  0  0
    0.9405    3.0162    1.8598 C   0  0  0  0  0  0  0  0  0  0  0  0
    0.0855    3.0196    2.5434 H   0  0  0  0  0  0  0  0  0  0  0  0
    1.8507    3.1831    2.4431 H   0  0  0  0  0  0  0  0  0  0  0  0
    0.8289    3.8403    1.1476 H   0  0  0  0  0  0  0  0  0  0  0  0
  1  2  1  0  0  0  0
  2  3  1  0  0  0  0
  2  4  1  0  0  0  0
  2  5  1  0  0  0  0
  5  6  2  0  0  0  0
  5  7  1  0  0  0  0
  7  8  1  0  0  0  0
  7  9  1  0  0  0  0
  9 10  1  0  0  0  0
  9 11  1  0  0  0  0
  9 17  1  0  0  0  0
 11 12  1  0  0  0  0
 11 13  1  0  0  0  0
 11 14  1  0  0  0  0
 14 15  1  0  0  0  0
 14 16  2  0  0  0  0
 17 18  2  0  0  0  0
 17 19  1  0  0  0  0
 19 20  1  0  0  0  0
 19 21  1  0  0  0  0
 21 22  1  0  0  0  0
 21 23  1  0  0  0  0
 21 24  1  0  0  0  0
M  CHG  1  15  -1
M  END
$$$$

  -OEChem-03222214023D

 24 23  0     1  0  0  0  0  0999 V2000
   -2.7262   -3.7912    0.4072 H   0  0  0  0  0  0  0  0  0  0  0  0
   -2.7060   -2.7732    0.0089 C   0  0  0  0  0  0  0  0  0  0  0  0
   -3.4894   -2.1864    0.4945 H   0  0  0  0  0  0  0  0  0  0  0  0
   -2.9030   -2.8111   -1.0658 H   0  0  0  0  0  0  0  0  0  0  0  0
   -1.3513   -2.1356    0.2598 C   0  0  0  0  0  0  0  0  0  0  0  0
   -0.5016   -2.7465    0.8944 O   0  0  0  0  0  0  0  0  0  0  0  0
   -1.1123   -0.8649   -0.2109 N   0  0  0  0  0  0  0  0  0  0  0  0
   -1.8510   -0.4173   -0.7510 H   0  0  0  0  0  0  0  0  0  0  0  0
    0.1844   -0.1834   -0.2214 C   0  0  1  0  0  0  0  0  0  0  0  0
    0.8309   -0.6798    0.5081 H   0  0  0  0  0  0  0  0  0  0  0  0
    0.8608   -0.3775   -1.5907 C   0  0  0  0  0  0  0  0  0  0  0  0
    1.8348    0.1173   -1.5819 H   0  0  0  0  0  0  0  0  0  0  0  0
    1.0354   -1.4452   -1.7511 H   0  0  0  0  0  0  0  0  0  0  0  0
    0.0653    0.1701   -2.7692 C   0  0  0  0  0  0  0  0  0  0  0  0
   -0.2000    1.3931   -2.7865 O   0  5  0  0  0  0  0  0  0  0  0  0
   -0.3184   -0.6558   -3.6331 O   0  0  0  0  0  0  0  0  0  0  0  0
    0.0741    1.2813    0.2754 C   0  0  0  0  0  0  0  0  0  0  0  0
   -0.9986    1.8800    0.2592 O   0  0  0  0  0  0  0  0  0  0  0  0
    1.0272    1.7403    1.1707 N   0  0  0  0  0  0  0  0  0  0  0  0
    1.8940    1.2161    1.2185 H   0  0  0  0  0  0  0  0  0  0  0  0
    0.9442    3.0291    1.8432 C   0  0  0  0  0  0  0  0  0  0  0  0
    0.0674    3.0641    2.4976 H   0  0  0  0  0  0  0  0  0  0  0  0
    1.8373    3.1923    2.4533 H   0  0  0  0  0  0  0  0  0  0  0  0
    0.8719    3.8386    1.1095 H   0  0  0  0  0  0  0  0  0  0  0  0
  1  2  1  0  0  0  0
  2  3  1  0  0  0  0
  2  4  1  0  0  0  0
  2  5  1  0  0  0  0
  5  6  2  0  0  0  0
  5  7  1  0  0  0  0
  7  8  1  0  0  0  0
  7  9  1  0  0  0  0
  9 10  1  0  0  0  0
  9 11  1  0  0  0  0
  9 17  1  0  0  0  0
 11 12  1  0  0  0  0
 11 13  1  0  0  0  0
 11 14  1  0  0  0  0
 14 15  1  0  0  0  0
 14 16  2  0  0  0  0
 17 18  2  0  0  0  0
 17 19  1  0  0  0  0
 19 20  1  0  0  0  0
 19 21  1  0  0  0  0
 21 22  1  0  0  0  0
 21 23  1  0  0  0  0
 21 24  1  0  0  0  0
M  CHG  1  15  -1
M  END
$$$$

  -OEChem-03222214023D

 24 23  0     1  0  0  0  0  0999 V2000
   -2.6822   -3.8219    0.3385 H   0  0  0  0  0  0  0  0  0  0  0  0
   -2.6710   -2.8019   -0.0544 C   0  0  0  0  0  0  0  0  0  0  0  0
   -3.5107   -2.2472    0.3712 H   0  0  0  0  0  0  0  0  0  0  0  0
   -2.7840   -2.8412   -1.1412 H   0  0  0  0  0  0  0  0  0  0  0  0
   -1.3650   -2.1145    0.3002 C   0  0  0  0  0  0  0  0  0  0  0  0
   -0.5558   -2.6830    1.0222 O   0  0  0  0  0  0  0  0  0  0  0  0
   -1.1218   -0.8522   -0.1896 N   0  0  0  0  0  0  0  0  0  0  0  0
   -1.7901   -0.4969   -0.8733 H   0  0  0  0  0  0  0  0  0  0  0  0
    0.1840   -0.1862   -0.1911 C   0  0  1  0  0  0  0  0  0  0  0  0
    0.8306   -0.6861    0.5357 H   0  0  0  0  0  0  0  0  0  0  0  0
    0.8308   -0.3933   -1.5704 C   0  0  0  0  0  0  0  0  0  0  0  0
    1.8150    0.0814   -1.5845 H   0  0  0  0  0  0  0  0  0  0  0  0
    0.9783   -1.4628   -1.7450 H   0  0  0  0  0  0  0  0  0  0  0  0
    0.0030    0.1813   -2.7110 C   0  0  0  0  0  0  0  0  0  0  0  0
    0.0013    1.4236   -2.8659 O   0  5  0  0  0  0  0  0  0  0  0  0
   -0.7314   -0.6213   -3.3395 O   0  0  0  0  0  0  0  0  0  0  0  0
    0.0928    1.2874    0.2824 C   0  0  0  0  0  0  0  0  0  0  0  0
   -0.9550    1.9232    0.2064 O   0  0  0  0  0  0  0  0  0  0  0  0
    1.0405    1.7458    1.1833 N   0  0  0  0  0  0  0  0  0  0  0  0
    1.8838    1.1909    1.2784 H   0  0  0  0  0  0  0  0  0  0  0  0
    0.9786    3.0528    1.8215 C   0  0  0  0  0  0  0  0  0  0  0  0
    0.0871    3.1295    2.4523 H   0  0  0  0  0  0  0  0  0  0  0  0
    1.8606    3.2056    2.4501 H   0  0  0  0  0  0  0  0  0  0  0  0
    0.9485    3.8451    1.0664 H   0  0  0  0  0  0  0  0  0  0  0  0
  1  2  1  0  0  0  0
  2  3  1  0  0  0  0
  2  4  1  0  0  0  0
  2  5  1  0  0  0  0
  5  6  2  0  0  0  0
  5  7  1  0  0  0  0
  7  8  1  0  0  0  0
  7  9  1  0  0  0  0
  9 10  1  0  0  0  0
  9 11  1  0  0  0  0
  9 17  1  0  0  0  0
 11 12  1  0  0  0  0
 11 13  1  0  0  0  0
 11 14  1  0  0  0  0
 14 15  1  0  0  0  0
 14 16  2  0  0  0  0
 17 18  2  0  0  0  0
 17 19  1  0  0  0  0
 19 20  1  0  0  0  0
 19 21  1  0  0  0  0
 21 22  1  0  0  0  0
 21 23  1  0  0  0  0
 21 24  1  0  0  0  0
M  CHG  1  15  -1
M  END
$$$$

  -OEChem-03222214023D

 24 23  0     1  0  0  0  0  0999 V2000
   -2.6488   -3.8522    0.3027 H   0  0  0  0  0  0  0  0  0  0  0  0
   -2.6483   -2.8311   -0.0878 C   0  0  0  0  0  0  0  0  0  0  0  0
   -3.5223   -2.3016    0.2992 H   0  0  0  0  0  0  0  0  0  0  0  0
   -2.7106   -2.8701   -1.1789 H   0  0  0  0  0  0  0  0  0  0  0  0
   -1.3804   -2.1073    0.3281 C   0  0  0  0  0  0  0  0  0  0  0  0
   -0.6008   -2.6464    1.1036 O   0  0  0  0  0  0  0  0  0  0  0  0
   -1.1354   -0.8503   -0.1733 N   0  0  0  0  0  0  0  0  0  0  0  0
   -1.7384   -0.5685   -0.9511 H   0  0  0  0  0  0  0  0  0  0  0  0
    0.1756   -0.1937   -0.1653 C   0  0  1  0  0  0  0  0  0  0  0  0
    0.8234   -0.6984    0.5571 H   0  0  0  0  0  0  0  0  0  0  0  0
    0.8016   -0.3949   -1.5543 C   0  0  0  0  0  0  0  0  0  0  0  0
    1.7923    0.0664   -1.5783 H   0  0  0  0  0  0  0  0  0  0  0  0
    0.9306   -1.4631   -1.7487 H   0  0  0  0  0  0  0  0  0  0  0  0
   -0.0468    0.2066   -2.6658 C   0  0  0  0  0  0  0  0  0  0  0  0
    0.1721    1.3961   -2.9910 O   0  5  0  0  0  0  0  0  0  0  0  0
   -1.0088   -0.4903   -3.0812 O   0  0  0  0  0  0  0  0  0  0  0  0
    0.1009    1.2848    0.2930 C   0  0  0  0  0  0  0  0  0  0  0  0
   -0.9165    1.9562    0.1529 O   0  0  0  0  0  0  0  0  0  0  0  0
    1.0441    1.7421    1.1990 N   0  0  0  0  0  0  0  0  0  0  0  0
    1.8641    1.1617    1.3363 H   0  0  0  0  0  0  0  0  0  0  0  0
    1.0095    3.0700    1.7947 C   0  0  0  0  0  0  0  0  0  0  0  0
    0.1012    3.1985    2.3924 H   0  0  0  0  0  0  0  0  0  0  0  0
    1.8756    3.2108    2.4477 H   0  0  0  0  0  0  0  0  0  0  0  0
    1.0333    3.8383    1.0150 H   0  0  0  0  0  0  0  0  0  0  0  0
  1  2  1  0  0  0  0
  2  3  1  0  0  0  0
  2  4  1  0  0  0  0
  2  5  1  0  0  0  0
  5  6  2  0  0  0  0
  5  7  1  0  0  0  0
  7  8  1  0  0  0  0
  7  9  1  0  0  0  0
  9 10  1  0  0  0  0
  9 11  1  0  0  0  0
  9 17  1  0  0  0  0
 11 12  1  0  0  0  0
 11 13  1  0  0  0  0
 11 14  1  0  0  0  0
 14 15  1  0  0  0  0
 14 16  2  0  0  0  0
 17 18  2  0  0  0  0
 17 19  1  0  0  0  0
 19 20  1  0  0  0  0
 19 21  1  0  0  0  0
 21 22  1  0  0  0  0
 21 23  1  0  0  0  0
 21 24  1  0  0  0  0
M  CHG  1  15  -1
M  END
$$$$

  -OEChem-03222214023D

 24 23  0     1  0  0  0  0  0999 V2000
   -2.6390   -3.8709    0.2954 H   0  0  0  0  0  0  0  0  0  0  0  0
   -2.6423   -2.8490   -0.0928 C   0  0  0  0  0  0  0  0  0  0  0  0
   -3.5287   -2.3293    0.2787 H   0  0  0  0  0  0  0  0  0  0  0  0
   -2.6840   -2.8861   -1.1848 H   0  0  0  0  0  0  0  0  0  0  0  0
   -1.3900   -2.1125    0.3470 C   0  0  0  0  0  0  0  0  0  0  0  0
   -0.6181   -2.6431    1.1361 O   0  0  0  0  0  0  0  0  0  0  0  0
   -1.1463   -0.8558   -0.1551 N   0  0  0  0  0  0  0  0  0  0  0  0
   -1.7319   -0.5902   -0.9548 H   0  0  0  0  0  0  0  0  0  0  0  0
    0.1646   -0.2007   -0.1491 C   0  0  1  0  0  0  0  0  0  0  0  0
    0.8174   -0.7110    0.5647 H   0  0  0  0  0  0  0  0  0  0  0  0
    0.7816   -0.3819   -1.5457 C   0  0  0  0  0  0  0  0  0  0  0  0
    1.7738    0.0768   -1.5661 H   0  0  0  0  0  0  0  0  0  0  0  0
    0.9079   -1.4470   -1.7571 H   0  0  0  0  0  0  0  0  0  0  0  0
   -0.0703    0.2335   -2.6499 C   0  0  0  0  0  0  0  0  0  0  0  0
    0.3208    1.3095   -3.1593 O   0  5  0  0  0  0  0  0  0  0  0  0
   -1.1464   -0.3554   -2.9376 O   0  0  0  0  0  0  0  0  0  0  0  0
    0.0977    1.2775    0.3086 C   0  0  0  0  0  0  0  0  0  0  0  0
   -0.8936    1.9741    0.1190 O   0  0  0  0  0  0  0  0  0  0  0  0
    1.0422    1.7358    1.2123 N   0  0  0  0  0  0  0  0  0  0  0  0
    1.8443    1.1382    1.3791 H   0  0  0  0  0  0  0  0  0  0  0  0
    1.0279    3.0769    1.7781 C   0  0  0  0  0  0  0  0  0  0  0  0
    0.1149    3.2368    2.3605 H   0  0  0  0  0  0  0  0  0  0  0  0
    1.8883    3.2153    2.4392 H   0  0  0  0  0  0  0  0  0  0  0  0
    1.0772    3.8274    0.9824 H   0  0  0  0  0  0  0  0  0  0  0  0
  1  2  1  0  0  0  0
  2  3  1  0  0  0  0
  2  4  1  0  0  0  0
  2  5  1  0  0  0  0
  5  6  2  0  0  0  0
  5  7  1  0  0  0  0
  7  8  1  0  0  0  0
  7  9  1  0  0  0  0
  9 10  1  0  0  0  0
  9 11  1  0  0  0  0
  9 17  1  0  0  0  0
 11 12  1  0  0  0  0
 11 13  1  0  0  0  0
 11 14  1  0  0  0  0
 14 15  1  0  0  0  0
 14 16  2  0  0  0  0
 17 18  2  0  0  0  0
 17 19  1  0  0  0  0
 19 20  1  0  0  0  0
 19 21  1  0  0  0  0
 21 22  1  0  0  0  0
 21 23  1  0  0  0  0
 21 24  1  0  0  0  0
M  CHG  1  15  -1
M  END
$$$$

  -OEChem-03222214023D

 24 23  0     1  0  0  0  0  0999 V2000
   -2.6420   -3.8821    0.3059 H   0  0  0  0  0  0  0  0  0  0  0  0
   -2.6485   -2.8588   -0.0788 C   0  0  0  0  0  0  0  0  0  0  0  0
   -3.5297   -2.3393    0.3051 H   0  0  0  0  0  0  0  0  0  0  0  0
   -2.7032   -2.8913   -1.1704 H   0  0  0  0  0  0  0  0  0  0  0  0
   -1.3901   -2.1256    0.3493 C   0  0  0  0  0  0  0  0  0  0  0  0
   -0.6116   -2.6596    1.1296 O   0  0  0  0  0  0  0  0  0  0  0  0
   -1.1511   -0.8653   -0.1460 N   0  0  0  0  0  0  0  0  0  0  0  0
   -1.7394   -0.5919   -0.9429 H   0  0  0  0  0  0  0  0  0  0  0  0
    0.1558   -0.2045   -0.1422 C   0  0  1  0  0  0  0  0  0  0  0  0
    0.8143   -0.7176    0.5642 H   0  0  0  0  0  0  0  0  0  0  0  0
    0.7728   -0.3606   -1.5435 C   0  0  0  0  0  0  0  0  0  0  0  0
    1.7628    0.1035   -1.5519 H   0  0  0  0  0  0  0  0  0  0  0  0
    0.9069   -1.4220   -1.7677 H   0  0  0  0  0  0  0  0  0  0  0  0
   -0.0723    0.2594   -2.6543 C   0  0  0  0  0  0  0  0  0  0  0  0
    0.4520    1.1694   -3.3391 O   0  5  0  0  0  0  0  0  0  0  0  0
   -1.2279   -0.2101   -2.8386 O   0  0  0  0  0  0  0  0  0  0  0  0
    0.0881    1.2705    0.3233 C   0  0  0  0  0  0  0  0  0  0  0  0
   -0.8833    1.9841    0.0996 O   0  0  0  0  0  0  0  0  0  0  0  0
    1.0346    1.7286    1.2247 N   0  0  0  0  0  0  0  0  0  0  0  0
    1.8244    1.1198    1.4098 H   0  0  0  0  0  0  0  0  0  0  0  0
    1.0368    3.0781    1.7705 C   0  0  0  0  0  0  0  0  0  0  0  0
    0.1199    3.2630    2.3394 H   0  0  0  0  0  0  0  0  0  0  0  0
    1.8915    3.2112    2.4399 H   0  0  0  0  0  0  0  0  0  0  0  0
    1.1090    3.8152    0.9642 H   0  0  0  0  0  0  0  0  0  0  0  0
  1  2  1  0  0  0  0
  2  3  1  0  0  0  0
  2  4  1  0  0  0  0
  2  5  1  0  0  0  0
  5  6  2  0  0  0  0
  5  7  1  0  0  0  0
  7  8  1  0  0  0  0
  7  9  1  0  0  0  0
  9 10  1  0  0  0  0
  9 11  1  0  0  0  0
  9 17  1  0  0  0  0
 11 12  1  0  0  0  0
 11 13  1  0  0  0  0
 11 14  1  0  0  0  0
 14 15  1  0  0  0  0
 14 16  2  0  0  0  0
 17 18  2  0  0  0  0
 17 19  1  0  0  0  0
 19 20  1  0  0  0  0
 19 21  1  0  0  0  0
 21 22  1  0  0  0  0
 21 23  1  0  0  0  0
 21 24  1  0  0  0  0
M  CHG  1  15  -1
M  END
$$$$

  -OEChem-03222214023D

 24 23  0     1  0  0  0  0  0999 V2000
   -2.6397   -3.8863    0.3108 H   0  0  0  0  0  0  0  0  0  0  0  0
   -2.6527   -2.8594   -0.0641 C   0  0  0  0  0  0  0  0  0  0  0  0
   -3.5275   -2.3438    0.3397 H   0  0  0  0  0  0  0  0  0  0  0  0
   -2.7263   -2.8823   -1.1548 H   0  0  0  0  0  0  0  0  0  0  0  0
   -1.3875   -2.1301    0.3500 C   0  0  0  0  0  0  0  0  0  0  0  0
   -0.5989   -2.6685    1.1169 O   0  0  0  0  0  0  0  0  0  0  0  0
   -1.1541   -0.8669   -0.1395 N   0  0  0  0  0  0  0  0  0  0  0  0
   -1.7549   -0.5787   -0.9225 H   0  0  0  0  0  0  0  0  0  0  0  0
    0.1478   -0.1988   -0.1435 C   0  0  1  0  0  0  0  0  0  0  0  0
    0.8114   -0.7124    0.5580 H   0  0  0  0  0  0  0  0  0  0  0  0
    0.7662   -0.3443   -1.5469 C   0  0  0  0  0  0  0  0  0  0  0  0
    1.7523    0.1282   -1.5474 H   0  0  0  0  0  0  0  0  0  0  0  0
    0.9120   -1.4040   -1.7707 H   0  0  0  0  0  0  0  0  0  0  0  0
   -0.0675    0.2656   -2.6753 C   0  0  0  0  0  0  0  0  0  0  0  0
    0.5477    0.9550   -3.5236 O   0  5  0  0  0  0  0  0  0  0  0  0
   -1.2828   -0.0607   -2.7582 O   0  0  0  0  0  0  0  0  0  0  0  0
    0.0820    1.2739    0.3285 C   0  0  0  0  0  0  0  0  0  0  0  0
   -0.8762    1.9999    0.0905 O   0  0  0  0  0  0  0  0  0  0  0  0
    1.0359    1.7301    1.2230 N   0  0  0  0  0  0  0  0  0  0  0  0
    1.8128    1.1094    1.4233 H   0  0  0  0  0  0  0  0  0  0  0  0
    1.0404    3.0755    1.7790 C   0  0  0  0  0  0  0  0  0  0  0  0
    0.1161    3.2637    2.3347 H   0  0  0  0  0  0  0  0  0  0  0  0
    1.8853    3.1959    2.4630 H   0  0  0  0  0  0  0  0  0  0  0  0
    1.1313    3.8186    0.9801 H   0  0  0  0  0  0  0  0  0  0  0  0
  1  2  1  0  0  0  0
  2  3  1  0  0  0  0
  2  4  1  0  0  0  0
  2  5  1  0  0  0  0
  5  6  2  0  0  0  0
  5  7  1  0  0  0  0
  7  8  1  0  0  0  0
  7  9  1  0  0  0  0
  9 10  1  0  0  0  0
  9 11  1  0  0  0  0
  9 17  1  0  0  0  0
 11 12  1  0  0  0  0
 11 13  1  0  0  0  0
 11 14  1  0  0  0  0
 14 15  1  0  0  0  0
 14 16  2  0  0  0  0
 17 18  2  0  0  0  0
 17 19  1  0  0  0  0
 19 20  1  0  0  0  0
 19 21  1  0  0  0  0
 21 22  1  0  0  0  0
 21 23  1  0  0  0  0
 21 24  1  0  0  0  0
M  CHG  1  15  -1
M  END
$$$$

  -OEChem-03222214023D

 24 23  0     1  0  0  0  0  0999 V2000
   -2.6441   -3.8857    0.3163 H   0  0  0  0  0  0  0  0  0  0  0  0
   -2.6564   -2.8591   -0.0590 C   0  0  0  0  0  0  0  0  0  0  0  0
   -3.5253   -2.3398    0.3526 H   0  0  0  0  0  0  0  0  0  0  0  0
   -2.7399   -2.8822   -1.1490 H   0  0  0  0  0  0  0  0  0  0  0  0
   -1.3847   -2.1345    0.3432 C   0  0  0  0  0  0  0  0  0  0  0  0
   -0.5853   -2.6801    1.0935 O   0  0  0  0  0  0  0  0  0  0  0  0
   -1.1583   -0.8667   -0.1374 N   0  0  0  0  0  0  0  0  0  0  0  0
   -1.7745   -0.5590   -0.9010 H   0  0  0  0  0  0  0  0  0  0  0  0
    0.1369   -0.1878   -0.1459 C   0  0  1  0  0  0  0  0  0  0  0  0
    0.8021   -0.7007    0.5546 H   0  0  0  0  0  0  0  0  0  0  0  0
    0.7636   -0.3298   -1.5469 C   0  0  0  0  0  0  0  0  0  0  0  0
    1.7441    0.1539   -1.5403 H   0  0  0  0  0  0  0  0  0  0  0  0
    0.9238   -1.3893   -1.7626 H   0  0  0  0  0  0  0  0  0  0  0  0
   -0.0557    0.2611   -2.6974 C   0  0  0  0  0  0  0  0  0  0  0  0
    0.6003    0.6906   -3.6765 O   0  5  0  0  0  0  0  0  0  0  0  0
   -1.3074    0.1137   -2.6852 O   0  0  0  0  0  0  0  0  0  0  0  0
    0.0731    1.2823    0.3348 C   0  0  0  0  0  0  0  0  0  0  0  0
   -0.8824    2.0144    0.1059 O   0  0  0  0  0  0  0  0  0  0  0  0
    1.0356    1.7329    1.2231 N   0  0  0  0  0  0  0  0  0  0  0  0
    1.8068    1.1051    1.4234 H   0  0  0  0  0  0  0  0  0  0  0  0
    1.0468    3.0741    1.7890 C   0  0  0  0  0  0  0  0  0  0  0  0
    0.1342    3.2541    2.3661 H   0  0  0  0  0  0  0  0  0  0  0  0
    1.9062    3.1931    2.4551 H   0  0  0  0  0  0  0  0  0  0  0  0
    1.1174    3.8234    0.9940 H   0  0  0  0  0  0  0  0  0  0  0  0
  1  2  1  0  0  0  0
  2  3  1  0  0  0  0
  2  4  1  0  0  0  0
  2  5  1  0  0  0  0
  5  6  2  0  0  0  0
  5  7  1  0  0  0  0
  7  8  1  0  0  0  0
  7  9  1  0  0  0  0
  9 10  1  0  0  0  0
  9 11  1  0  0  0  0
  9 17  1  0  0  0  0
 11 12  1  0  0  0  0
 11 13  1  0  0  0  0
 11 14  1  0  0  0  0
 14 15  1  0  0  0  0
 14 16  2  0  0  0  0
 17 18  2  0  0  0  0
 17 19  1  0  0  0  0
 19 20  1  0  0  0  0
 19 21  1  0  0  0  0
 21 22  1  0  0  0  0
 21 23  1  0  0  0  0
 21 24  1  0  0  0  0
M  CHG  1  15  -1
M  END
$$$$

  -OEChem-03222214023D

 24 23  0     1  0  0  0  0  0999 V2000
   -2.6540   -3.8746    0.3302 H   0  0  0  0  0  0  0  0  0  0  0  0
   -2.6642   -2.8487   -0.0476 C   0  0  0  0  0  0  0  0  0  0  0  0
   -3.5186   -2.3199    0.3818 H   0  0  0  0  0  0  0  0  0  0  0  0
   -2.7720   -2.8736   -1.1354 H   0  0  0  0  0  0  0  0  0  0  0  0
   -1.3765   -2.1362    0.3251 C   0  0  0  0  0  0  0  0  0  0  0  0
   -0.5608   -2.6942    1.0482 O   0  0  0  0  0  0  0  0  0  0  0  0
   -1.1557   -0.8637   -0.1461 N   0  0  0  0  0  0  0  0  0  0  0  0
   -1.7942   -0.5292   -0.8786 H   0  0  0  0  0  0  0  0  0  0  0  0
    0.1322   -0.1720   -0.1584 C   0  0  1  0  0  0  0  0  0  0  0  0
    0.7968   -0.6816    0.5450 H   0  0  0  0  0  0  0  0  0  0  0  0
    0.7712   -0.3220   -1.5534 C   0  0  0  0  0  0  0  0  0  0  0  0
    1.7455    0.1737   -1.5455 H   0  0  0  0  0  0  0  0  0  0  0  0
    0.9459   -1.3827   -1.7515 H   0  0  0  0  0  0  0  0  0  0  0  0
   -0.0356    0.2406   -2.7269 C   0  0  0  0  0  0  0  0  0  0  0  0
    0.6014    0.3856   -3.7980 O   0  5  0  0  0  0  0  0  0  0  0  0
   -1.2897    0.3032   -2.6320 O   0  0  0  0  0  0  0  0  0  0  0  0
    0.0679    1.2958    0.3310 C   0  0  0  0  0  0  0  0  0  0  0  0
   -0.8997    2.0225    0.1394 O   0  0  0  0  0  0  0  0  0  0  0  0
    1.0393    1.7402    1.2132 N   0  0  0  0  0  0  0  0  0  0  0  0
    1.8147    1.1127    1.3978 H   0  0  0  0  0  0  0  0  0  0  0  0
    1.0438    3.0683    1.8096 C   0  0  0  0  0  0  0  0  0  0  0  0
    0.1360    3.2266    2.4007 H   0  0  0  0  0  0  0  0  0  0  0  0
    1.9093    3.1806    2.4691 H   0  0  0  0  0  0  0  0  0  0  0  0
    1.0988    3.8361    1.0310 H   0  0  0  0  0  0  0  0  0  0  0  0
  1  2  1  0  0  0  0
  2  3  1  0  0  0  0
  2  4  1  0  0  0  0
  2  5  1  0  0  0  0
  5  6  2  0  0  0  0
  5  7  1  0  0  0  0
  7  8  1  0  0  0  0
  7  9  1  0  0  0  0
  9 10  1  0  0  0  0
  9 11  1  0  0  0  0
  9 17  1  0  0  0  0
 11 12  1  0  0  0  0
 11 13  1  0  0  0  0
 11 14  1  0  0  0  0
 14 15  1  0  0  0  0
 14 16  2  0  0  0  0
 17 18  2  0  0  0  0
 17 19  1  0  0  0  0
 19 20  1  0  0  0  0
 19 21  1  0  0  0  0
 21 22  1  0  0  0  0
 21 23  1  0  0  0  0
 21 24  1  0  0  0  0
M  CHG  1  15  -1
M  END
$$$$

  -OEChem-03222214023D

 24 23  0     1  0  0  0  0  0999 V2000
   -2.6898   -3.8172    0.3853 H   0  0  0  0  0  0  0  0  0  0  0  0
   -2.6931   -2.7933    0.0021 C   0  0  0  0  0  0  0  0  0  0  0  0
   -3.4819   -2.2288    0.5051 H   0  0  0  0  0  0  0  0  0  0  0  0
   -2.9018   -2.8183   -1.0705 H   0  0  0  0  0  0  0  0  0  0  0  0
   -1.3484   -2.1336    0.2499 C   0  0  0  0  0  0  0  0  0  0  0  0
   -0.4771   -2.7445    0.8540 O   0  0  0  0  0  0  0  0  0  0  0  0
   -1.1425   -0.8482   -0.1948 N   0  0  0  0  0  0  0  0  0  0  0  0
   -1.8782   -0.4169   -0.7556 H   0  0  0  0  0  0  0  0  0  0  0  0
    0.1305   -0.1284   -0.2166 C   0  0  1  0  0  0  0  0  0  0  0  0
    0.7756   -0.6273    0.5123 H   0  0  0  0  0  0  0  0  0  0  0  0
    0.8341   -0.3325   -1.5728 C   0  0  0  0  0  0  0  0  0  0  0  0
    1.8786   -0.0289   -1.4675 H   0  0  0  0  0  0  0  0  0  0  0  0
    0.8279   -1.3967   -1.8226 H   0  0  0  0  0  0  0  0  0  0  0  0
    0.2578    0.4362   -2.7587 C   0  0  0  0  0  0  0  0  0  0  0  0
    0.8459    0.2602   -3.8528 O   0  5  0  0  0  0  0  0  0  0  0  0
   -0.8495    1.0106   -2.6348 O   0  0  0  0  0  0  0  0  0  0  0  0
    0.0477    1.3305    0.3037 C   0  0  0  0  0  0  0  0  0  0  0  0
   -1.0070    1.9578    0.3240 O   0  0  0  0  0  0  0  0  0  0  0  0
    1.0370    1.7629    1.1730 N   0  0  0  0  0  0  0  0  0  0  0  0
    1.8802    1.2011    1.2198 H   0  0  0  0  0  0  0  0  0  0  0  0
    0.9931    3.0322    1.8852 C   0  0  0  0  0  0  0  0  0  0  0  0
    0.1345    3.0615    2.5637 H   0  0  0  0  0  0  0  0  0  0  0  0
    1.9047    3.1628    2.4755 H   0  0  0  0  0  0  0  0  0  0  0  0
    0.9155    3.8642    1.1777 H   0  0  0  0  0  0  0  0  0  0  0  0
  1  2  1  0  0  0  0
  2  3  1  0  0  0  0
  2  4  1  0  0  0  0
  2  5  1  0  0  0  0
  5  6  2  0  0  0  0
  5  7  1  0  0  0  0
  7  8  1  0  0  0  0
  7  9  1  0  0  0  0
  9 10  1  0  0  0  0
  9 11  1  0  0  0  0
  9 17  1  0  0  0  0
 11 12  1  0  0  0  0
 11 13  1  0  0  0  0
 11 14  1  0  0  0  0
 14 15  1  0  0  0  0
 14 16  2  0  0  0  0
 17 18  2  0  0  0  0
 17 19  1  0  0  0  0
 19 20  1  0  0  0  0
 19 21  1  0  0  0  0
 21 22  1  0  0  0  0
 21 23  1  0  0  0  0
 21 24  1  0  0  0  0
M  CHG  1  15  -1
M  END
$$$$

  -OEChem-03222214023D

 24 23  0     1  0  0  0  0  0999 V2000
   -2.7171   -3.7893    0.4314 H   0  0  0  0  0  0  0  0  0  0  0  0
   -2.7150   -2.7644    0.0505 C   0  0  0  0  0  0  0  0  0  0  0  0
   -3.4564   -2.1801    0.6012 H   0  0  0  0  0  0  0  0  0  0  0  0
   -2.9881   -2.7805   -1.0078 H   0  0  0  0  0  0  0  0  0  0  0  0
   -1.3397   -2.1435    0.2169 C   0  0  0  0  0  0  0  0  0  0  0  0
   -0.4465   -2.7867    0.7507 O   0  0  0  0  0  0  0  0  0  0  0  0
   -1.1308   -0.8555   -0.2198 N   0  0  0  0  0  0  0  0  0  0  0  0
   -1.9096   -0.3683   -0.6604 H   0  0  0  0  0  0  0  0  0  0  0  0
    0.1447   -0.1380   -0.2446 C   0  0  1  0  0  0  0  0  0  0  0  0
    0.7873   -0.6363    0.4874 H   0  0  0  0  0  0  0  0  0  0  0  0
    0.8635   -0.3395   -1.5956 C   0  0  0  0  0  0  0  0  0  0  0  0
    1.9075   -0.0399   -1.4778 H   0  0  0  0  0  0  0  0  0  0  0  0
    0.8579   -1.4060   -1.8376 H   0  0  0  0  0  0  0  0  0  0  0  0
    0.3169    0.4216   -2.8007 C   0  0  0  0  0  0  0  0  0  0  0  0
    0.7222    0.0254   -3.9201 O   0  5  0  0  0  0  0  0  0  0  0  0
   -0.5351    1.3234   -2.6365 O   0  0  0  0  0  0  0  0  0  0  0  0
    0.0367    1.3141    0.2918 C   0  0  0  0  0  0  0  0  0  0  0  0
   -1.0495    1.8838    0.3712 O   0  0  0  0  0  0  0  0  0  0  0  0
    1.0190    1.7534    1.1658 N   0  0  0  0  0  0  0  0  0  0  0  0
    1.8989    1.2492    1.1464 H   0  0  0  0  0  0  0  0  0  0  0  0
    0.9450    3.0101    1.8979 C   0  0  0  0  0  0  0  0  0  0  0  0
    0.0974    3.0013    2.5906 H   0  0  0  0  0  0  0  0  0  0  0  0
    1.8614    3.1618    2.4757 H   0  0  0  0  0  0  0  0  0  0  0  0
    0.8284    3.8496    1.2049 H   0  0  0  0  0  0  0  0  0  0  0  0
  1  2  1  0  0  0  0
  2  3  1  0  0  0  0
  2  4  1  0  0  0  0
  2  5  1  0  0  0  0
  5  6  2  0  0  0  0
  5  7  1  0  0  0  0
  7  8  1  0  0  0  0
  7  9  1  0  0  0  0
  9 10  1  0  0  0  0
  9 11  1  0  0  0  0
  9 17  1  0  0  0  0
 11 12  1  0  0  0  0
 11 13  1  0  0  0  0
 11 14  1  0  0  0  0
 14 15  1  0  0  0  0
 14 16  2  0  0  0  0
 17 18  2  0  0  0  0
 17 19  1  0  0  0  0
 19 20  1  0  0  0  0
 19 21  1  0  0  0  0
 21 22  1  0  0  0  0
 21 23  1  0  0  0  0
 21 24  1  0  0  0  0
M  CHG  1  15  -1
M  END
$$$$

  -OEChem-03222214023D

 24 23  0     1  0  0  0  0  0999 V2000
   -2.7467   -3.7624    0.4718 H   0  0  0  0  0  0  0  0  0  0  0  0
   -2.7322   -2.7388    0.0875 C   0  0  0  0  0  0  0  0  0  0  0  0
   -3.4318   -2.1328    0.6685 H   0  0  0  0  0  0  0  0  0  0  0  0
   -3.0516   -2.7495   -0.9578 H   0  0  0  0  0  0  0  0  0  0  0  0
   -1.3338   -2.1572    0.1919 C   0  0  0  0  0  0  0  0  0  0  0  0
   -0.4357   -2.8271    0.6822 O   0  0  0  0  0  0  0  0  0  0  0  0
   -1.1107   -0.8704   -0.2416 N   0  0  0  0  0  0  0  0  0  0  0  0
   -1.9074   -0.3377   -0.5853 H   0  0  0  0  0  0  0  0  0  0  0  0
    0.1738   -0.1666   -0.2572 C   0  0  1  0  0  0  0  0  0  0  0  0
    0.8165   -0.6696    0.4715 H   0  0  0  0  0  0  0  0  0  0  0  0
    0.8847   -0.3525   -1.6153 C   0  0  0  0  0  0  0  0  0  0  0  0
    1.9338   -0.0710   -1.4991 H   0  0  0  0  0  0  0  0  0  0  0  0
    0.8625   -1.4149   -1.8740 H   0  0  0  0  0  0  0  0  0  0  0  0
    0.3431    0.4396   -2.8026 C   0  0  0  0  0  0  0  0  0  0  0  0
    0.4822   -0.0934   -3.9303 O   0  5  0  0  0  0  0  0  0  0  0  0
   -0.1260    1.5847   -2.6150 O   0  0  0  0  0  0  0  0  0  0  0  0
    0.0396    1.2801    0.2877 C   0  0  0  0  0  0  0  0  0  0  0  0
   -1.0666    1.8139    0.3635 O   0  0  0  0  0  0  0  0  0  0  0  0
    1.0000    1.7319    1.1789 N   0  0  0  0  0  0  0  0  0  0  0  0
    1.9057    1.2785    1.1252 H   0  0  0  0  0  0  0  0  0  0  0  0
    0.8943    2.9975    1.8912 C   0  0  0  0  0  0  0  0  0  0  0  0
    0.0457    2.9785    2.5824 H   0  0  0  0  0  0  0  0  0  0  0  0
    1.8053    3.1805    2.4683 H   0  0  0  0  0  0  0  0  0  0  0  0
    0.7586    3.8232    1.1852 H   0  0  0  0  0  0  0  0  0  0  0  0
  1  2  1  0  0  0  0
  2  3  1  0  0  0  0
  2  4  1  0  0  0  0
  2  5  1  0  0  0  0
  5  6  2  0  0  0  0
  5  7  1  0  0  0  0
  7  8  1  0  0  0  0
  7  9  1  0  0  0  0
  9 10  1  0  0  0  0
  9 11  1  0  0  0  0
  9 17  1  0  0  0  0
 11 12  1  0  0  0  0
 11 13  1  0  0  0  0
 11 14  1  0  0  0  0
 14 15  1  0  0  0  0
 14 16  2  0  0  0  0
 17 18  2  0  0  0  0
 17 19  1  0  0  0  0
 19 20  1  0  0  0  0
 19 21  1  0  0  0  0
 21 22  1  0  0  0  0
 21 23  1  0  0  0  0
 21 24  1  0  0  0  0
M  CHG  1  15  -1
M  END
$$$$

  -OEChem-03222214023D

 24 23  0     1  0  0  0  0  0999 V2000
   -2.7615   -3.7564    0.4761 H   0  0  0  0  0  0  0  0  0  0  0  0
   -2.7359   -2.7345    0.0881 C   0  0  0  0  0  0  0  0  0  0  0  0
   -3.4323   -2.1196    0.6635 H   0  0  0  0  0  0  0  0  0  0  0  0
   -3.0513   -2.7465   -0.9584 H   0  0  0  0  0  0  0  0  0  0  0  0
   -1.3326   -2.1655    0.1955 C   0  0  0  0  0  0  0  0  0  0  0  0
   -0.4428   -2.8399    0.6948 O   0  0  0  0  0  0  0  0  0  0  0  0
   -1.0951   -0.8833   -0.2443 N   0  0  0  0  0  0  0  0  0  0  0  0
   -1.8877   -0.3414   -0.5823 H   0  0  0  0  0  0  0  0  0  0  0  0
    0.1974   -0.1928   -0.2484 C   0  0  1  0  0  0  0  0  0  0  0  0
    0.8417   -0.6995    0.4762 H   0  0  0  0  0  0  0  0  0  0  0  0
    0.8899   -0.3638   -1.6158 C   0  0  0  0  0  0  0  0  0  0  0  0
    1.9437   -0.0953   -1.5116 H   0  0  0  0  0  0  0  0  0  0  0  0
    0.8530   -1.4198   -1.8990 H   0  0  0  0  0  0  0  0  0  0  0  0
    0.3265    0.4707   -2.7610 C   0  0  0  0  0  0  0  0  0  0  0  0
    0.1530   -0.1172   -3.8562 O   0  5  0  0  0  0  0  0  0  0  0  0
    0.2290    1.7088   -2.5973 O   0  0  0  0  0  0  0  0  0  0  0  0
    0.0514    1.2552    0.2885 C   0  0  0  0  0  0  0  0  0  0  0  0
   -1.0566    1.7905    0.3189 O   0  0  0  0  0  0  0  0  0  0  0  0
    0.9920    1.7178    1.1943 N   0  0  0  0  0  0  0  0  0  0  0  0
    1.9044    1.2775    1.1465 H   0  0  0  0  0  0  0  0  0  0  0  0
    0.8756    3.0030    1.8682 C   0  0  0  0  0  0  0  0  0  0  0  0
    0.0034    3.0111    2.5298 H   0  0  0  0  0  0  0  0  0  0  0  0
    1.7682    3.1923    2.4715 H   0  0  0  0  0  0  0  0  0  0  0  0
    0.7734    3.8104    1.1356 H   0  0  0  0  0  0  0  0  0  0  0  0
  1  2  1  0  0  0  0
  2  3  1  0  0  0  0
  2  4  1  0  0  0  0
  2  5  1  0  0  0  0
  5  6  2  0  0  0  0
  5  7  1  0  0  0  0
  7  8  1  0  0  0  0
  7  9  1  0  0  0  0
  9 10  1  0  0  0  0
  9 11  1  0  0  0  0
  9 17  1  0  0  0  0
 11 12  1  0  0  0  0
 11 13  1  0  0  0  0
 11 14  1  0  0  0  0
 14 15  1  0  0  0  0
 14 16  2  0  0  0  0
 17 18  2  0  0  0  0
 17 19  1  0  0  0  0
 19 20  1  0  0  0  0
 19 21  1  0  0  0  0
 21 22  1  0  0  0  0
 21 23  1  0  0  0  0
 21 24  1  0  0  0  0
M  CHG  1  15  -1
M  END
$$$$

  -OEChem-03222214023D

 24 23  0     1  0  0  0  0  0999 V2000
   -2.7607   -3.7740    0.4461 H   0  0  0  0  0  0  0  0  0  0  0  0
   -2.7282   -2.7530    0.0561 C   0  0  0  0  0  0  0  0  0  0  0  0
   -3.4544   -2.1427    0.5985 H   0  0  0  0  0  0  0  0  0  0  0  0
   -2.9982   -2.7712   -1.0030 H   0  0  0  0  0  0  0  0  0  0  0  0
   -1.3364   -2.1700    0.2214 C   0  0  0  0  0  0  0  0  0  0  0  0
   -0.4650   -2.8299    0.7705 O   0  0  0  0  0  0  0  0  0  0  0  0
   -1.0890   -0.8930   -0.2275 N   0  0  0  0  0  0  0  0  0  0  0  0
   -1.8620   -0.3793   -0.6458 H   0  0  0  0  0  0  0  0  0  0  0  0
    0.2081   -0.2106   -0.2239 C   0  0  1  0  0  0  0  0  0  0  0  0
    0.8555   -0.7202    0.4962 H   0  0  0  0  0  0  0  0  0  0  0  0
    0.8789   -0.3686   -1.6005 C   0  0  0  0  0  0  0  0  0  0  0  0
    1.9362   -0.1077   -1.5113 H   0  0  0  0  0  0  0  0  0  0  0  0
    0.8293   -1.4171   -1.9083 H   0  0  0  0  0  0  0  0  0  0  0  0
    0.2834    0.5024   -2.6987 C   0  0  0  0  0  0  0  0  0  0  0  0
   -0.1996   -0.0823   -3.6990 O   0  5  0  0  0  0  0  0  0  0  0  0
    0.4700    1.7395   -2.6153 O   0  0  0  0  0  0  0  0  0  0  0  0
    0.0662    1.2427    0.2988 C   0  0  0  0  0  0  0  0  0  0  0  0
   -1.0293    1.8021    0.2749 O   0  0  0  0  0  0  0  0  0  0  0  0
    0.9967    1.7129    1.2109 N   0  0  0  0  0  0  0  0  0  0  0  0
    1.9038    1.2599    1.1870 H   0  0  0  0  0  0  0  0  0  0  0  0
    0.8939    3.0235    1.8365 C   0  0  0  0  0  0  0  0  0  0  0  0
   -0.0114    3.0864    2.4491 H   0  0  0  0  0  0  0  0  0  0  0  0
    1.7593    3.2001    2.4819 H   0  0  0  0  0  0  0  0  0  0  0  0
    0.8622    3.8087    1.0739 H   0  0  0  0  0  0  0  0  0  0  0  0
  1  2  1  0  0  0  0
  2  3  1  0  0  0  0
  2  4  1  0  0  0  0
  2  5  1  0  0  0  0
  5  6  2  0  0  0  0
  5  7  1  0  0  0  0
  7  8  1  0  0  0  0
  7  9  1  0  0  0  0
  9 10  1  0  0  0  0
  9 11  1  0  0  0  0
  9 17  1  0  0  0  0
 11 12  1  0  0  0  0
 11 13  1  0  0  0  0
 11 14  1  0  0  0  0
 14 15  1  0  0  0  0
 14 16  2  0  0  0  0
 17 18  2  0  0  0  0
 17 19  1  0  0  0  0
 19 20  1  0  0  0  0
 19 21  1  0  0  0  0
 21 22  1  0  0  0  0
 21 23  1  0  0  0  0
 21 24  1  0  0  0  0
M  CHG  1  15  -1
M  END
$$$$

  -OEChem-03222214023D

 24 23  0     1  0  0  0  0  0999 V2000
   -2.7343   -3.8059    0.3867 H   0  0  0  0  0  0  0  0  0  0  0  0
   -2.7075   -2.7832    0.0008 C   0  0  0  0  0  0  0  0  0  0  0  0
   -3.4869   -2.1974    0.4941 H   0  0  0  0  0  0  0  0  0  0  0  0
   -2.9056   -2.8068   -1.0741 H   0  0  0  0  0  0  0  0  0  0  0  0
   -1.3485   -2.1577    0.2596 C   0  0  0  0  0  0  0  0  0  0  0  0
   -0.5038   -2.7828    0.8861 O   0  0  0  0  0  0  0  0  0  0  0  0
   -1.0977   -0.8861   -0.2025 N   0  0  0  0  0  0  0  0  0  0  0  0
   -1.8250   -0.4395   -0.7584 H   0  0  0  0  0  0  0  0  0  0  0  0
    0.2029   -0.2097   -0.1939 C   0  0  1  0  0  0  0  0  0  0  0  0
    0.8523   -0.7207    0.5232 H   0  0  0  0  0  0  0  0  0  0  0  0
    0.8510   -0.3754   -1.5768 C   0  0  0  0  0  0  0  0  0  0  0  0
    1.9120   -0.1223   -1.5074 H   0  0  0  0  0  0  0  0  0  0  0  0
    0.7866   -1.4204   -1.8933 H   0  0  0  0  0  0  0  0  0  0  0  0
    0.2243    0.5133   -2.6405 C   0  0  0  0  0  0  0  0  0  0  0  0
   -0.5373   -0.0358   -3.4746 O   0  5  0  0  0  0  0  0  0  0  0  0
    0.6208    1.7016   -2.7009 O   0  0  0  0  0  0  0  0  0  0  0  0
    0.0823    1.2519    0.3092 C   0  0  0  0  0  0  0  0  0  0  0  0
   -0.9877    1.8516    0.2315 O   0  0  0  0  0  0  0  0  0  0  0  0
    1.0134    1.7211    1.2209 N   0  0  0  0  0  0  0  0  0  0  0  0
    1.9016    1.2319    1.2404 H   0  0  0  0  0  0  0  0  0  0  0  0
    0.9372    3.0476    1.8157 C   0  0  0  0  0  0  0  0  0  0  0  0
    0.0221    3.1501    2.4078 H   0  0  0  0  0  0  0  0  0  0  0  0
    1.7945    3.2129    2.4746 H   0  0  0  0  0  0  0  0  0  0  0  0
    0.9437    3.8163    1.0360 H   0  0  0  0  0  0  0  0  0  0  0  0
  1  2  1  0  0  0  0
  2  3  1  0  0  0  0
  2  4  1  0  0  0  0
  2  5  1  0  0  0  0
  5  6  2  0  0  0  0
  5  7  1  0  0  0  0
  7  8  1  0  0  0  0
  7  9  1  0  0  0  0
  9 10  1  0  0  0  0
  9 11  1  0  0  0  0
  9 17  1  0  0  0  0
 11 12  1  0  0  0  0
 11 13  1  0  0  0  0
 11 14  1  0  0  0  0
 14 15  1  0  0  0  0
 14 16  2  0  0  0  0
 17 18  2  0  0  0  0
 17 19  1  0  0  0  0
 19 20  1  0  0  0  0
 19 21  1  0  0  0  0
 21 22  1  0  0  0  0
 21 23  1  0  0  0  0
 21 24  1  0  0  0  0
M  CHG  1  15  -1
M  END
$$$$

  -OEChem-03222214023D

 24 23  0     1  0  0  0  0  0999 V2000
   -2.6965   -3.8362    0.3274 H   0  0  0  0  0  0  0  0  0  0  0  0
   -2.6797   -2.8123   -0.0553 C   0  0  0  0  0  0  0  0  0  0  0  0
   -3.5080   -2.2540    0.3875 H   0  0  0  0  0  0  0  0  0  0  0  0
   -2.8080   -2.8392   -1.1407 H   0  0  0  0  0  0  0  0  0  0  0  0
   -1.3624   -2.1417    0.2901 C   0  0  0  0  0  0  0  0  0  0  0  0
   -0.5474   -2.7308    0.9876 O   0  0  0  0  0  0  0  0  0  0  0  0
   -1.1135   -0.8740   -0.1829 N   0  0  0  0  0  0  0  0  0  0  0  0
   -1.7825   -0.4990   -0.8566 H   0  0  0  0  0  0  0  0  0  0  0  0
    0.1883   -0.2013   -0.1663 C   0  0  1  0  0  0  0  0  0  0  0  0
    0.8366   -0.7143    0.5502 H   0  0  0  0  0  0  0  0  0  0  0  0
    0.8180   -0.3819   -1.5538 C   0  0  0  0  0  0  0  0  0  0  0  0
    1.8814   -0.1345   -1.5016 H   0  0  0  0  0  0  0  0  0  0  0  0
    0.7408   -1.4255   -1.8718 H   0  0  0  0  0  0  0  0  0  0  0  0
    0.1662    0.5142   -2.5943 C   0  0  0  0  0  0  0  0  0  0  0  0
   -0.8209    0.0406   -3.2116 O   0  5  0  0  0  0  0  0  0  0  0  0
    0.7198    1.6110   -2.8463 O   0  0  0  0  0  0  0  0  0  0  0  0
    0.0929    1.2673    0.3199 C   0  0  0  0  0  0  0  0  0  0  0  0
   -0.9449    1.9106    0.1919 O   0  0  0  0  0  0  0  0  0  0  0  0
    1.0269    1.7298    1.2319 N   0  0  0  0  0  0  0  0  0  0  0  0
    1.8859    1.1957    1.3057 H   0  0  0  0  0  0  0  0  0  0  0  0
    0.9852    3.0694    1.7998 C   0  0  0  0  0  0  0  0  0  0  0  0
    0.0679    3.2117    2.3800 H   0  0  0  0  0  0  0  0  0  0  0  0
    1.8406    3.2224    2.4642 H   0  0  0  0  0  0  0  0  0  0  0  0
    1.0228    3.8218    1.0053 H   0  0  0  0  0  0  0  0  0  0  0  0
  1  2  1  0  0  0  0
  2  3  1  0  0  0  0
  2  4  1  0  0  0  0
  2  5  1  0  0  0  0
  5  6  2  0  0  0  0
  5  7  1  0  0  0  0
  7  8  1  0  0  0  0
  7  9  1  0  0  0  0
  9 10  1  0  0  0  0
  9 11  1  0  0  0  0
  9 17  1  0  0  0  0
 11 12  1  0  0  0  0
 11 13  1  0  0  0  0
 11 14  1  0  0  0  0
 14 15  1  0  0  0  0
 14 16  2  0  0  0  0
 17 18  2  0  0  0  0
 17 19  1  0  0  0  0
 19 20  1  0  0  0  0
 19 21  1  0  0  0  0
 21 22  1  0  0  0  0
 21 23  1  0  0  0  0
 21 24  1  0  0  0  0
M  CHG  1  15  -1
M  END
$$$$

  -OEChem-03222214023D

 24 23  0     1  0  0  0  0  0999 V2000
   -2.6779   -3.8524    0.3050 H   0  0  0  0  0  0  0  0  0  0  0  0
   -2.6664   -2.8288   -0.0788 C   0  0  0  0  0  0  0  0  0  0  0  0
   -3.5154   -2.2826    0.3395 H   0  0  0  0  0  0  0  0  0  0  0  0
   -2.7643   -2.8588   -1.1672 H   0  0  0  0  0  0  0  0  0  0  0  0
   -1.3700   -2.1370    0.3018 C   0  0  0  0  0  0  0  0  0  0  0  0
   -0.5675   -2.7095    1.0275 O   0  0  0  0  0  0  0  0  0  0  0  0
   -1.1251   -0.8700   -0.1744 N   0  0  0  0  0  0  0  0  0  0  0  0
   -1.7617   -0.5279   -0.8991 H   0  0  0  0  0  0  0  0  0  0  0  0
    0.1725   -0.1917   -0.1544 C   0  0  1  0  0  0  0  0  0  0  0  0
    0.8187   -0.7040    0.5641 H   0  0  0  0  0  0  0  0  0  0  0  0
    0.8028   -0.3798   -1.5406 C   0  0  0  0  0  0  0  0  0  0  0  0
    1.8653   -0.1273   -1.4888 H   0  0  0  0  0  0  0  0  0  0  0  0
    0.7273   -1.4244   -1.8542 H   0  0  0  0  0  0  0  0  0  0  0  0
    0.1425    0.5078   -2.5841 C   0  0  0  0  0  0  0  0  0  0  0  0
   -0.9971    0.1525   -2.9828 O   0  5  0  0  0  0  0  0  0  0  0  0
    0.8037    1.4708   -3.0409 O   0  0  0  0  0  0  0  0  0  0  0  0
    0.0922    1.2802    0.3235 C   0  0  0  0  0  0  0  0  0  0  0  0
   -0.9208    1.9536    0.1653 O   0  0  0  0  0  0  0  0  0  0  0  0
    1.0322    1.7359    1.2329 N   0  0  0  0  0  0  0  0  0  0  0  0
    1.8705    1.1744    1.3357 H   0  0  0  0  0  0  0  0  0  0  0  0
    1.0131    3.0786    1.7952 C   0  0  0  0  0  0  0  0  0  0  0  0
    0.0932    3.2426    2.3657 H   0  0  0  0  0  0  0  0  0  0  0  0
    1.8649    3.2158    2.4676 H   0  0  0  0  0  0  0  0  0  0  0  0
    1.0749    3.8270    0.9985 H   0  0  0  0  0  0  0  0  0  0  0  0
  1  2  1  0  0  0  0
  2  3  1  0  0  0  0
  2  4  1  0  0  0  0
  2  5  1  0  0  0  0
  5  6  2  0  0  0  0
  5  7  1  0  0  0  0
  7  8  1  0  0  0  0
  7  9  1  0  0  0  0
  9 10  1  0  0  0  0
  9 11  1  0  0  0  0
  9 17  1  0  0  0  0
 11 12  1  0  0  0  0
 11 13  1  0  0  0  0
 11 14  1  0  0  0  0
 14 15  1  0  0  0  0
 14 16  2  0  0  0  0
 17 18  2  0  0  0  0
 17 19  1  0  0  0  0
 19 20  1  0  0  0  0
 19 21  1  0  0  0  0
 21 22  1  0  0  0  0
 21 23  1  0  0  0  0
 21 24  1  0  0  0  0
M  CHG  1  15  -1
M  END
$$$$

  -OEChem-03222214023D

 24 23  0     1  0  0  0  0  0999 V2000
   -2.6684   -3.8627    0.2997 H   0  0  0  0  0  0  0  0  0  0  0  0
   -2.6646   -2.8369   -0.0782 C   0  0  0  0  0  0  0  0  0  0  0  0
   -3.5164   -2.2992    0.3452 H   0  0  0  0  0  0  0  0  0  0  0  0
   -2.7648   -2.8612   -1.1666 H   0  0  0  0  0  0  0  0  0  0  0  0
   -1.3721   -2.1381    0.3036 C   0  0  0  0  0  0  0  0  0  0  0  0
   -0.5648   -2.7085    1.0256 O   0  0  0  0  0  0  0  0  0  0  0  0
   -1.1345   -0.8688   -0.1691 N   0  0  0  0  0  0  0  0  0  0  0  0
   -1.7710   -0.5248   -0.8950 H   0  0  0  0  0  0  0  0  0  0  0  0
    0.1564   -0.1805   -0.1550 C   0  0  1  0  0  0  0  0  0  0  0  0
    0.8026   -0.6902    0.5654 H   0  0  0  0  0  0  0  0  0  0  0  0
    0.7997   -0.3718   -1.5371 C   0  0  0  0  0  0  0  0  0  0  0  0
    1.8599   -0.1114   -1.4752 H   0  0  0  0  0  0  0  0  0  0  0  0
    0.7340   -1.4202   -1.8400 H   0  0  0  0  0  0  0  0  0  0  0  0
    0.1490    0.4934   -2.6083 C   0  0  0  0  0  0  0  0  0  0  0  0
   -1.0784    0.3079   -2.8200 O   0  5  0  0  0  0  0  0  0  0  0  0
    0.8857    1.2743   -3.2570 O   0  0  0  0  0  0  0  0  0  0  0  0
    0.0833    1.2910    0.3250 C   0  0  0  0  0  0  0  0  0  0  0  0
   -0.9184    1.9796    0.1651 O   0  0  0  0  0  0  0  0  0  0  0  0
    1.0334    1.7415    1.2266 N   0  0  0  0  0  0  0  0  0  0  0  0
    1.8561    1.1610    1.3486 H   0  0  0  0  0  0  0  0  0  0  0  0
    1.0241    3.0801    1.7994 C   0  0  0  0  0  0  0  0  0  0  0  0
    0.1096    3.2430    2.3788 H   0  0  0  0  0  0  0  0  0  0  0  0
    1.8821    3.2089    2.4655 H   0  0  0  0  0  0  0  0  0  0  0  0
    1.0819    3.8343    1.0079 H   0  0  0  0  0  0  0  0  0  0  0  0
  1  2  1  0  0  0  0
  2  3  1  0  0  0  0
  2  4  1  0  0  0  0
  2  5  1  0  0  0  0
  5  6  2  0  0  0  0
  5  7  1  0  0  0  0
  7  8  1  0  0  0  0
  7  9  1  0  0  0  0
  9 10  1  0  0  0  0
  9 11  1  0  0  0  0
  9 17  1  0  0  0  0
 11 12  1  0  0  0  0
 11 13  1  0  0  0  0
 11 14  1  0  0  0  0
 14 15  1  0  0  0  0
 14 16  2  0  0  0  0
 17 18  2  0  0  0  0
 17 19  1  0  0  0  0
 19 20  1  0  0  0  0
 19 21  1  0  0  0  0
 21 22  1  0  0  0  0
 21 23  1  0  0  0  0
 21 24  1  0  0  0  0
M  CHG  1  15  -1
M  END
$$$$

  -OEChem-03222214023D

 24 23  0     1  0  0  0  0  0999 V2000
   -2.6774   -3.8584    0.3280 H   0  0  0  0  0  0  0  0  0  0  0  0
   -2.6749   -2.8338   -0.0533 C   0  0  0  0  0  0  0  0  0  0  0  0
   -3.5107   -2.2877    0.3908 H   0  0  0  0  0  0  0  0  0  0  0  0
   -2.8042   -2.8604   -1.1384 H   0  0  0  0  0  0  0  0  0  0  0  0
   -1.3669   -2.1450    0.2922 C   0  0  0  0  0  0  0  0  0  0  0  0
   -0.5401   -2.7264    0.9825 O   0  0  0  0  0  0  0  0  0  0  0  0
   -1.1391   -0.8713   -0.1736 N   0  0  0  0  0  0  0  0  0  0  0  0
   -1.8011   -0.5027   -0.8630 H   0  0  0  0  0  0  0  0  0  0  0  0
    0.1441   -0.1702   -0.1693 C   0  0  1  0  0  0  0  0  0  0  0  0
    0.7893   -0.6751    0.5555 H   0  0  0  0  0  0  0  0  0  0  0  0
    0.8105   -0.3611   -1.5422 C   0  0  0  0  0  0  0  0  0  0  0  0
    1.8661   -0.0878   -1.4618 H   0  0  0  0  0  0  0  0  0  0  0  0
    0.7622   -1.4142   -1.8313 H   0  0  0  0  0  0  0  0  0  0  0  0
    0.1801    0.4750   -2.6505 C   0  0  0  0  0  0  0  0  0  0  0  0
   -1.0760    0.5000   -2.7202 O   0  5  0  0  0  0  0  0  0  0  0  0
    0.9577    1.0420   -3.4552 O   0  0  0  0  0  0  0  0  0  0  0  0
    0.0692    1.2990    0.3187 C   0  0  0  0  0  0  0  0  0  0  0  0
   -0.9423    1.9809    0.1965 O   0  0  0  0  0  0  0  0  0  0  0  0
    1.0310    1.7453    1.2105 N   0  0  0  0  0  0  0  0  0  0  0  0
    1.8582    1.1677    1.3149 H   0  0  0  0  0  0  0  0  0  0  0  0
    1.0168    3.0712    1.8118 C   0  0  0  0  0  0  0  0  0  0  0  0
    0.1110    3.2107    2.4107 H   0  0  0  0  0  0  0  0  0  0  0  0
    1.8852    3.1963    2.4650 H   0  0  0  0  0  0  0  0  0  0  0  0
    1.0516    3.8426    1.0356 H   0  0  0  0  0  0  0  0  0  0  0  0
  1  2  1  0  0  0  0
  2  3  1  0  0  0  0
  2  4  1  0  0  0  0
  2  5  1  0  0  0  0
  5  6  2  0  0  0  0
  5  7  1  0  0  0  0
  7  8  1  0  0  0  0
  7  9  1  0  0  0  0
  9 10  1  0  0  0  0
  9 11  1  0  0  0  0
  9 17  1  0  0  0  0
 11 12  1  0  0  0  0
 11 13  1  0  0  0  0
 11 14  1  0  0  0  0
 14 15  1  0  0  0  0
 14 16  2  0  0  0  0
 17 18  2  0  0  0  0
 17 19  1  0  0  0  0
 19 20  1  0  0  0  0
 19 21  1  0  0  0  0
 21 22  1  0  0  0  0
 21 23  1  0  0  0  0
 21 24  1  0  0  0  0
M  CHG  1  15  -1
M  END
$$$$

  -OEChem-03222214023D

 24 23  0     1  0  0  0  0  0999 V2000
   -2.6864   -3.8479    0.3549 H   0  0  0  0  0  0  0  0  0  0  0  0
   -2.6856   -2.8243   -0.0292 C   0  0  0  0  0  0  0  0  0  0  0  0
   -3.5044   -2.2700    0.4361 H   0  0  0  0  0  0  0  0  0  0  0  0
   -2.8445   -2.8526   -1.1103 H   0  0  0  0  0  0  0  0  0  0  0  0
   -1.3623   -2.1468    0.2788 C   0  0  0  0  0  0  0  0  0  0  0  0
   -0.5142   -2.7425    0.9296 O   0  0  0  0  0  0  0  0  0  0  0  0
   -1.1435   -0.8686   -0.1791 N   0  0  0  0  0  0  0  0  0  0  0  0
   -1.8394   -0.4704   -0.8142 H   0  0  0  0  0  0  0  0  0  0  0  0
    0.1330   -0.1557   -0.1880 C   0  0  1  0  0  0  0  0  0  0  0  0
    0.7772   -0.6555    0.5413 H   0  0  0  0  0  0  0  0  0  0  0  0
    0.8211   -0.3537   -1.5504 C   0  0  0  0  0  0  0  0  0  0  0  0
    1.8703   -0.0623   -1.4537 H   0  0  0  0  0  0  0  0  0  0  0  0
    0.7939   -1.4127   -1.8195 H   0  0  0  0  0  0  0  0  0  0  0  0
    0.2139    0.4471   -2.6983 C   0  0  0  0  0  0  0  0  0  0  0  0
   -1.0147    0.7074   -2.6641 O   0  5  0  0  0  0  0  0  0  0  0  0
    0.9888    0.7678   -3.6314 O   0  0  0  0  0  0  0  0  0  0  0  0
    0.0558    1.3104    0.3104 C   0  0  0  0  0  0  0  0  0  0  0  0
   -0.9761    1.9708    0.2524 O   0  0  0  0  0  0  0  0  0  0  0  0
    1.0313    1.7521    1.1899 N   0  0  0  0  0  0  0  0  0  0  0  0
    1.8691    1.1849    1.2627 H   0  0  0  0  0  0  0  0  0  0  0  0
    1.0058    3.0586    1.8321 C   0  0  0  0  0  0  0  0  0  0  0  0
    0.1273    3.1503    2.4789 H   0  0  0  0  0  0  0  0  0  0  0  0
    1.9016    3.1933    2.4451 H   0  0  0  0  0  0  0  0  0  0  0  0
    0.9773    3.8534    1.0796 H   0  0  0  0  0  0  0  0  0  0  0  0
  1  2  1  0  0  0  0
  2  3  1  0  0  0  0
  2  4  1  0  0  0  0
  2  5  1  0  0  0  0
  5  6  2  0  0  0  0
  5  7  1  0  0  0  0
  7  8  1  0  0  0  0
  7  9  1  0  0  0  0
  9 10  1  0  0  0  0
  9 11  1  0  0  0  0
  9 17  1  0  0  0  0
 11 12  1  0  0  0  0
 11 13  1  0  0  0  0
 11 14  1  0  0  0  0
 14 15  1  0  0  0  0
 14 16  2  0  0  0  0
 17 18  2  0  0  0  0
 17 19  1  0  0  0  0
 19 20  1  0  0  0  0
 19 21  1  0  0  0  0
 21 22  1  0  0  0  0
 21 23  1  0  0  0  0
 21 24  1  0  0  0  0
M  CHG  1  15  -1
M  END
$$$$

  -OEChem-03222214023D

 24 23  0     1  0  0  0  0  0999 V2000
   -2.7005   -3.8277    0.3964 H   0  0  0  0  0  0  0  0  0  0  0  0
   -2.7001   -2.8051    0.0099 C   0  0  0  0  0  0  0  0  0  0  0  0
   -3.4873   -2.2363    0.5108 H   0  0  0  0  0  0  0  0  0  0  0  0
   -2.9085   -2.8329   -1.0627 H   0  0  0  0  0  0  0  0  0  0  0  0
   -1.3530   -2.1495    0.2551 C   0  0  0  0  0  0  0  0  0  0  0  0
   -0.4808   -2.7642    0.8540 O   0  0  0  0  0  0  0  0  0  0  0  0
   -1.1425   -0.8664   -0.1939 N   0  0  0  0  0  0  0  0  0  0  0  0
   -1.8785   -0.4318   -0.7524 H   0  0  0  0  0  0  0  0  0  0  0  0
    0.1304   -0.1463   -0.2141 C   0  0  1  0  0  0  0  0  0  0  0  0
    0.7739   -0.6426    0.5182 H   0  0  0  0  0  0  0  0  0  0  0  0
    0.8377   -0.3474   -1.5681 C   0  0  0  0  0  0  0  0  0  0  0  0
    1.8817   -0.0435   -1.4578 H   0  0  0  0  0  0  0  0  0  0  0  0
    0.8265   -1.4104   -1.8222 H   0  0  0  0  0  0  0  0  0  0  0  0
    0.2560    0.4269   -2.7471 C   0  0  0  0  0  0  0  0  0  0  0  0
   -0.8872    0.9328   -2.6466 O   0  5  0  0  0  0  0  0  0  0  0  0
    0.9792    0.4962   -3.7699 O   0  0  0  0  0  0  0  0  0  0  0  0
    0.0428    1.3147    0.2993 C   0  0  0  0  0  0  0  0  0  0  0  0
   -1.0141    1.9385    0.3109 O   0  0  0  0  0  0  0  0  0  0  0  0
    1.0267    1.7547    1.1709 N   0  0  0  0  0  0  0  0  0  0  0  0
    1.8828    1.2113    1.2017 H   0  0  0  0  0  0  0  0  0  0  0  0
    0.9825    3.0389    1.8557 C   0  0  0  0  0  0  0  0  0  0  0  0
    0.1228    3.0832    2.5319 H   0  0  0  0  0  0  0  0  0  0  0  0
    1.8932    3.1818    2.4446 H   0  0  0  0  0  0  0  0  0  0  0  0
    0.9064    3.8555    1.1304 H   0  0  0  0  0  0  0  0  0  0  0  0
  1  2  1  0  0  0  0
  2  3  1  0  0  0  0
  2  4  1  0  0  0  0
  2  5  1  0  0  0  0
  5  6  2  0  0  0  0
  5  7  1  0  0  0  0
  7  8  1  0  0  0  0
  7  9  1  0  0  0  0
  9 10  1  0  0  0  0
  9 11  1  0  0  0  0
  9 17  1  0  0  0  0
 11 12  1  0  0  0  0
 11 13  1  0  0  0  0
 11 14  1  0  0  0  0
 14 15  1  0  0  0  0
 14 16  2  0  0  0  0
 17 18  2  0  0  0  0
 17 19  1  0  0  0  0
 19 20  1  0  0  0  0
 19 21  1  0  0  0  0
 21 22  1  0  0  0  0
 21 23  1  0  0  0  0
 21 24  1  0  0  0  0
M  CHG  1  15  -1
M  END
$$$$

  -OEChem-03222214023D

 24 23  0     1  0  0  0  0  0999 V2000
   -2.7093   -3.8094    0.4241 H   0  0  0  0  0  0  0  0  0  0  0  0
   -2.7118   -2.7848    0.0423 C   0  0  0  0  0  0  0  0  0  0  0  0
   -3.4710   -2.2091    0.5775 H   0  0  0  0  0  0  0  0  0  0  0  0
   -2.9640   -2.8052   -1.0210 H   0  0  0  0  0  0  0  0  0  0  0  0
   -1.3473   -2.1477    0.2356 C   0  0  0  0  0  0  0  0  0  0  0  0
   -0.4595   -2.7782    0.7932 O   0  0  0  0  0  0  0  0  0  0  0  0
   -1.1398   -0.8620   -0.2085 N   0  0  0  0  0  0  0  0  0  0  0  0
   -1.9063   -0.3946   -0.6918 H   0  0  0  0  0  0  0  0  0  0  0  0
    0.1338   -0.1416   -0.2364 C   0  0  1  0  0  0  0  0  0  0  0  0
    0.7771   -0.6371    0.4969 H   0  0  0  0  0  0  0  0  0  0  0  0
    0.8512   -0.3450   -1.5867 C   0  0  0  0  0  0  0  0  0  0  0  0
    1.8924   -0.0357   -1.4677 H   0  0  0  0  0  0  0  0  0  0  0  0
    0.8477   -1.4108   -1.8307 H   0  0  0  0  0  0  0  0  0  0  0  0
    0.2920    0.4150   -2.7861 C   0  0  0  0  0  0  0  0  0  0  0  0
   -0.7059    1.1584   -2.6444 O   0  5  0  0  0  0  0  0  0  0  0  0
    0.9010    0.2420   -3.8694 O   0  0  0  0  0  0  0  0  0  0  0  0
    0.0355    1.3151    0.2887 C   0  0  0  0  0  0  0  0  0  0  0  0
   -1.0409    1.9036    0.3515 O   0  0  0  0  0  0  0  0  0  0  0  0
    1.0221    1.7555    1.1573 N   0  0  0  0  0  0  0  0  0  0  0  0
    1.8941    1.2372    1.1523 H   0  0  0  0  0  0  0  0  0  0  0  0
    0.9585    3.0190    1.8781 C   0  0  0  0  0  0  0  0  0  0  0  0
    0.1149    3.0199    2.5758 H   0  0  0  0  0  0  0  0  0  0  0  0
    1.8788    3.1724    2.4490 H   0  0  0  0  0  0  0  0  0  0  0  0
    0.8413    3.8524    1.1778 H   0  0  0  0  0  0  0  0  0  0  0  0
  1  2  1  0  0  0  0
  2  3  1  0  0  0  0
  2  4  1  0  0  0  0
  2  5  1  0  0  0  0
  5  6  2  0  0  0  0
  5  7  1  0  0  0  0
  7  8  1  0  0  0  0
  7  9  1  0  0  0  0
  9 10  1  0  0  0  0
  9 11  1  0  0  0  0
  9 17  1  0  0  0  0
 11 12  1  0  0  0  0
 11 13  1  0  0  0  0
 11 14  1  0  0  0  0
 14 15  1  0  0  0  0
 14 16  2  0  0  0  0
 17 18  2  0  0  0  0
 17 19  1  0  0  0  0
 19 20  1  0  0  0  0
 19 21  1  0  0  0  0
 21 22  1  0  0  0  0
 21 23  1  0  0  0  0
 21 24  1  0  0  0  0
M  CHG  1  15  -1
M  END
$$$$

  -OEChem-03222214023D

 24 23  0     1  0  0  0  0  0999 V2000
   -2.7275   -3.7855    0.4614 H   0  0  0  0  0  0  0  0  0  0  0  0
   -2.7246   -2.7631    0.0736 C   0  0  0  0  0  0  0  0  0  0  0  0
   -3.4476   -2.1688    0.6376 H   0  0  0  0  0  0  0  0  0  0  0  0
   -3.0227   -2.7837   -0.9779 H   0  0  0  0  0  0  0  0  0  0  0  0
   -1.3399   -2.1543    0.2052 C   0  0  0  0  0  0  0  0  0  0  0  0
   -0.4398   -2.8072    0.7149 O   0  0  0  0  0  0  0  0  0  0  0  0
   -1.1297   -0.8655   -0.2294 N   0  0  0  0  0  0  0  0  0  0  0  0
   -1.9185   -0.3605   -0.6300 H   0  0  0  0  0  0  0  0  0  0  0  0
    0.1468   -0.1488   -0.2528 C   0  0  1  0  0  0  0  0  0  0  0  0
    0.7891   -0.6472    0.4794 H   0  0  0  0  0  0  0  0  0  0  0  0
    0.8685   -0.3443   -1.6029 C   0  0  0  0  0  0  0  0  0  0  0  0
    1.9095   -0.0378   -1.4771 H   0  0  0  0  0  0  0  0  0  0  0  0
    0.8654   -1.4099   -1.8485 H   0  0  0  0  0  0  0  0  0  0  0  0
    0.3252    0.4219   -2.8063 C   0  0  0  0  0  0  0  0  0  0  0  0
   -0.4718    1.3716   -2.6364 O   0  5  0  0  0  0  0  0  0  0  0  0
    0.7544    0.0481   -3.9245 O   0  0  0  0  0  0  0  0  0  0  0  0
    0.0312    1.3011    0.2874 C   0  0  0  0  0  0  0  0  0  0  0  0
   -1.0615    1.8582    0.3723 O   0  0  0  0  0  0  0  0  0  0  0  0
    1.0092    1.7436    1.1644 N   0  0  0  0  0  0  0  0  0  0  0  0
    1.8972    1.2548    1.1311 H   0  0  0  0  0  0  0  0  0  0  0  0
    0.9298    3.0051    1.8872 C   0  0  0  0  0  0  0  0  0  0  0  0
    0.0801    2.9986    2.5775 H   0  0  0  0  0  0  0  0  0  0  0  0
    1.8439    3.1638    2.4667 H   0  0  0  0  0  0  0  0  0  0  0  0
    0.8126    3.8391    1.1876 H   0  0  0  0  0  0  0  0  0  0  0  0
  1  2  1  0  0  0  0
  2  3  1  0  0  0  0
  2  4  1  0  0  0  0
  2  5  1  0  0  0  0
  5  6  2  0  0  0  0
  5  7  1  0  0  0  0
  7  8  1  0  0  0  0
  7  9  1  0  0  0  0
  9 10  1  0  0  0  0
  9 11  1  0  0  0  0
  9 17  1  0  0  0  0
 11 12  1  0  0  0  0
 11 13  1  0  0  0  0
 11 14  1  0  0  0  0
 14 15  1  0  0  0  0
 14 16  2  0  0  0  0
 17 18  2  0  0  0  0
 17 19  1  0  0  0  0
 19 20  1  0  0  0  0
 19 21  1  0  0  0  0
 21 22  1  0  0  0  0
 21 23  1  0  0  0  0
 21 24  1  0  0  0  0
M  CHG  1  15  -1
M  END
$$$$

  -OEChem-03222214023D

 24 23  0     1  0  0  0  0  0999 V2000
   -2.7432   -3.7679    0.4693 H   0  0  0  0  0  0  0  0  0  0  0  0
   -2.7311   -2.7450    0.0832 C   0  0  0  0  0  0  0  0  0  0  0  0
   -3.4384   -2.1415    0.6575 H   0  0  0  0  0  0  0  0  0  0  0  0
   -3.0428   -2.7595   -0.9644 H   0  0  0  0  0  0  0  0  0  0  0  0
   -1.3364   -2.1557    0.1963 C   0  0  0  0  0  0  0  0  0  0  0  0
   -0.4376   -2.8204    0.6927 O   0  0  0  0  0  0  0  0  0  0  0  0
   -1.1174   -0.8684   -0.2380 N   0  0  0  0  0  0  0  0  0  0  0  0
   -1.9127   -0.3437   -0.5970 H   0  0  0  0  0  0  0  0  0  0  0  0
    0.1654   -0.1615   -0.2565 C   0  0  1  0  0  0  0  0  0  0  0  0
    0.8076   -0.6630    0.4735 H   0  0  0  0  0  0  0  0  0  0  0  0
    0.8795   -0.3530   -1.6121 C   0  0  0  0  0  0  0  0  0  0  0  0
    1.9233   -0.0559   -1.4887 H   0  0  0  0  0  0  0  0  0  0  0  0
    0.8686   -1.4172   -1.8643 H   0  0  0  0  0  0  0  0  0  0  0  0
    0.3385    0.4301   -2.8055 C   0  0  0  0  0  0  0  0  0  0  0  0
   -0.2074    1.5407   -2.6208 O   0  5  0  0  0  0  0  0  0  0  0  0
    0.5138   -0.0951   -3.9317 O   0  0  0  0  0  0  0  0  0  0  0  0
    0.0374    1.2863    0.2871 C   0  0  0  0  0  0  0  0  0  0  0  0
   -1.0651    1.8262    0.3682 O   0  0  0  0  0  0  0  0  0  0  0  0
    1.0037    1.7349    1.1738 N   0  0  0  0  0  0  0  0  0  0  0  0
    1.9044    1.2713    1.1244 H   0  0  0  0  0  0  0  0  0  0  0  0
    0.9076    3.0000    1.8883 C   0  0  0  0  0  0  0  0  0  0  0  0
    0.0489    2.9925    2.5672 H   0  0  0  0  0  0  0  0  0  0  0  0
    1.8129    3.1666    2.4793 H   0  0  0  0  0  0  0  0  0  0  0  0
    0.7954    3.8294    1.1824 H   0  0  0  0  0  0  0  0  0  0  0  0
  1  2  1  0  0  0  0
  2  3  1  0  0  0  0
  2  4  1  0  0  0  0
  2  5  1  0  0  0  0
  5  6  2  0  0  0  0
  5  7  1  0  0  0  0
  7  8  1  0  0  0  0
  7  9  1  0  0  0  0
  9 10  1  0  0  0  0
  9 11  1  0  0  0  0
  9 17  1  0  0  0  0
 11 12  1  0  0  0  0
 11 13  1  0  0  0  0
 11 14  1  0  0  0  0
 14 15  1  0  0  0  0
 14 16  2  0  0  0  0
 17 18  2  0  0  0  0
 17 19  1  0  0  0  0
 19 20  1  0  0  0  0
 19 21  1  0  0  0  0
 21 22  1  0  0  0  0
 21 23  1  0  0  0  0
 21 24  1  0  0  0  0
M  CHG  1  15  -1
M  END
$$$$

  -OEChem-03222214023D

 24 23  0     1  0  0  0  0  0999 V2000
   -2.7557   -3.7593    0.4655 H   0  0  0  0  0  0  0  0  0  0  0  0
   -2.7331   -2.7375    0.0770 C   0  0  0  0  0  0  0  0  0  0  0  0
   -3.4400   -2.1270    0.6445 H   0  0  0  0  0  0  0  0  0  0  0  0
   -3.0370   -2.7522   -0.9729 H   0  0  0  0  0  0  0  0  0  0  0  0
   -1.3350   -2.1583    0.1989 C   0  0  0  0  0  0  0  0  0  0  0  0
   -0.4456   -2.8261    0.7079 O   0  0  0  0  0  0  0  0  0  0  0  0
   -1.1027   -0.8747   -0.2394 N   0  0  0  0  0  0  0  0  0  0  0  0
   -1.8926   -0.3450   -0.6023 H   0  0  0  0  0  0  0  0  0  0  0  0
    0.1869   -0.1794   -0.2487 C   0  0  1  0  0  0  0  0  0  0  0  0
    0.8296   -0.6839    0.4792 H   0  0  0  0  0  0  0  0  0  0  0  0
    0.8863   -0.3642   -1.6121 C   0  0  0  0  0  0  0  0  0  0  0  0
    1.9347   -0.0794   -1.4981 H   0  0  0  0  0  0  0  0  0  0  0  0
    0.8632   -1.4249   -1.8787 H   0  0  0  0  0  0  0  0  0  0  0  0
    0.3338    0.4473   -2.7802 C   0  0  0  0  0  0  0  0  0  0  0  0
    0.0705    1.6587   -2.6045 O   0  5  0  0  0  0  0  0  0  0  0  0
    0.1947   -0.1598   -3.8698 O   0  0  0  0  0  0  0  0  0  0  0  0
    0.0498    1.2692    0.2899 C   0  0  0  0  0  0  0  0  0  0  0  0
   -1.0551    1.8087    0.3393 O   0  0  0  0  0  0  0  0  0  0  0  0
    1.0007    1.7256    1.1887 N   0  0  0  0  0  0  0  0  0  0  0  0
    1.9066    1.2717    1.1447 H   0  0  0  0  0  0  0  0  0  0  0  0
    0.8960    3.0057    1.8745 C   0  0  0  0  0  0  0  0  0  0  0  0
    0.0208    3.0183    2.5321 H   0  0  0  0  0  0  0  0  0  0  0  0
    1.7879    3.1783    2.4839 H   0  0  0  0  0  0  0  0  0  0  0  0
    0.8068    3.8209    1.1490 H   0  0  0  0  0  0  0  0  0  0  0  0
  1  2  1  0  0  0  0
  2  3  1  0  0  0  0
  2  4  1  0  0  0  0
  2  5  1  0  0  0  0
  5  6  2  0  0  0  0
  5  7  1  0  0  0  0
  7  8  1  0  0  0  0
  7  9  1  0  0  0  0
  9 10  1  0  0  0  0
  9 11  1  0  0  0  0
  9 17  1  0  0  0  0
 11 12  1  0  0  0  0
 11 13  1  0  0  0  0
 11 14  1  0  0  0  0
 14 15  1  0  0  0  0
 14 16  2  0  0  0  0
 17 18  2  0  0  0  0
 17 19  1  0  0  0  0
 19 20  1  0  0  0  0
 19 21  1  0  0  0  0
 21 22  1  0  0  0  0
 21 23  1  0  0  0  0
 21 24  1  0  0  0  0
M  CHG  1  15  -1
M  END
$$$$

  -OEChem-03222214023D

 24 23  0     1  0  0  0  0  0999 V2000
   -2.7567   -3.7686    0.4360 H   0  0  0  0  0  0  0  0  0  0  0  0
   -2.7267   -2.7473    0.0465 C   0  0  0  0  0  0  0  0  0  0  0  0
   -3.4588   -2.1408    0.5853 H   0  0  0  0  0  0  0  0  0  0  0  0
   -2.9904   -2.7665   -1.0142 H   0  0  0  0  0  0  0  0  0  0  0  0
   -1.3386   -2.1576    0.2201 C   0  0  0  0  0  0  0  0  0  0  0  0
   -0.4672   -2.8137    0.7741 O   0  0  0  0  0  0  0  0  0  0  0  0
   -1.0939   -0.8799   -0.2282 N   0  0  0  0  0  0  0  0  0  0  0  0
   -1.8638   -0.3730   -0.6604 H   0  0  0  0  0  0  0  0  0  0  0  0
    0.2020   -0.1957   -0.2282 C   0  0  1  0  0  0  0  0  0  0  0  0
    0.8448   -0.7025    0.4979 H   0  0  0  0  0  0  0  0  0  0  0  0
    0.8820   -0.3770   -1.5992 C   0  0  0  0  0  0  0  0  0  0  0  0
    1.9358   -0.1058   -1.5012 H   0  0  0  0  0  0  0  0  0  0  0  0
    0.8424   -1.4324   -1.8839 H   0  0  0  0  0  0  0  0  0  0  0  0
    0.3047    0.4660   -2.7297 C   0  0  0  0  0  0  0  0  0  0  0  0
    0.3296    1.7128   -2.6077 O   0  5  0  0  0  0  0  0  0  0  0  0
   -0.1763   -0.1470   -3.7138 O   0  0  0  0  0  0  0  0  0  0  0  0
    0.0668    1.2583    0.2955 C   0  0  0  0  0  0  0  0  0  0  0  0
   -1.0302    1.8155    0.2983 O   0  0  0  0  0  0  0  0  0  0  0  0
    1.0057    1.7214    1.2031 N   0  0  0  0  0  0  0  0  0  0  0  0
    1.9108    1.2649    1.1740 H   0  0  0  0  0  0  0  0  0  0  0  0
    0.9045    3.0220    1.8495 C   0  0  0  0  0  0  0  0  0  0  0  0
    0.0145    3.0661    2.4854 H   0  0  0  0  0  0  0  0  0  0  0  0
    1.7842    3.1999    2.4747 H   0  0  0  0  0  0  0  0  0  0  0  0
    0.8441    3.8169    1.0989 H   0  0  0  0  0  0  0  0  0  0  0  0
  1  2  1  0  0  0  0
  2  3  1  0  0  0  0
  2  4  1  0  0  0  0
  2  5  1  0  0  0  0
  5  6  2  0  0  0  0
  5  7  1  0  0  0  0
  7  8  1  0  0  0  0
  7  9  1  0  0  0  0
  9 10  1  0  0  0  0
  9 11  1  0  0  0  0
  9 17  1  0  0  0  0
 11 12  1  0  0  0  0
 11 13  1  0  0  0  0
 11 14  1  0  0  0  0
 14 15  1  0  0  0  0
 14 16  2  0  0  0  0
 17 18  2  0  0  0  0
 17 19  1  0  0  0  0
 19 20  1  0  0  0  0
 19 21  1  0  0  0  0
 21 22  1  0  0  0  0
 21 23  1  0  0  0  0
 21 24  1  0  0  0  0
M  CHG  1  15  -1
M  END
$$$$

  -OEChem-03222214023D

 24 23  0     1  0  0  0  0  0999 V2000
   -2.7322   -3.7992    0.3756 H   0  0  0  0  0  0  0  0  0  0  0  0
   -2.7050   -2.7759   -0.0083 C   0  0  0  0  0  0  0  0  0  0  0  0
   -3.4883   -2.1923    0.4814 H   0  0  0  0  0  0  0  0  0  0  0  0
   -2.8967   -2.7977   -1.0844 H   0  0  0  0  0  0  0  0  0  0  0  0
   -1.3487   -2.1485    0.2595 C   0  0  0  0  0  0  0  0  0  0  0  0
   -0.5069   -2.7721    0.8920 O   0  0  0  0  0  0  0  0  0  0  0  0
   -1.0965   -0.8781   -0.2049 N   0  0  0  0  0  0  0  0  0  0  0  0
   -1.8179   -0.4371   -0.7733 H   0  0  0  0  0  0  0  0  0  0  0  0
    0.2043   -0.2026   -0.1984 C   0  0  1  0  0  0  0  0  0  0  0  0
    0.8488   -0.7104    0.5251 H   0  0  0  0  0  0  0  0  0  0  0  0
    0.8577   -0.3899   -1.5778 C   0  0  0  0  0  0  0  0  0  0  0  0
    1.9173   -0.1327   -1.5046 H   0  0  0  0  0  0  0  0  0  0  0  0
    0.7972   -1.4401   -1.8774 H   0  0  0  0  0  0  0  0  0  0  0  0
    0.2435    0.4791   -2.6648 C   0  0  0  0  0  0  0  0  0  0  0  0
    0.5295    1.6998   -2.6648 O   0  5  0  0  0  0  0  0  0  0  0  0
   -0.5659   -0.0720   -3.4511 O   0  0  0  0  0  0  0  0  0  0  0  0
    0.0859    1.2608    0.3020 C   0  0  0  0  0  0  0  0  0  0  0  0
   -0.9895    1.8539    0.2484 O   0  0  0  0  0  0  0  0  0  0  0  0
    1.0202    1.7282    1.2120 N   0  0  0  0  0  0  0  0  0  0  0  0
    1.9097    1.2416    1.2254 H   0  0  0  0  0  0  0  0  0  0  0  0
    0.9392    3.0483    1.8209 C   0  0  0  0  0  0  0  0  0  0  0  0
    0.0319    3.1358    2.4273 H   0  0  0  0  0  0  0  0  0  0  0  0
    1.8043    3.2163    2.4689 H   0  0  0  0  0  0  0  0  0  0  0  0
    0.9264    3.8248    1.0488 H   0  0  0  0  0  0  0  0  0  0  0  0
  1  2  1  0  0  0  0
  2  3  1  0  0  0  0
  2  4  1  0  0  0  0
  2  5  1  0  0  0  0
  5  6  2  0  0  0  0
  5  7  1  0  0  0  0
  7  8  1  0  0  0  0
  7  9  1  0  0  0  0
  9 10  1  0  0  0  0
  9 11  1  0  0  0  0
  9 17  1  0  0  0  0
 11 12  1  0  0  0  0
 11 13  1  0  0  0  0
 11 14  1  0  0  0  0
 14 15  1  0  0  0  0
 14 16  2  0  0  0  0
 17 18  2  0  0  0  0
 17 19  1  0  0  0  0
 19 20  1  0  0  0  0
 19 21  1  0  0  0  0
 21 22  1  0  0  0  0
 21 23  1  0  0  0  0
 21 24  1  0  0  0  0
M  CHG  1  15  -1
M  END
$$$$

  -OEChem-03222214023D

 24 23  0     1  0  0  0  0  0999 V2000
   -2.7019   -3.8300    0.3310 H   0  0  0  0  0  0  0  0  0  0  0  0
   -2.6822   -2.8069   -0.0539 C   0  0  0  0  0  0  0  0  0  0  0  0
   -3.5073   -2.2444    0.3897 H   0  0  0  0  0  0  0  0  0  0  0  0
   -2.8135   -2.8356   -1.1388 H   0  0  0  0  0  0  0  0  0  0  0  0
   -1.3613   -2.1407    0.2867 C   0  0  0  0  0  0  0  0  0  0  0  0
   -0.5445   -2.7337    0.9791 O   0  0  0  0  0  0  0  0  0  0  0  0
   -1.1103   -0.8741   -0.1877 N   0  0  0  0  0  0  0  0  0  0  0  0
   -1.7775   -0.4978   -0.8630 H   0  0  0  0  0  0  0  0  0  0  0  0
    0.1906   -0.2006   -0.1722 C   0  0  1  0  0  0  0  0  0  0  0  0
    0.8355   -0.7099    0.5497 H   0  0  0  0  0  0  0  0  0  0  0  0
    0.8274   -0.3933   -1.5558 C   0  0  0  0  0  0  0  0  0  0  0  0
    1.8897   -0.1419   -1.4992 H   0  0  0  0  0  0  0  0  0  0  0  0
    0.7554   -1.4401   -1.8642 H   0  0  0  0  0  0  0  0  0  0  0  0
    0.1846    0.4898   -2.6127 C   0  0  0  0  0  0  0  0  0  0  0  0
    0.6719    1.6306   -2.7957 O   0  5  0  0  0  0  0  0  0  0  0  0
   -0.8455    0.0408   -3.1765 O   0  0  0  0  0  0  0  0  0  0  0  0
    0.0926    1.2694    0.3117 C   0  0  0  0  0  0  0  0  0  0  0  0
   -0.9538    1.9033    0.2062 O   0  0  0  0  0  0  0  0  0  0  0  0
    1.0277    1.7317    1.2232 N   0  0  0  0  0  0  0  0  0  0  0  0
    1.8935    1.2072    1.2814 H   0  0  0  0  0  0  0  0  0  0  0  0
    0.9813    3.0689    1.7970 C   0  0  0  0  0  0  0  0  0  0  0  0
    0.0654    3.2037    2.3813 H   0  0  0  0  0  0  0  0  0  0  0  0
    1.8385    3.2232    2.4587 H   0  0  0  0  0  0  0  0  0  0  0  0
    1.0120    3.8249    1.0054 H   0  0  0  0  0  0  0  0  0  0  0  0
  1  2  1  0  0  0  0
  2  3  1  0  0  0  0
  2  4  1  0  0  0  0
  2  5  1  0  0  0  0
  5  6  2  0  0  0  0
  5  7  1  0  0  0  0
  7  8  1  0  0  0  0
  7  9  1  0  0  0  0
  9 10  1  0  0  0  0
  9 11  1  0  0  0  0
  9 17  1  0  0  0  0
 11 12  1  0  0  0  0
 11 13  1  0  0  0  0
 11 14  1  0  0  0  0
 14 15  1  0  0  0  0
 14 16  2  0  0  0  0
 17 18  2  0  0  0  0
 17 19  1  0  0  0  0
 19 20  1  0  0  0  0
 19 21  1  0  0  0  0
 21 22  1  0  0  0  0
 21 23  1  0  0  0  0
 21 24  1  0  0  0  0
M  CHG  1  15  -1
M  END
$$$$

  -OEChem-03222214023D

 24 23  0     1  0  0  0  0  0999 V2000
   -2.6782   -3.8516    0.3063 H   0  0  0  0  0  0  0  0  0  0  0  0
   -2.6695   -2.8259   -0.0723 C   0  0  0  0  0  0  0  0  0  0  0  0
   -3.5149   -2.2816    0.3557 H   0  0  0  0  0  0  0  0  0  0  0  0
   -2.7761   -2.8500   -1.1601 H   0  0  0  0  0  0  0  0  0  0  0  0
   -1.3697   -2.1368    0.3018 C   0  0  0  0  0  0  0  0  0  0  0  0
   -0.5643   -2.7122    1.0220 O   0  0  0  0  0  0  0  0  0  0  0  0
   -1.1239   -0.8706   -0.1756 N   0  0  0  0  0  0  0  0  0  0  0  0
   -1.7639   -0.5246   -0.8953 H   0  0  0  0  0  0  0  0  0  0  0  0
    0.1739   -0.1929   -0.1589 C   0  0  1  0  0  0  0  0  0  0  0  0
    0.8194   -0.7032    0.5616 H   0  0  0  0  0  0  0  0  0  0  0  0
    0.8060   -0.3870   -1.5438 C   0  0  0  0  0  0  0  0  0  0  0  0
    1.8681   -0.1334   -1.4916 H   0  0  0  0  0  0  0  0  0  0  0  0
    0.7345   -1.4330   -1.8538 H   0  0  0  0  0  0  0  0  0  0  0  0
    0.1497    0.4947   -2.5942 C   0  0  0  0  0  0  0  0  0  0  0  0
    0.7771    1.5065   -2.9889 O   0  5  0  0  0  0  0  0  0  0  0  0
   -0.9958    0.1491   -2.9843 O   0  0  0  0  0  0  0  0  0  0  0  0
    0.0916    1.2795    0.3185 C   0  0  0  0  0  0  0  0  0  0  0  0
   -0.9305    1.9435    0.1788 O   0  0  0  0  0  0  0  0  0  0  0  0
    1.0328    1.7364    1.2262 N   0  0  0  0  0  0  0  0  0  0  0  0
    1.8787    1.1841    1.3144 H   0  0  0  0  0  0  0  0  0  0  0  0
    1.0090    3.0775    1.7923 C   0  0  0  0  0  0  0  0  0  0  0  0
    0.0883    3.2369    2.3629 H   0  0  0  0  0  0  0  0  0  0  0  0
    1.8599    3.2156    2.4656 H   0  0  0  0  0  0  0  0  0  0  0  0
    1.0684    3.8282    0.9975 H   0  0  0  0  0  0  0  0  0  0  0  0
  1  2  1  0  0  0  0
  2  3  1  0  0  0  0
  2  4  1  0  0  0  0
  2  5  1  0  0  0  0
  5  6  2  0  0  0  0
  5  7  1  0  0  0  0
  7  8  1  0  0  0  0
  7  9  1  0  0  0  0
  9 10  1  0  0  0  0
  9 11  1  0  0  0  0
  9 17  1  0  0  0  0
 11 12  1  0  0  0  0
 11 13  1  0  0  0  0
 11 14  1  0  0  0  0
 14 15  1  0  0  0  0
 14 16  2  0  0  0  0
 17 18  2  0  0  0  0
 17 19  1  0  0  0  0
 19 20  1  0  0  0  0
 19 21  1  0  0  0  0
 21 22  1  0  0  0  0
 21 23  1  0  0  0  0
 21 24  1  0  0  0  0
M  CHG  1  15  -1
M  END
$$$$

  -OEChem-03222214023D

 24 23  0     1  0  0  0  0  0999 V2000
   -2.6753   -3.8593    0.3082 H   0  0  0  0  0  0  0  0  0  0  0  0
   -2.6674   -2.8354   -0.0748 C   0  0  0  0  0  0  0  0  0  0  0  0
   -3.5174   -2.2921    0.3450 H   0  0  0  0  0  0  0  0  0  0  0  0
   -2.7668   -2.8646   -1.1631 H   0  0  0  0  0  0  0  0  0  0  0  0
   -1.3726   -2.1397    0.3047 C   0  0  0  0  0  0  0  0  0  0  0  0
   -0.5653   -2.7120    1.0252 O   0  0  0  0  0  0  0  0  0  0  0  0
   -1.1332   -0.8703   -0.1675 N   0  0  0  0  0  0  0  0  0  0  0  0
   -1.7697   -0.5265   -0.8931 H   0  0  0  0  0  0  0  0  0  0  0  0
    0.1596   -0.1847   -0.1523 C   0  0  1  0  0  0  0  0  0  0  0  0
    0.8075   -0.6962    0.5654 H   0  0  0  0  0  0  0  0  0  0  0  0
    0.7954   -0.3717   -1.5375 C   0  0  0  0  0  0  0  0  0  0  0  0
    1.8553   -0.1102   -1.4791 H   0  0  0  0  0  0  0  0  0  0  0  0
    0.7333   -1.4179   -1.8485 H   0  0  0  0  0  0  0  0  0  0  0  0
    0.1391    0.5027   -2.5969 C   0  0  0  0  0  0  0  0  0  0  0  0
    0.8572    1.3392   -3.1954 O   0  5  0  0  0  0  0  0  0  0  0  0
   -1.0702    0.2651   -2.8549 O   0  0  0  0  0  0  0  0  0  0  0  0
    0.0850    1.2862    0.3289 C   0  0  0  0  0  0  0  0  0  0  0  0
   -0.9189    1.9718    0.1688 O   0  0  0  0  0  0  0  0  0  0  0  0
    1.0331    1.7375    1.2322 N   0  0  0  0  0  0  0  0  0  0  0  0
    1.8606    1.1625    1.3468 H   0  0  0  0  0  0  0  0  0  0  0  0
    1.0256    3.0801    1.7948 C   0  0  0  0  0  0  0  0  0  0  0  0
    0.1130    3.2467    2.3760 H   0  0  0  0  0  0  0  0  0  0  0  0
    1.8861    3.2146    2.4567 H   0  0  0  0  0  0  0  0  0  0  0  0
    1.0799    3.8282    0.9973 H   0  0  0  0  0  0  0  0  0  0  0  0
  1  2  1  0  0  0  0
  2  3  1  0  0  0  0
  2  4  1  0  0  0  0
  2  5  1  0  0  0  0
  5  6  2  0  0  0  0
  5  7  1  0  0  0  0
  7  8  1  0  0  0  0
  7  9  1  0  0  0  0
  9 10  1  0  0  0  0
  9 11  1  0  0  0  0
  9 17  1  0  0  0  0
 11 12  1  0  0  0  0
 11 13  1  0  0  0  0
 11 14  1  0  0  0  0
 14 15  1  0  0  0  0
 14 16  2  0  0  0  0
 17 18  2  0  0  0  0
 17 19  1  0  0  0  0
 19 20  1  0  0  0  0
 19 21  1  0  0  0  0
 21 22  1  0  0  0  0
 21 23  1  0  0  0  0
 21 24  1  0  0  0  0
M  CHG  1  15  -1
M  END
$$$$

  -OEChem-03222214023D

 24 23  0     1  0  0  0  0  0999 V2000
   -2.6728   -3.8607    0.3147 H   0  0  0  0  0  0  0  0  0  0  0  0
   -2.6694   -2.8356   -0.0654 C   0  0  0  0  0  0  0  0  0  0  0  0
   -3.5147   -2.2937    0.3661 H   0  0  0  0  0  0  0  0  0  0  0  0
   -2.7818   -2.8617   -1.1525 H   0  0  0  0  0  0  0  0  0  0  0  0
   -1.3699   -2.1409    0.3006 C   0  0  0  0  0  0  0  0  0  0  0  0
   -0.5542   -2.7159    1.0094 O   0  0  0  0  0  0  0  0  0  0  0  0
   -1.1379   -0.8680   -0.1651 N   0  0  0  0  0  0  0  0  0  0  0  0
   -1.7837   -0.5145   -0.8783 H   0  0  0  0  0  0  0  0  0  0  0  0
    0.1493   -0.1733   -0.1558 C   0  0  1  0  0  0  0  0  0  0  0  0
    0.7992   -0.6843    0.5604 H   0  0  0  0  0  0  0  0  0  0  0  0
    0.7935   -0.3567   -1.5393 C   0  0  0  0  0  0  0  0  0  0  0  0
    1.8501   -0.0833   -1.4722 H   0  0  0  0  0  0  0  0  0  0  0  0
    0.7458   -1.4051   -1.8449 H   0  0  0  0  0  0  0  0  0  0  0  0
    0.1450    0.5016   -2.6191 C   0  0  0  0  0  0  0  0  0  0  0  0
    0.9069    1.1194   -3.4015 O   0  5  0  0  0  0  0  0  0  0  0  0
   -1.1021    0.3959   -2.7573 O   0  0  0  0  0  0  0  0  0  0  0  0
    0.0783    1.2955    0.3324 C   0  0  0  0  0  0  0  0  0  0  0  0
   -0.9190    1.9908    0.1756 O   0  0  0  0  0  0  0  0  0  0  0  0
    1.0353    1.7421    1.2287 N   0  0  0  0  0  0  0  0  0  0  0  0
    1.8520    1.1540    1.3550 H   0  0  0  0  0  0  0  0  0  0  0  0
    1.0308    3.0773    1.8093 C   0  0  0  0  0  0  0  0  0  0  0  0
    0.1188    3.2385    2.3930 H   0  0  0  0  0  0  0  0  0  0  0  0
    1.8915    3.2014    2.4728 H   0  0  0  0  0  0  0  0  0  0  0  0
    1.0868    3.8354    1.0214 H   0  0  0  0  0  0  0  0  0  0  0  0
  1  2  1  0  0  0  0
  2  3  1  0  0  0  0
  2  4  1  0  0  0  0
  2  5  1  0  0  0  0
  5  6  2  0  0  0  0
  5  7  1  0  0  0  0
  7  8  1  0  0  0  0
  7  9  1  0  0  0  0
  9 10  1  0  0  0  0
  9 11  1  0  0  0  0
  9 17  1  0  0  0  0
 11 12  1  0  0  0  0
 11 13  1  0  0  0  0
 11 14  1  0  0  0  0
 14 15  1  0  0  0  0
 14 16  2  0  0  0  0
 17 18  2  0  0  0  0
 17 19  1  0  0  0  0
 19 20  1  0  0  0  0
 19 21  1  0  0  0  0
 21 22  1  0  0  0  0
 21 23  1  0  0  0  0
 21 24  1  0  0  0  0
M  CHG  1  15  -1
M  END
$$$$

  -OEChem-03222214023D

 24 23  0     1  0  0  0  0  0999 V2000
   -2.6615   -3.8595    0.3161 H   0  0  0  0  0  0  0  0  0  0  0  0
   -2.6678   -2.8324   -0.0588 C   0  0  0  0  0  0  0  0  0  0  0  0
   -3.5120   -2.2977    0.3835 H   0  0  0  0  0  0  0  0  0  0  0  0
   -2.7902   -2.8539   -1.1450 H   0  0  0  0  0  0  0  0  0  0  0  0
   -1.3687   -2.1327    0.2985 C   0  0  0  0  0  0  0  0  0  0  0  0
   -0.5429   -2.7081    0.9951 O   0  0  0  0  0  0  0  0  0  0  0  0
   -1.1469   -0.8565   -0.1637 N   0  0  0  0  0  0  0  0  0  0  0  0
   -1.8084   -0.4926   -0.8564 H   0  0  0  0  0  0  0  0  0  0  0  0
    0.1351   -0.1533   -0.1657 C   0  0  1  0  0  0  0  0  0  0  0  0
    0.7846   -0.6608    0.5532 H   0  0  0  0  0  0  0  0  0  0  0  0
    0.7929   -0.3454   -1.5429 C   0  0  0  0  0  0  0  0  0  0  0  0
    1.8456   -0.0606   -1.4661 H   0  0  0  0  0  0  0  0  0  0  0  0
    0.7598   -1.3992   -1.8310 H   0  0  0  0  0  0  0  0  0  0  0  0
    0.1606    0.4839   -2.6561 C   0  0  0  0  0  0  0  0  0  0  0  0
    0.9174    0.8435   -3.5899 O   0  5  0  0  0  0  0  0  0  0  0  0
   -1.0956    0.5485   -2.6859 O   0  0  0  0  0  0  0  0  0  0  0  0
    0.0709    1.3144    0.3275 C   0  0  0  0  0  0  0  0  0  0  0  0
   -0.9307    2.0099    0.2038 O   0  0  0  0  0  0  0  0  0  0  0  0
    1.0430    1.7526    1.2122 N   0  0  0  0  0  0  0  0  0  0  0  0
    1.8540    1.1554    1.3337 H   0  0  0  0  0  0  0  0  0  0  0  0
    1.0353    3.0693    1.8335 C   0  0  0  0  0  0  0  0  0  0  0  0
    0.1350    3.2002    2.4425 H   0  0  0  0  0  0  0  0  0  0  0  0
    1.9095    3.1843    2.4808 H   0  0  0  0  0  0  0  0  0  0  0  0
    1.0641    3.8522    1.0688 H   0  0  0  0  0  0  0  0  0  0  0  0
  1  2  1  0  0  0  0
  2  3  1  0  0  0  0
  2  4  1  0  0  0  0
  2  5  1  0  0  0  0
  5  6  2  0  0  0  0
  5  7  1  0  0  0  0
  7  8  1  0  0  0  0
  7  9  1  0  0  0  0
  9 10  1  0  0  0  0
  9 11  1  0  0  0  0
  9 17  1  0  0  0  0
 11 12  1  0  0  0  0
 11 13  1  0  0  0  0
 11 14  1  0  0  0  0
 14 15  1  0  0  0  0
 14 16  2  0  0  0  0
 17 18  2  0  0  0  0
 17 19  1  0  0  0  0
 19 20  1  0  0  0  0
 19 21  1  0  0  0  0
 21 22  1  0  0  0  0
 21 23  1  0  0  0  0
 21 24  1  0  0  0  0
M  CHG  1  15  -1
M  END
$$$$

  -OEChem-03222214023D

 24 23  0     1  0  0  0  0  0999 V2000
   -2.6731   -3.8432    0.3350 H   0  0  0  0  0  0  0  0  0  0  0  0
   -2.6772   -2.8167   -0.0411 C   0  0  0  0  0  0  0  0  0  0  0  0
   -3.5025   -2.2714    0.4232 H   0  0  0  0  0  0  0  0  0  0  0  0
   -2.8285   -2.8378   -1.1235 H   0  0  0  0  0  0  0  0  0  0  0  0
   -1.3610   -2.1318    0.2803 C   0  0  0  0  0  0  0  0  0  0  0  0
   -0.5160   -2.7220    0.9402 O   0  0  0  0  0  0  0  0  0  0  0  0
   -1.1468   -0.8508   -0.1723 N   0  0  0  0  0  0  0  0  0  0  0  0
   -1.8385   -0.4590   -0.8161 H   0  0  0  0  0  0  0  0  0  0  0  0
    0.1297   -0.1385   -0.1838 C   0  0  1  0  0  0  0  0  0  0  0  0
    0.7774   -0.6422    0.5395 H   0  0  0  0  0  0  0  0  0  0  0  0
    0.8077   -0.3380   -1.5518 C   0  0  0  0  0  0  0  0  0  0  0  0
    1.8563   -0.0427   -1.4637 H   0  0  0  0  0  0  0  0  0  0  0  0
    0.7881   -1.3974   -1.8209 H   0  0  0  0  0  0  0  0  0  0  0  0
    0.1990    0.4603   -2.7006 C   0  0  0  0  0  0  0  0  0  0  0  0
    0.8986    0.5475   -3.7384 O   0  5  0  0  0  0  0  0  0  0  0  0
   -1.0222    0.7484   -2.6397 O   0  0  0  0  0  0  0  0  0  0  0  0
    0.0610    1.3255    0.3223 C   0  0  0  0  0  0  0  0  0  0  0  0
   -0.9627    1.9976    0.2633 O   0  0  0  0  0  0  0  0  0  0  0  0
    1.0435    1.7590    1.1980 N   0  0  0  0  0  0  0  0  0  0  0  0
    1.8678    1.1744    1.2859 H   0  0  0  0  0  0  0  0  0  0  0  0
    1.0236    3.0570    1.8576 C   0  0  0  0  0  0  0  0  0  0  0  0
    0.1488    3.1418    2.5104 H   0  0  0  0  0  0  0  0  0  0  0  0
    1.9233    3.1821    2.4670 H   0  0  0  0  0  0  0  0  0  0  0  0
    0.9923    3.8618    1.1160 H   0  0  0  0  0  0  0  0  0  0  0  0
  1  2  1  0  0  0  0
  2  3  1  0  0  0  0
  2  4  1  0  0  0  0
  2  5  1  0  0  0  0
  5  6  2  0  0  0  0
  5  7  1  0  0  0  0
  7  8  1  0  0  0  0
  7  9  1  0  0  0  0
  9 10  1  0  0  0  0
  9 11  1  0  0  0  0
  9 17  1  0  0  0  0
 11 12  1  0  0  0  0
 11 13  1  0  0  0  0
 11 14  1  0  0  0  0
 14 15  1  0  0  0  0
 14 16  2  0  0  0  0
 17 18  2  0  0  0  0
 17 19  1  0  0  0  0
 19 20  1  0  0  0  0
 19 21  1  0  0  0  0
 21 22  1  0  0  0  0
 21 23  1  0  0  0  0
 21 24  1  0  0  0  0
M  CHG  1  15  -1
M  END
$$$$

  -OEChem-03222214023D

 24 23  0     1  0  0  0  0  0999 V2000
   -2.7279   -3.7754    0.4586 H   0  0  0  0  0  0  0  0  0  0  0  0
   -2.7255   -2.7484    0.0835 C   0  0  0  0  0  0  0  0  0  0  0  0
   -3.4222   -2.1528    0.6785 H   0  0  0  0  0  0  0  0  0  0  0  0
   -3.0582   -2.7521   -0.9576 H   0  0  0  0  0  0  0  0  0  0  0  0
   -1.3299   -2.1576    0.1763 C   0  0  0  0  0  0  0  0  0  0  0  0
   -0.4196   -2.8307    0.6386 O   0  0  0  0  0  0  0  0  0  0  0  0
   -1.1223   -0.8628   -0.2418 N   0  0  0  0  0  0  0  0  0  0  0  0
   -1.9257   -0.3328   -0.5738 H   0  0  0  0  0  0  0  0  0  0  0  0
    0.1527   -0.1416   -0.2589 C   0  0  1  0  0  0  0  0  0  0  0  0
    0.7866   -0.6464    0.4763 H   0  0  0  0  0  0  0  0  0  0  0  0
    0.8939   -0.3360   -1.6024 C   0  0  0  0  0  0  0  0  0  0  0  0
    1.9664   -0.2789   -1.4003 H   0  0  0  0  0  0  0  0  0  0  0  0
    0.6921   -1.3428   -1.9779 H   0  0  0  0  0  0  0  0  0  0  0  0
    0.6184    0.6531   -2.7327 C   0  0  0  0  0  0  0  0  0  0  0  0
    1.2510    0.4429   -3.7956 O   0  5  0  0  0  0  0  0  0  0  0  0
   -0.2316    1.5592   -2.5841 O   0  0  0  0  0  0  0  0  0  0  0  0
    0.0245    1.2999    0.3018 C   0  0  0  0  0  0  0  0  0  0  0  0
   -1.0812    1.8297    0.4042 O   0  0  0  0  0  0  0  0  0  0  0  0
    0.9971    1.7420    1.1849 N   0  0  0  0  0  0  0  0  0  0  0  0
    1.9037    1.2934    1.1084 H   0  0  0  0  0  0  0  0  0  0  0  0
    0.9019    2.9994    1.9130 C   0  0  0  0  0  0  0  0  0  0  0  0
    0.0543    2.9786    2.6054 H   0  0  0  0  0  0  0  0  0  0  0  0
    1.8151    3.1683    2.4910 H   0  0  0  0  0  0  0  0  0  0  0  0
    0.7713    3.8346    1.2173 H   0  0  0  0  0  0  0  0  0  0  0  0
  1  2  1  0  0  0  0
  2  3  1  0  0  0  0
  2  4  1  0  0  0  0
  2  5  1  0  0  0  0
  5  6  2  0  0  0  0
  5  7  1  0  0  0  0
  7  8  1  0  0  0  0
  7  9  1  0  0  0  0
  9 10  1  0  0  0  0
  9 11  1  0  0  0  0
  9 17  1  0  0  0  0
 11 12  1  0  0  0  0
 11 13  1  0  0  0  0
 11 14  1  0  0  0  0
 14 15  1  0  0  0  0
 14 16  2  0  0  0  0
 17 18  2  0  0  0  0
 17 19  1  0  0  0  0
 19 20  1  0  0  0  0
 19 21  1  0  0  0  0
 21 22  1  0  0  0  0
 21 23  1  0  0  0  0
 21 24  1  0  0  0  0
M  CHG  1  15  -1
M  END
$$$$

  -OEChem-03222214023D

 24 23  0     1  0  0  0  0  0999 V2000
   -2.7424   -3.7541    0.4927 H   0  0  0  0  0  0  0  0  0  0  0  0
   -2.7334   -2.7283    0.1144 C   0  0  0  0  0  0  0  0  0  0  0  0
   -3.3945   -2.1173    0.7339 H   0  0  0  0  0  0  0  0  0  0  0  0
   -3.1056   -2.7279   -0.9132 H   0  0  0  0  0  0  0  0  0  0  0  0
   -1.3235   -2.1660    0.1511 C   0  0  0  0  0  0  0  0  0  0  0  0
   -0.4078   -2.8609    0.5676 O   0  0  0  0  0  0  0  0  0  0  0  0
   -1.1092   -0.8696   -0.2591 N   0  0  0  0  0  0  0  0  0  0  0  0
   -1.9216   -0.3070   -0.5036 H   0  0  0  0  0  0  0  0  0  0  0  0
    0.1732   -0.1592   -0.2691 C   0  0  1  0  0  0  0  0  0  0  0  0
    0.8103   -0.6702    0.4593 H   0  0  0  0  0  0  0  0  0  0  0  0
    0.9011   -0.3403   -1.6241 C   0  0  0  0  0  0  0  0  0  0  0  0
    1.9758   -0.3026   -1.4313 H   0  0  0  0  0  0  0  0  0  0  0  0
    0.6819   -1.3409   -2.0073 H   0  0  0  0  0  0  0  0  0  0  0  0
    0.6401    0.6629   -2.7475 C   0  0  0  0  0  0  0  0  0  0  0  0
    1.0193    0.3022   -3.8879 O   0  5  0  0  0  0  0  0  0  0  0  0
    0.1555    1.7874   -2.4894 O   0  0  0  0  0  0  0  0  0  0  0  0
    0.0228    1.2743    0.3066 C   0  0  0  0  0  0  0  0  0  0  0  0
   -1.0975    1.7773    0.4023 O   0  0  0  0  0  0  0  0  0  0  0  0
    0.9786    1.7226    1.2040 N   0  0  0  0  0  0  0  0  0  0  0  0
    1.9011    1.3140    1.0991 H   0  0  0  0  0  0  0  0  0  0  0  0
    0.8620    2.9889    1.9128 C   0  0  0  0  0  0  0  0  0  0  0  0
   -0.0098    2.9794    2.5749 H   0  0  0  0  0  0  0  0  0  0  0  0
    1.7546    3.1618    2.5209 H   0  0  0  0  0  0  0  0  0  0  0  0
    0.7590    3.8156    1.2022 H   0  0  0  0  0  0  0  0  0  0  0  0
  1  2  1  0  0  0  0
  2  3  1  0  0  0  0
  2  4  1  0  0  0  0
  2  5  1  0  0  0  0
  5  6  2  0  0  0  0
  5  7  1  0  0  0  0
  7  8  1  0  0  0  0
  7  9  1  0  0  0  0
  9 10  1  0  0  0  0
  9 11  1  0  0  0  0
  9 17  1  0  0  0  0
 11 12  1  0  0  0  0
 11 13  1  0  0  0  0
 11 14  1  0  0  0  0
 14 15  1  0  0  0  0
 14 16  2  0  0  0  0
 17 18  2  0  0  0  0
 17 19  1  0  0  0  0
 19 20  1  0  0  0  0
 19 21  1  0  0  0  0
 21 22  1  0  0  0  0
 21 23  1  0  0  0  0
 21 24  1  0  0  0  0
M  CHG  1  15  -1
M  END
$$$$

  -OEChem-03222214023D

 24 23  0     1  0  0  0  0  0999 V2000
   -2.7604   -3.7404    0.5048 H   0  0  0  0  0  0  0  0  0  0  0  0
   -2.7384   -2.7161    0.1227 C   0  0  0  0  0  0  0  0  0  0  0  0
   -3.3879   -2.0935    0.7429 H   0  0  0  0  0  0  0  0  0  0  0  0
   -3.1151   -2.7139   -0.9033 H   0  0  0  0  0  0  0  0  0  0  0  0
   -1.3205   -2.1740    0.1513 C   0  0  0  0  0  0  0  0  0  0  0  0
   -0.4130   -2.8792    0.5682 O   0  0  0  0  0  0  0  0  0  0  0  0
   -1.0904   -0.8818   -0.2629 N   0  0  0  0  0  0  0  0  0  0  0  0
   -1.8985   -0.3041   -0.4855 H   0  0  0  0  0  0  0  0  0  0  0  0
    0.2014   -0.1873   -0.2632 C   0  0  1  0  0  0  0  0  0  0  0  0
    0.8433   -0.7035    0.4570 H   0  0  0  0  0  0  0  0  0  0  0  0
    0.9026   -0.3510   -1.6339 C   0  0  0  0  0  0  0  0  0  0  0  0
    1.9816   -0.3340   -1.4634 H   0  0  0  0  0  0  0  0  0  0  0  0
    0.6608   -1.3389   -2.0363 H   0  0  0  0  0  0  0  0  0  0  0  0
    0.6289    0.6913   -2.7169 C   0  0  0  0  0  0  0  0  0  0  0  0
    0.6900    0.2797   -3.9009 O   0  5  0  0  0  0  0  0  0  0  0  0
    0.5550    1.8996   -2.3936 O   0  0  0  0  0  0  0  0  0  0  0  0
    0.0341    1.2455    0.3097 C   0  0  0  0  0  0  0  0  0  0  0  0
   -1.0894    1.7500    0.3563 O   0  0  0  0  0  0  0  0  0  0  0  0
    0.9679    1.7060    1.2234 N   0  0  0  0  0  0  0  0  0  0  0  0
    1.8988    1.3165    1.1201 H   0  0  0  0  0  0  0  0  0  0  0  0
    0.8346    2.9911    1.8945 C   0  0  0  0  0  0  0  0  0  0  0  0
   -0.0564    3.0017    2.5304 H   0  0  0  0  0  0  0  0  0  0  0  0
    1.7093    3.1776    2.5241 H   0  0  0  0  0  0  0  0  0  0  0  0
    0.7558    3.7991    1.1597 H   0  0  0  0  0  0  0  0  0  0  0  0
  1  2  1  0  0  0  0
  2  3  1  0  0  0  0
  2  4  1  0  0  0  0
  2  5  1  0  0  0  0
  5  6  2  0  0  0  0
  5  7  1  0  0  0  0
  7  8  1  0  0  0  0
  7  9  1  0  0  0  0
  9 10  1  0  0  0  0
  9 11  1  0  0  0  0
  9 17  1  0  0  0  0
 11 12  1  0  0  0  0
 11 13  1  0  0  0  0
 11 14  1  0  0  0  0
 14 15  1  0  0  0  0
 14 16  2  0  0  0  0
 17 18  2  0  0  0  0
 17 19  1  0  0  0  0
 19 20  1  0  0  0  0
 19 21  1  0  0  0  0
 21 22  1  0  0  0  0
 21 23  1  0  0  0  0
 21 24  1  0  0  0  0
M  CHG  1  15  -1
M  END
$$$$

  -OEChem-03222214023D

 24 23  0     1  0  0  0  0  0999 V2000
   -2.7727   -3.7445    0.4941 H   0  0  0  0  0  0  0  0  0  0  0  0
   -2.7409   -2.7219    0.1084 C   0  0  0  0  0  0  0  0  0  0  0  0
   -3.4038   -2.0961    0.7109 H   0  0  0  0  0  0  0  0  0  0  0  0
   -3.0943   -2.7236   -0.9258 H   0  0  0  0  0  0  0  0  0  0  0  0
   -1.3233   -2.1813    0.1673 C   0  0  0  0  0  0  0  0  0  0  0  0
   -0.4276   -2.8831    0.6146 O   0  0  0  0  0  0  0  0  0  0  0  0
   -1.0796   -0.8945   -0.2560 N   0  0  0  0  0  0  0  0  0  0  0  0
   -1.8789   -0.3221   -0.5201 H   0  0  0  0  0  0  0  0  0  0  0  0
    0.2175   -0.2098   -0.2472 C   0  0  1  0  0  0  0  0  0  0  0  0
    0.8607   -0.7284    0.4703 H   0  0  0  0  0  0  0  0  0  0  0  0
    0.9026   -0.3586   -1.6249 C   0  0  0  0  0  0  0  0  0  0  0  0
    1.9845   -0.3505   -1.4716 H   0  0  0  0  0  0  0  0  0  0  0  0
    0.6495   -1.3346   -2.0491 H   0  0  0  0  0  0  0  0  0  0  0  0
    0.6041    0.7232   -2.6587 C   0  0  0  0  0  0  0  0  0  0  0  0
    0.3428    0.3346   -3.8232 O   0  5  0  0  0  0  0  0  0  0  0  0
    0.8518    1.9126   -2.3459 O   0  0  0  0  0  0  0  0  0  0  0  0
    0.0492    1.2283    0.3113 C   0  0  0  0  0  0  0  0  0  0  0  0
   -1.0668    1.7506    0.3072 O   0  0  0  0  0  0  0  0  0  0  0  0
    0.9692    1.6979    1.2338 N   0  0  0  0  0  0  0  0  0  0  0  0
    1.9010    1.3070    1.1440 H   0  0  0  0  0  0  0  0  0  0  0  0
    0.8368    3.0029    1.8654 C   0  0  0  0  0  0  0  0  0  0  0  0
   -0.0702    3.0433    2.4770 H   0  0  0  0  0  0  0  0  0  0  0  0
    1.6974    3.1954    2.5125 H   0  0  0  0  0  0  0  0  0  0  0  0
    0.7882    3.7907    1.1065 H   0  0  0  0  0  0  0  0  0  0  0  0
  1  2  1  0  0  0  0
  2  3  1  0  0  0  0
  2  4  1  0  0  0  0
  2  5  1  0  0  0  0
  5  6  2  0  0  0  0
  5  7  1  0  0  0  0
  7  8  1  0  0  0  0
  7  9  1  0  0  0  0
  9 10  1  0  0  0  0
  9 11  1  0  0  0  0
  9 17  1  0  0  0  0
 11 12  1  0  0  0  0
 11 13  1  0  0  0  0
 11 14  1  0  0  0  0
 14 15  1  0  0  0  0
 14 16  2  0  0  0  0
 17 18  2  0  0  0  0
 17 19  1  0  0  0  0
 19 20  1  0  0  0  0
 19 21  1  0  0  0  0
 21 22  1  0  0  0  0
 21 23  1  0  0  0  0
 21 24  1  0  0  0  0
M  CHG  1  15  -1
M  END
$$$$

  -OEChem-03222214023D

 24 23  0     1  0  0  0  0  0999 V2000
   -2.7765   -3.7617    0.4677 H   0  0  0  0  0  0  0  0  0  0  0  0
   -2.7377   -2.7403    0.0790 C   0  0  0  0  0  0  0  0  0  0  0  0
   -3.4289   -2.1172    0.6520 H   0  0  0  0  0  0  0  0  0  0  0  0
   -3.0499   -2.7492   -0.9686 H   0  0  0  0  0  0  0  0  0  0  0  0
   -1.3282   -2.1874    0.1917 C   0  0  0  0  0  0  0  0  0  0  0  0
   -0.4473   -2.8753    0.6876 O   0  0  0  0  0  0  0  0  0  0  0  0
   -1.0754   -0.9055   -0.2405 N   0  0  0  0  0  0  0  0  0  0  0  0
   -1.8604   -0.3565   -0.5849 H   0  0  0  0  0  0  0  0  0  0  0  0
    0.2230   -0.2240   -0.2259 C   0  0  1  0  0  0  0  0  0  0  0  0
    0.8674   -0.7431    0.4903 H   0  0  0  0  0  0  0  0  0  0  0  0
    0.8964   -0.3627   -1.6071 C   0  0  0  0  0  0  0  0  0  0  0  0
    1.9803   -0.3577   -1.4674 H   0  0  0  0  0  0  0  0  0  0  0  0
    0.6365   -1.3286   -2.0496 H   0  0  0  0  0  0  0  0  0  0  0  0
    0.5698    0.7478   -2.5977 C   0  0  0  0  0  0  0  0  0  0  0  0
    0.0102    0.4184   -3.6717 O   0  5  0  0  0  0  0  0  0  0  0  0
    1.0452    1.8844   -2.3565 O   0  0  0  0  0  0  0  0  0  0  0  0
    0.0626    1.2207    0.3165 C   0  0  0  0  0  0  0  0  0  0  0  0
   -1.0393    1.7678    0.2683 O   0  0  0  0  0  0  0  0  0  0  0  0
    0.9771    1.6962    1.2410 N   0  0  0  0  0  0  0  0  0  0  0  0
    1.9016    1.2829    1.1794 H   0  0  0  0  0  0  0  0  0  0  0  0
    0.8631    3.0221    1.8312 C   0  0  0  0  0  0  0  0  0  0  0  0
   -0.0634    3.1076    2.4082 H   0  0  0  0  0  0  0  0  0  0  0  0
    1.7058    3.2068    2.5038 H   0  0  0  0  0  0  0  0  0  0  0  0
    0.8667    3.7888    1.0493 H   0  0  0  0  0  0  0  0  0  0  0  0
  1  2  1  0  0  0  0
  2  3  1  0  0  0  0
  2  4  1  0  0  0  0
  2  5  1  0  0  0  0
  5  6  2  0  0  0  0
  5  7  1  0  0  0  0
  7  8  1  0  0  0  0
  7  9  1  0  0  0  0
  9 10  1  0  0  0  0
  9 11  1  0  0  0  0
  9 17  1  0  0  0  0
 11 12  1  0  0  0  0
 11 13  1  0  0  0  0
 11 14  1  0  0  0  0
 14 15  1  0  0  0  0
 14 16  2  0  0  0  0
 17 18  2  0  0  0  0
 17 19  1  0  0  0  0
 19 20  1  0  0  0  0
 19 21  1  0  0  0  0
 21 22  1  0  0  0  0
 21 23  1  0  0  0  0
 21 24  1  0  0  0  0
M  CHG  1  15  -1
M  END
$$$$

  -OEChem-03222214023D

 24 23  0     1  0  0  0  0  0999 V2000
   -2.7649   -3.7854    0.4183 H   0  0  0  0  0  0  0  0  0  0  0  0
   -2.7281   -2.7615    0.0364 C   0  0  0  0  0  0  0  0  0  0  0  0
   -3.4617   -2.1558    0.5740 H   0  0  0  0  0  0  0  0  0  0  0  0
   -2.9843   -2.7715   -1.0261 H   0  0  0  0  0  0  0  0  0  0  0  0
   -1.3388   -2.1791    0.2246 C   0  0  0  0  0  0  0  0  0  0  0  0
   -0.4745   -2.8433    0.7793 O   0  0  0  0  0  0  0  0  0  0  0  0
   -1.0833   -0.9023   -0.2201 N   0  0  0  0  0  0  0  0  0  0  0  0
   -1.8441   -0.3948   -0.6678 H   0  0  0  0  0  0  0  0  0  0  0  0
    0.2150   -0.2220   -0.2057 C   0  0  1  0  0  0  0  0  0  0  0  0
    0.8575   -0.7383    0.5138 H   0  0  0  0  0  0  0  0  0  0  0  0
    0.8826   -0.3724   -1.5849 C   0  0  0  0  0  0  0  0  0  0  0  0
    1.9675   -0.3662   -1.4531 H   0  0  0  0  0  0  0  0  0  0  0  0
    0.6191   -1.3367   -2.0285 H   0  0  0  0  0  0  0  0  0  0  0  0
    0.5343    0.7451   -2.5568 C   0  0  0  0  0  0  0  0  0  0  0  0
   -0.2800    0.4855   -3.4761 O   0  5  0  0  0  0  0  0  0  0  0  0
    1.1746    1.8188   -2.4406 O   0  0  0  0  0  0  0  0  0  0  0  0
    0.0748    1.2315    0.3173 C   0  0  0  0  0  0  0  0  0  0  0  0
   -1.0097    1.8071    0.2430 O   0  0  0  0  0  0  0  0  0  0  0  0
    0.9952    1.7057    1.2365 N   0  0  0  0  0  0  0  0  0  0  0  0
    1.9094    1.2678    1.1962 H   0  0  0  0  0  0  0  0  0  0  0  0
    0.9009    3.0389    1.8135 C   0  0  0  0  0  0  0  0  0  0  0  0
   -0.0170    3.1385    2.4015 H   0  0  0  0  0  0  0  0  0  0  0  0
    1.7540    3.2236    2.4729 H   0  0  0  0  0  0  0  0  0  0  0  0
    0.9000    3.7972    1.0235 H   0  0  0  0  0  0  0  0  0  0  0  0
  1  2  1  0  0  0  0
  2  3  1  0  0  0  0
  2  4  1  0  0  0  0
  2  5  1  0  0  0  0
  5  6  2  0  0  0  0
  5  7  1  0  0  0  0
  7  8  1  0  0  0  0
  7  9  1  0  0  0  0
  9 10  1  0  0  0  0
  9 11  1  0  0  0  0
  9 17  1  0  0  0  0
 11 12  1  0  0  0  0
 11 13  1  0  0  0  0
 11 14  1  0  0  0  0
 14 15  1  0  0  0  0
 14 16  2  0  0  0  0
 17 18  2  0  0  0  0
 17 19  1  0  0  0  0
 19 20  1  0  0  0  0
 19 21  1  0  0  0  0
 21 22  1  0  0  0  0
 21 23  1  0  0  0  0
 21 24  1  0  0  0  0
M  CHG  1  15  -1
M  END
$$$$

  -OEChem-03222214023D

 24 23  0     1  0  0  0  0  0999 V2000
   -2.7467   -3.8082    0.3805 H   0  0  0  0  0  0  0  0  0  0  0  0
   -2.7159   -2.7835    0.0007 C   0  0  0  0  0  0  0  0  0  0  0  0
   -3.4829   -2.1941    0.5090 H   0  0  0  0  0  0  0  0  0  0  0  0
   -2.9295   -2.7978   -1.0712 H   0  0  0  0  0  0  0  0  0  0  0  0
   -1.3476   -2.1726    0.2445 C   0  0  0  0  0  0  0  0  0  0  0  0
   -0.4967   -2.8139    0.8452 O   0  0  0  0  0  0  0  0  0  0  0  0
   -1.0954   -0.8975   -0.2064 N   0  0  0  0  0  0  0  0  0  0  0  0
   -1.8280   -0.4332   -0.7409 H   0  0  0  0  0  0  0  0  0  0  0  0
    0.1997   -0.2128   -0.1902 C   0  0  1  0  0  0  0  0  0  0  0  0
    0.8403   -0.7272    0.5323 H   0  0  0  0  0  0  0  0  0  0  0  0
    0.8662   -0.3770   -1.5660 C   0  0  0  0  0  0  0  0  0  0  0  0
    1.9516   -0.3665   -1.4364 H   0  0  0  0  0  0  0  0  0  0  0  0
    0.6029   -1.3429   -2.0062 H   0  0  0  0  0  0  0  0  0  0  0  0
    0.5007    0.7372   -2.5331 C   0  0  0  0  0  0  0  0  0  0  0  0
   -0.5137    0.5672   -3.2531 O   0  5  0  0  0  0  0  0  0  0  0  0
    1.2691    1.7284   -2.5840 O   0  0  0  0  0  0  0  0  0  0  0  0
    0.0795    1.2465    0.3206 C   0  0  0  0  0  0  0  0  0  0  0  0
   -0.9873    1.8495    0.2302 O   0  0  0  0  0  0  0  0  0  0  0  0
    1.0080    1.7150    1.2347 N   0  0  0  0  0  0  0  0  0  0  0  0
    1.9067    1.2445    1.2236 H   0  0  0  0  0  0  0  0  0  0  0  0
    0.9402    3.0545    1.8010 C   0  0  0  0  0  0  0  0  0  0  0  0
    0.0228    3.1787    2.3854 H   0  0  0  0  0  0  0  0  0  0  0  0
    1.7950    3.2262    2.4615 H   0  0  0  0  0  0  0  0  0  0  0  0
    0.9581    3.8062    1.0050 H   0  0  0  0  0  0  0  0  0  0  0  0
  1  2  1  0  0  0  0
  2  3  1  0  0  0  0
  2  4  1  0  0  0  0
  2  5  1  0  0  0  0
  5  6  2  0  0  0  0
  5  7  1  0  0  0  0
  7  8  1  0  0  0  0
  7  9  1  0  0  0  0
  9 10  1  0  0  0  0
  9 11  1  0  0  0  0
  9 17  1  0  0  0  0
 11 12  1  0  0  0  0
 11 13  1  0  0  0  0
 11 14  1  0  0  0  0
 14 15  1  0  0  0  0
 14 16  2  0  0  0  0
 17 18  2  0  0  0  0
 17 19  1  0  0  0  0
 19 20  1  0  0  0  0
 19 21  1  0  0  0  0
 21 22  1  0  0  0  0
 21 23  1  0  0  0  0
 21 24  1  0  0  0  0
M  CHG  1  15  -1
M  END
$$$$

  -OEChem-03222214023D

 24 23  0     1  0  0  0  0  0999 V2000
   -2.7313   -3.8233    0.3647 H   0  0  0  0  0  0  0  0  0  0  0  0
   -2.7083   -2.7986   -0.0158 C   0  0  0  0  0  0  0  0  0  0  0  0
   -3.4929   -2.2196    0.4774 H   0  0  0  0  0  0  0  0  0  0  0  0
   -2.9020   -2.8171   -1.0914 H   0  0  0  0  0  0  0  0  0  0  0  0
   -1.3539   -2.1674    0.2526 C   0  0  0  0  0  0  0  0  0  0  0  0
   -0.5062   -2.7956    0.8717 O   0  0  0  0  0  0  0  0  0  0  0  0
   -1.1090   -0.8916   -0.2004 N   0  0  0  0  0  0  0  0  0  0  0  0
   -1.8264   -0.4509   -0.7761 H   0  0  0  0  0  0  0  0  0  0  0  0
    0.1809   -0.1988   -0.1860 C   0  0  1  0  0  0  0  0  0  0  0  0
    0.8180   -0.7099    0.5419 H   0  0  0  0  0  0  0  0  0  0  0  0
    0.8581   -0.3771   -1.5540 C   0  0  0  0  0  0  0  0  0  0  0  0
    1.9425   -0.3584   -1.4161 H   0  0  0  0  0  0  0  0  0  0  0  0
    0.6022   -1.3485   -1.9854 H   0  0  0  0  0  0  0  0  0  0  0  0
    0.4865    0.7224   -2.5350 C   0  0  0  0  0  0  0  0  0  0  0  0
   -0.6611    0.6712   -3.0426 O   0  5  0  0  0  0  0  0  0  0  0  0
    1.3527    1.5956   -2.7844 O   0  0  0  0  0  0  0  0  0  0  0  0
    0.0751    1.2634    0.3191 C   0  0  0  0  0  0  0  0  0  0  0  0
   -0.9809    1.8838    0.2329 O   0  0  0  0  0  0  0  0  0  0  0  0
    1.0148    1.7235    1.2263 N   0  0  0  0  0  0  0  0  0  0  0  0
    1.9019    1.2315    1.2280 H   0  0  0  0  0  0  0  0  0  0  0  0
    0.9657    3.0607    1.8002 C   0  0  0  0  0  0  0  0  0  0  0  0
    0.0500    3.1945    2.3852 H   0  0  0  0  0  0  0  0  0  0  0  0
    1.8228    3.2162    2.4618 H   0  0  0  0  0  0  0  0  0  0  0  0
    0.9949    3.8167    1.0086 H   0  0  0  0  0  0  0  0  0  0  0  0
  1  2  1  0  0  0  0
  2  3  1  0  0  0  0
  2  4  1  0  0  0  0
  2  5  1  0  0  0  0
  5  6  2  0  0  0  0
  5  7  1  0  0  0  0
  7  8  1  0  0  0  0
  7  9  1  0  0  0  0
  9 10  1  0  0  0  0
  9 11  1  0  0  0  0
  9 17  1  0  0  0  0
 11 12  1  0  0  0  0
 11 13  1  0  0  0  0
 11 14  1  0  0  0  0
 14 15  1  0  0  0  0
 14 16  2  0  0  0  0
 17 18  2  0  0  0  0
 17 19  1  0  0  0  0
 19 20  1  0  0  0  0
 19 21  1  0  0  0  0
 21 22  1  0  0  0  0
 21 23  1  0  0  0  0
 21 24  1  0  0  0  0
M  CHG  1  15  -1
M  END
$$$$

  -OEChem-03222214023D

 24 23  0     1  0  0  0  0  0999 V2000
   -2.7240   -3.8284    0.3678 H   0  0  0  0  0  0  0  0  0  0  0  0
   -2.7068   -2.8038   -0.0138 C   0  0  0  0  0  0  0  0  0  0  0  0
   -3.4937   -2.2282    0.4798 H   0  0  0  0  0  0  0  0  0  0  0  0
   -2.9021   -2.8243   -1.0891 H   0  0  0  0  0  0  0  0  0  0  0  0
   -1.3556   -2.1643    0.2520 C   0  0  0  0  0  0  0  0  0  0  0  0
   -0.5017   -2.7884    0.8669 O   0  0  0  0  0  0  0  0  0  0  0  0
   -1.1210   -0.8862   -0.1997 N   0  0  0  0  0  0  0  0  0  0  0  0
   -1.8420   -0.4486   -0.7737 H   0  0  0  0  0  0  0  0  0  0  0  0
    0.1626   -0.1829   -0.1924 C   0  0  1  0  0  0  0  0  0  0  0  0
    0.7966   -0.6890    0.5415 H   0  0  0  0  0  0  0  0  0  0  0  0
    0.8591   -0.3725   -1.5505 C   0  0  0  0  0  0  0  0  0  0  0  0
    1.9411   -0.3428   -1.3958 H   0  0  0  0  0  0  0  0  0  0  0  0
    0.6154   -1.3527   -1.9683 H   0  0  0  0  0  0  0  0  0  0  0  0
    0.4948    0.7021   -2.5632 C   0  0  0  0  0  0  0  0  0  0  0  0
   -0.7168    0.8094   -2.8751 O   0  5  0  0  0  0  0  0  0  0  0  0
    1.4260    1.4063   -3.0233 O   0  0  0  0  0  0  0  0  0  0  0  0
    0.0641    1.2797    0.3134 C   0  0  0  0  0  0  0  0  0  0  0  0
   -0.9911    1.9039    0.2543 O   0  0  0  0  0  0  0  0  0  0  0  0
    1.0169    1.7326    1.2112 N   0  0  0  0  0  0  0  0  0  0  0  0
    1.8970    1.2280    1.2163 H   0  0  0  0  0  0  0  0  0  0  0  0
    0.9739    3.0583    1.8115 C   0  0  0  0  0  0  0  0  0  0  0  0
    0.0744    3.1727    2.4249 H   0  0  0  0  0  0  0  0  0  0  0  0
    1.8485    3.2085    2.4511 H   0  0  0  0  0  0  0  0  0  0  0  0
    0.9743    3.8298    1.0346 H   0  0  0  0  0  0  0  0  0  0  0  0
  1  2  1  0  0  0  0
  2  3  1  0  0  0  0
  2  4  1  0  0  0  0
  2  5  1  0  0  0  0
  5  6  2  0  0  0  0
  5  7  1  0  0  0  0
  7  8  1  0  0  0  0
  7  9  1  0  0  0  0
  9 10  1  0  0  0  0
  9 11  1  0  0  0  0
  9 17  1  0  0  0  0
 11 12  1  0  0  0  0
 11 13  1  0  0  0  0
 11 14  1  0  0  0  0
 14 15  1  0  0  0  0
 14 16  2  0  0  0  0
 17 18  2  0  0  0  0
 17 19  1  0  0  0  0
 19 20  1  0  0  0  0
 19 21  1  0  0  0  0
 21 22  1  0  0  0  0
 21 23  1  0  0  0  0
 21 24  1  0  0  0  0
M  CHG  1  15  -1
M  END
$$$$

  -OEChem-03222214023D

 24 23  0     1  0  0  0  0  0999 V2000
   -2.7267   -3.8203    0.3981 H   0  0  0  0  0  0  0  0  0  0  0  0
   -2.7136   -2.7971    0.0130 C   0  0  0  0  0  0  0  0  0  0  0  0
   -3.4815   -2.2149    0.5284 H   0  0  0  0  0  0  0  0  0  0  0  0
   -2.9411   -2.8193   -1.0558 H   0  0  0  0  0  0  0  0  0  0  0  0
   -1.3503   -2.1668    0.2368 C   0  0  0  0  0  0  0  0  0  0  0  0
   -0.4790   -2.8015    0.8152 O   0  0  0  0  0  0  0  0  0  0  0  0
   -1.1258   -0.8843   -0.2078 N   0  0  0  0  0  0  0  0  0  0  0  0
   -1.8698   -0.4263   -0.7336 H   0  0  0  0  0  0  0  0  0  0  0  0
    0.1515   -0.1697   -0.2107 C   0  0  1  0  0  0  0  0  0  0  0  0
    0.7842   -0.6720    0.5271 H   0  0  0  0  0  0  0  0  0  0  0  0
    0.8702   -0.3619   -1.5593 C   0  0  0  0  0  0  0  0  0  0  0  0
    1.9487   -0.3188   -1.3841 H   0  0  0  0  0  0  0  0  0  0  0  0
    0.6435   -1.3515   -1.9638 H   0  0  0  0  0  0  0  0  0  0  0  0
    0.5243    0.6845   -2.6105 C   0  0  0  0  0  0  0  0  0  0  0  0
   -0.6837    0.9881   -2.7612 O   0  5  0  0  0  0  0  0  0  0  0  0
    1.4771    1.1791   -3.2603 O   0  0  0  0  0  0  0  0  0  0  0  0
    0.0495    1.2894    0.3052 C   0  0  0  0  0  0  0  0  0  0  0  0
   -1.0178    1.8961    0.2955 O   0  0  0  0  0  0  0  0  0  0  0  0
    1.0135    1.7382    1.1934 N   0  0  0  0  0  0  0  0  0  0  0  0
    1.8959    1.2376    1.1839 H   0  0  0  0  0  0  0  0  0  0  0  0
    0.9618    3.0463    1.8312 C   0  0  0  0  0  0  0  0  0  0  0  0
    0.0757    3.1279    2.4689 H   0  0  0  0  0  0  0  0  0  0  0  0
    1.8491    3.1954    2.4533 H   0  0  0  0  0  0  0  0  0  0  0  0
    0.9291    3.8383    1.0759 H   0  0  0  0  0  0  0  0  0  0  0  0
  1  2  1  0  0  0  0
  2  3  1  0  0  0  0
  2  4  1  0  0  0  0
  2  5  1  0  0  0  0
  5  6  2  0  0  0  0
  5  7  1  0  0  0  0
  7  8  1  0  0  0  0
  7  9  1  0  0  0  0
  9 10  1  0  0  0  0
  9 11  1  0  0  0  0
  9 17  1  0  0  0  0
 11 12  1  0  0  0  0
 11 13  1  0  0  0  0
 11 14  1  0  0  0  0
 14 15  1  0  0  0  0
 14 16  2  0  0  0  0
 17 18  2  0  0  0  0
 17 19  1  0  0  0  0
 19 20  1  0  0  0  0
 19 21  1  0  0  0  0
 21 22  1  0  0  0  0
 21 23  1  0  0  0  0
 21 24  1  0  0  0  0
M  CHG  1  15  -1
M  END
$$$$

  -OEChem-03222214023D

 24 23  0     1  0  0  0  0  0999 V2000
   -2.7256   -3.8074    0.4307 H   0  0  0  0  0  0  0  0  0  0  0  0
   -2.7190   -2.7836    0.0467 C   0  0  0  0  0  0  0  0  0  0  0  0
   -3.4599   -2.1955    0.5940 H   0  0  0  0  0  0  0  0  0  0  0  0
   -2.9898   -2.8018   -1.0121 H   0  0  0  0  0  0  0  0  0  0  0  0
   -1.3419   -2.1666    0.2152 C   0  0  0  0  0  0  0  0  0  0  0  0
   -0.4504   -2.8153    0.7447 O   0  0  0  0  0  0  0  0  0  0  0  0
   -1.1287   -0.8791   -0.2201 N   0  0  0  0  0  0  0  0  0  0  0  0
   -1.9018   -0.3939   -0.6734 H   0  0  0  0  0  0  0  0  0  0  0  0
    0.1445   -0.1567   -0.2333 C   0  0  1  0  0  0  0  0  0  0  0  0
    0.7774   -0.6571    0.5058 H   0  0  0  0  0  0  0  0  0  0  0  0
    0.8798   -0.3515   -1.5752 C   0  0  0  0  0  0  0  0  0  0  0  0
    1.9546   -0.2953   -1.3823 H   0  0  0  0  0  0  0  0  0  0  0  0
    0.6687   -1.3504   -1.9652 H   0  0  0  0  0  0  0  0  0  0  0  0
    0.5591    0.6661   -2.6647 C   0  0  0  0  0  0  0  0  0  0  0  0
   -0.5796    1.1892   -2.6879 O   0  5  0  0  0  0  0  0  0  0  0  0
    1.4800    0.9219   -3.4778 O   0  0  0  0  0  0  0  0  0  0  0  0
    0.0346    1.2966    0.2983 C   0  0  0  0  0  0  0  0  0  0  0  0
   -1.0491    1.8733    0.3464 O   0  0  0  0  0  0  0  0  0  0  0  0
    1.0074    1.7424    1.1790 N   0  0  0  0  0  0  0  0  0  0  0  0
    1.8983    1.2583    1.1421 H   0  0  0  0  0  0  0  0  0  0  0  0
    0.9411    3.0289    1.8578 C   0  0  0  0  0  0  0  0  0  0  0  0
    0.0648    3.0724    2.5126 H   0  0  0  0  0  0  0  0  0  0  0  0
    1.8358    3.1773    2.4694 H   0  0  0  0  0  0  0  0  0  0  0  0
    0.8793    3.8423    1.1278 H   0  0  0  0  0  0  0  0  0  0  0  0
  1  2  1  0  0  0  0
  2  3  1  0  0  0  0
  2  4  1  0  0  0  0
  2  5  1  0  0  0  0
  5  6  2  0  0  0  0
  5  7  1  0  0  0  0
  7  8  1  0  0  0  0
  7  9  1  0  0  0  0
  9 10  1  0  0  0  0
  9 11  1  0  0  0  0
  9 17  1  0  0  0  0
 11 12  1  0  0  0  0
 11 13  1  0  0  0  0
 11 14  1  0  0  0  0
 14 15  1  0  0  0  0
 14 16  2  0  0  0  0
 17 18  2  0  0  0  0
 17 19  1  0  0  0  0
 19 20  1  0  0  0  0
 19 21  1  0  0  0  0
 21 22  1  0  0  0  0
 21 23  1  0  0  0  0
 21 24  1  0  0  0  0
M  CHG  1  15  -1
M  END
$$$$

  -OEChem-03222214023D

 24 23  0     1  0  0  0  0  0999 V2000
   -2.7281   -3.7904    0.4567 H   0  0  0  0  0  0  0  0  0  0  0  0
   -2.7254   -2.7650    0.0771 C   0  0  0  0  0  0  0  0  0  0  0  0
   -3.4371   -2.1712    0.6561 H   0  0  0  0  0  0  0  0  0  0  0  0
   -3.0385   -2.7753   -0.9700 H   0  0  0  0  0  0  0  0  0  0  0  0
   -1.3357   -2.1644    0.1927 C   0  0  0  0  0  0  0  0  0  0  0  0
   -0.4301   -2.8279    0.6775 O   0  0  0  0  0  0  0  0  0  0  0  0
   -1.1279   -0.8727   -0.2340 N   0  0  0  0  0  0  0  0  0  0  0  0
   -1.9226   -0.3596   -0.6115 H   0  0  0  0  0  0  0  0  0  0  0  0
    0.1453   -0.1488   -0.2533 C   0  0  1  0  0  0  0  0  0  0  0  0
    0.7789   -0.6496    0.4849 H   0  0  0  0  0  0  0  0  0  0  0  0
    0.8881   -0.3446   -1.5937 C   0  0  0  0  0  0  0  0  0  0  0  0
    1.9605   -0.2837   -1.3905 H   0  0  0  0  0  0  0  0  0  0  0  0
    0.6835   -1.3491   -1.9731 H   0  0  0  0  0  0  0  0  0  0  0  0
    0.5941    0.6522   -2.7114 C   0  0  0  0  0  0  0  0  0  0  0  0
   -0.4091    1.3971   -2.6331 O   0  5  0  0  0  0  0  0  0  0  0  0
    1.4181    0.6669   -3.6575 O   0  0  0  0  0  0  0  0  0  0  0  0
    0.0252    1.2982    0.2940 C   0  0  0  0  0  0  0  0  0  0  0  0
   -1.0730    1.8440    0.3834 O   0  0  0  0  0  0  0  0  0  0  0  0
    1.0005    1.7432    1.1727 N   0  0  0  0  0  0  0  0  0  0  0  0
    1.9015    1.2814    1.1091 H   0  0  0  0  0  0  0  0  0  0  0  0
    0.9157    3.0104    1.8853 C   0  0  0  0  0  0  0  0  0  0  0  0
    0.0671    3.0052    2.5770 H   0  0  0  0  0  0  0  0  0  0  0  0
    1.8299    3.1787    2.4620 H   0  0  0  0  0  0  0  0  0  0  0  0
    0.7927    3.8380    1.1792 H   0  0  0  0  0  0  0  0  0  0  0  0
  1  2  1  0  0  0  0
  2  3  1  0  0  0  0
  2  4  1  0  0  0  0
  2  5  1  0  0  0  0
  5  6  2  0  0  0  0
  5  7  1  0  0  0  0
  7  8  1  0  0  0  0
  7  9  1  0  0  0  0
  9 10  1  0  0  0  0
  9 11  1  0  0  0  0
  9 17  1  0  0  0  0
 11 12  1  0  0  0  0
 11 13  1  0  0  0  0
 11 14  1  0  0  0  0
 14 15  1  0  0  0  0
 14 16  2  0  0  0  0
 17 18  2  0  0  0  0
 17 19  1  0  0  0  0
 19 20  1  0  0  0  0
 19 21  1  0  0  0  0
 21 22  1  0  0  0  0
 21 23  1  0  0  0  0
 21 24  1  0  0  0  0
M  CHG  1  15  -1
M  END
$$$$

  -OEChem-03222214023D

 24 23  0     1  0  0  0  0  0999 V2000
   -2.7337   -3.7718    0.4771 H   0  0  0  0  0  0  0  0  0  0  0  0
   -2.7302   -2.7452    0.1006 C   0  0  0  0  0  0  0  0  0  0  0  0
   -3.4147   -2.1443    0.7046 H   0  0  0  0  0  0  0  0  0  0  0  0
   -3.0780   -2.7484   -0.9355 H   0  0  0  0  0  0  0  0  0  0  0  0
   -1.3298   -2.1628    0.1723 C   0  0  0  0  0  0  0  0  0  0  0  0
   -0.4161   -2.8417    0.6189 O   0  0  0  0  0  0  0  0  0  0  0  0
   -1.1222   -0.8685   -0.2469 N   0  0  0  0  0  0  0  0  0  0  0  0
   -1.9304   -0.3298   -0.5519 H   0  0  0  0  0  0  0  0  0  0  0  0
    0.1536   -0.1482   -0.2669 C   0  0  1  0  0  0  0  0  0  0  0  0
    0.7887   -0.6521    0.4680 H   0  0  0  0  0  0  0  0  0  0  0  0
    0.8939   -0.3420   -1.6114 C   0  0  0  0  0  0  0  0  0  0  0  0
    1.9657   -0.2836   -1.4067 H   0  0  0  0  0  0  0  0  0  0  0  0
    0.6881   -1.3483   -1.9862 H   0  0  0  0  0  0  0  0  0  0  0  0
    0.6198    0.6469   -2.7428 C   0  0  0  0  0  0  0  0  0  0  0  0
   -0.1873    1.5888   -2.5781 O   0  5  0  0  0  0  0  0  0  0  0  0
    1.2768    0.4535   -3.7942 O   0  0  0  0  0  0  0  0  0  0  0  0
    0.0211    1.2929    0.2944 C   0  0  0  0  0  0  0  0  0  0  0  0
   -1.0888    1.8138    0.4019 O   0  0  0  0  0  0  0  0  0  0  0  0
    0.9922    1.7387    1.1771 N   0  0  0  0  0  0  0  0  0  0  0  0
    1.9027    1.2994    1.0928 H   0  0  0  0  0  0  0  0  0  0  0  0
    0.8914    2.9959    1.9050 C   0  0  0  0  0  0  0  0  0  0  0  0
    0.0443    2.9707    2.5980 H   0  0  0  0  0  0  0  0  0  0  0  0
    1.8042    3.1688    2.4825 H   0  0  0  0  0  0  0  0  0  0  0  0
    0.7568    3.8303    1.2090 H   0  0  0  0  0  0  0  0  0  0  0  0
  1  2  1  0  0  0  0
  2  3  1  0  0  0  0
  2  4  1  0  0  0  0
  2  5  1  0  0  0  0
  5  6  2  0  0  0  0
  5  7  1  0  0  0  0
  7  8  1  0  0  0  0
  7  9  1  0  0  0  0
  9 10  1  0  0  0  0
  9 11  1  0  0  0  0
  9 17  1  0  0  0  0
 11 12  1  0  0  0  0
 11 13  1  0  0  0  0
 11 14  1  0  0  0  0
 14 15  1  0  0  0  0
 14 16  2  0  0  0  0
 17 18  2  0  0  0  0
 17 19  1  0  0  0  0
 19 20  1  0  0  0  0
 19 21  1  0  0  0  0
 21 22  1  0  0  0  0
 21 23  1  0  0  0  0
 21 24  1  0  0  0  0
M  CHG  1  15  -1
M  END
$$$$

  -OEChem-03222214023D

 24 23  0     1  0  0  0  0  0999 V2000
   -2.7422   -3.7554    0.4884 H   0  0  0  0  0  0  0  0  0  0  0  0
   -2.7347   -2.7287    0.1122 C   0  0  0  0  0  0  0  0  0  0  0  0
   -3.4010   -2.1212    0.7297 H   0  0  0  0  0  0  0  0  0  0  0  0
   -3.1022   -2.7274   -0.9170 H   0  0  0  0  0  0  0  0  0  0  0  0
   -1.3268   -2.1616    0.1570 C   0  0  0  0  0  0  0  0  0  0  0  0
   -0.4125   -2.8514    0.5854 O   0  0  0  0  0  0  0  0  0  0  0  0
   -1.1132   -0.8665   -0.2577 N   0  0  0  0  0  0  0  0  0  0  0  0
   -1.9241   -0.3104   -0.5214 H   0  0  0  0  0  0  0  0  0  0  0  0
    0.1683   -0.1549   -0.2716 C   0  0  1  0  0  0  0  0  0  0  0  0
    0.8045   -0.6633    0.4593 H   0  0  0  0  0  0  0  0  0  0  0  0
    0.8991   -0.3444   -1.6237 C   0  0  0  0  0  0  0  0  0  0  0  0
    1.9720   -0.2939   -1.4233 H   0  0  0  0  0  0  0  0  0  0  0  0
    0.6863   -1.3488   -2.0004 H   0  0  0  0  0  0  0  0  0  0  0  0
    0.6371    0.6513   -2.7533 C   0  0  0  0  0  0  0  0  0  0  0  0
    0.0781    1.7453   -2.5159 O   0  5  0  0  0  0  0  0  0  0  0  0
    1.0584    0.3035   -3.8830 O   0  0  0  0  0  0  0  0  0  0  0  0
    0.0238    1.2816    0.2986 C   0  0  0  0  0  0  0  0  0  0  0  0
   -1.0935    1.7899    0.3981 O   0  0  0  0  0  0  0  0  0  0  0  0
    0.9844    1.7292    1.1915 N   0  0  0  0  0  0  0  0  0  0  0  0
    1.9030    1.3098    1.0959 H   0  0  0  0  0  0  0  0  0  0  0  0
    0.8695    2.9870    1.9159 C   0  0  0  0  0  0  0  0  0  0  0  0
    0.0143    2.9594    2.5988 H   0  0  0  0  0  0  0  0  0  0  0  0
    1.7747    3.1643    2.5038 H   0  0  0  0  0  0  0  0  0  0  0  0
    0.7394    3.8201    1.2174 H   0  0  0  0  0  0  0  0  0  0  0  0
  1  2  1  0  0  0  0
  2  3  1  0  0  0  0
  2  4  1  0  0  0  0
  2  5  1  0  0  0  0
  5  6  2  0  0  0  0
  5  7  1  0  0  0  0
  7  8  1  0  0  0  0
  7  9  1  0  0  0  0
  9 10  1  0  0  0  0
  9 11  1  0  0  0  0
  9 17  1  0  0  0  0
 11 12  1  0  0  0  0
 11 13  1  0  0  0  0
 11 14  1  0  0  0  0
 14 15  1  0  0  0  0
 14 16  2  0  0  0  0
 17 18  2  0  0  0  0
 17 19  1  0  0  0  0
 19 20  1  0  0  0  0
 19 21  1  0  0  0  0
 21 22  1  0  0  0  0
 21 23  1  0  0  0  0
 21 24  1  0  0  0  0
M  CHG  1  15  -1
M  END
$$$$

  -OEChem-03222214023D

 24 23  0     1  0  0  0  0  0999 V2000
   -2.7587   -3.7400    0.4912 H   0  0  0  0  0  0  0  0  0  0  0  0
   -2.7396   -2.7138    0.1141 C   0  0  0  0  0  0  0  0  0  0  0  0
   -3.3954   -2.0972    0.7336 H   0  0  0  0  0  0  0  0  0  0  0  0
   -3.1114   -2.7085   -0.9136 H   0  0  0  0  0  0  0  0  0  0  0  0
   -1.3244   -2.1650    0.1526 C   0  0  0  0  0  0  0  0  0  0  0  0
   -0.4168   -2.8657    0.5771 O   0  0  0  0  0  0  0  0  0  0  0  0
   -1.0970   -0.8722   -0.2611 N   0  0  0  0  0  0  0  0  0  0  0  0
   -1.9042   -0.3027   -0.5062 H   0  0  0  0  0  0  0  0  0  0  0  0
    0.1919   -0.1734   -0.2661 C   0  0  1  0  0  0  0  0  0  0  0  0
    0.8300   -0.6870    0.4594 H   0  0  0  0  0  0  0  0  0  0  0  0
    0.9044   -0.3536   -1.6295 C   0  0  0  0  0  0  0  0  0  0  0  0
    1.9799   -0.3181   -1.4421 H   0  0  0  0  0  0  0  0  0  0  0  0
    0.6772   -1.3513   -2.0160 H   0  0  0  0  0  0  0  0  0  0  0  0
    0.6410    0.6653   -2.7381 C   0  0  0  0  0  0  0  0  0  0  0  0
    0.3693    1.8513   -2.4434 O   0  5  0  0  0  0  0  0  0  0  0  0
    0.7638    0.2384   -3.9118 O   0  0  0  0  0  0  0  0  0  0  0  0
    0.0351    1.2611    0.3063 C   0  0  0  0  0  0  0  0  0  0  0  0
   -1.0865    1.7661    0.3777 O   0  0  0  0  0  0  0  0  0  0  0  0
    0.9793    1.7157    1.2127 N   0  0  0  0  0  0  0  0  0  0  0  0
    1.9058    1.3151    1.1133 H   0  0  0  0  0  0  0  0  0  0  0  0
    0.8515    2.9888    1.9075 C   0  0  0  0  0  0  0  0  0  0  0  0
   -0.0126    2.9737    2.5794 H   0  0  0  0  0  0  0  0  0  0  0  0
    1.7482    3.1828    2.5031 H   0  0  0  0  0  0  0  0  0  0  0  0
    0.7279    3.8057    1.1889 H   0  0  0  0  0  0  0  0  0  0  0  0
  1  2  1  0  0  0  0
  2  3  1  0  0  0  0
  2  4  1  0  0  0  0
  2  5  1  0  0  0  0
  5  6  2  0  0  0  0
  5  7  1  0  0  0  0
  7  8  1  0  0  0  0
  7  9  1  0  0  0  0
  9 10  1  0  0  0  0
  9 11  1  0  0  0  0
  9 17  1  0  0  0  0
 11 12  1  0  0  0  0
 11 13  1  0  0  0  0
 11 14  1  0  0  0  0
 14 15  1  0  0  0  0
 14 16  2  0  0  0  0
 17 18  2  0  0  0  0
 17 19  1  0  0  0  0
 19 20  1  0  0  0  0
 19 21  1  0  0  0  0
 21 22  1  0  0  0  0
 21 23  1  0  0  0  0
 21 24  1  0  0  0  0
M  CHG  1  15  -1
M  END
$$$$

  -OEChem-03222214023D

 24 23  0     1  0  0  0  0  0999 V2000
   -2.7683   -3.7377    0.4863 H   0  0  0  0  0  0  0  0  0  0  0  0
   -2.7401   -2.7140    0.1032 C   0  0  0  0  0  0  0  0  0  0  0  0
   -3.4057   -2.0921    0.7069 H   0  0  0  0  0  0  0  0  0  0  0  0
   -3.0928   -2.7145   -0.9313 H   0  0  0  0  0  0  0  0  0  0  0  0
   -1.3246   -2.1685    0.1646 C   0  0  0  0  0  0  0  0  0  0  0  0
   -0.4273   -2.8677    0.6131 O   0  0  0  0  0  0  0  0  0  0  0  0
   -1.0844   -0.8803   -0.2563 N   0  0  0  0  0  0  0  0  0  0  0  0
   -1.8837   -0.3117   -0.5281 H   0  0  0  0  0  0  0  0  0  0  0  0
    0.2108   -0.1928   -0.2529 C   0  0  1  0  0  0  0  0  0  0  0  0
    0.8503   -0.7090    0.4695 H   0  0  0  0  0  0  0  0  0  0  0  0
    0.9046   -0.3644   -1.6255 C   0  0  0  0  0  0  0  0  0  0  0  0
    1.9834   -0.3413   -1.4547 H   0  0  0  0  0  0  0  0  0  0  0  0
    0.6644   -1.3533   -2.0269 H   0  0  0  0  0  0  0  0  0  0  0  0
    0.6260    0.6852   -2.6997 C   0  0  0  0  0  0  0  0  0  0  0  0
    0.6545    1.8978   -2.3844 O   0  5  0  0  0  0  0  0  0  0  0  0
    0.4165    0.2572   -3.8607 O   0  0  0  0  0  0  0  0  0  0  0  0
    0.0487    1.2448    0.3096 C   0  0  0  0  0  0  0  0  0  0  0  0
   -1.0695    1.7615    0.3380 O   0  0  0  0  0  0  0  0  0  0  0  0
    0.9791    1.7067    1.2261 N   0  0  0  0  0  0  0  0  0  0  0  0
    1.9080    1.3099    1.1337 H   0  0  0  0  0  0  0  0  0  0  0  0
    0.8496    2.9982    1.8853 C   0  0  0  0  0  0  0  0  0  0  0  0
   -0.0424    3.0173    2.5195 H   0  0  0  0  0  0  0  0  0  0  0  0
    1.7240    3.1869    2.5148 H   0  0  0  0  0  0  0  0  0  0  0  0
    0.7747    3.7998    1.1432 H   0  0  0  0  0  0  0  0  0  0  0  0
  1  2  1  0  0  0  0
  2  3  1  0  0  0  0
  2  4  1  0  0  0  0
  2  5  1  0  0  0  0
  5  6  2  0  0  0  0
  5  7  1  0  0  0  0
  7  8  1  0  0  0  0
  7  9  1  0  0  0  0
  9 10  1  0  0  0  0
  9 11  1  0  0  0  0
  9 17  1  0  0  0  0
 11 12  1  0  0  0  0
 11 13  1  0  0  0  0
 11 14  1  0  0  0  0
 14 15  1  0  0  0  0
 14 16  2  0  0  0  0
 17 18  2  0  0  0  0
 17 19  1  0  0  0  0
 19 20  1  0  0  0  0
 19 21  1  0  0  0  0
 21 22  1  0  0  0  0
 21 23  1  0  0  0  0
 21 24  1  0  0  0  0
M  CHG  1  15  -1
M  END
$$$$

  -OEChem-03222214023D

 24 23  0     1  0  0  0  0  0999 V2000
   -2.7775   -3.7482    0.4642 H   0  0  0  0  0  0  0  0  0  0  0  0
   -2.7383   -2.7254    0.0798 C   0  0  0  0  0  0  0  0  0  0  0  0
   -3.4278   -2.1039    0.6566 H   0  0  0  0  0  0  0  0  0  0  0  0
   -3.0528   -2.7298   -0.9670 H   0  0  0  0  0  0  0  0  0  0  0  0
   -1.3278   -2.1744    0.1908 C   0  0  0  0  0  0  0  0  0  0  0  0
   -0.4457   -2.8655    0.6806 O   0  0  0  0  0  0  0  0  0  0  0  0
   -1.0744   -0.8929   -0.2420 N   0  0  0  0  0  0  0  0  0  0  0  0
   -1.8603   -0.3402   -0.5782 H   0  0  0  0  0  0  0  0  0  0  0  0
    0.2250   -0.2132   -0.2336 C   0  0  1  0  0  0  0  0  0  0  0  0
    0.8670   -0.7295    0.4864 H   0  0  0  0  0  0  0  0  0  0  0  0
    0.9006   -0.3755   -1.6135 C   0  0  0  0  0  0  0  0  0  0  0  0
    1.9827   -0.3638   -1.4633 H   0  0  0  0  0  0  0  0  0  0  0  0
    0.6455   -1.3525   -2.0340 H   0  0  0  0  0  0  0  0  0  0  0  0
    0.5933    0.7082   -2.6412 C   0  0  0  0  0  0  0  0  0  0  0  0
    0.9085    1.8897   -2.3603 O   0  5  0  0  0  0  0  0  0  0  0  0
    0.0568    0.3463   -3.7165 O   0  0  0  0  0  0  0  0  0  0  0  0
    0.0656    1.2319    0.3106 C   0  0  0  0  0  0  0  0  0  0  0  0
   -1.0427    1.7687    0.2914 O   0  0  0  0  0  0  0  0  0  0  0  0
    0.9859    1.7042    1.2315 N   0  0  0  0  0  0  0  0  0  0  0  0
    1.9131    1.2999    1.1570 H   0  0  0  0  0  0  0  0  0  0  0  0
    0.8616    3.0154    1.8518 C   0  0  0  0  0  0  0  0  0  0  0  0
   -0.0498    3.0696    2.4559 H   0  0  0  0  0  0  0  0  0  0  0  0
    1.7188    3.2046    2.5045 H   0  0  0  0  0  0  0  0  0  0  0  0
    0.8269    3.7978    1.0865 H   0  0  0  0  0  0  0  0  0  0  0  0
  1  2  1  0  0  0  0
  2  3  1  0  0  0  0
  2  4  1  0  0  0  0
  2  5  1  0  0  0  0
  5  6  2  0  0  0  0
  5  7  1  0  0  0  0
  7  8  1  0  0  0  0
  7  9  1  0  0  0  0
  9 10  1  0  0  0  0
  9 11  1  0  0  0  0
  9 17  1  0  0  0  0
 11 12  1  0  0  0  0
 11 13  1  0  0  0  0
 11 14  1  0  0  0  0
 14 15  1  0  0  0  0
 14 16  2  0  0  0  0
 17 18  2  0  0  0  0
 17 19  1  0  0  0  0
 19 20  1  0  0  0  0
 19 21  1  0  0  0  0
 21 22  1  0  0  0  0
 21 23  1  0  0  0  0
 21 24  1  0  0  0  0
M  CHG  1  15  -1
M  END
$$$$

  -OEChem-03222214023D

 24 23  0     1  0  0  0  0  0999 V2000
   -2.7677   -3.7762    0.4278 H   0  0  0  0  0  0  0  0  0  0  0  0
   -2.7304   -2.7527    0.0452 C   0  0  0  0  0  0  0  0  0  0  0  0
   -3.4564   -2.1441    0.5899 H   0  0  0  0  0  0  0  0  0  0  0  0
   -2.9971   -2.7627   -1.0148 H   0  0  0  0  0  0  0  0  0  0  0  0
   -1.3369   -2.1759    0.2198 C   0  0  0  0  0  0  0  0  0  0  0  0
   -0.4698   -2.8451    0.7642 O   0  0  0  0  0  0  0  0  0  0  0  0
   -1.0805   -0.8992   -0.2250 N   0  0  0  0  0  0  0  0  0  0  0  0
   -1.8447   -0.3845   -0.6582 H   0  0  0  0  0  0  0  0  0  0  0  0
    0.2182   -0.2194   -0.2130 C   0  0  1  0  0  0  0  0  0  0  0  0
    0.8596   -0.7344    0.5087 H   0  0  0  0  0  0  0  0  0  0  0  0
    0.8877   -0.3796   -1.5914 C   0  0  0  0  0  0  0  0  0  0  0  0
    1.9716   -0.3692   -1.4531 H   0  0  0  0  0  0  0  0  0  0  0  0
    0.6281   -1.3492   -2.0256 H   0  0  0  0  0  0  0  0  0  0  0  0
    0.5496    0.7257   -2.5810 C   0  0  0  0  0  0  0  0  0  0  0  0
    1.1058    1.8382   -2.4111 O   0  5  0  0  0  0  0  0  0  0  0  0
   -0.2604    0.4562   -3.5011 O   0  0  0  0  0  0  0  0  0  0  0  0
    0.0747    1.2340    0.3112 C   0  0  0  0  0  0  0  0  0  0  0  0
   -1.0168    1.7992    0.2553 O   0  0  0  0  0  0  0  0  0  0  0  0
    0.9964    1.7077    1.2298 N   0  0  0  0  0  0  0  0  0  0  0  0
    1.9145    1.2796    1.1768 H   0  0  0  0  0  0  0  0  0  0  0  0
    0.8949    3.0347    1.8200 C   0  0  0  0  0  0  0  0  0  0  0  0
   -0.0233    3.1237    2.4094 H   0  0  0  0  0  0  0  0  0  0  0  0
    1.7470    3.2171    2.4812 H   0  0  0  0  0  0  0  0  0  0  0  0
    0.8901    3.8010    1.0380 H   0  0  0  0  0  0  0  0  0  0  0  0
  1  2  1  0  0  0  0
  2  3  1  0  0  0  0
  2  4  1  0  0  0  0
  2  5  1  0  0  0  0
  5  6  2  0  0  0  0
  5  7  1  0  0  0  0
  7  8  1  0  0  0  0
  7  9  1  0  0  0  0
  9 10  1  0  0  0  0
  9 11  1  0  0  0  0
  9 17  1  0  0  0  0
 11 12  1  0  0  0  0
 11 13  1  0  0  0  0
 11 14  1  0  0  0  0
 14 15  1  0  0  0  0
 14 16  2  0  0  0  0
 17 18  2  0  0  0  0
 17 19  1  0  0  0  0
 19 20  1  0  0  0  0
 19 21  1  0  0  0  0
 21 22  1  0  0  0  0
 21 23  1  0  0  0  0
 21 24  1  0  0  0  0
M  CHG  1  15  -1
M  END
$$$$

  -OEChem-03222214023D

 24 23  0     1  0  0  0  0  0999 V2000
   -2.7505   -3.8057    0.3884 H   0  0  0  0  0  0  0  0  0  0  0  0
   -2.7183   -2.7812    0.0076 C   0  0  0  0  0  0  0  0  0  0  0  0
   -3.4807   -2.1887    0.5193 H   0  0  0  0  0  0  0  0  0  0  0  0
   -2.9376   -2.7959   -1.0632 H   0  0  0  0  0  0  0  0  0  0  0  0
   -1.3469   -2.1736    0.2436 C   0  0  0  0  0  0  0  0  0  0  0  0
   -0.4942   -2.8181    0.8384 O   0  0  0  0  0  0  0  0  0  0  0  0
   -1.0936   -0.8987   -0.2074 N   0  0  0  0  0  0  0  0  0  0  0  0
   -1.8294   -0.4292   -0.7330 H   0  0  0  0  0  0  0  0  0  0  0  0
    0.2019   -0.2144   -0.1932 C   0  0  1  0  0  0  0  0  0  0  0  0
    0.8434   -0.7284    0.5288 H   0  0  0  0  0  0  0  0  0  0  0  0
    0.8671   -0.3794   -1.5700 C   0  0  0  0  0  0  0  0  0  0  0  0
    1.9524   -0.3669   -1.4401 H   0  0  0  0  0  0  0  0  0  0  0  0
    0.6059   -1.3461   -2.0091 H   0  0  0  0  0  0  0  0  0  0  0  0
    0.5033    0.7331   -2.5396 C   0  0  0  0  0  0  0  0  0  0  0  0
    1.2431    1.7470   -2.5542 O   0  5  0  0  0  0  0  0  0  0  0  0
   -0.5101    0.5631   -3.2612 O   0  0  0  0  0  0  0  0  0  0  0  0
    0.0793    1.2451    0.3183 C   0  0  0  0  0  0  0  0  0  0  0  0
   -0.9915    1.8426    0.2359 O   0  0  0  0  0  0  0  0  0  0  0  0
    1.0080    1.7148    1.2319 N   0  0  0  0  0  0  0  0  0  0  0  0
    1.9101    1.2512    1.2128 H   0  0  0  0  0  0  0  0  0  0  0  0
    0.9356    3.0531    1.8006 C   0  0  0  0  0  0  0  0  0  0  0  0
    0.0200    3.1712    2.3889 H   0  0  0  0  0  0  0  0  0  0  0  0
    1.7920    3.2282    2.4580 H   0  0  0  0  0  0  0  0  0  0  0  0
    0.9464    3.8061    1.0058 H   0  0  0  0  0  0  0  0  0  0  0  0
  1  2  1  0  0  0  0
  2  3  1  0  0  0  0
  2  4  1  0  0  0  0
  2  5  1  0  0  0  0
  5  6  2  0  0  0  0
  5  7  1  0  0  0  0
  7  8  1  0  0  0  0
  7  9  1  0  0  0  0
  9 10  1  0  0  0  0
  9 11  1  0  0  0  0
  9 17  1  0  0  0  0
 11 12  1  0  0  0  0
 11 13  1  0  0  0  0
 11 14  1  0  0  0  0
 14 15  1  0  0  0  0
 14 16  2  0  0  0  0
 17 18  2  0  0  0  0
 17 19  1  0  0  0  0
 19 20  1  0  0  0  0
 19 21  1  0  0  0  0
 21 22  1  0  0  0  0
 21 23  1  0  0  0  0
 21 24  1  0  0  0  0
M  CHG  1  15  -1
M  END
$$$$

  -OEChem-03222214023D

 24 23  0     1  0  0  0  0  0999 V2000
   -2.7313   -3.8238    0.3698 H   0  0  0  0  0  0  0  0  0  0  0  0
   -2.7081   -2.7993   -0.0114 C   0  0  0  0  0  0  0  0  0  0  0  0
   -3.4914   -2.2196    0.4832 H   0  0  0  0  0  0  0  0  0  0  0  0
   -2.9041   -2.8184   -1.0866 H   0  0  0  0  0  0  0  0  0  0  0  0
   -1.3525   -2.1692    0.2543 C   0  0  0  0  0  0  0  0  0  0  0  0
   -0.5037   -2.7980    0.8714 O   0  0  0  0  0  0  0  0  0  0  0  0
   -1.1085   -0.8928   -0.1975 N   0  0  0  0  0  0  0  0  0  0  0  0
   -1.8285   -0.4503   -0.7682 H   0  0  0  0  0  0  0  0  0  0  0  0
    0.1818   -0.2005   -0.1845 C   0  0  1  0  0  0  0  0  0  0  0  0
    0.8224   -0.7130    0.5393 H   0  0  0  0  0  0  0  0  0  0  0  0
    0.8521   -0.3733   -1.5565 C   0  0  0  0  0  0  0  0  0  0  0  0
    1.9370   -0.3531   -1.4228 H   0  0  0  0  0  0  0  0  0  0  0  0
    0.5983   -1.3437   -1.9918 H   0  0  0  0  0  0  0  0  0  0  0  0
    0.4770    0.7311   -2.5311 C   0  0  0  0  0  0  0  0  0  0  0  0
    1.3378    1.6131   -2.7683 O   0  5  0  0  0  0  0  0  0  0  0  0
   -0.6577    0.6607   -3.0648 O   0  0  0  0  0  0  0  0  0  0  0  0
    0.0748    1.2607    0.3232 C   0  0  0  0  0  0  0  0  0  0  0  0
   -0.9811    1.8809    0.2337 O   0  0  0  0  0  0  0  0  0  0  0  0
    1.0142    1.7221    1.2301 N   0  0  0  0  0  0  0  0  0  0  0  0
    1.9013    1.2298    1.2337 H   0  0  0  0  0  0  0  0  0  0  0  0
    0.9647    3.0606    1.8008 C   0  0  0  0  0  0  0  0  0  0  0  0
    0.0467    3.1975    2.3815 H   0  0  0  0  0  0  0  0  0  0  0  0
    1.8191    3.2165    2.4659 H   0  0  0  0  0  0  0  0  0  0  0  0
    0.9985    3.8147    1.0076 H   0  0  0  0  0  0  0  0  0  0  0  0
  1  2  1  0  0  0  0
  2  3  1  0  0  0  0
  2  4  1  0  0  0  0
  2  5  1  0  0  0  0
  5  6  2  0  0  0  0
  5  7  1  0  0  0  0
  7  8  1  0  0  0  0
  7  9  1  0  0  0  0
  9 10  1  0  0  0  0
  9 11  1  0  0  0  0
  9 17  1  0  0  0  0
 11 12  1  0  0  0  0
 11 13  1  0  0  0  0
 11 14  1  0  0  0  0
 14 15  1  0  0  0  0
 14 16  2  0  0  0  0
 17 18  2  0  0  0  0
 17 19  1  0  0  0  0
 19 20  1  0  0  0  0
 19 21  1  0  0  0  0
 21 22  1  0  0  0  0
 21 23  1  0  0  0  0
 21 24  1  0  0  0  0
M  CHG  1  15  -1
M  END
$$$$

  -OEChem-03222214023D

 24 23  0     1  0  0  0  0  0999 V2000
   -2.7173   -3.8322    0.3621 H   0  0  0  0  0  0  0  0  0  0  0  0
   -2.7017   -2.8073   -0.0186 C   0  0  0  0  0  0  0  0  0  0  0  0
   -3.4950   -2.2358    0.4695 H   0  0  0  0  0  0  0  0  0  0  0  0
   -2.8888   -2.8282   -1.0954 H   0  0  0  0  0  0  0  0  0  0  0  0
   -1.3553   -2.1627    0.2582 C   0  0  0  0  0  0  0  0  0  0  0  0
   -0.5055   -2.7825    0.8830 O   0  0  0  0  0  0  0  0  0  0  0  0
   -1.1208   -0.8839   -0.1918 N   0  0  0  0  0  0  0  0  0  0  0  0
   -1.8360   -0.4530   -0.7781 H   0  0  0  0  0  0  0  0  0  0  0  0
    0.1641   -0.1831   -0.1832 C   0  0  1  0  0  0  0  0  0  0  0  0
    0.8034   -0.6929    0.5437 H   0  0  0  0  0  0  0  0  0  0  0  0
    0.8443   -0.3651   -1.5499 C   0  0  0  0  0  0  0  0  0  0  0  0
    1.9279   -0.3348   -1.4062 H   0  0  0  0  0  0  0  0  0  0  0  0
    0.6014   -1.3421   -1.9758 H   0  0  0  0  0  0  0  0  0  0  0  0
    0.4700    0.7215   -2.5458 C   0  0  0  0  0  0  0  0  0  0  0  0
    1.3955    1.4313   -3.0089 O   0  5  0  0  0  0  0  0  0  0  0  0
   -0.7300    0.7646   -2.9141 O   0  0  0  0  0  0  0  0  0  0  0  0
    0.0677    1.2782    0.3254 C   0  0  0  0  0  0  0  0  0  0  0  0
   -0.9801    1.9120    0.2452 O   0  0  0  0  0  0  0  0  0  0  0  0
    1.0190    1.7309    1.2244 N   0  0  0  0  0  0  0  0  0  0  0  0
    1.8936    1.2170    1.2438 H   0  0  0  0  0  0  0  0  0  0  0  0
    0.9816    3.0612    1.8147 C   0  0  0  0  0  0  0  0  0  0  0  0
    0.0748    3.1896    2.4143 H   0  0  0  0  0  0  0  0  0  0  0  0
    1.8486    3.2071    2.4654 H   0  0  0  0  0  0  0  0  0  0  0  0
    1.0013    3.8263    1.0317 H   0  0  0  0  0  0  0  0  0  0  0  0
  1  2  1  0  0  0  0
  2  3  1  0  0  0  0
  2  4  1  0  0  0  0
  2  5  1  0  0  0  0
  5  6  2  0  0  0  0
  5  7  1  0  0  0  0
  7  8  1  0  0  0  0
  7  9  1  0  0  0  0
  9 10  1  0  0  0  0
  9 11  1  0  0  0  0
  9 17  1  0  0  0  0
 11 12  1  0  0  0  0
 11 13  1  0  0  0  0
 11 14  1  0  0  0  0
 14 15  1  0  0  0  0
 14 16  2  0  0  0  0
 17 18  2  0  0  0  0
 17 19  1  0  0  0  0
 19 20  1  0  0  0  0
 19 21  1  0  0  0  0
 21 22  1  0  0  0  0
 21 23  1  0  0  0  0
 21 24  1  0  0  0  0
M  CHG  1  15  -1
M  END
$$$$

  -OEChem-03222214023D

 24 23  0     1  0  0  0  0  0999 V2000
   -2.7100   -3.8303    0.3655 H   0  0  0  0  0  0  0  0  0  0  0  0
   -2.7005   -2.8042   -0.0120 C   0  0  0  0  0  0  0  0  0  0  0  0
   -3.4902   -2.2358    0.4855 H   0  0  0  0  0  0  0  0  0  0  0  0
   -2.8975   -2.8217   -1.0870 H   0  0  0  0  0  0  0  0  0  0  0  0
   -1.3530   -2.1571    0.2545 C   0  0  0  0  0  0  0  0  0  0  0  0
   -0.4942   -2.7776    0.8664 O   0  0  0  0  0  0  0  0  0  0  0  0
   -1.1278   -0.8752   -0.1914 N   0  0  0  0  0  0  0  0  0  0  0  0
   -1.8519   -0.4405   -0.7639 H   0  0  0  0  0  0  0  0  0  0  0  0
    0.1523   -0.1661   -0.1912 C   0  0  1  0  0  0  0  0  0  0  0  0
    0.7902   -0.6736    0.5386 H   0  0  0  0  0  0  0  0  0  0  0  0
    0.8459   -0.3561   -1.5519 C   0  0  0  0  0  0  0  0  0  0  0  0
    1.9272   -0.3142   -1.3953 H   0  0  0  0  0  0  0  0  0  0  0  0
    0.6170   -1.3419   -1.9649 H   0  0  0  0  0  0  0  0  0  0  0  0
    0.4820    0.7069   -2.5784 C   0  0  0  0  0  0  0  0  0  0  0  0
    1.4192    1.2063   -3.2467 O   0  5  0  0  0  0  0  0  0  0  0  0
   -0.7397    0.8929   -2.8004 O   0  0  0  0  0  0  0  0  0  0  0  0
    0.0600    1.2937    0.3233 C   0  0  0  0  0  0  0  0  0  0  0  0
   -0.9917    1.9242    0.2765 O   0  0  0  0  0  0  0  0  0  0  0  0
    1.0229    1.7405    1.2133 N   0  0  0  0  0  0  0  0  0  0  0  0
    1.8938    1.2201    1.2300 H   0  0  0  0  0  0  0  0  0  0  0  0
    0.9838    3.0553    1.8376 C   0  0  0  0  0  0  0  0  0  0  0  0
    0.0870    3.1597    2.4566 H   0  0  0  0  0  0  0  0  0  0  0  0
    1.8613    3.1932    2.4759 H   0  0  0  0  0  0  0  0  0  0  0  0
    0.9816    3.8407    1.0748 H   0  0  0  0  0  0  0  0  0  0  0  0
  1  2  1  0  0  0  0
  2  3  1  0  0  0  0
  2  4  1  0  0  0  0
  2  5  1  0  0  0  0
  5  6  2  0  0  0  0
  5  7  1  0  0  0  0
  7  8  1  0  0  0  0
  7  9  1  0  0  0  0
  9 10  1  0  0  0  0
  9 11  1  0  0  0  0
  9 17  1  0  0  0  0
 11 12  1  0  0  0  0
 11 13  1  0  0  0  0
 11 14  1  0  0  0  0
 14 15  1  0  0  0  0
 14 16  2  0  0  0  0
 17 18  2  0  0  0  0
 17 19  1  0  0  0  0
 19 20  1  0  0  0  0
 19 21  1  0  0  0  0
 21 22  1  0  0  0  0
 21 23  1  0  0  0  0
 21 24  1  0  0  0  0
M  CHG  1  15  -1
M  END
$$$$

  -OEChem-03222214023D

 24 23  0     1  0  0  0  0  0999 V2000
   -2.7085   -3.8201    0.3872 H   0  0  0  0  0  0  0  0  0  0  0  0
   -2.7048   -2.7940    0.0093 C   0  0  0  0  0  0  0  0  0  0  0  0
   -3.4795   -2.2228    0.5267 H   0  0  0  0  0  0  0  0  0  0  0  0
   -2.9294   -2.8114   -1.0603 H   0  0  0  0  0  0  0  0  0  0  0  0
   -1.3480   -2.1526    0.2404 C   0  0  0  0  0  0  0  0  0  0  0  0
   -0.4740   -2.7810    0.8214 O   0  0  0  0  0  0  0  0  0  0  0  0
   -1.1324   -0.8668   -0.1998 N   0  0  0  0  0  0  0  0  0  0  0  0
   -1.8789   -0.4139   -0.7263 H   0  0  0  0  0  0  0  0  0  0  0  0
    0.1427   -0.1486   -0.2101 C   0  0  1  0  0  0  0  0  0  0  0  0
    0.7789   -0.6520    0.5238 H   0  0  0  0  0  0  0  0  0  0  0  0
    0.8576   -0.3446   -1.5611 C   0  0  0  0  0  0  0  0  0  0  0  0
    1.9350   -0.2859   -1.3843 H   0  0  0  0  0  0  0  0  0  0  0  0
    0.6491   -1.3414   -1.9579 H   0  0  0  0  0  0  0  0  0  0  0  0
    0.5160    0.6877   -2.6282 C   0  0  0  0  0  0  0  0  0  0  0  0
    1.4141    0.9492   -3.4648 O   0  5  0  0  0  0  0  0  0  0  0  0
   -0.6769    1.0647   -2.7187 O   0  0  0  0  0  0  0  0  0  0  0  0
    0.0482    1.3083    0.3131 C   0  0  0  0  0  0  0  0  0  0  0  0
   -1.0158    1.9206    0.3183 O   0  0  0  0  0  0  0  0  0  0  0  0
    1.0230    1.7492    1.1935 N   0  0  0  0  0  0  0  0  0  0  0  0
    1.8942    1.2293    1.1983 H   0  0  0  0  0  0  0  0  0  0  0  0
    0.9732    3.0398    1.8659 C   0  0  0  0  0  0  0  0  0  0  0  0
    0.0980    3.0966    2.5212 H   0  0  0  0  0  0  0  0  0  0  0  0
    1.8706    3.1800    2.4754 H   0  0  0  0  0  0  0  0  0  0  0  0
    0.9211    3.8510    1.1324 H   0  0  0  0  0  0  0  0  0  0  0  0
  1  2  1  0  0  0  0
  2  3  1  0  0  0  0
  2  4  1  0  0  0  0
  2  5  1  0  0  0  0
  5  6  2  0  0  0  0
  5  7  1  0  0  0  0
  7  8  1  0  0  0  0
  7  9  1  0  0  0  0
  9 10  1  0  0  0  0
  9 11  1  0  0  0  0
  9 17  1  0  0  0  0
 11 12  1  0  0  0  0
 11 13  1  0  0  0  0
 11 14  1  0  0  0  0
 14 15  1  0  0  0  0
 14 16  2  0  0  0  0
 17 18  2  0  0  0  0
 17 19  1  0  0  0  0
 19 20  1  0  0  0  0
 19 21  1  0  0  0  0
 21 22  1  0  0  0  0
 21 23  1  0  0  0  0
 21 24  1  0  0  0  0
M  CHG  1  15  -1
M  END
$$$$

  -OEChem-03222214023D

 24 23  0     1  0  0  0  0  0999 V2000
   -2.7181   -3.7986    0.4188 H   0  0  0  0  0  0  0  0  0  0  0  0
   -2.7150   -2.7723    0.0418 C   0  0  0  0  0  0  0  0  0  0  0  0
   -3.4567   -2.1902    0.5943 H   0  0  0  0  0  0  0  0  0  0  0  0
   -2.9874   -2.7839   -1.0166 H   0  0  0  0  0  0  0  0  0  0  0  0
   -1.3395   -2.1526    0.2124 C   0  0  0  0  0  0  0  0  0  0  0  0
   -0.4466   -2.8007    0.7403 O   0  0  0  0  0  0  0  0  0  0  0  0
   -1.1300   -0.8624   -0.2179 N   0  0  0  0  0  0  0  0  0  0  0  0
   -1.9068   -0.3754   -0.6619 H   0  0  0  0  0  0  0  0  0  0  0  0
    0.1430   -0.1393   -0.2348 C   0  0  1  0  0  0  0  0  0  0  0  0
    0.7765   -0.6413    0.5024 H   0  0  0  0  0  0  0  0  0  0  0  0
    0.8775   -0.3385   -1.5780 C   0  0  0  0  0  0  0  0  0  0  0  0
    1.9512   -0.2737   -1.3835 H   0  0  0  0  0  0  0  0  0  0  0  0
    0.6796   -1.3433   -1.9602 H   0  0  0  0  0  0  0  0  0  0  0  0
    0.5694    0.6648   -2.6846 C   0  0  0  0  0  0  0  0  0  0  0  0
    1.3710    0.6775   -3.6497 O   0  5  0  0  0  0  0  0  0  0  0  0
   -0.5139    1.2930   -2.6534 O   0  0  0  0  0  0  0  0  0  0  0  0
    0.0356    1.3116    0.3048 C   0  0  0  0  0  0  0  0  0  0  0  0
   -1.0495    1.8843    0.3702 O   0  0  0  0  0  0  0  0  0  0  0  0
    1.0142    1.7519    1.1821 N   0  0  0  0  0  0  0  0  0  0  0  0
    1.9002    1.2586    1.1517 H   0  0  0  0  0  0  0  0  0  0  0  0
    0.9428    3.0203    1.8937 C   0  0  0  0  0  0  0  0  0  0  0  0
    0.1000    3.0204    2.5923 H   0  0  0  0  0  0  0  0  0  0  0  0
    1.8628    3.1839    2.4624 H   0  0  0  0  0  0  0  0  0  0  0  0
    0.8190    3.8481    1.1879 H   0  0  0  0  0  0  0  0  0  0  0  0
  1  2  1  0  0  0  0
  2  3  1  0  0  0  0
  2  4  1  0  0  0  0
  2  5  1  0  0  0  0
  5  6  2  0  0  0  0
  5  7  1  0  0  0  0
  7  8  1  0  0  0  0
  7  9  1  0  0  0  0
  9 10  1  0  0  0  0
  9 11  1  0  0  0  0
  9 17  1  0  0  0  0
 11 12  1  0  0  0  0
 11 13  1  0  0  0  0
 11 14  1  0  0  0  0
 14 15  1  0  0  0  0
 14 16  2  0  0  0  0
 17 18  2  0  0  0  0
 17 19  1  0  0  0  0
 19 20  1  0  0  0  0
 19 21  1  0  0  0  0
 21 22  1  0  0  0  0
 21 23  1  0  0  0  0
 21 24  1  0  0  0  0
M  CHG  1  15  -1
M  END
$$$$

  -OEChem-03222214023D

 24 23  0     1  0  0  0  0  0999 V2000
   -2.7430   -3.7375    0.5036 H   0  0  0  0  0  0  0  0  0  0  0  0
   -2.7307   -2.7103    0.1289 C   0  0  0  0  0  0  0  0  0  0  0  0
   -3.3627   -2.0922    0.7714 H   0  0  0  0  0  0  0  0  0  0  0  0
   -3.1354   -2.7001   -0.8863 H   0  0  0  0  0  0  0  0  0  0  0  0
   -1.3120   -2.1694    0.1240 C   0  0  0  0  0  0  0  0  0  0  0  0
   -0.3937   -2.8835    0.4996 O   0  0  0  0  0  0  0  0  0  0  0  0
   -1.0933   -0.8703   -0.2753 N   0  0  0  0  0  0  0  0  0  0  0  0
   -1.9077   -0.2851   -0.4510 H   0  0  0  0  0  0  0  0  0  0  0  0
    0.1934   -0.1657   -0.2741 C   0  0  1  0  0  0  0  0  0  0  0  0
    0.8269   -0.6805    0.4549 H   0  0  0  0  0  0  0  0  0  0  0  0
    0.9247   -0.3399   -1.6334 C   0  0  0  0  0  0  0  0  0  0  0  0
    1.9669   -0.5816   -1.4100 H   0  0  0  0  0  0  0  0  0  0  0  0
    0.5059   -1.2070   -2.1512 H   0  0  0  0  0  0  0  0  0  0  0  0
    0.9722    0.8139   -2.6378 C   0  0  0  0  0  0  0  0  0  0  0  0
    1.5883    0.5622   -3.7014 O   0  5  0  0  0  0  0  0  0  0  0  0
    0.4780    1.9295   -2.3600 O   0  0  0  0  0  0  0  0  0  0  0  0
    0.0202    1.2597    0.3172 C   0  0  0  0  0  0  0  0  0  0  0  0
   -1.1101    1.7459    0.3945 O   0  0  0  0  0  0  0  0  0  0  0  0
    0.9578    1.7138    1.2306 N   0  0  0  0  0  0  0  0  0  0  0  0
    1.8930    1.3401    1.1077 H   0  0  0  0  0  0  0  0  0  0  0  0
    0.8170    2.9849    1.9265 C   0  0  0  0  0  0  0  0  0  0  0  0
   -0.0640    2.9716    2.5762 H   0  0  0  0  0  0  0  0  0  0  0  0
    1.6987    3.1726    2.5460 H   0  0  0  0  0  0  0  0  0  0  0  0
    0.7155    3.8043    1.2073 H   0  0  0  0  0  0  0  0  0  0  0  0
  1  2  1  0  0  0  0
  2  3  1  0  0  0  0
  2  4  1  0  0  0  0
  2  5  1  0  0  0  0
  5  6  2  0  0  0  0
  5  7  1  0  0  0  0
  7  8  1  0  0  0  0
  7  9  1  0  0  0  0
  9 10  1  0  0  0  0
  9 11  1  0  0  0  0
  9 17  1  0  0  0  0
 11 12  1  0  0  0  0
 11 13  1  0  0  0  0
 11 14  1  0  0  0  0
 14 15  1  0  0  0  0
 14 16  2  0  0  0  0
 17 18  2  0  0  0  0
 17 19  1  0  0  0  0
 19 20  1  0  0  0  0
 19 21  1  0  0  0  0
 21 22  1  0  0  0  0
 21 23  1  0  0  0  0
 21 24  1  0  0  0  0
M  CHG  1  15  -1
M  END
$$$$

  -OEChem-03222214023D

 24 23  0     1  0  0  0  0  0999 V2000
   -2.7569   -3.7232    0.5179 H   0  0  0  0  0  0  0  0  0  0  0  0
   -2.7333   -2.6981    0.1380 C   0  0  0  0  0  0  0  0  0  0  0  0
   -3.3556   -2.0692    0.7796 H   0  0  0  0  0  0  0  0  0  0  0  0
   -3.1412   -2.6878   -0.8759 H   0  0  0  0  0  0  0  0  0  0  0  0
   -1.3081   -2.1746    0.1251 C   0  0  0  0  0  0  0  0  0  0  0  0
   -0.3965   -2.8993    0.4962 O   0  0  0  0  0  0  0  0  0  0  0  0
   -1.0755   -0.8783   -0.2749 N   0  0  0  0  0  0  0  0  0  0  0  0
   -1.8845   -0.2789   -0.4273 H   0  0  0  0  0  0  0  0  0  0  0  0
    0.2206   -0.1895   -0.2680 C   0  0  1  0  0  0  0  0  0  0  0  0
    0.8633   -0.7096    0.4491 H   0  0  0  0  0  0  0  0  0  0  0  0
    0.9188   -0.3429   -1.6485 C   0  0  0  0  0  0  0  0  0  0  0  0
    1.9612   -0.6106   -1.4597 H   0  0  0  0  0  0  0  0  0  0  0  0
    0.4704   -1.1892   -2.1762 H   0  0  0  0  0  0  0  0  0  0  0  0
    0.9644    0.8364   -2.6234 C   0  0  0  0  0  0  0  0  0  0  0  0
    1.2748    0.5394   -3.8023 O   0  5  0  0  0  0  0  0  0  0  0  0
    0.8871    2.0105   -2.1937 O   0  0  0  0  0  0  0  0  0  0  0  0
    0.0282    1.2326    0.3261 C   0  0  0  0  0  0  0  0  0  0  0  0
   -1.1040    1.7213    0.3574 O   0  0  0  0  0  0  0  0  0  0  0  0
    0.9457    1.6968    1.2538 N   0  0  0  0  0  0  0  0  0  0  0  0
    1.8891    1.3471    1.1230 H   0  0  0  0  0  0  0  0  0  0  0  0
    0.7890    2.9836    1.9160 C   0  0  0  0  0  0  0  0  0  0  0  0
   -0.1187    2.9932    2.5278 H   0  0  0  0  0  0  0  0  0  0  0  0
    1.6455    3.1763    2.5684 H   0  0  0  0  0  0  0  0  0  0  0  0
    0.7266    3.7882    1.1759 H   0  0  0  0  0  0  0  0  0  0  0  0
  1  2  1  0  0  0  0
  2  3  1  0  0  0  0
  2  4  1  0  0  0  0
  2  5  1  0  0  0  0
  5  6  2  0  0  0  0
  5  7  1  0  0  0  0
  7  8  1  0  0  0  0
  7  9  1  0  0  0  0
  9 10  1  0  0  0  0
  9 11  1  0  0  0  0
  9 17  1  0  0  0  0
 11 12  1  0  0  0  0
 11 13  1  0  0  0  0
 11 14  1  0  0  0  0
 14 15  1  0  0  0  0
 14 16  2  0  0  0  0
 17 18  2  0  0  0  0
 17 19  1  0  0  0  0
 19 20  1  0  0  0  0
 19 21  1  0  0  0  0
 21 22  1  0  0  0  0
 21 23  1  0  0  0  0
 21 24  1  0  0  0  0
M  CHG  1  15  -1
M  END
$$$$

  -OEChem-03222214023D

 24 23  0     1  0  0  0  0  0999 V2000
   -2.7759   -3.7185    0.5223 H   0  0  0  0  0  0  0  0  0  0  0  0
   -2.7395   -2.6955    0.1377 C   0  0  0  0  0  0  0  0  0  0  0  0
   -3.3646   -2.0587    0.7687 H   0  0  0  0  0  0  0  0  0  0  0  0
   -3.1355   -2.6873   -0.8809 H   0  0  0  0  0  0  0  0  0  0  0  0
   -1.3100   -2.1832    0.1387 C   0  0  0  0  0  0  0  0  0  0  0  0
   -0.4088   -2.9116    0.5273 O   0  0  0  0  0  0  0  0  0  0  0  0
   -1.0617   -0.8926   -0.2702 N   0  0  0  0  0  0  0  0  0  0  0  0
   -1.8637   -0.2899   -0.4446 H   0  0  0  0  0  0  0  0  0  0  0  0
    0.2408   -0.2158   -0.2567 C   0  0  1  0  0  0  0  0  0  0  0  0
    0.8876   -0.7378    0.4554 H   0  0  0  0  0  0  0  0  0  0  0  0
    0.9186   -0.3495   -1.6470 C   0  0  0  0  0  0  0  0  0  0  0  0
    1.9622   -0.6292   -1.4847 H   0  0  0  0  0  0  0  0  0  0  0  0
    0.4547   -1.1770   -2.1913 H   0  0  0  0  0  0  0  0  0  0  0  0
    0.9463    0.8697   -2.5694 C   0  0  0  0  0  0  0  0  0  0  0  0
    0.9363    0.6266   -3.8003 O   0  5  0  0  0  0  0  0  0  0  0  0
    1.2278    1.9878   -2.0747 O   0  0  0  0  0  0  0  0  0  0  0  0
    0.0409    1.2105    0.3252 C   0  0  0  0  0  0  0  0  0  0  0  0
   -1.0848    1.7146    0.3044 O   0  0  0  0  0  0  0  0  0  0  0  0
    0.9427    1.6854    1.2619 N   0  0  0  0  0  0  0  0  0  0  0  0
    1.8897    1.3432    1.1343 H   0  0  0  0  0  0  0  0  0  0  0  0
    0.7818    2.9900    1.8872 C   0  0  0  0  0  0  0  0  0  0  0  0
   -0.1412    3.0239    2.4747 H   0  0  0  0  0  0  0  0  0  0  0  0
    1.6233    3.1905    2.5567 H   0  0  0  0  0  0  0  0  0  0  0  0
    0.7472    3.7762    1.1256 H   0  0  0  0  0  0  0  0  0  0  0  0
  1  2  1  0  0  0  0
  2  3  1  0  0  0  0
  2  4  1  0  0  0  0
  2  5  1  0  0  0  0
  5  6  2  0  0  0  0
  5  7  1  0  0  0  0
  7  8  1  0  0  0  0
  7  9  1  0  0  0  0
  9 10  1  0  0  0  0
  9 11  1  0  0  0  0
  9 17  1  0  0  0  0
 11 12  1  0  0  0  0
 11 13  1  0  0  0  0
 11 14  1  0  0  0  0
 14 15  1  0  0  0  0
 14 16  2  0  0  0  0
 17 18  2  0  0  0  0
 17 19  1  0  0  0  0
 19 20  1  0  0  0  0
 19 21  1  0  0  0  0
 21 22  1  0  0  0  0
 21 23  1  0  0  0  0
 21 24  1  0  0  0  0
M  CHG  1  15  -1
M  END
$$$$

  -OEChem-03222214023D

 24 23  0     1  0  0  0  0  0999 V2000
   -2.7864   -3.7260    0.5130 H   0  0  0  0  0  0  0  0  0  0  0  0
   -2.7438   -2.7045    0.1251 C   0  0  0  0  0  0  0  0  0  0  0  0
   -3.3832   -2.0661    0.7399 H   0  0  0  0  0  0  0  0  0  0  0  0
   -3.1179   -2.7013   -0.9018 H   0  0  0  0  0  0  0  0  0  0  0  0
   -1.3156   -2.1899    0.1551 C   0  0  0  0  0  0  0  0  0  0  0  0
   -0.4229   -2.9119    0.5746 O   0  0  0  0  0  0  0  0  0  0  0  0
   -1.0588   -0.9044   -0.2642 N   0  0  0  0  0  0  0  0  0  0  0  0
   -1.8554   -0.3100   -0.4848 H   0  0  0  0  0  0  0  0  0  0  0  0
    0.2456   -0.2323   -0.2450 C   0  0  1  0  0  0  0  0  0  0  0  0
    0.8905   -0.7544    0.4686 H   0  0  0  0  0  0  0  0  0  0  0  0
    0.9214   -0.3571   -1.6338 C   0  0  0  0  0  0  0  0  0  0  0  0
    1.9669   -0.6361   -1.4813 H   0  0  0  0  0  0  0  0  0  0  0  0
    0.4571   -1.1741   -2.1937 H   0  0  0  0  0  0  0  0  0  0  0  0
    0.9288    0.8930   -2.5098 C   0  0  0  0  0  0  0  0  0  0  0  0
    0.6218    0.7446   -3.7174 O   0  5  0  0  0  0  0  0  0  0  0  0
    1.4572    1.9274   -2.0314 O   0  0  0  0  0  0  0  0  0  0  0  0
    0.0529    1.2015    0.3201 C   0  0  0  0  0  0  0  0  0  0  0  0
   -1.0621    1.7246    0.2638 O   0  0  0  0  0  0  0  0  0  0  0  0
    0.9493    1.6819    1.2587 N   0  0  0  0  0  0  0  0  0  0  0  0
    1.8950    1.3322    1.1402 H   0  0  0  0  0  0  0  0  0  0  0  0
    0.7966    3.0002    1.8565 C   0  0  0  0  0  0  0  0  0  0  0  0
   -0.1343    3.0572    2.4296 H   0  0  0  0  0  0  0  0  0  0  0  0
    1.6309    3.2032    2.5342 H   0  0  0  0  0  0  0  0  0  0  0  0
    0.7832    3.7715    1.0793 H   0  0  0  0  0  0  0  0  0  0  0  0
  1  2  1  0  0  0  0
  2  3  1  0  0  0  0
  2  4  1  0  0  0  0
  2  5  1  0  0  0  0
  5  6  2  0  0  0  0
  5  7  1  0  0  0  0
  7  8  1  0  0  0  0
  7  9  1  0  0  0  0
  9 10  1  0  0  0  0
  9 11  1  0  0  0  0
  9 17  1  0  0  0  0
 11 12  1  0  0  0  0
 11 13  1  0  0  0  0
 11 14  1  0  0  0  0
 14 15  1  0  0  0  0
 14 16  2  0  0  0  0
 17 18  2  0  0  0  0
 17 19  1  0  0  0  0
 19 20  1  0  0  0  0
 19 21  1  0  0  0  0
 21 22  1  0  0  0  0
 21 23  1  0  0  0  0
 21 24  1  0  0  0  0
M  CHG  1  15  -1
M  END
$$$$

  -OEChem-03222214023D

 24 23  0     1  0  0  0  0  0999 V2000
   -2.7922   -3.7400    0.4955 H   0  0  0  0  0  0  0  0  0  0  0  0
   -2.7453   -2.7198    0.1049 C   0  0  0  0  0  0  0  0  0  0  0  0
   -3.4056   -2.0834    0.6992 H   0  0  0  0  0  0  0  0  0  0  0  0
   -3.0910   -2.7229   -0.9320 H   0  0  0  0  0  0  0  0  0  0  0  0
   -1.3222   -2.1948    0.1724 C   0  0  0  0  0  0  0  0  0  0  0  0
   -0.4370   -2.9059    0.6254 O   0  0  0  0  0  0  0  0  0  0  0  0
   -1.0613   -0.9130   -0.2554 N   0  0  0  0  0  0  0  0  0  0  0  0
   -1.8514   -0.3353   -0.5353 H   0  0  0  0  0  0  0  0  0  0  0  0
    0.2418   -0.2394   -0.2340 C   0  0  1  0  0  0  0  0  0  0  0  0
    0.8839   -0.7593    0.4835 H   0  0  0  0  0  0  0  0  0  0  0  0
    0.9222   -0.3644   -1.6167 C   0  0  0  0  0  0  0  0  0  0  0  0
    1.9694   -0.6376   -1.4651 H   0  0  0  0  0  0  0  0  0  0  0  0
    0.4630   -1.1776   -2.1860 H   0  0  0  0  0  0  0  0  0  0  0  0
    0.9097    0.9027   -2.4632 C   0  0  0  0  0  0  0  0  0  0  0  0
    0.3378    0.8566   -3.5790 O   0  5  0  0  0  0  0  0  0  0  0  0
    1.6077    1.8633   -2.0521 O   0  0  0  0  0  0  0  0  0  0  0  0
    0.0629    1.2021    0.3155 C   0  0  0  0  0  0  0  0  0  0  0  0
   -1.0420    1.7420    0.2409 O   0  0  0  0  0  0  0  0  0  0  0  0
    0.9619    1.6841    1.2506 N   0  0  0  0  0  0  0  0  0  0  0  0
    1.9034    1.3198    1.1415 H   0  0  0  0  0  0  0  0  0  0  0  0
    0.8248    3.0124    1.8300 C   0  0  0  0  0  0  0  0  0  0  0  0
   -0.1113    3.0927    2.3919 H   0  0  0  0  0  0  0  0  0  0  0  0
    1.6547    3.2097    2.5146 H   0  0  0  0  0  0  0  0  0  0  0  0
    0.8334    3.7738    1.0432 H   0  0  0  0  0  0  0  0  0  0  0  0
  1  2  1  0  0  0  0
  2  3  1  0  0  0  0
  2  4  1  0  0  0  0
  2  5  1  0  0  0  0
  5  6  2  0  0  0  0
  5  7  1  0  0  0  0
  7  8  1  0  0  0  0
  7  9  1  0  0  0  0
  9 10  1  0  0  0  0
  9 11  1  0  0  0  0
  9 17  1  0  0  0  0
 11 12  1  0  0  0  0
 11 13  1  0  0  0  0
 11 14  1  0  0  0  0
 14 15  1  0  0  0  0
 14 16  2  0  0  0  0
 17 18  2  0  0  0  0
 17 19  1  0  0  0  0
 19 20  1  0  0  0  0
 19 21  1  0  0  0  0
 21 22  1  0  0  0  0
 21 23  1  0  0  0  0
 21 24  1  0  0  0  0
M  CHG  1  15  -1
M  END
$$$$

  -OEChem-03222214023D

 24 23  0     1  0  0  0  0  0999 V2000
   -2.7895   -3.7552    0.4729 H   0  0  0  0  0  0  0  0  0  0  0  0
   -2.7446   -2.7342    0.0839 C   0  0  0  0  0  0  0  0  0  0  0  0
   -3.4267   -2.1054    0.6615 H   0  0  0  0  0  0  0  0  0  0  0  0
   -3.0638   -2.7407   -0.9614 H   0  0  0  0  0  0  0  0  0  0  0  0
   -1.3295   -2.1937    0.1868 C   0  0  0  0  0  0  0  0  0  0  0  0
   -0.4499   -2.8929    0.6683 O   0  0  0  0  0  0  0  0  0  0  0  0
   -1.0688   -0.9146   -0.2486 N   0  0  0  0  0  0  0  0  0  0  0  0
   -1.8519   -0.3553   -0.5809 H   0  0  0  0  0  0  0  0  0  0  0  0
    0.2317   -0.2373   -0.2277 C   0  0  1  0  0  0  0  0  0  0  0  0
    0.8690   -0.7535    0.4967 H   0  0  0  0  0  0  0  0  0  0  0  0
    0.9221   -0.3729   -1.6014 C   0  0  0  0  0  0  0  0  0  0  0  0
    1.9703   -0.6393   -1.4429 H   0  0  0  0  0  0  0  0  0  0  0  0
    0.4699   -1.1878   -2.1737 H   0  0  0  0  0  0  0  0  0  0  0  0
    0.8949    0.8984   -2.4374 C   0  0  0  0  0  0  0  0  0  0  0  0
    0.1003    0.9532   -3.4065 O   0  5  0  0  0  0  0  0  0  0  0  0
    1.7227    1.7918   -2.1290 O   0  0  0  0  0  0  0  0  0  0  0  0
    0.0695    1.2109    0.3081 C   0  0  0  0  0  0  0  0  0  0  0  0
   -1.0278    1.7640    0.2341 O   0  0  0  0  0  0  0  0  0  0  0  0
    0.9764    1.6901    1.2372 N   0  0  0  0  0  0  0  0  0  0  0  0
    1.9124    1.3099    1.1360 H   0  0  0  0  0  0  0  0  0  0  0  0
    0.8541    3.0215    1.8131 C   0  0  0  0  0  0  0  0  0  0  0  0
   -0.0758    3.1098    2.3839 H   0  0  0  0  0  0  0  0  0  0  0  0
    1.6920    3.2159    2.4888 H   0  0  0  0  0  0  0  0  0  0  0  0
    0.8598    3.7802    1.0236 H   0  0  0  0  0  0  0  0  0  0  0  0
  1  2  1  0  0  0  0
  2  3  1  0  0  0  0
  2  4  1  0  0  0  0
  2  5  1  0  0  0  0
  5  6  2  0  0  0  0
  5  7  1  0  0  0  0
  7  8  1  0  0  0  0
  7  9  1  0  0  0  0
  9 10  1  0  0  0  0
  9 11  1  0  0  0  0
  9 17  1  0  0  0  0
 11 12  1  0  0  0  0
 11 13  1  0  0  0  0
 11 14  1  0  0  0  0
 14 15  1  0  0  0  0
 14 16  2  0  0  0  0
 17 18  2  0  0  0  0
 17 19  1  0  0  0  0
 19 20  1  0  0  0  0
 19 21  1  0  0  0  0
 21 22  1  0  0  0  0
 21 23  1  0  0  0  0
 21 24  1  0  0  0  0
M  CHG  1  15  -1
M  END
$$$$

  -OEChem-03222214023D

 24 23  0     1  0  0  0  0  0999 V2000
   -2.7801   -3.7713    0.4567 H   0  0  0  0  0  0  0  0  0  0  0  0
   -2.7414   -2.7498    0.0687 C   0  0  0  0  0  0  0  0  0  0  0  0
   -3.4408   -2.1295    0.6347 H   0  0  0  0  0  0  0  0  0  0  0  0
   -3.0429   -2.7601   -0.9817 H   0  0  0  0  0  0  0  0  0  0  0  0
   -1.3354   -2.1913    0.1962 C   0  0  0  0  0  0  0  0  0  0  0  0
   -0.4575   -2.8764    0.7009 O   0  0  0  0  0  0  0  0  0  0  0  0
   -1.0807   -0.9128   -0.2443 N   0  0  0  0  0  0  0  0  0  0  0  0
   -1.8580   -0.3732   -0.6200 H   0  0  0  0  0  0  0  0  0  0  0  0
    0.2149   -0.2273   -0.2264 C   0  0  1  0  0  0  0  0  0  0  0  0
    0.8475   -0.7388    0.5056 H   0  0  0  0  0  0  0  0  0  0  0  0
    0.9197   -0.3762   -1.5894 C   0  0  0  0  0  0  0  0  0  0  0  0
    1.9685   -0.6321   -1.4177 H   0  0  0  0  0  0  0  0  0  0  0  0
    0.4784   -1.1984   -2.1594 H   0  0  0  0  0  0  0  0  0  0  0  0
    0.8815    0.8892   -2.4317 C   0  0  0  0  0  0  0  0  0  0  0  0
   -0.0851    1.0470   -3.2150 O   0  5  0  0  0  0  0  0  0  0  0  0
    1.8212    1.7058   -2.2662 O   0  0  0  0  0  0  0  0  0  0  0  0
    0.0679    1.2251    0.3001 C   0  0  0  0  0  0  0  0  0  0  0  0
   -1.0237    1.7888    0.2384 O   0  0  0  0  0  0  0  0  0  0  0  0
    0.9869    1.6976    1.2208 N   0  0  0  0  0  0  0  0  0  0  0  0
    1.9148    1.2947    1.1325 H   0  0  0  0  0  0  0  0  0  0  0  0
    0.8827    3.0273    1.8037 C   0  0  0  0  0  0  0  0  0  0  0  0
   -0.0443    3.1242    2.3778 H   0  0  0  0  0  0  0  0  0  0  0  0
    1.7248    3.2077    2.4781 H   0  0  0  0  0  0  0  0  0  0  0  0
    0.8954    3.7897    1.0179 H   0  0  0  0  0  0  0  0  0  0  0  0
  1  2  1  0  0  0  0
  2  3  1  0  0  0  0
  2  4  1  0  0  0  0
  2  5  1  0  0  0  0
  5  6  2  0  0  0  0
  5  7  1  0  0  0  0
  7  8  1  0  0  0  0
  7  9  1  0  0  0  0
  9 10  1  0  0  0  0
  9 11  1  0  0  0  0
  9 17  1  0  0  0  0
 11 12  1  0  0  0  0
 11 13  1  0  0  0  0
 11 14  1  0  0  0  0
 14 15  1  0  0  0  0
 14 16  2  0  0  0  0
 17 18  2  0  0  0  0
 17 19  1  0  0  0  0
 19 20  1  0  0  0  0
 19 21  1  0  0  0  0
 21 22  1  0  0  0  0
 21 23  1  0  0  0  0
 21 24  1  0  0  0  0
M  CHG  1  15  -1
M  END
$$$$

  -OEChem-03222214023D

 24 23  0     1  0  0  0  0  0999 V2000
   -2.7730   -3.7796    0.4511 H   0  0  0  0  0  0  0  0  0  0  0  0
   -2.7399   -2.7578    0.0633 C   0  0  0  0  0  0  0  0  0  0  0  0
   -3.4472   -2.1431    0.6257 H   0  0  0  0  0  0  0  0  0  0  0  0
   -3.0358   -2.7702   -0.9888 H   0  0  0  0  0  0  0  0  0  0  0  0
   -1.3386   -2.1890    0.1983 C   0  0  0  0  0  0  0  0  0  0  0  0
   -0.4585   -2.8685    0.7070 O   0  0  0  0  0  0  0  0  0  0  0  0
   -1.0907   -0.9094   -0.2424 N   0  0  0  0  0  0  0  0  0  0  0  0
   -1.8671   -0.3796   -0.6341 H   0  0  0  0  0  0  0  0  0  0  0  0
    0.1997   -0.2154   -0.2301 C   0  0  1  0  0  0  0  0  0  0  0  0
    0.8291   -0.7231    0.5073 H   0  0  0  0  0  0  0  0  0  0  0  0
    0.9196   -0.3766   -1.5832 C   0  0  0  0  0  0  0  0  0  0  0  0
    1.9678   -0.6247   -1.3965 H   0  0  0  0  0  0  0  0  0  0  0  0
    0.4880   -1.2077   -2.1472 H   0  0  0  0  0  0  0  0  0  0  0  0
    0.8777    0.8761   -2.4439 C   0  0  0  0  0  0  0  0  0  0  0  0
   -0.2012    1.1550   -3.0187 O   0  5  0  0  0  0  0  0  0  0  0  0
    1.9155    1.5821   -2.4709 O   0  0  0  0  0  0  0  0  0  0  0  0
    0.0619    1.2384    0.2944 C   0  0  0  0  0  0  0  0  0  0  0  0
   -1.0294    1.8038    0.2593 O   0  0  0  0  0  0  0  0  0  0  0  0
    0.9924    1.7055    1.2067 N   0  0  0  0  0  0  0  0  0  0  0  0
    1.9144    1.2883    1.1253 H   0  0  0  0  0  0  0  0  0  0  0  0
    0.8978    3.0294    1.8049 C   0  0  0  0  0  0  0  0  0  0  0  0
   -0.0216    3.1213    2.3921 H   0  0  0  0  0  0  0  0  0  0  0  0
    1.7491    3.2016    2.4699 H   0  0  0  0  0  0  0  0  0  0  0  0
    0.9009    3.8001    1.0271 H   0  0  0  0  0  0  0  0  0  0  0  0
  1  2  1  0  0  0  0
  2  3  1  0  0  0  0
  2  4  1  0  0  0  0
  2  5  1  0  0  0  0
  5  6  2  0  0  0  0
  5  7  1  0  0  0  0
  7  8  1  0  0  0  0
  7  9  1  0  0  0  0
  9 10  1  0  0  0  0
  9 11  1  0  0  0  0
  9 17  1  0  0  0  0
 11 12  1  0  0  0  0
 11 13  1  0  0  0  0
 11 14  1  0  0  0  0
 14 15  1  0  0  0  0
 14 16  2  0  0  0  0
 17 18  2  0  0  0  0
 17 19  1  0  0  0  0
 19 20  1  0  0  0  0
 19 21  1  0  0  0  0
 21 22  1  0  0  0  0
 21 23  1  0  0  0  0
 21 24  1  0  0  0  0
M  CHG  1  15  -1
M  END
$$$$

  -OEChem-03222214023D

 24 23  0     1  0  0  0  0  0999 V2000
   -2.7682   -3.7776    0.4593 H   0  0  0  0  0  0  0  0  0  0  0  0
   -2.7408   -2.7555    0.0719 C   0  0  0  0  0  0  0  0  0  0  0  0
   -3.4416   -2.1418    0.6432 H   0  0  0  0  0  0  0  0  0  0  0  0
   -3.0493   -2.7666   -0.9765 H   0  0  0  0  0  0  0  0  0  0  0  0
   -1.3387   -2.1853    0.1905 C   0  0  0  0  0  0  0  0  0  0  0  0
   -0.4508   -2.8650    0.6851 O   0  0  0  0  0  0  0  0  0  0  0  0
   -1.0993   -0.9034   -0.2480 N   0  0  0  0  0  0  0  0  0  0  0  0
   -1.8824   -0.3722   -0.6244 H   0  0  0  0  0  0  0  0  0  0  0  0
    0.1863   -0.2008   -0.2412 C   0  0  1  0  0  0  0  0  0  0  0  0
    0.8109   -0.7048    0.5026 H   0  0  0  0  0  0  0  0  0  0  0  0
    0.9259   -0.3736   -1.5835 C   0  0  0  0  0  0  0  0  0  0  0  0
    1.9721   -0.6142   -1.3754 H   0  0  0  0  0  0  0  0  0  0  0  0
    0.5054   -1.2161   -2.1382 H   0  0  0  0  0  0  0  0  0  0  0  0
    0.8932    0.8581   -2.4774 C   0  0  0  0  0  0  0  0  0  0  0  0
   -0.2253    1.2850   -2.8483 O   0  5  0  0  0  0  0  0  0  0  0  0
    1.9935    1.4053   -2.7328 O   0  0  0  0  0  0  0  0  0  0  0  0
    0.0506    1.2523    0.2862 C   0  0  0  0  0  0  0  0  0  0  0  0
   -1.0467    1.8072    0.2910 O   0  0  0  0  0  0  0  0  0  0  0  0
    0.9907    1.7145    1.1920 N   0  0  0  0  0  0  0  0  0  0  0  0
    1.9096    1.2900    1.1146 H   0  0  0  0  0  0  0  0  0  0  0  0
    0.8943    3.0239    1.8212 C   0  0  0  0  0  0  0  0  0  0  0  0
    0.0089    3.0770    2.4626 H   0  0  0  0  0  0  0  0  0  0  0  0
    1.7784    3.2095    2.4379 H   0  0  0  0  0  0  0  0  0  0  0  0
    0.8294    3.8092    1.0610 H   0  0  0  0  0  0  0  0  0  0  0  0
  1  2  1  0  0  0  0
  2  3  1  0  0  0  0
  2  4  1  0  0  0  0
  2  5  1  0  0  0  0
  5  6  2  0  0  0  0
  5  7  1  0  0  0  0
  7  8  1  0  0  0  0
  7  9  1  0  0  0  0
  9 10  1  0  0  0  0
  9 11  1  0  0  0  0
  9 17  1  0  0  0  0
 11 12  1  0  0  0  0
 11 13  1  0  0  0  0
 11 14  1  0  0  0  0
 14 15  1  0  0  0  0
 14 16  2  0  0  0  0
 17 18  2  0  0  0  0
 17 19  1  0  0  0  0
 19 20  1  0  0  0  0
 19 21  1  0  0  0  0
 21 22  1  0  0  0  0
 21 23  1  0  0  0  0
 21 24  1  0  0  0  0
M  CHG  1  15  -1
M  END
$$$$

  -OEChem-03222214023D

 24 23  0     1  0  0  0  0  0999 V2000
   -2.7544   -3.7745    0.4747 H   0  0  0  0  0  0  0  0  0  0  0  0
   -2.7371   -2.7514    0.0893 C   0  0  0  0  0  0  0  0  0  0  0  0
   -3.4255   -2.1401    0.6781 H   0  0  0  0  0  0  0  0  0  0  0  0
   -3.0693   -2.7607   -0.9518 H   0  0  0  0  0  0  0  0  0  0  0  0
   -1.3332   -2.1797    0.1774 C   0  0  0  0  0  0  0  0  0  0  0  0
   -0.4327   -2.8622    0.6447 O   0  0  0  0  0  0  0  0  0  0  0  0
   -1.1068   -0.8929   -0.2542 N   0  0  0  0  0  0  0  0  0  0  0  0
   -1.9025   -0.3540   -0.5906 H   0  0  0  0  0  0  0  0  0  0  0  0
    0.1740   -0.1811   -0.2553 C   0  0  1  0  0  0  0  0  0  0  0  0
    0.7982   -0.6823    0.4908 H   0  0  0  0  0  0  0  0  0  0  0  0
    0.9274   -0.3635   -1.5917 C   0  0  0  0  0  0  0  0  0  0  0  0
    1.9718   -0.5947   -1.3645 H   0  0  0  0  0  0  0  0  0  0  0  0
    0.5173   -1.2209   -2.1313 H   0  0  0  0  0  0  0  0  0  0  0  0
    0.9120    0.8385   -2.5296 C   0  0  0  0  0  0  0  0  0  0  0  0
   -0.1711    1.4397   -2.7158 O   0  5  0  0  0  0  0  0  0  0  0  0
    2.0135    1.1788   -3.0256 O   0  0  0  0  0  0  0  0  0  0  0  0
    0.0353    1.2673    0.2838 C   0  0  0  0  0  0  0  0  0  0  0  0
   -1.0706    1.8038    0.3320 O   0  0  0  0  0  0  0  0  0  0  0  0
    0.9855    1.7235    1.1826 N   0  0  0  0  0  0  0  0  0  0  0  0
    1.9036    1.2988    1.0987 H   0  0  0  0  0  0  0  0  0  0  0  0
    0.8837    3.0133    1.8505 C   0  0  0  0  0  0  0  0  0  0  0  0
    0.0027    3.0412    2.4997 H   0  0  0  0  0  0  0  0  0  0  0  0
    1.7710    3.1871    2.4662 H   0  0  0  0  0  0  0  0  0  0  0  0
    0.8076    3.8195    1.1136 H   0  0  0  0  0  0  0  0  0  0  0  0
  1  2  1  0  0  0  0
  2  3  1  0  0  0  0
  2  4  1  0  0  0  0
  2  5  1  0  0  0  0
  5  6  2  0  0  0  0
  5  7  1  0  0  0  0
  7  8  1  0  0  0  0
  7  9  1  0  0  0  0
  9 10  1  0  0  0  0
  9 11  1  0  0  0  0
  9 17  1  0  0  0  0
 11 12  1  0  0  0  0
 11 13  1  0  0  0  0
 11 14  1  0  0  0  0
 14 15  1  0  0  0  0
 14 16  2  0  0  0  0
 17 18  2  0  0  0  0
 17 19  1  0  0  0  0
 19 20  1  0  0  0  0
 19 21  1  0  0  0  0
 21 22  1  0  0  0  0
 21 23  1  0  0  0  0
 21 24  1  0  0  0  0
M  CHG  1  15  -1
M  END
$$$$

  -OEChem-03222214023D

 24 23  0     1  0  0  0  0  0999 V2000
   -2.7460   -3.7642    0.4888 H   0  0  0  0  0  0  0  0  0  0  0  0
   -2.7349   -2.7390    0.1089 C   0  0  0  0  0  0  0  0  0  0  0  0
   -3.4023   -2.1276    0.7212 H   0  0  0  0  0  0  0  0  0  0  0  0
   -3.0979   -2.7407   -0.9219 H   0  0  0  0  0  0  0  0  0  0  0  0
   -1.3260   -2.1749    0.1583 C   0  0  0  0  0  0  0  0  0  0  0  0
   -0.4145   -2.8664    0.5893 O   0  0  0  0  0  0  0  0  0  0  0  0
   -1.1079   -0.8830   -0.2630 N   0  0  0  0  0  0  0  0  0  0  0  0
   -1.9156   -0.3284   -0.5395 H   0  0  0  0  0  0  0  0  0  0  0  0
    0.1715   -0.1676   -0.2691 C   0  0  1  0  0  0  0  0  0  0  0  0
    0.7969   -0.6700    0.4754 H   0  0  0  0  0  0  0  0  0  0  0  0
    0.9290   -0.3543   -1.6062 C   0  0  0  0  0  0  0  0  0  0  0  0
    1.9719   -0.5811   -1.3674 H   0  0  0  0  0  0  0  0  0  0  0  0
    0.5234   -1.2219   -2.1329 H   0  0  0  0  0  0  0  0  0  0  0  0
    0.9363    0.8209   -2.5813 C   0  0  0  0  0  0  0  0  0  0  0  0
   -0.0349    1.6105   -2.6040 O   0  5  0  0  0  0  0  0  0  0  0  0
    1.9628    0.9367   -3.2936 O   0  0  0  0  0  0  0  0  0  0  0  0
    0.0245    1.2740    0.2871 C   0  0  0  0  0  0  0  0  0  0  0  0
   -1.0914    1.7875    0.3684 O   0  0  0  0  0  0  0  0  0  0  0  0
    0.9779    1.7282    1.1841 N   0  0  0  0  0  0  0  0  0  0  0  0
    1.8999    1.3151    1.0878 H   0  0  0  0  0  0  0  0  0  0  0  0
    0.8630    3.0010    1.8822 C   0  0  0  0  0  0  0  0  0  0  0  0
   -0.0017    2.9938    2.5536 H   0  0  0  0  0  0  0  0  0  0  0  0
    1.7613    3.1832    2.4792 H   0  0  0  0  0  0  0  0  0  0  0  0
    0.7493    3.8211    1.1657 H   0  0  0  0  0  0  0  0  0  0  0  0
  1  2  1  0  0  0  0
  2  3  1  0  0  0  0
  2  4  1  0  0  0  0
  2  5  1  0  0  0  0
  5  6  2  0  0  0  0
  5  7  1  0  0  0  0
  7  8  1  0  0  0  0
  7  9  1  0  0  0  0
  9 10  1  0  0  0  0
  9 11  1  0  0  0  0
  9 17  1  0  0  0  0
 11 12  1  0  0  0  0
 11 13  1  0  0  0  0
 11 14  1  0  0  0  0
 14 15  1  0  0  0  0
 14 16  2  0  0  0  0
 17 18  2  0  0  0  0
 17 19  1  0  0  0  0
 19 20  1  0  0  0  0
 19 21  1  0  0  0  0
 21 22  1  0  0  0  0
 21 23  1  0  0  0  0
 21 24  1  0  0  0  0
M  CHG  1  15  -1
M  END
$$$$

  -OEChem-03222214023D

 24 23  0     1  0  0  0  0  0999 V2000
   -2.7407   -3.7522    0.5009 H   0  0  0  0  0  0  0  0  0  0  0  0
   -2.7315   -2.7259    0.1236 C   0  0  0  0  0  0  0  0  0  0  0  0
   -3.3799   -2.1120    0.7536 H   0  0  0  0  0  0  0  0  0  0  0  0
   -3.1193   -2.7218   -0.8982 H   0  0  0  0  0  0  0  0  0  0  0  0
   -1.3184   -2.1713    0.1405 C   0  0  0  0  0  0  0  0  0  0  0  0
   -0.4001   -2.8736    0.5380 O   0  0  0  0  0  0  0  0  0  0  0  0
   -1.1053   -0.8748   -0.2690 N   0  0  0  0  0  0  0  0  0  0  0  0
   -1.9200   -0.3053   -0.4888 H   0  0  0  0  0  0  0  0  0  0  0  0
    0.1755   -0.1611   -0.2761 C   0  0  1  0  0  0  0  0  0  0  0  0
    0.8050   -0.6685    0.4615 H   0  0  0  0  0  0  0  0  0  0  0  0
    0.9250   -0.3453   -1.6213 C   0  0  0  0  0  0  0  0  0  0  0  0
    1.9674   -0.5736   -1.3835 H   0  0  0  0  0  0  0  0  0  0  0  0
    0.5161   -1.2163   -2.1397 H   0  0  0  0  0  0  0  0  0  0  0  0
    0.9534    0.8117   -2.6205 C   0  0  0  0  0  0  0  0  0  0  0  0
    0.1643    1.7752   -2.4982 O   0  5  0  0  0  0  0  0  0  0  0  0
    1.8269    0.7229   -3.5169 O   0  0  0  0  0  0  0  0  0  0  0  0
    0.0182    1.2721    0.2994 C   0  0  0  0  0  0  0  0  0  0  0  0
   -1.1052    1.7690    0.3928 O   0  0  0  0  0  0  0  0  0  0  0  0
    0.9696    1.7243    1.1995 N   0  0  0  0  0  0  0  0  0  0  0  0
    1.8965    1.3262    1.0896 H   0  0  0  0  0  0  0  0  0  0  0  0
    0.8449    2.9908    1.9066 C   0  0  0  0  0  0  0  0  0  0  0  0
   -0.0245    2.9749    2.5716 H   0  0  0  0  0  0  0  0  0  0  0  0
    1.7378    3.1724    2.5117 H   0  0  0  0  0  0  0  0  0  0  0  0
    0.7329    3.8153    1.1949 H   0  0  0  0  0  0  0  0  0  0  0  0
  1  2  1  0  0  0  0
  2  3  1  0  0  0  0
  2  4  1  0  0  0  0
  2  5  1  0  0  0  0
  5  6  2  0  0  0  0
  5  7  1  0  0  0  0
  7  8  1  0  0  0  0
  7  9  1  0  0  0  0
  9 10  1  0  0  0  0
  9 11  1  0  0  0  0
  9 17  1  0  0  0  0
 11 12  1  0  0  0  0
 11 13  1  0  0  0  0
 11 14  1  0  0  0  0
 14 15  1  0  0  0  0
 14 16  2  0  0  0  0
 17 18  2  0  0  0  0
 17 19  1  0  0  0  0
 19 20  1  0  0  0  0
 19 21  1  0  0  0  0
 21 22  1  0  0  0  0
 21 23  1  0  0  0  0
 21 24  1  0  0  0  0
M  CHG  1  15  -1
M  END
$$$$

  -OEChem-03222214023D

 24 23  0     1  0  0  0  0  0999 V2000
   -2.7400   -3.7421    0.5049 H   0  0  0  0  0  0  0  0  0  0  0  0
   -2.7305   -2.7162    0.1266 C   0  0  0  0  0  0  0  0  0  0  0  0
   -3.3689   -2.0986    0.7632 H   0  0  0  0  0  0  0  0  0  0  0  0
   -3.1291   -2.7113   -0.8910 H   0  0  0  0  0  0  0  0  0  0  0  0
   -1.3143   -2.1691    0.1276 C   0  0  0  0  0  0  0  0  0  0  0  0
   -0.3947   -2.8791    0.5075 O   0  0  0  0  0  0  0  0  0  0  0  0
   -1.0987   -0.8702   -0.2735 N   0  0  0  0  0  0  0  0  0  0  0  0
   -1.9139   -0.2892   -0.4587 H   0  0  0  0  0  0  0  0  0  0  0  0
    0.1865   -0.1632   -0.2749 C   0  0  1  0  0  0  0  0  0  0  0  0
    0.8192   -0.6764    0.4560 H   0  0  0  0  0  0  0  0  0  0  0  0
    0.9218   -0.3409   -1.6314 C   0  0  0  0  0  0  0  0  0  0  0  0
    1.9643   -0.5750   -1.4009 H   0  0  0  0  0  0  0  0  0  0  0  0
    0.5056   -1.2104   -2.1470 H   0  0  0  0  0  0  0  0  0  0  0  0
    0.9659    0.8113   -2.6374 C   0  0  0  0  0  0  0  0  0  0  0  0
    0.4152    1.9064   -2.3860 O   0  5  0  0  0  0  0  0  0  0  0  0
    1.6186    0.5748   -3.6825 O   0  0  0  0  0  0  0  0  0  0  0  0
    0.0180    1.2634    0.3141 C   0  0  0  0  0  0  0  0  0  0  0  0
   -1.1104    1.7523    0.3971 O   0  0  0  0  0  0  0  0  0  0  0  0
    0.9606    1.7151    1.2235 N   0  0  0  0  0  0  0  0  0  0  0  0
    1.8930    1.3342    1.1017 H   0  0  0  0  0  0  0  0  0  0  0  0
    0.8273    2.9861    1.9210 C   0  0  0  0  0  0  0  0  0  0  0  0
   -0.0618    2.9829    2.5597 H   0  0  0  0  0  0  0  0  0  0  0  0
    1.7035    3.1609    2.5521 H   0  0  0  0  0  0  0  0  0  0  0  0
    0.7455    3.8083    1.2024 H   0  0  0  0  0  0  0  0  0  0  0  0
  1  2  1  0  0  0  0
  2  3  1  0  0  0  0
  2  4  1  0  0  0  0
  2  5  1  0  0  0  0
  5  6  2  0  0  0  0
  5  7  1  0  0  0  0
  7  8  1  0  0  0  0
  7  9  1  0  0  0  0
  9 10  1  0  0  0  0
  9 11  1  0  0  0  0
  9 17  1  0  0  0  0
 11 12  1  0  0  0  0
 11 13  1  0  0  0  0
 11 14  1  0  0  0  0
 14 15  1  0  0  0  0
 14 16  2  0  0  0  0
 17 18  2  0  0  0  0
 17 19  1  0  0  0  0
 19 20  1  0  0  0  0
 19 21  1  0  0  0  0
 21 22  1  0  0  0  0
 21 23  1  0  0  0  0
 21 24  1  0  0  0  0
M  CHG  1  15  -1
M  END
$$$$

  -OEChem-03222214023D

 24 23  0     1  0  0  0  0  0999 V2000
   -2.7569   -3.7229    0.5077 H   0  0  0  0  0  0  0  0  0  0  0  0
   -2.7351   -2.6963    0.1322 C   0  0  0  0  0  0  0  0  0  0  0  0
   -3.3608   -2.0719    0.7748 H   0  0  0  0  0  0  0  0  0  0  0  0
   -3.1409   -2.6829   -0.8825 H   0  0  0  0  0  0  0  0  0  0  0  0
   -1.3114   -2.1686    0.1252 C   0  0  0  0  0  0  0  0  0  0  0  0
   -0.3993   -2.8900    0.5015 O   0  0  0  0  0  0  0  0  0  0  0  0
   -1.0813   -0.8718   -0.2746 N   0  0  0  0  0  0  0  0  0  0  0  0
   -1.8910   -0.2784   -0.4444 H   0  0  0  0  0  0  0  0  0  0  0  0
    0.2120   -0.1787   -0.2712 C   0  0  1  0  0  0  0  0  0  0  0  0
    0.8499   -0.6976    0.4511 H   0  0  0  0  0  0  0  0  0  0  0  0
    0.9227   -0.3465   -1.6432 C   0  0  0  0  0  0  0  0  0  0  0  0
    1.9652   -0.5969   -1.4328 H   0  0  0  0  0  0  0  0  0  0  0  0
    0.4874   -1.2055   -2.1614 H   0  0  0  0  0  0  0  0  0  0  0  0
    0.9730    0.8170   -2.6370 C   0  0  0  0  0  0  0  0  0  0  0  0
    0.7045    1.9839   -2.2717 O   0  5  0  0  0  0  0  0  0  0  0  0
    1.3438    0.5097   -3.7956 O   0  0  0  0  0  0  0  0  0  0  0  0
    0.0303    1.2454    0.3218 C   0  0  0  0  0  0  0  0  0  0  0  0
   -1.1013    1.7325    0.3780 O   0  0  0  0  0  0  0  0  0  0  0  0
    0.9575    1.7047    1.2428 N   0  0  0  0  0  0  0  0  0  0  0  0
    1.8975    1.3448    1.1162 H   0  0  0  0  0  0  0  0  0  0  0  0
    0.8055    2.9818    1.9252 C   0  0  0  0  0  0  0  0  0  0  0  0
   -0.0824    2.9716    2.5655 H   0  0  0  0  0  0  0  0  0  0  0  0
    1.6799    3.1784    2.5525 H   0  0  0  0  0  0  0  0  0  0  0  0
    0.7095    3.7940    1.1971 H   0  0  0  0  0  0  0  0  0  0  0  0
  1  2  1  0  0  0  0
  2  3  1  0  0  0  0
  2  4  1  0  0  0  0
  2  5  1  0  0  0  0
  5  6  2  0  0  0  0
  5  7  1  0  0  0  0
  7  8  1  0  0  0  0
  7  9  1  0  0  0  0
  9 10  1  0  0  0  0
  9 11  1  0  0  0  0
  9 17  1  0  0  0  0
 11 12  1  0  0  0  0
 11 13  1  0  0  0  0
 11 14  1  0  0  0  0
 14 15  1  0  0  0  0
 14 16  2  0  0  0  0
 17 18  2  0  0  0  0
 17 19  1  0  0  0  0
 19 20  1  0  0  0  0
 19 21  1  0  0  0  0
 21 22  1  0  0  0  0
 21 23  1  0  0  0  0
 21 24  1  0  0  0  0
M  CHG  1  15  -1
M  END
$$$$

  -OEChem-03222214023D

 24 23  0     1  0  0  0  0  0999 V2000
   -2.7682   -3.7170    0.5123 H   0  0  0  0  0  0  0  0  0  0  0  0
   -2.7388   -2.6925    0.1312 C   0  0  0  0  0  0  0  0  0  0  0  0
   -3.3659   -2.0617    0.7659 H   0  0  0  0  0  0  0  0  0  0  0  0
   -3.1373   -2.6832   -0.8863 H   0  0  0  0  0  0  0  0  0  0  0  0
   -1.3125   -2.1715    0.1312 C   0  0  0  0  0  0  0  0  0  0  0  0
   -0.4068   -2.8948    0.5193 O   0  0  0  0  0  0  0  0  0  0  0  0
   -1.0716   -0.8779   -0.2732 N   0  0  0  0  0  0  0  0  0  0  0  0
   -1.8761   -0.2806   -0.4539 H   0  0  0  0  0  0  0  0  0  0  0  0
    0.2280   -0.1957   -0.2624 C   0  0  1  0  0  0  0  0  0  0  0  0
    0.8676   -0.7170    0.4563 H   0  0  0  0  0  0  0  0  0  0  0  0
    0.9227   -0.3529   -1.6436 C   0  0  0  0  0  0  0  0  0  0  0  0
    1.9658   -0.6131   -1.4493 H   0  0  0  0  0  0  0  0  0  0  0  0
    0.4771   -1.2017   -2.1701 H   0  0  0  0  0  0  0  0  0  0  0  0
    0.9691    0.8328   -2.6106 C   0  0  0  0  0  0  0  0  0  0  0  0
    0.9945    2.0038   -2.1647 O   0  5  0  0  0  0  0  0  0  0  0  0
    1.0300    0.5397   -3.8291 O   0  0  0  0  0  0  0  0  0  0  0  0
    0.0391    1.2299    0.3250 C   0  0  0  0  0  0  0  0  0  0  0  0
   -1.0888    1.7286    0.3418 O   0  0  0  0  0  0  0  0  0  0  0  0
    0.9540    1.6933    1.2557 N   0  0  0  0  0  0  0  0  0  0  0  0
    1.8965    1.3398    1.1284 H   0  0  0  0  0  0  0  0  0  0  0  0
    0.8015    2.9848    1.9099 C   0  0  0  0  0  0  0  0  0  0  0  0
   -0.1067    3.0013    2.5206 H   0  0  0  0  0  0  0  0  0  0  0  0
    1.6579    3.1781    2.5622 H   0  0  0  0  0  0  0  0  0  0  0  0
    0.7432    3.7852    1.1648 H   0  0  0  0  0  0  0  0  0  0  0  0
  1  2  1  0  0  0  0
  2  3  1  0  0  0  0
  2  4  1  0  0  0  0
  2  5  1  0  0  0  0
  5  6  2  0  0  0  0
  5  7  1  0  0  0  0
  7  8  1  0  0  0  0
  7  9  1  0  0  0  0
  9 10  1  0  0  0  0
  9 11  1  0  0  0  0
  9 17  1  0  0  0  0
 11 12  1  0  0  0  0
 11 13  1  0  0  0  0
 11 14  1  0  0  0  0
 14 15  1  0  0  0  0
 14 16  2  0  0  0  0
 17 18  2  0  0  0  0
 17 19  1  0  0  0  0
 19 20  1  0  0  0  0
 19 21  1  0  0  0  0
 21 22  1  0  0  0  0
 21 23  1  0  0  0  0
 21 24  1  0  0  0  0
M  CHG  1  15  -1
M  END
$$$$

  -OEChem-03222214023D

 24 23  0     1  0  0  0  0  0999 V2000
   -2.7854   -3.7123    0.5122 H   0  0  0  0  0  0  0  0  0  0  0  0
   -2.7435   -2.6896    0.1275 C   0  0  0  0  0  0  0  0  0  0  0  0
   -3.3759   -2.0515    0.7497 H   0  0  0  0  0  0  0  0  0  0  0  0
   -3.1260   -2.6818   -0.8963 H   0  0  0  0  0  0  0  0  0  0  0  0
   -1.3141   -2.1781    0.1473 C   0  0  0  0  0  0  0  0  0  0  0  0
   -0.4190   -2.9038    0.5556 O   0  0  0  0  0  0  0  0  0  0  0  0
   -1.0590   -0.8910   -0.2678 N   0  0  0  0  0  0  0  0  0  0  0  0
   -1.8564   -0.2932   -0.4768 H   0  0  0  0  0  0  0  0  0  0  0  0
    0.2457   -0.2193   -0.2519 C   0  0  1  0  0  0  0  0  0  0  0  0
    0.8871   -0.7411    0.4651 H   0  0  0  0  0  0  0  0  0  0  0  0
    0.9250   -0.3647   -1.6395 C   0  0  0  0  0  0  0  0  0  0  0  0
    1.9692   -0.6348   -1.4653 H   0  0  0  0  0  0  0  0  0  0  0  0
    0.4681   -1.1985   -2.1806 H   0  0  0  0  0  0  0  0  0  0  0  0
    0.9553    0.8539   -2.5620 C   0  0  0  0  0  0  0  0  0  0  0  0
    1.2729    1.9678   -2.0792 O   0  5  0  0  0  0  0  0  0  0  0  0
    0.7028    0.6502   -3.7741 O   0  0  0  0  0  0  0  0  0  0  0  0
    0.0532    1.2121    0.3206 C   0  0  0  0  0  0  0  0  0  0  0  0
   -1.0686    1.7242    0.2958 O   0  0  0  0  0  0  0  0  0  0  0  0
    0.9558    1.6854    1.2576 N   0  0  0  0  0  0  0  0  0  0  0  0
    1.9015    1.3395    1.1317 H   0  0  0  0  0  0  0  0  0  0  0  0
    0.7991    2.9914    1.8808 C   0  0  0  0  0  0  0  0  0  0  0  0
   -0.1180    3.0250    2.4774 H   0  0  0  0  0  0  0  0  0  0  0  0
    1.6469    3.1954    2.5410 H   0  0  0  0  0  0  0  0  0  0  0  0
    0.7553    3.7753    1.1176 H   0  0  0  0  0  0  0  0  0  0  0  0
  1  2  1  0  0  0  0
  2  3  1  0  0  0  0
  2  4  1  0  0  0  0
  2  5  1  0  0  0  0
  5  6  2  0  0  0  0
  5  7  1  0  0  0  0
  7  8  1  0  0  0  0
  7  9  1  0  0  0  0
  9 10  1  0  0  0  0
  9 11  1  0  0  0  0
  9 17  1  0  0  0  0
 11 12  1  0  0  0  0
 11 13  1  0  0  0  0
 11 14  1  0  0  0  0
 14 15  1  0  0  0  0
 14 16  2  0  0  0  0
 17 18  2  0  0  0  0
 17 19  1  0  0  0  0
 19 20  1  0  0  0  0
 19 21  1  0  0  0  0
 21 22  1  0  0  0  0
 21 23  1  0  0  0  0
 21 24  1  0  0  0  0
M  CHG  1  15  -1
M  END
$$$$

  -OEChem-03222214023D

 24 23  0     1  0  0  0  0  0999 V2000
   -2.7939   -3.7251    0.5044 H   0  0  0  0  0  0  0  0  0  0  0  0
   -2.7468   -2.7044    0.1152 C   0  0  0  0  0  0  0  0  0  0  0  0
   -3.3964   -2.0656    0.7187 H   0  0  0  0  0  0  0  0  0  0  0  0
   -3.1048   -2.7033   -0.9176 H   0  0  0  0  0  0  0  0  0  0  0  0
   -1.3201   -2.1874    0.1662 C   0  0  0  0  0  0  0  0  0  0  0  0
   -0.4329   -2.9060    0.6033 O   0  0  0  0  0  0  0  0  0  0  0  0
   -1.0577   -0.9056   -0.2598 N   0  0  0  0  0  0  0  0  0  0  0  0
   -1.8492   -0.3179   -0.5140 H   0  0  0  0  0  0  0  0  0  0  0  0
    0.2475   -0.2358   -0.2414 C   0  0  1  0  0  0  0  0  0  0  0  0
    0.8891   -0.7556    0.4769 H   0  0  0  0  0  0  0  0  0  0  0  0
    0.9253   -0.3715   -1.6268 C   0  0  0  0  0  0  0  0  0  0  0  0
    1.9716   -0.6419   -1.4652 H   0  0  0  0  0  0  0  0  0  0  0  0
    0.4668   -1.1927   -2.1854 H   0  0  0  0  0  0  0  0  0  0  0  0
    0.9291    0.8791   -2.4999 C   0  0  0  0  0  0  0  0  0  0  0  0
    1.5059    1.8991   -2.0471 O   0  5  0  0  0  0  0  0  0  0  0  0
    0.3952    0.8002   -3.6325 O   0  0  0  0  0  0  0  0  0  0  0  0
    0.0634    1.2035    0.3131 C   0  0  0  0  0  0  0  0  0  0  0  0
   -1.0484    1.7325    0.2581 O   0  0  0  0  0  0  0  0  0  0  0  0
    0.9630    1.6835    1.2490 N   0  0  0  0  0  0  0  0  0  0  0  0
    1.9074    1.3309    1.1285 H   0  0  0  0  0  0  0  0  0  0  0  0
    0.8157    3.0038    1.8441 C   0  0  0  0  0  0  0  0  0  0  0  0
   -0.1098    3.0621    2.4259 H   0  0  0  0  0  0  0  0  0  0  0  0
    1.6565    3.2087    2.5130 H   0  0  0  0  0  0  0  0  0  0  0  0
    0.7947    3.7729    1.0650 H   0  0  0  0  0  0  0  0  0  0  0  0
  1  2  1  0  0  0  0
  2  3  1  0  0  0  0
  2  4  1  0  0  0  0
  2  5  1  0  0  0  0
  5  6  2  0  0  0  0
  5  7  1  0  0  0  0
  7  8  1  0  0  0  0
  7  9  1  0  0  0  0
  9 10  1  0  0  0  0
  9 11  1  0  0  0  0
  9 17  1  0  0  0  0
 11 12  1  0  0  0  0
 11 13  1  0  0  0  0
 11 14  1  0  0  0  0
 14 15  1  0  0  0  0
 14 16  2  0  0  0  0
 17 18  2  0  0  0  0
 17 19  1  0  0  0  0
 19 20  1  0  0  0  0
 19 21  1  0  0  0  0
 21 22  1  0  0  0  0
 21 23  1  0  0  0  0
 21 24  1  0  0  0  0
M  CHG  1  15  -1
M  END
$$$$

  -OEChem-03222214023D

 24 23  0     1  0  0  0  0  0999 V2000
   -2.7907   -3.7508    0.4827 H   0  0  0  0  0  0  0  0  0  0  0  0
   -2.7448   -2.7304    0.0923 C   0  0  0  0  0  0  0  0  0  0  0  0
   -3.4208   -2.0986    0.6737 H   0  0  0  0  0  0  0  0  0  0  0  0
   -3.0712   -2.7367   -0.9507 H   0  0  0  0  0  0  0  0  0  0  0  0
   -1.3276   -2.1936    0.1854 C   0  0  0  0  0  0  0  0  0  0  0  0
   -0.4460   -2.8955    0.6595 O   0  0  0  0  0  0  0  0  0  0  0  0
   -1.0673   -0.9141   -0.2490 N   0  0  0  0  0  0  0  0  0  0  0  0
   -1.8525   -0.3505   -0.5687 H   0  0  0  0  0  0  0  0  0  0  0  0
    0.2336   -0.2375   -0.2308 C   0  0  1  0  0  0  0  0  0  0  0  0
    0.8734   -0.7539    0.4915 H   0  0  0  0  0  0  0  0  0  0  0  0
    0.9186   -0.3727   -1.6079 C   0  0  0  0  0  0  0  0  0  0  0  0
    1.9673   -0.6362   -1.4489 H   0  0  0  0  0  0  0  0  0  0  0  0
    0.4665   -1.1896   -2.1776 H   0  0  0  0  0  0  0  0  0  0  0  0
    0.8938    0.8958   -2.4491 C   0  0  0  0  0  0  0  0  0  0  0  0
    1.6844    1.8123   -2.1112 O   0  5  0  0  0  0  0  0  0  0  0  0
    0.1236    0.9346   -3.4385 O   0  0  0  0  0  0  0  0  0  0  0  0
    0.0683    1.2093    0.3081 C   0  0  0  0  0  0  0  0  0  0  0  0
   -1.0320    1.7577    0.2391 O   0  0  0  0  0  0  0  0  0  0  0  0
    0.9753    1.6894    1.2367 N   0  0  0  0  0  0  0  0  0  0  0  0
    1.9126    1.3133    1.1326 H   0  0  0  0  0  0  0  0  0  0  0  0
    0.8492    3.0187    1.8167 C   0  0  0  0  0  0  0  0  0  0  0  0
   -0.0806    3.1026    2.3884 H   0  0  0  0  0  0  0  0  0  0  0  0
    1.6872    3.2131    2.4924 H   0  0  0  0  0  0  0  0  0  0  0  0
    0.8519    3.7801    1.0298 H   0  0  0  0  0  0  0  0  0  0  0  0
  1  2  1  0  0  0  0
  2  3  1  0  0  0  0
  2  4  1  0  0  0  0
  2  5  1  0  0  0  0
  5  6  2  0  0  0  0
  5  7  1  0  0  0  0
  7  8  1  0  0  0  0
  7  9  1  0  0  0  0
  9 10  1  0  0  0  0
  9 11  1  0  0  0  0
  9 17  1  0  0  0  0
 11 12  1  0  0  0  0
 11 13  1  0  0  0  0
 11 14  1  0  0  0  0
 14 15  1  0  0  0  0
 14 16  2  0  0  0  0
 17 18  2  0  0  0  0
 17 19  1  0  0  0  0
 19 20  1  0  0  0  0
 19 21  1  0  0  0  0
 21 22  1  0  0  0  0
 21 23  1  0  0  0  0
 21 24  1  0  0  0  0
M  CHG  1  15  -1
M  END
$$$$

  -OEChem-03222214023D

 24 23  0     1  0  0  0  0  0999 V2000
   -2.7774   -3.7761    0.4556 H   0  0  0  0  0  0  0  0  0  0  0  0
   -2.7398   -2.7539    0.0693 C   0  0  0  0  0  0  0  0  0  0  0  0
   -3.4412   -2.1354    0.6347 H   0  0  0  0  0  0  0  0  0  0  0  0
   -3.0393   -2.7627   -0.9818 H   0  0  0  0  0  0  0  0  0  0  0  0
   -1.3350   -2.1931    0.2002 C   0  0  0  0  0  0  0  0  0  0  0  0
   -0.4563   -2.8770    0.7053 O   0  0  0  0  0  0  0  0  0  0  0  0
   -1.0824   -0.9135   -0.2383 N   0  0  0  0  0  0  0  0  0  0  0  0
   -1.8605   -0.3757   -0.6150 H   0  0  0  0  0  0  0  0  0  0  0  0
    0.2128   -0.2270   -0.2226 C   0  0  1  0  0  0  0  0  0  0  0  0
    0.8495   -0.7398    0.5047 H   0  0  0  0  0  0  0  0  0  0  0  0
    0.9104   -0.3697   -1.5896 C   0  0  0  0  0  0  0  0  0  0  0  0
    1.9603   -0.6243   -1.4230 H   0  0  0  0  0  0  0  0  0  0  0  0
    0.4689   -1.1907   -2.1611 H   0  0  0  0  0  0  0  0  0  0  0  0
    0.8667    0.8998   -2.4257 C   0  0  0  0  0  0  0  0  0  0  0  0
    1.8175    1.7066   -2.2763 O   0  5  0  0  0  0  0  0  0  0  0  0
   -0.0809    1.0399   -3.2352 O   0  0  0  0  0  0  0  0  0  0  0  0
    0.0657    1.2240    0.3073 C   0  0  0  0  0  0  0  0  0  0  0  0
   -1.0243    1.7900    0.2405 O   0  0  0  0  0  0  0  0  0  0  0  0
    0.9853    1.6978    1.2266 N   0  0  0  0  0  0  0  0  0  0  0  0
    1.9122    1.2923    1.1413 H   0  0  0  0  0  0  0  0  0  0  0  0
    0.8831    3.0293    1.8061 C   0  0  0  0  0  0  0  0  0  0  0  0
   -0.0412    3.1274    2.3845 H   0  0  0  0  0  0  0  0  0  0  0  0
    1.7286    3.2119    2.4757 H   0  0  0  0  0  0  0  0  0  0  0  0
    0.8915    3.7896    1.0182 H   0  0  0  0  0  0  0  0  0  0  0  0
  1  2  1  0  0  0  0
  2  3  1  0  0  0  0
  2  4  1  0  0  0  0
  2  5  1  0  0  0  0
  5  6  2  0  0  0  0
  5  7  1  0  0  0  0
  7  8  1  0  0  0  0
  7  9  1  0  0  0  0
  9 10  1  0  0  0  0
  9 11  1  0  0  0  0
  9 17  1  0  0  0  0
 11 12  1  0  0  0  0
 11 13  1  0  0  0  0
 11 14  1  0  0  0  0
 14 15  1  0  0  0  0
 14 16  2  0  0  0  0
 17 18  2  0  0  0  0
 17 19  1  0  0  0  0
 19 20  1  0  0  0  0
 19 21  1  0  0  0  0
 21 22  1  0  0  0  0
 21 23  1  0  0  0  0
 21 24  1  0  0  0  0
M  CHG  1  15  -1
M  END
$$$$

  -OEChem-03222214023D

 24 23  0     1  0  0  0  0  0999 V2000
   -2.7646   -3.7897    0.4387 H   0  0  0  0  0  0  0  0  0  0  0  0
   -2.7347   -2.7659    0.0558 C   0  0  0  0  0  0  0  0  0  0  0  0
   -3.4526   -2.1588    0.6126 H   0  0  0  0  0  0  0  0  0  0  0  0
   -3.0188   -2.7755   -0.9995 H   0  0  0  0  0  0  0  0  0  0  0  0
   -1.3394   -2.1870    0.2082 C   0  0  0  0  0  0  0  0  0  0  0  0
   -0.4610   -2.8595    0.7288 O   0  0  0  0  0  0  0  0  0  0  0  0
   -1.0944   -0.9062   -0.2312 N   0  0  0  0  0  0  0  0  0  0  0  0
   -1.8675   -0.3863   -0.6419 H   0  0  0  0  0  0  0  0  0  0  0  0
    0.1956   -0.2112   -0.2204 C   0  0  1  0  0  0  0  0  0  0  0  0
    0.8293   -0.7212    0.5116 H   0  0  0  0  0  0  0  0  0  0  0  0
    0.9046   -0.3674   -1.5794 C   0  0  0  0  0  0  0  0  0  0  0  0
    1.9546   -0.6138   -1.3996 H   0  0  0  0  0  0  0  0  0  0  0  0
    0.4737   -1.1979   -2.1447 H   0  0  0  0  0  0  0  0  0  0  0  0
    0.8554    0.8899   -2.4336 C   0  0  0  0  0  0  0  0  0  0  0  0
    1.9107    1.5647   -2.5162 O   0  5  0  0  0  0  0  0  0  0  0  0
   -0.2099    1.1363   -3.0475 O   0  0  0  0  0  0  0  0  0  0  0  0
    0.0616    1.2419    0.3064 C   0  0  0  0  0  0  0  0  0  0  0  0
   -1.0233    1.8175    0.2578 O   0  0  0  0  0  0  0  0  0  0  0  0
    0.9935    1.7096    1.2170 N   0  0  0  0  0  0  0  0  0  0  0  0
    1.9111    1.2802    1.1508 H   0  0  0  0  0  0  0  0  0  0  0  0
    0.9038    3.0343    1.8145 C   0  0  0  0  0  0  0  0  0  0  0  0
   -0.0091    3.1251    2.4118 H   0  0  0  0  0  0  0  0  0  0  0  0
    1.7623    3.2088    2.4694 H   0  0  0  0  0  0  0  0  0  0  0  0
    0.8969    3.8042    1.0360 H   0  0  0  0  0  0  0  0  0  0  0  0
  1  2  1  0  0  0  0
  2  3  1  0  0  0  0
  2  4  1  0  0  0  0
  2  5  1  0  0  0  0
  5  6  2  0  0  0  0
  5  7  1  0  0  0  0
  7  8  1  0  0  0  0
  7  9  1  0  0  0  0
  9 10  1  0  0  0  0
  9 11  1  0  0  0  0
  9 17  1  0  0  0  0
 11 12  1  0  0  0  0
 11 13  1  0  0  0  0
 11 14  1  0  0  0  0
 14 15  1  0  0  0  0
 14 16  2  0  0  0  0
 17 18  2  0  0  0  0
 17 19  1  0  0  0  0
 19 20  1  0  0  0  0
 19 21  1  0  0  0  0
 21 22  1  0  0  0  0
 21 23  1  0  0  0  0
 21 24  1  0  0  0  0
M  CHG  1  15  -1
M  END
$$$$

  -OEChem-03222214023D

 24 23  0     1  0  0  0  0  0999 V2000
   -2.7565   -3.7901    0.4429 H   0  0  0  0  0  0  0  0  0  0  0  0
   -2.7321   -2.7669    0.0582 C   0  0  0  0  0  0  0  0  0  0  0  0
   -3.4494   -2.1616    0.6178 H   0  0  0  0  0  0  0  0  0  0  0  0
   -3.0213   -2.7791   -0.9957 H   0  0  0  0  0  0  0  0  0  0  0  0
   -1.3380   -2.1829    0.2039 C   0  0  0  0  0  0  0  0  0  0  0  0
   -0.4543   -2.8524    0.7197 O   0  0  0  0  0  0  0  0  0  0  0  0
   -1.1014   -0.8993   -0.2321 N   0  0  0  0  0  0  0  0  0  0  0  0
   -1.8787   -0.3821   -0.6390 H   0  0  0  0  0  0  0  0  0  0  0  0
    0.1839   -0.1958   -0.2264 C   0  0  1  0  0  0  0  0  0  0  0  0
    0.8151   -0.7032    0.5094 H   0  0  0  0  0  0  0  0  0  0  0  0
    0.9066   -0.3603   -1.5784 C   0  0  0  0  0  0  0  0  0  0  0  0
    1.9560   -0.5967   -1.3816 H   0  0  0  0  0  0  0  0  0  0  0  0
    0.4886   -1.2022   -2.1362 H   0  0  0  0  0  0  0  0  0  0  0  0
    0.8624    0.8797   -2.4600 C   0  0  0  0  0  0  0  0  0  0  0  0
    1.9614    1.3943   -2.7804 O   0  5  0  0  0  0  0  0  0  0  0  0
   -0.2569    1.2498   -2.8866 O   0  0  0  0  0  0  0  0  0  0  0  0
    0.0532    1.2559    0.3046 C   0  0  0  0  0  0  0  0  0  0  0  0
   -1.0349    1.8268    0.2878 O   0  0  0  0  0  0  0  0  0  0  0  0
    0.9952    1.7173    1.2087 N   0  0  0  0  0  0  0  0  0  0  0  0
    1.9064    1.2732    1.1533 H   0  0  0  0  0  0  0  0  0  0  0  0
    0.9090    3.0308    1.8313 C   0  0  0  0  0  0  0  0  0  0  0  0
    0.0027    3.1089    2.4403 H   0  0  0  0  0  0  0  0  0  0  0  0
    1.7743    3.1957    2.4797 H   0  0  0  0  0  0  0  0  0  0  0  0
    0.8916    3.8149    1.0673 H   0  0  0  0  0  0  0  0  0  0  0  0
  1  2  1  0  0  0  0
  2  3  1  0  0  0  0
  2  4  1  0  0  0  0
  2  5  1  0  0  0  0
  5  6  2  0  0  0  0
  5  7  1  0  0  0  0
  7  8  1  0  0  0  0
  7  9  1  0  0  0  0
  9 10  1  0  0  0  0
  9 11  1  0  0  0  0
  9 17  1  0  0  0  0
 11 12  1  0  0  0  0
 11 13  1  0  0  0  0
 11 14  1  0  0  0  0
 14 15  1  0  0  0  0
 14 16  2  0  0  0  0
 17 18  2  0  0  0  0
 17 19  1  0  0  0  0
 19 20  1  0  0  0  0
 19 21  1  0  0  0  0
 21 22  1  0  0  0  0
 21 23  1  0  0  0  0
 21 24  1  0  0  0  0
M  CHG  1  15  -1
M  END
$$$$

  -OEChem-03222214023D

 24 23  0     1  0  0  0  0  0999 V2000
   -2.7474   -3.7849    0.4524 H   0  0  0  0  0  0  0  0  0  0  0  0
   -2.7304   -2.7608    0.0694 C   0  0  0  0  0  0  0  0  0  0  0  0
   -3.4392   -2.1575    0.6420 H   0  0  0  0  0  0  0  0  0  0  0  0
   -3.0370   -2.7713   -0.9796 H   0  0  0  0  0  0  0  0  0  0  0  0
   -1.3345   -2.1756    0.1926 C   0  0  0  0  0  0  0  0  0  0  0  0
   -0.4406   -2.8482    0.6863 O   0  0  0  0  0  0  0  0  0  0  0  0
   -1.1076   -0.8885   -0.2386 N   0  0  0  0  0  0  0  0  0  0  0  0
   -1.8956   -0.3643   -0.6141 H   0  0  0  0  0  0  0  0  0  0  0  0
    0.1732   -0.1769   -0.2389 C   0  0  1  0  0  0  0  0  0  0  0  0
    0.8012   -0.6812    0.5019 H   0  0  0  0  0  0  0  0  0  0  0  0
    0.9136   -0.3533   -1.5824 C   0  0  0  0  0  0  0  0  0  0  0  0
    1.9614   -0.5773   -1.3636 H   0  0  0  0  0  0  0  0  0  0  0  0
    0.5112   -1.2108   -2.1274 H   0  0  0  0  0  0  0  0  0  0  0  0
    0.8851    0.8599   -2.5040 C   0  0  0  0  0  0  0  0  0  0  0  0
    1.9685    1.1839   -3.0481 O   0  5  0  0  0  0  0  0  0  0  0  0
   -0.2256    1.3825   -2.7555 O   0  0  0  0  0  0  0  0  0  0  0  0
    0.0416    1.2722    0.2993 C   0  0  0  0  0  0  0  0  0  0  0  0
   -1.0544    1.8284    0.3253 O   0  0  0  0  0  0  0  0  0  0  0  0
    0.9934    1.7267    1.1971 N   0  0  0  0  0  0  0  0  0  0  0  0
    1.9031    1.2805    1.1364 H   0  0  0  0  0  0  0  0  0  0  0  0
    0.9025    3.0204    1.8590 C   0  0  0  0  0  0  0  0  0  0  0  0
    0.0139    3.0634    2.4969 H   0  0  0  0  0  0  0  0  0  0  0  0
    1.7842    3.1839    2.4855 H   0  0  0  0  0  0  0  0  0  0  0  0
    0.8476    3.8250    1.1184 H   0  0  0  0  0  0  0  0  0  0  0  0
  1  2  1  0  0  0  0
  2  3  1  0  0  0  0
  2  4  1  0  0  0  0
  2  5  1  0  0  0  0
  5  6  2  0  0  0  0
  5  7  1  0  0  0  0
  7  8  1  0  0  0  0
  7  9  1  0  0  0  0
  9 10  1  0  0  0  0
  9 11  1  0  0  0  0
  9 17  1  0  0  0  0
 11 12  1  0  0  0  0
 11 13  1  0  0  0  0
 11 14  1  0  0  0  0
 14 15  1  0  0  0  0
 14 16  2  0  0  0  0
 17 18  2  0  0  0  0
 17 19  1  0  0  0  0
 19 20  1  0  0  0  0
 19 21  1  0  0  0  0
 21 22  1  0  0  0  0
 21 23  1  0  0  0  0
 21 24  1  0  0  0  0
M  CHG  1  15  -1
M  END
$$$$

  -OEChem-03222214023D

 24 23  0     1  0  0  0  0  0999 V2000
   -2.7429   -3.7712    0.4675 H   0  0  0  0  0  0  0  0  0  0  0  0
   -2.7303   -2.7457    0.0882 C   0  0  0  0  0  0  0  0  0  0  0  0
   -3.4171   -2.1396    0.6843 H   0  0  0  0  0  0  0  0  0  0  0  0
   -3.0682   -2.7496   -0.9512 H   0  0  0  0  0  0  0  0  0  0  0  0
   -1.3273   -2.1709    0.1718 C   0  0  0  0  0  0  0  0  0  0  0  0
   -0.4220   -2.8542    0.6282 O   0  0  0  0  0  0  0  0  0  0  0  0
   -1.1075   -0.8794   -0.2499 N   0  0  0  0  0  0  0  0  0  0  0  0
   -1.9084   -0.3385   -0.5700 H   0  0  0  0  0  0  0  0  0  0  0  0
    0.1714   -0.1639   -0.2540 C   0  0  1  0  0  0  0  0  0  0  0  0
    0.7980   -0.6684    0.4880 H   0  0  0  0  0  0  0  0  0  0  0  0
    0.9222   -0.3466   -1.5939 C   0  0  0  0  0  0  0  0  0  0  0  0
    1.9678   -0.5642   -1.3593 H   0  0  0  0  0  0  0  0  0  0  0  0
    0.5280   -1.2162   -2.1255 H   0  0  0  0  0  0  0  0  0  0  0  0
    0.9194    0.8376   -2.5561 C   0  0  0  0  0  0  0  0  0  0  0  0
    1.9241    0.9475   -3.2998 O   0  5  0  0  0  0  0  0  0  0  0  0
   -0.1041    1.5546   -2.6355 O   0  0  0  0  0  0  0  0  0  0  0  0
    0.0312    1.2790    0.2994 C   0  0  0  0  0  0  0  0  0  0  0  0
   -1.0769    1.8096    0.3651 O   0  0  0  0  0  0  0  0  0  0  0  0
    0.9862    1.7307    1.1959 N   0  0  0  0  0  0  0  0  0  0  0  0
    1.9010    1.2979    1.1197 H   0  0  0  0  0  0  0  0  0  0  0  0
    0.8807    3.0075    1.8878 C   0  0  0  0  0  0  0  0  0  0  0  0
    0.0107    3.0129    2.5523 H   0  0  0  0  0  0  0  0  0  0  0  0
    1.7763    3.1823    2.4912 H   0  0  0  0  0  0  0  0  0  0  0  0
    0.7820    3.8254    1.1666 H   0  0  0  0  0  0  0  0  0  0  0  0
  1  2  1  0  0  0  0
  2  3  1  0  0  0  0
  2  4  1  0  0  0  0
  2  5  1  0  0  0  0
  5  6  2  0  0  0  0
  5  7  1  0  0  0  0
  7  8  1  0  0  0  0
  7  9  1  0  0  0  0
  9 10  1  0  0  0  0
  9 11  1  0  0  0  0
  9 17  1  0  0  0  0
 11 12  1  0  0  0  0
 11 13  1  0  0  0  0
 11 14  1  0  0  0  0
 14 15  1  0  0  0  0
 14 16  2  0  0  0  0
 17 18  2  0  0  0  0
 17 19  1  0  0  0  0
 19 20  1  0  0  0  0
 19 21  1  0  0  0  0
 21 22  1  0  0  0  0
 21 23  1  0  0  0  0
 21 24  1  0  0  0  0
M  CHG  1  15  -1
M  END
$$$$

  -OEChem-03222214023D

 24 23  0     1  0  0  0  0  0999 V2000
   -2.7386   -3.7564    0.4858 H   0  0  0  0  0  0  0  0  0  0  0  0
   -2.7297   -2.7297    0.1095 C   0  0  0  0  0  0  0  0  0  0  0  0
   -3.3880   -2.1191    0.7326 H   0  0  0  0  0  0  0  0  0  0  0  0
   -3.1060   -2.7266   -0.9166 H   0  0  0  0  0  0  0  0  0  0  0  0
   -1.3190   -2.1689    0.1434 C   0  0  0  0  0  0  0  0  0  0  0  0
   -0.4029   -2.8662    0.5544 O   0  0  0  0  0  0  0  0  0  0  0  0
   -1.1047   -0.8722   -0.2650 N   0  0  0  0  0  0  0  0  0  0  0  0
   -1.9170   -0.3093   -0.5092 H   0  0  0  0  0  0  0  0  0  0  0  0
    0.1753   -0.1571   -0.2682 C   0  0  1  0  0  0  0  0  0  0  0  0
    0.8032   -0.6653    0.4704 H   0  0  0  0  0  0  0  0  0  0  0  0
    0.9266   -0.3407   -1.6116 C   0  0  0  0  0  0  0  0  0  0  0  0
    1.9700   -0.5623   -1.3718 H   0  0  0  0  0  0  0  0  0  0  0  0
    0.5295   -1.2163   -2.1314 H   0  0  0  0  0  0  0  0  0  0  0  0
    0.9529    0.8183   -2.6074 C   0  0  0  0  0  0  0  0  0  0  0  0
    1.8055    0.7205   -3.5227 O   0  5  0  0  0  0  0  0  0  0  0  0
    0.1250    1.7518   -2.5114 O   0  0  0  0  0  0  0  0  0  0  0  0
    0.0215    1.2771    0.3062 C   0  0  0  0  0  0  0  0  0  0  0  0
   -1.0992    1.7801    0.3958 O   0  0  0  0  0  0  0  0  0  0  0  0
    0.9730    1.7273    1.2073 N   0  0  0  0  0  0  0  0  0  0  0  0
    1.8972    1.3211    1.1054 H   0  0  0  0  0  0  0  0  0  0  0  0
    0.8525    2.9948    1.9140 C   0  0  0  0  0  0  0  0  0  0  0  0
   -0.0178    2.9832    2.5780 H   0  0  0  0  0  0  0  0  0  0  0  0
    1.7456    3.1723    2.5201 H   0  0  0  0  0  0  0  0  0  0  0  0
    0.7452    3.8200    1.2025 H   0  0  0  0  0  0  0  0  0  0  0  0
  1  2  1  0  0  0  0
  2  3  1  0  0  0  0
  2  4  1  0  0  0  0
  2  5  1  0  0  0  0
  5  6  2  0  0  0  0
  5  7  1  0  0  0  0
  7  8  1  0  0  0  0
  7  9  1  0  0  0  0
  9 10  1  0  0  0  0
  9 11  1  0  0  0  0
  9 17  1  0  0  0  0
 11 12  1  0  0  0  0
 11 13  1  0  0  0  0
 11 14  1  0  0  0  0
 14 15  1  0  0  0  0
 14 16  2  0  0  0  0
 17 18  2  0  0  0  0
 17 19  1  0  0  0  0
 19 20  1  0  0  0  0
 19 21  1  0  0  0  0
 21 22  1  0  0  0  0
 21 23  1  0  0  0  0
 21 24  1  0  0  0  0
M  CHG  1  15  -1
M  END
$$$$

  -OEChem-03222214023D

 24 23  0     1  0  0  0  0  0999 V2000
   -2.7610   -3.6977    0.5344 H   0  0  0  0  0  0  0  0  0  0  0  0
   -2.7281   -2.6728    0.1545 C   0  0  0  0  0  0  0  0  0  0  0  0
   -3.3261   -2.0345    0.8095 H   0  0  0  0  0  0  0  0  0  0  0  0
   -3.1568   -2.6550   -0.8505 H   0  0  0  0  0  0  0  0  0  0  0  0
   -1.2950   -2.1727    0.1124 C   0  0  0  0  0  0  0  0  0  0  0  0
   -0.3886   -2.9124    0.4653 O   0  0  0  0  0  0  0  0  0  0  0  0
   -1.0488   -0.8793   -0.2889 N   0  0  0  0  0  0  0  0  0  0  0  0
   -1.8507   -0.2633   -0.4118 H   0  0  0  0  0  0  0  0  0  0  0  0
    0.2562   -0.2057   -0.2677 C   0  0  1  0  0  0  0  0  0  0  0  0
    0.9018   -0.7218    0.4500 H   0  0  0  0  0  0  0  0  0  0  0  0
    0.9450   -0.3438   -1.6583 C   0  0  0  0  0  0  0  0  0  0  0  0
    1.8698   -0.9063   -1.5069 H   0  0  0  0  0  0  0  0  0  0  0  0
    0.3096   -0.9583   -2.3019 H   0  0  0  0  0  0  0  0  0  0  0  0
    1.3228    0.8923   -2.4829 C   0  0  0  0  0  0  0  0  0  0  0  0
    1.8683    0.6368   -3.5834 O   0  5  0  0  0  0  0  0  0  0  0  0
    1.2449    2.0424   -1.9925 O   0  0  0  0  0  0  0  0  0  0  0  0
    0.0321    1.2133    0.3267 C   0  0  0  0  0  0  0  0  0  0  0  0
   -1.1031    1.6987    0.3134 O   0  0  0  0  0  0  0  0  0  0  0  0
    0.9219    1.6873    1.2755 N   0  0  0  0  0  0  0  0  0  0  0  0
    1.8766    1.3711    1.1366 H   0  0  0  0  0  0  0  0  0  0  0  0
    0.7349    2.9769    1.9242 C   0  0  0  0  0  0  0  0  0  0  0  0
   -0.1853    2.9793    2.5171 H   0  0  0  0  0  0  0  0  0  0  0  0
    1.5755    3.1850    2.5925 H   0  0  0  0  0  0  0  0  0  0  0  0
    0.6781    3.7750    1.1766 H   0  0  0  0  0  0  0  0  0  0  0  0
  1  2  1  0  0  0  0
  2  3  1  0  0  0  0
  2  4  1  0  0  0  0
  2  5  1  0  0  0  0
  5  6  2  0  0  0  0
  5  7  1  0  0  0  0
  7  8  1  0  0  0  0
  7  9  1  0  0  0  0
  9 10  1  0  0  0  0
  9 11  1  0  0  0  0
  9 17  1  0  0  0  0
 11 12  1  0  0  0  0
 11 13  1  0  0  0  0
 11 14  1  0  0  0  0
 14 15  1  0  0  0  0
 14 16  2  0  0  0  0
 17 18  2  0  0  0  0
 17 19  1  0  0  0  0
 19 20  1  0  0  0  0
 19 21  1  0  0  0  0
 21 22  1  0  0  0  0
 21 23  1  0  0  0  0
 21 24  1  0  0  0  0
M  CHG  1  15  -1
M  END
$$$$

  -OEChem-03222214023D

 24 23  0     1  0  0  0  0  0999 V2000
   -2.7807   -3.6880    0.5469 H   0  0  0  0  0  0  0  0  0  0  0  0
   -2.7342   -2.6677    0.1562 C   0  0  0  0  0  0  0  0  0  0  0  0
   -3.3355   -2.0170    0.7961 H   0  0  0  0  0  0  0  0  0  0  0  0
   -3.1499   -2.6575   -0.8545 H   0  0  0  0  0  0  0  0  0  0  0  0
   -1.2964   -2.1802    0.1274 C   0  0  0  0  0  0  0  0  0  0  0  0
   -0.3999   -2.9257    0.4927 O   0  0  0  0  0  0  0  0  0  0  0  0
   -1.0346   -0.8923   -0.2806 N   0  0  0  0  0  0  0  0  0  0  0  0
   -1.8296   -0.2696   -0.4141 H   0  0  0  0  0  0  0  0  0  0  0  0
    0.2778   -0.2328   -0.2571 C   0  0  1  0  0  0  0  0  0  0  0  0
    0.9316   -0.7517    0.4511 H   0  0  0  0  0  0  0  0  0  0  0  0
    0.9391   -0.3451   -1.6622 C   0  0  0  0  0  0  0  0  0  0  0  0
    1.8609   -0.9216   -1.5518 H   0  0  0  0  0  0  0  0  0  0  0  0
    0.2825   -0.9301   -2.3127 H   0  0  0  0  0  0  0  0  0  0  0  0
    1.3072    0.9239   -2.4371 C   0  0  0  0  0  0  0  0  0  0  0  0
    1.5512    0.7526   -3.6558 O   0  5  0  0  0  0  0  0  0  0  0  0
    1.5964    1.9687   -1.8052 O   0  0  0  0  0  0  0  0  0  0  0  0
    0.0434    1.1884    0.3300 C   0  0  0  0  0  0  0  0  0  0  0  0
   -1.0839    1.6884    0.2672 O   0  0  0  0  0  0  0  0  0  0  0  0
    0.9180    1.6736    1.2863 N   0  0  0  0  0  0  0  0  0  0  0  0
    1.8773    1.3752    1.1362 H   0  0  0  0  0  0  0  0  0  0  0  0
    0.7248    2.9797    1.8990 C   0  0  0  0  0  0  0  0  0  0  0  0
   -0.2188    3.0097    2.4532 H   0  0  0  0  0  0  0  0  0  0  0  0
    1.5404    3.1899    2.5969 H   0  0  0  0  0  0  0  0  0  0  0  0
    0.7115    3.7614    1.1322 H   0  0  0  0  0  0  0  0  0  0  0  0
  1  2  1  0  0  0  0
  2  3  1  0  0  0  0
  2  4  1  0  0  0  0
  2  5  1  0  0  0  0
  5  6  2  0  0  0  0
  5  7  1  0  0  0  0
  7  8  1  0  0  0  0
  7  9  1  0  0  0  0
  9 10  1  0  0  0  0
  9 11  1  0  0  0  0
  9 17  1  0  0  0  0
 11 12  1  0  0  0  0
 11 13  1  0  0  0  0
 11 14  1  0  0  0  0
 14 15  1  0  0  0  0
 14 16  2  0  0  0  0
 17 18  2  0  0  0  0
 17 19  1  0  0  0  0
 19 20  1  0  0  0  0
 19 21  1  0  0  0  0
 21 22  1  0  0  0  0
 21 23  1  0  0  0  0
 21 24  1  0  0  0  0
M  CHG  1  15  -1
M  END
$$$$

  -OEChem-03222214023D

 24 23  0     1  0  0  0  0  0999 V2000
   -2.7957   -3.6880    0.5515 H   0  0  0  0  0  0  0  0  0  0  0  0
   -2.7427   -2.6693    0.1578 C   0  0  0  0  0  0  0  0  0  0  0  0
   -3.3477   -2.0145    0.7898 H   0  0  0  0  0  0  0  0  0  0  0  0
   -3.1492   -2.6615   -0.8566 H   0  0  0  0  0  0  0  0  0  0  0  0
   -1.3032   -2.1867    0.1399 C   0  0  0  0  0  0  0  0  0  0  0  0
   -0.4131   -2.9313    0.5225 O   0  0  0  0  0  0  0  0  0  0  0  0
   -1.0327   -0.9042   -0.2795 N   0  0  0  0  0  0  0  0  0  0  0  0
   -1.8241   -0.2819   -0.4345 H   0  0  0  0  0  0  0  0  0  0  0  0
    0.2824   -0.2507   -0.2537 C   0  0  1  0  0  0  0  0  0  0  0  0
    0.9343   -0.7690    0.4564 H   0  0  0  0  0  0  0  0  0  0  0  0
    0.9443   -0.3534   -1.6558 C   0  0  0  0  0  0  0  0  0  0  0  0
    1.8685   -0.9277   -1.5576 H   0  0  0  0  0  0  0  0  0  0  0  0
    0.2886   -0.9255   -2.3184 H   0  0  0  0  0  0  0  0  0  0  0  0
    1.2996    0.9459   -2.3793 C   0  0  0  0  0  0  0  0  0  0  0  0
    1.2667    0.9128   -3.6329 O   0  5  0  0  0  0  0  0  0  0  0  0
    1.8440    1.8597   -1.7102 O   0  0  0  0  0  0  0  0  0  0  0  0
    0.0543    1.1784    0.3170 C   0  0  0  0  0  0  0  0  0  0  0  0
   -1.0644    1.6921    0.2256 O   0  0  0  0  0  0  0  0  0  0  0  0
    0.9246    1.6700    1.2733 N   0  0  0  0  0  0  0  0  0  0  0  0
    1.8858    1.3797    1.1138 H   0  0  0  0  0  0  0  0  0  0  0  0
    0.7306    2.9820    1.8729 C   0  0  0  0  0  0  0  0  0  0  0  0
   -0.2155    3.0187    2.4225 H   0  0  0  0  0  0  0  0  0  0  0  0
    1.5434    3.1968    2.5726 H   0  0  0  0  0  0  0  0  0  0  0  0
    0.7225    3.7569    1.0991 H   0  0  0  0  0  0  0  0  0  0  0  0
  1  2  1  0  0  0  0
  2  3  1  0  0  0  0
  2  4  1  0  0  0  0
  2  5  1  0  0  0  0
  5  6  2  0  0  0  0
  5  7  1  0  0  0  0
  7  8  1  0  0  0  0
  7  9  1  0  0  0  0
  9 10  1  0  0  0  0
  9 11  1  0  0  0  0
  9 17  1  0  0  0  0
 11 12  1  0  0  0  0
 11 13  1  0  0  0  0
 11 14  1  0  0  0  0
 14 15  1  0  0  0  0
 14 16  2  0  0  0  0
 17 18  2  0  0  0  0
 17 19  1  0  0  0  0
 19 20  1  0  0  0  0
 19 21  1  0  0  0  0
 21 22  1  0  0  0  0
 21 23  1  0  0  0  0
 21 24  1  0  0  0  0
M  CHG  1  15  -1
M  END
$$$$

  -OEChem-03222214023D

 24 23  0     1  0  0  0  0  0999 V2000
   -2.8054   -3.6924    0.5523 H   0  0  0  0  0  0  0  0  0  0  0  0
   -2.7484   -2.6765    0.1518 C   0  0  0  0  0  0  0  0  0  0  0  0
   -3.3631   -2.0180    0.7704 H   0  0  0  0  0  0  0  0  0  0  0  0
   -3.1401   -2.6768   -0.8684 H   0  0  0  0  0  0  0  0  0  0  0  0
   -1.3097   -2.1917    0.1502 C   0  0  0  0  0  0  0  0  0  0  0  0
   -0.4236   -2.9322    0.5499 O   0  0  0  0  0  0  0  0  0  0  0  0
   -1.0353   -0.9133   -0.2787 N   0  0  0  0  0  0  0  0  0  0  0  0
   -1.8247   -0.2965   -0.4622 H   0  0  0  0  0  0  0  0  0  0  0  0
    0.2792   -0.2604   -0.2516 C   0  0  1  0  0  0  0  0  0  0  0  0
    0.9264   -0.7765    0.4645 H   0  0  0  0  0  0  0  0  0  0  0  0
    0.9503   -0.3649   -1.6452 C   0  0  0  0  0  0  0  0  0  0  0  0
    1.8796   -0.9307   -1.5451 H   0  0  0  0  0  0  0  0  0  0  0  0
    0.3043   -0.9360   -2.3183 H   0  0  0  0  0  0  0  0  0  0  0  0
    1.2899    0.9568   -2.3289 C   0  0  0  0  0  0  0  0  0  0  0  0
    1.0024    1.0740   -3.5442 O   0  5  0  0  0  0  0  0  0  0  0  0
    2.0102    1.7607   -1.6838 O   0  0  0  0  0  0  0  0  0  0  0  0
    0.0650    1.1766    0.3034 C   0  0  0  0  0  0  0  0  0  0  0  0
   -1.0472    1.7005    0.2019 O   0  0  0  0  0  0  0  0  0  0  0  0
    0.9381    1.6704    1.2556 N   0  0  0  0  0  0  0  0  0  0  0  0
    1.8988    1.3793    1.0913 H   0  0  0  0  0  0  0  0  0  0  0  0
    0.7487    2.9862    1.8488 C   0  0  0  0  0  0  0  0  0  0  0  0
   -0.1961    3.0281    2.4000 H   0  0  0  0  0  0  0  0  0  0  0  0
    1.5634    3.2027    2.5459 H   0  0  0  0  0  0  0  0  0  0  0  0
    0.7405    3.7573    1.0713 H   0  0  0  0  0  0  0  0  0  0  0  0
  1  2  1  0  0  0  0
  2  3  1  0  0  0  0
  2  4  1  0  0  0  0
  2  5  1  0  0  0  0
  5  6  2  0  0  0  0
  5  7  1  0  0  0  0
  7  8  1  0  0  0  0
  7  9  1  0  0  0  0
  9 10  1  0  0  0  0
  9 11  1  0  0  0  0
  9 17  1  0  0  0  0
 11 12  1  0  0  0  0
 11 13  1  0  0  0  0
 11 14  1  0  0  0  0
 14 15  1  0  0  0  0
 14 16  2  0  0  0  0
 17 18  2  0  0  0  0
 17 19  1  0  0  0  0
 19 20  1  0  0  0  0
 19 21  1  0  0  0  0
 21 22  1  0  0  0  0
 21 23  1  0  0  0  0
 21 24  1  0  0  0  0
M  CHG  1  15  -1
M  END
$$$$

  -OEChem-03222214023D

 24 23  0     1  0  0  0  0  0999 V2000
   -2.8104   -3.7037    0.5448 H   0  0  0  0  0  0  0  0  0  0  0  0
   -2.7531   -2.6885    0.1425 C   0  0  0  0  0  0  0  0  0  0  0  0
   -3.3774   -2.0312    0.7528 H   0  0  0  0  0  0  0  0  0  0  0  0
   -3.1338   -2.6930   -0.8819 H   0  0  0  0  0  0  0  0  0  0  0  0
   -1.3164   -2.1976    0.1560 C   0  0  0  0  0  0  0  0  0  0  0  0
   -0.4323   -2.9325    0.5704 O   0  0  0  0  0  0  0  0  0  0  0  0
   -1.0417   -0.9212   -0.2786 N   0  0  0  0  0  0  0  0  0  0  0  0
   -1.8305   -0.3130   -0.4908 H   0  0  0  0  0  0  0  0  0  0  0  0
    0.2698   -0.2633   -0.2511 C   0  0  1  0  0  0  0  0  0  0  0  0
    0.9117   -0.7765    0.4719 H   0  0  0  0  0  0  0  0  0  0  0  0
    0.9568   -0.3732   -1.6336 C   0  0  0  0  0  0  0  0  0  0  0  0
    1.8924   -0.9269   -1.5220 H   0  0  0  0  0  0  0  0  0  0  0  0
    0.3254   -0.9494   -2.3159 H   0  0  0  0  0  0  0  0  0  0  0  0
    1.2810    0.9613   -2.2944 C   0  0  0  0  0  0  0  0  0  0  0  0
    0.7672    1.2154   -3.4097 O   0  5  0  0  0  0  0  0  0  0  0  0
    2.1274    1.6839   -1.7085 O   0  0  0  0  0  0  0  0  0  0  0  0
    0.0703    1.1798    0.2924 C   0  0  0  0  0  0  0  0  0  0  0  0
   -1.0382    1.7103    0.1950 O   0  0  0  0  0  0  0  0  0  0  0  0
    0.9505    1.6720    1.2389 N   0  0  0  0  0  0  0  0  0  0  0  0
    1.9078    1.3670    1.0790 H   0  0  0  0  0  0  0  0  0  0  0  0
    0.7759    2.9927    1.8255 C   0  0  0  0  0  0  0  0  0  0  0  0
   -0.1678    3.0475    2.3775 H   0  0  0  0  0  0  0  0  0  0  0  0
    1.5935    3.2042    2.5207 H   0  0  0  0  0  0  0  0  0  0  0  0
    0.7753    3.7600    1.0444 H   0  0  0  0  0  0  0  0  0  0  0  0
  1  2  1  0  0  0  0
  2  3  1  0  0  0  0
  2  4  1  0  0  0  0
  2  5  1  0  0  0  0
  5  6  2  0  0  0  0
  5  7  1  0  0  0  0
  7  8  1  0  0  0  0
  7  9  1  0  0  0  0
  9 10  1  0  0  0  0
  9 11  1  0  0  0  0
  9 17  1  0  0  0  0
 11 12  1  0  0  0  0
 11 13  1  0  0  0  0
 11 14  1  0  0  0  0
 14 15  1  0  0  0  0
 14 16  2  0  0  0  0
 17 18  2  0  0  0  0
 17 19  1  0  0  0  0
 19 20  1  0  0  0  0
 19 21  1  0  0  0  0
 21 22  1  0  0  0  0
 21 23  1  0  0  0  0
 21 24  1  0  0  0  0
M  CHG  1  15  -1
M  END
$$$$

  -OEChem-03222214023D

 24 23  0     1  0  0  0  0  0999 V2000
   -2.8083   -3.7148    0.5416 H   0  0  0  0  0  0  0  0  0  0  0  0
   -2.7556   -2.7011    0.1348 C   0  0  0  0  0  0  0  0  0  0  0  0
   -3.3903   -2.0459    0.7365 H   0  0  0  0  0  0  0  0  0  0  0  0
   -3.1271   -2.7132   -0.8930 H   0  0  0  0  0  0  0  0  0  0  0  0
   -1.3229   -2.1990    0.1584 C   0  0  0  0  0  0  0  0  0  0  0  0
   -0.4371   -2.9265    0.5823 O   0  0  0  0  0  0  0  0  0  0  0  0
   -1.0529   -0.9233   -0.2813 N   0  0  0  0  0  0  0  0  0  0  0  0
   -1.8426   -0.3237   -0.5128 H   0  0  0  0  0  0  0  0  0  0  0  0
    0.2548   -0.2582   -0.2558 C   0  0  1  0  0  0  0  0  0  0  0  0
    0.8897   -0.7668    0.4765 H   0  0  0  0  0  0  0  0  0  0  0  0
    0.9634   -0.3796   -1.6241 C   0  0  0  0  0  0  0  0  0  0  0  0
    1.9032   -0.9221   -1.4936 H   0  0  0  0  0  0  0  0  0  0  0  0
    0.3489   -0.9658   -2.3132 H   0  0  0  0  0  0  0  0  0  0  0  0
    1.2757    0.9592   -2.2775 C   0  0  0  0  0  0  0  0  0  0  0  0
    0.5729    1.3355   -3.2449 O   0  5  0  0  0  0  0  0  0  0  0  0
    2.2266    1.6115   -1.7766 O   0  0  0  0  0  0  0  0  0  0  0  0
    0.0696    1.1893    0.2785 C   0  0  0  0  0  0  0  0  0  0  0  0
   -1.0391    1.7214    0.2019 O   0  0  0  0  0  0  0  0  0  0  0  0
    0.9615    1.6748    1.2174 N   0  0  0  0  0  0  0  0  0  0  0  0
    1.9145    1.3562    1.0579 H   0  0  0  0  0  0  0  0  0  0  0  0
    0.8028    2.9952    1.8092 C   0  0  0  0  0  0  0  0  0  0  0  0
   -0.1348    3.0554    2.3712 H   0  0  0  0  0  0  0  0  0  0  0  0
    1.6292    3.1988    2.4964 H   0  0  0  0  0  0  0  0  0  0  0  0
    0.7999    3.7645    1.0300 H   0  0  0  0  0  0  0  0  0  0  0  0
  1  2  1  0  0  0  0
  2  3  1  0  0  0  0
  2  4  1  0  0  0  0
  2  5  1  0  0  0  0
  5  6  2  0  0  0  0
  5  7  1  0  0  0  0
  7  8  1  0  0  0  0
  7  9  1  0  0  0  0
  9 10  1  0  0  0  0
  9 11  1  0  0  0  0
  9 17  1  0  0  0  0
 11 12  1  0  0  0  0
 11 13  1  0  0  0  0
 11 14  1  0  0  0  0
 14 15  1  0  0  0  0
 14 16  2  0  0  0  0
 17 18  2  0  0  0  0
 17 19  1  0  0  0  0
 19 20  1  0  0  0  0
 19 21  1  0  0  0  0
 21 22  1  0  0  0  0
 21 23  1  0  0  0  0
 21 24  1  0  0  0  0
M  CHG  1  15  -1
M  END
$$$$

  -OEChem-03222214023D

 24 23  0     1  0  0  0  0  0999 V2000
   -2.8055   -3.7209    0.5400 H   0  0  0  0  0  0  0  0  0  0  0  0
   -2.7571   -2.7070    0.1332 C   0  0  0  0  0  0  0  0  0  0  0  0
   -3.3920   -2.0532    0.7364 H   0  0  0  0  0  0  0  0  0  0  0  0
   -3.1318   -2.7205   -0.8934 H   0  0  0  0  0  0  0  0  0  0  0  0
   -1.3261   -2.2002    0.1533 C   0  0  0  0  0  0  0  0  0  0  0  0
   -0.4367   -2.9247    0.5750 O   0  0  0  0  0  0  0  0  0  0  0  0
   -1.0619   -0.9240   -0.2883 N   0  0  0  0  0  0  0  0  0  0  0  0
   -1.8541   -0.3293   -0.5240 H   0  0  0  0  0  0  0  0  0  0  0  0
    0.2414   -0.2516   -0.2642 C   0  0  1  0  0  0  0  0  0  0  0  0
    0.8696   -0.7571    0.4760 H   0  0  0  0  0  0  0  0  0  0  0  0
    0.9700   -0.3840   -1.6189 C   0  0  0  0  0  0  0  0  0  0  0  0
    1.9114   -0.9191   -1.4698 H   0  0  0  0  0  0  0  0  0  0  0  0
    0.3688   -0.9788   -2.3119 H   0  0  0  0  0  0  0  0  0  0  0  0
    1.2749    0.9534   -2.2764 C   0  0  0  0  0  0  0  0  0  0  0  0
    0.4258    1.4454   -3.0557 O   0  5  0  0  0  0  0  0  0  0  0  0
    2.3284    1.5258   -1.9007 O   0  0  0  0  0  0  0  0  0  0  0  0
    0.0665    1.1985    0.2654 C   0  0  0  0  0  0  0  0  0  0  0  0
   -1.0449    1.7274    0.2162 O   0  0  0  0  0  0  0  0  0  0  0  0
    0.9676    1.6790    1.1985 N   0  0  0  0  0  0  0  0  0  0  0  0
    1.9168    1.3453    1.0491 H   0  0  0  0  0  0  0  0  0  0  0  0
    0.8186    2.9963    1.7996 C   0  0  0  0  0  0  0  0  0  0  0  0
   -0.1036    3.0493    2.3869 H   0  0  0  0  0  0  0  0  0  0  0  0
    1.6623    3.2014    2.4650 H   0  0  0  0  0  0  0  0  0  0  0  0
    0.7909    3.7685    1.0238 H   0  0  0  0  0  0  0  0  0  0  0  0
  1  2  1  0  0  0  0
  2  3  1  0  0  0  0
  2  4  1  0  0  0  0
  2  5  1  0  0  0  0
  5  6  2  0  0  0  0
  5  7  1  0  0  0  0
  7  8  1  0  0  0  0
  7  9  1  0  0  0  0
  9 10  1  0  0  0  0
  9 11  1  0  0  0  0
  9 17  1  0  0  0  0
 11 12  1  0  0  0  0
 11 13  1  0  0  0  0
 11 14  1  0  0  0  0
 14 15  1  0  0  0  0
 14 16  2  0  0  0  0
 17 18  2  0  0  0  0
 17 19  1  0  0  0  0
 19 20  1  0  0  0  0
 19 21  1  0  0  0  0
 21 22  1  0  0  0  0
 21 23  1  0  0  0  0
 21 24  1  0  0  0  0
M  CHG  1  15  -1
M  END
$$$$

  -OEChem-03222214023D

 24 23  0     1  0  0  0  0  0999 V2000
   -2.7978   -3.7283    0.5379 H   0  0  0  0  0  0  0  0  0  0  0  0
   -2.7559   -2.7134    0.1327 C   0  0  0  0  0  0  0  0  0  0  0  0
   -3.3922   -2.0644    0.7394 H   0  0  0  0  0  0  0  0  0  0  0  0
   -3.1344   -2.7271   -0.8925 H   0  0  0  0  0  0  0  0  0  0  0  0
   -1.3273   -2.1989    0.1488 C   0  0  0  0  0  0  0  0  0  0  0  0
   -0.4333   -2.9188    0.5686 O   0  0  0  0  0  0  0  0  0  0  0  0
   -1.0712   -0.9204   -0.2909 N   0  0  0  0  0  0  0  0  0  0  0  0
   -1.8668   -0.3309   -0.5286 H   0  0  0  0  0  0  0  0  0  0  0  0
    0.2272   -0.2388   -0.2713 C   0  0  1  0  0  0  0  0  0  0  0  0
    0.8523   -0.7408    0.4739 H   0  0  0  0  0  0  0  0  0  0  0  0
    0.9709   -0.3828   -1.6169 C   0  0  0  0  0  0  0  0  0  0  0  0
    1.9131   -0.9120   -1.4502 H   0  0  0  0  0  0  0  0  0  0  0  0
    0.3794   -0.9893   -2.3077 H   0  0  0  0  0  0  0  0  0  0  0  0
    1.2729    0.9451   -2.2960 C   0  0  0  0  0  0  0  0  0  0  0  0
    0.3327    1.5520   -2.8591 O   0  5  0  0  0  0  0  0  0  0  0  0
    2.4270    1.4083   -2.1235 O   0  0  0  0  0  0  0  0  0  0  0  0
    0.0574    1.2109    0.2600 C   0  0  0  0  0  0  0  0  0  0  0  0
   -1.0578    1.7335    0.2434 O   0  0  0  0  0  0  0  0  0  0  0  0
    0.9686    1.6860    1.1870 N   0  0  0  0  0  0  0  0  0  0  0  0
    1.9124    1.3313    1.0555 H   0  0  0  0  0  0  0  0  0  0  0  0
    0.8292    2.9979    1.8029 C   0  0  0  0  0  0  0  0  0  0  0  0
   -0.0848    3.0461    2.4034 H   0  0  0  0  0  0  0  0  0  0  0  0
    1.6822    3.1958    2.4583 H   0  0  0  0  0  0  0  0  0  0  0  0
    0.7914    3.7779    1.0353 H   0  0  0  0  0  0  0  0  0  0  0  0
  1  2  1  0  0  0  0
  2  3  1  0  0  0  0
  2  4  1  0  0  0  0
  2  5  1  0  0  0  0
  5  6  2  0  0  0  0
  5  7  1  0  0  0  0
  7  8  1  0  0  0  0
  7  9  1  0  0  0  0
  9 10  1  0  0  0  0
  9 11  1  0  0  0  0
  9 17  1  0  0  0  0
 11 12  1  0  0  0  0
 11 13  1  0  0  0  0
 11 14  1  0  0  0  0
 14 15  1  0  0  0  0
 14 16  2  0  0  0  0
 17 18  2  0  0  0  0
 17 19  1  0  0  0  0
 19 20  1  0  0  0  0
 19 21  1  0  0  0  0
 21 22  1  0  0  0  0
 21 23  1  0  0  0  0
 21 24  1  0  0  0  0
M  CHG  1  15  -1
M  END
$$$$

  -OEChem-03222214023D

 24 23  0     1  0  0  0  0  0999 V2000
   -2.7823   -3.7338    0.5335 H   0  0  0  0  0  0  0  0  0  0  0  0
   -2.7483   -2.7170    0.1328 C   0  0  0  0  0  0  0  0  0  0  0  0
   -3.3872   -2.0748    0.7442 H   0  0  0  0  0  0  0  0  0  0  0  0
   -3.1296   -2.7283   -0.8914 H   0  0  0  0  0  0  0  0  0  0  0  0
   -1.3231   -2.1933    0.1463 C   0  0  0  0  0  0  0  0  0  0  0  0
   -0.4222   -2.9100    0.5567 O   0  0  0  0  0  0  0  0  0  0  0  0
   -1.0782   -0.9107   -0.2879 N   0  0  0  0  0  0  0  0  0  0  0  0
   -1.8793   -0.3236   -0.5129 H   0  0  0  0  0  0  0  0  0  0  0  0
    0.2155   -0.2201   -0.2745 C   0  0  1  0  0  0  0  0  0  0  0  0
    0.8409   -0.7203    0.4718 H   0  0  0  0  0  0  0  0  0  0  0  0
    0.9645   -0.3765   -1.6180 C   0  0  0  0  0  0  0  0  0  0  0  0
    1.9044   -0.9048   -1.4354 H   0  0  0  0  0  0  0  0  0  0  0  0
    0.3746   -0.9973   -2.2970 H   0  0  0  0  0  0  0  0  0  0  0  0
    1.2744    0.9292   -2.3409 C   0  0  0  0  0  0  0  0  0  0  0  0
    0.3209    1.6667   -2.6808 O   0  5  0  0  0  0  0  0  0  0  0  0
    2.4873    1.2322   -2.4512 O   0  0  0  0  0  0  0  0  0  0  0  0
    0.0457    1.2261    0.2655 C   0  0  0  0  0  0  0  0  0  0  0  0
   -1.0749    1.7374    0.2820 O   0  0  0  0  0  0  0  0  0  0  0  0
    0.9655    1.6972    1.1870 N   0  0  0  0  0  0  0  0  0  0  0  0
    1.9046    1.3269    1.0716 H   0  0  0  0  0  0  0  0  0  0  0  0
    0.8285    2.9988    1.8250 C   0  0  0  0  0  0  0  0  0  0  0  0
   -0.0874    3.0401    2.4232 H   0  0  0  0  0  0  0  0  0  0  0  0
    1.6796    3.1823    2.4870 H   0  0  0  0  0  0  0  0  0  0  0  0
    0.7963    3.7919    1.0709 H   0  0  0  0  0  0  0  0  0  0  0  0
  1  2  1  0  0  0  0
  2  3  1  0  0  0  0
  2  4  1  0  0  0  0
  2  5  1  0  0  0  0
  5  6  2  0  0  0  0
  5  7  1  0  0  0  0
  7  8  1  0  0  0  0
  7  9  1  0  0  0  0
  9 10  1  0  0  0  0
  9 11  1  0  0  0  0
  9 17  1  0  0  0  0
 11 12  1  0  0  0  0
 11 13  1  0  0  0  0
 11 14  1  0  0  0  0
 14 15  1  0  0  0  0
 14 16  2  0  0  0  0
 17 18  2  0  0  0  0
 17 19  1  0  0  0  0
 19 20  1  0  0  0  0
 19 21  1  0  0  0  0
 21 22  1  0  0  0  0
 21 23  1  0  0  0  0
 21 24  1  0  0  0  0
M  CHG  1  15  -1
M  END
$$$$

  -OEChem-03222214023D

 24 23  0     1  0  0  0  0  0999 V2000
   -2.7661   -3.7277    0.5329 H   0  0  0  0  0  0  0  0  0  0  0  0
   -2.7396   -2.7079    0.1396 C   0  0  0  0  0  0  0  0  0  0  0  0
   -3.3690   -2.0713    0.7663 H   0  0  0  0  0  0  0  0  0  0  0  0
   -3.1367   -2.7110   -0.8786 H   0  0  0  0  0  0  0  0  0  0  0  0
   -1.3151   -2.1830    0.1353 C   0  0  0  0  0  0  0  0  0  0  0  0
   -0.4074   -2.9003    0.5294 O   0  0  0  0  0  0  0  0  0  0  0  0
   -1.0792   -0.8959   -0.2903 N   0  0  0  0  0  0  0  0  0  0  0  0
   -1.8855   -0.3063   -0.4886 H   0  0  0  0  0  0  0  0  0  0  0  0
    0.2122   -0.2006   -0.2797 C   0  0  1  0  0  0  0  0  0  0  0  0
    0.8383   -0.7009    0.4659 H   0  0  0  0  0  0  0  0  0  0  0  0
    0.9621   -0.3696   -1.6252 C   0  0  0  0  0  0  0  0  0  0  0  0
    1.8980   -0.9002   -1.4288 H   0  0  0  0  0  0  0  0  0  0  0  0
    0.3695   -1.0036   -2.2893 H   0  0  0  0  0  0  0  0  0  0  0  0
    1.2916    0.9045   -2.4005 C   0  0  0  0  0  0  0  0  0  0  0  0
    0.4130    1.7867   -2.5324 O   0  5  0  0  0  0  0  0  0  0  0  0
    2.4737    1.0134   -2.8072 O   0  0  0  0  0  0  0  0  0  0  0  0
    0.0352    1.2395    0.2741 C   0  0  0  0  0  0  0  0  0  0  0  0
   -1.0920    1.7358    0.3149 O   0  0  0  0  0  0  0  0  0  0  0  0
    0.9576    1.7076    1.1952 N   0  0  0  0  0  0  0  0  0  0  0  0
    1.8964    1.3362    1.0862 H   0  0  0  0  0  0  0  0  0  0  0  0
    0.8086    2.9921    1.8643 C   0  0  0  0  0  0  0  0  0  0  0  0
   -0.0899    2.9979    2.4898 H   0  0  0  0  0  0  0  0  0  0  0  0
    1.6746    3.1838    2.5043 H   0  0  0  0  0  0  0  0  0  0  0  0
    0.7341    3.7990    1.1281 H   0  0  0  0  0  0  0  0  0  0  0  0
  1  2  1  0  0  0  0
  2  3  1  0  0  0  0
  2  4  1  0  0  0  0
  2  5  1  0  0  0  0
  5  6  2  0  0  0  0
  5  7  1  0  0  0  0
  7  8  1  0  0  0  0
  7  9  1  0  0  0  0
  9 10  1  0  0  0  0
  9 11  1  0  0  0  0
  9 17  1  0  0  0  0
 11 12  1  0  0  0  0
 11 13  1  0  0  0  0
 11 14  1  0  0  0  0
 14 15  1  0  0  0  0
 14 16  2  0  0  0  0
 17 18  2  0  0  0  0
 17 19  1  0  0  0  0
 19 20  1  0  0  0  0
 19 21  1  0  0  0  0
 21 22  1  0  0  0  0
 21 23  1  0  0  0  0
 21 24  1  0  0  0  0
M  CHG  1  15  -1
M  END
$$$$

  -OEChem-03222214023D

 24 23  0     1  0  0  0  0  0999 V2000
   -2.7576   -3.7219    0.5283 H   0  0  0  0  0  0  0  0  0  0  0  0
   -2.7334   -2.6986    0.1438 C   0  0  0  0  0  0  0  0  0  0  0  0
   -3.3511   -2.0656    0.7855 H   0  0  0  0  0  0  0  0  0  0  0  0
   -3.1457   -2.6916   -0.8683 H   0  0  0  0  0  0  0  0  0  0  0  0
   -1.3075   -2.1777    0.1228 C   0  0  0  0  0  0  0  0  0  0  0  0
   -0.3965   -2.9004    0.4985 O   0  0  0  0  0  0  0  0  0  0  0  0
   -1.0751   -0.8857   -0.2904 N   0  0  0  0  0  0  0  0  0  0  0  0
   -1.8839   -0.2892   -0.4553 H   0  0  0  0  0  0  0  0  0  0  0  0
    0.2169   -0.1903   -0.2797 C   0  0  1  0  0  0  0  0  0  0  0  0
    0.8473   -0.6943    0.4598 H   0  0  0  0  0  0  0  0  0  0  0  0
    0.9584   -0.3585   -1.6342 C   0  0  0  0  0  0  0  0  0  0  0  0
    1.8916   -0.8932   -1.4355 H   0  0  0  0  0  0  0  0  0  0  0  0
    0.3586   -0.9969   -2.2876 H   0  0  0  0  0  0  0  0  0  0  0  0
    1.3083    0.8895   -2.4478 C   0  0  0  0  0  0  0  0  0  0  0  0
    0.5850    1.9090   -2.3845 O   0  5  0  0  0  0  0  0  0  0  0  0
    2.3654    0.8153   -3.1195 O   0  0  0  0  0  0  0  0  0  0  0  0
    0.0278    1.2412    0.2930 C   0  0  0  0  0  0  0  0  0  0  0  0
   -1.1053    1.7255    0.3405 O   0  0  0  0  0  0  0  0  0  0  0  0
    0.9470    1.7076    1.2183 N   0  0  0  0  0  0  0  0  0  0  0  0
    1.8887    1.3470    1.1029 H   0  0  0  0  0  0  0  0  0  0  0  0
    0.7886    2.9869    1.8949 C   0  0  0  0  0  0  0  0  0  0  0  0
   -0.1048    2.9789    2.5275 H   0  0  0  0  0  0  0  0  0  0  0  0
    1.6574    3.1858    2.5288 H   0  0  0  0  0  0  0  0  0  0  0  0
    0.6983    3.7964    1.1631 H   0  0  0  0  0  0  0  0  0  0  0  0
  1  2  1  0  0  0  0
  2  3  1  0  0  0  0
  2  4  1  0  0  0  0
  2  5  1  0  0  0  0
  5  6  2  0  0  0  0
  5  7  1  0  0  0  0
  7  8  1  0  0  0  0
  7  9  1  0  0  0  0
  9 10  1  0  0  0  0
  9 11  1  0  0  0  0
  9 17  1  0  0  0  0
 11 12  1  0  0  0  0
 11 13  1  0  0  0  0
 11 14  1  0  0  0  0
 14 15  1  0  0  0  0
 14 16  2  0  0  0  0
 17 18  2  0  0  0  0
 17 19  1  0  0  0  0
 19 20  1  0  0  0  0
 19 21  1  0  0  0  0
 21 22  1  0  0  0  0
 21 23  1  0  0  0  0
 21 24  1  0  0  0  0
M  CHG  1  15  -1
M  END
$$$$

  -OEChem-03222214023D

 24 23  0     1  0  0  0  0  0999 V2000
   -2.7538   -3.7137    0.5250 H   0  0  0  0  0  0  0  0  0  0  0  0
   -2.7294   -2.6884    0.1459 C   0  0  0  0  0  0  0  0  0  0  0  0
   -3.3388   -2.0567    0.7971 H   0  0  0  0  0  0  0  0  0  0  0  0
   -3.1518   -2.6744   -0.8619 H   0  0  0  0  0  0  0  0  0  0  0  0
   -1.3015   -2.1733    0.1133 C   0  0  0  0  0  0  0  0  0  0  0  0
   -0.3894   -2.9032    0.4722 O   0  0  0  0  0  0  0  0  0  0  0  0
   -1.0672   -0.8784   -0.2898 N   0  0  0  0  0  0  0  0  0  0  0  0
   -1.8749   -0.2735   -0.4276 H   0  0  0  0  0  0  0  0  0  0  0  0
    0.2289   -0.1897   -0.2756 C   0  0  1  0  0  0  0  0  0  0  0  0
    0.8647   -0.7002    0.4547 H   0  0  0  0  0  0  0  0  0  0  0  0
    0.9527   -0.3494   -1.6437 C   0  0  0  0  0  0  0  0  0  0  0  0
    1.8837   -0.8911   -1.4554 H   0  0  0  0  0  0  0  0  0  0  0  0
    0.3410   -0.9846   -2.2895 H   0  0  0  0  0  0  0  0  0  0  0  0
    1.3199    0.8836   -2.4760 C   0  0  0  0  0  0  0  0  0  0  0  0
    0.8166    2.0032   -2.2316 O   0  5  0  0  0  0  0  0  0  0  0  0
    2.1724    0.6777   -3.3732 O   0  0  0  0  0  0  0  0  0  0  0  0
    0.0270    1.2340    0.3130 C   0  0  0  0  0  0  0  0  0  0  0  0
   -1.1092    1.7137    0.3484 O   0  0  0  0  0  0  0  0  0  0  0  0
    0.9376    1.7001    1.2466 N   0  0  0  0  0  0  0  0  0  0  0  0
    1.8833    1.3526    1.1242 H   0  0  0  0  0  0  0  0  0  0  0  0
    0.7706    2.9824    1.9152 C   0  0  0  0  0  0  0  0  0  0  0  0
   -0.1301    2.9767    2.5375 H   0  0  0  0  0  0  0  0  0  0  0  0
    1.6321    3.1845    2.5581 H   0  0  0  0  0  0  0  0  0  0  0  0
    0.6884    3.7886    1.1787 H   0  0  0  0  0  0  0  0  0  0  0  0
  1  2  1  0  0  0  0
  2  3  1  0  0  0  0
  2  4  1  0  0  0  0
  2  5  1  0  0  0  0
  5  6  2  0  0  0  0
  5  7  1  0  0  0  0
  7  8  1  0  0  0  0
  7  9  1  0  0  0  0
  9 10  1  0  0  0  0
  9 11  1  0  0  0  0
  9 17  1  0  0  0  0
 11 12  1  0  0  0  0
 11 13  1  0  0  0  0
 11 14  1  0  0  0  0
 14 15  1  0  0  0  0
 14 16  2  0  0  0  0
 17 18  2  0  0  0  0
 17 19  1  0  0  0  0
 19 20  1  0  0  0  0
 19 21  1  0  0  0  0
 21 22  1  0  0  0  0
 21 23  1  0  0  0  0
 21 24  1  0  0  0  0
M  CHG  1  15  -1
M  END
$$$$

  -OEChem-03222214023D

 24 23  0     1  0  0  0  0  0999 V2000
   -2.7611   -3.6998    0.5267 H   0  0  0  0  0  0  0  0  0  0  0  0
   -2.7290   -2.6755    0.1452 C   0  0  0  0  0  0  0  0  0  0  0  0
   -3.3357   -2.0381    0.7931 H   0  0  0  0  0  0  0  0  0  0  0  0
   -3.1485   -2.6613   -0.8637 H   0  0  0  0  0  0  0  0  0  0  0  0
   -1.2975   -2.1702    0.1153 C   0  0  0  0  0  0  0  0  0  0  0  0
   -0.3909   -2.9063    0.4752 O   0  0  0  0  0  0  0  0  0  0  0  0
   -1.0533   -0.8765   -0.2857 N   0  0  0  0  0  0  0  0  0  0  0  0
   -1.8566   -0.2639   -0.4154 H   0  0  0  0  0  0  0  0  0  0  0  0
    0.2492   -0.1989   -0.2681 C   0  0  1  0  0  0  0  0  0  0  0  0
    0.8911   -0.7144    0.4532 H   0  0  0  0  0  0  0  0  0  0  0  0
    0.9484   -0.3476   -1.6524 C   0  0  0  0  0  0  0  0  0  0  0  0
    1.8766   -0.9000   -1.4843 H   0  0  0  0  0  0  0  0  0  0  0  0
    0.3203   -0.9720   -2.2937 H   0  0  0  0  0  0  0  0  0  0  0  0
    1.3250    0.8829   -2.4858 C   0  0  0  0  0  0  0  0  0  0  0  0
    1.0846    2.0429   -2.0807 O   0  5  0  0  0  0  0  0  0  0  0  0
    1.9151    0.6240   -3.5623 O   0  0  0  0  0  0  0  0  0  0  0  0
    0.0338    1.2213    0.3258 C   0  0  0  0  0  0  0  0  0  0  0  0
   -1.1023    1.7040    0.3330 O   0  0  0  0  0  0  0  0  0  0  0  0
    0.9321    1.6917    1.2690 N   0  0  0  0  0  0  0  0  0  0  0  0
    1.8828    1.3607    1.1398 H   0  0  0  0  0  0  0  0  0  0  0  0
    0.7534    2.9783    1.9260 C   0  0  0  0  0  0  0  0  0  0  0  0
   -0.1634    2.9806    2.5241 H   0  0  0  0  0  0  0  0  0  0  0  0
    1.5983    3.1798    2.5906 H   0  0  0  0  0  0  0  0  0  0  0  0
    0.6950    3.7808    1.1833 H   0  0  0  0  0  0  0  0  0  0  0  0
  1  2  1  0  0  0  0
  2  3  1  0  0  0  0
  2  4  1  0  0  0  0
  2  5  1  0  0  0  0
  5  6  2  0  0  0  0
  5  7  1  0  0  0  0
  7  8  1  0  0  0  0
  7  9  1  0  0  0  0
  9 10  1  0  0  0  0
  9 11  1  0  0  0  0
  9 17  1  0  0  0  0
 11 12  1  0  0  0  0
 11 13  1  0  0  0  0
 11 14  1  0  0  0  0
 14 15  1  0  0  0  0
 14 16  2  0  0  0  0
 17 18  2  0  0  0  0
 17 19  1  0  0  0  0
 19 20  1  0  0  0  0
 19 21  1  0  0  0  0
 21 22  1  0  0  0  0
 21 23  1  0  0  0  0
 21 24  1  0  0  0  0
M  CHG  1  15  -1
M  END
$$$$

  -OEChem-03222214023D

 24 23  0     1  0  0  0  0  0999 V2000
   -2.7767   -3.6854    0.5329 H   0  0  0  0  0  0  0  0  0  0  0  0
   -2.7340   -2.6624    0.1490 C   0  0  0  0  0  0  0  0  0  0  0  0
   -3.3356   -2.0178    0.7946 H   0  0  0  0  0  0  0  0  0  0  0  0
   -3.1517   -2.6465   -0.8607 H   0  0  0  0  0  0  0  0  0  0  0  0
   -1.2976   -2.1707    0.1199 C   0  0  0  0  0  0  0  0  0  0  0  0
   -0.3985   -2.9143    0.4835 O   0  0  0  0  0  0  0  0  0  0  0  0
   -1.0404   -0.8805   -0.2842 N   0  0  0  0  0  0  0  0  0  0  0  0
   -1.8373   -0.2600   -0.4169 H   0  0  0  0  0  0  0  0  0  0  0  0
    0.2691   -0.2165   -0.2617 C   0  0  1  0  0  0  0  0  0  0  0  0
    0.9142   -0.7354    0.4543 H   0  0  0  0  0  0  0  0  0  0  0  0
    0.9480   -0.3524   -1.6575 C   0  0  0  0  0  0  0  0  0  0  0  0
    1.8733   -0.9152   -1.5117 H   0  0  0  0  0  0  0  0  0  0  0  0
    0.3052   -0.9611   -2.2998 H   0  0  0  0  0  0  0  0  0  0  0  0
    1.3283    0.8902   -2.4707 C   0  0  0  0  0  0  0  0  0  0  0  0
    1.3681    2.0218   -1.9336 O   0  5  0  0  0  0  0  0  0  0  0  0
    1.6321    0.6693   -3.6678 O   0  0  0  0  0  0  0  0  0  0  0  0
    0.0447    1.2046    0.3293 C   0  0  0  0  0  0  0  0  0  0  0  0
   -1.0876    1.6965    0.3020 O   0  0  0  0  0  0  0  0  0  0  0  0
    0.9297    1.6806    1.2815 N   0  0  0  0  0  0  0  0  0  0  0  0
    1.8856    1.3685    1.1414 H   0  0  0  0  0  0  0  0  0  0  0  0
    0.7407    2.9749    1.9204 C   0  0  0  0  0  0  0  0  0  0  0  0
   -0.1858    2.9845    2.5034 H   0  0  0  0  0  0  0  0  0  0  0  0
    1.5746    3.1839    2.5966 H   0  0  0  0  0  0  0  0  0  0  0  0
    0.6948    3.7685    1.1673 H   0  0  0  0  0  0  0  0  0  0  0  0
  1  2  1  0  0  0  0
  2  3  1  0  0  0  0
  2  4  1  0  0  0  0
  2  5  1  0  0  0  0
  5  6  2  0  0  0  0
  5  7  1  0  0  0  0
  7  8  1  0  0  0  0
  7  9  1  0  0  0  0
  9 10  1  0  0  0  0
  9 11  1  0  0  0  0
  9 17  1  0  0  0  0
 11 12  1  0  0  0  0
 11 13  1  0  0  0  0
 11 14  1  0  0  0  0
 14 15  1  0  0  0  0
 14 16  2  0  0  0  0
 17 18  2  0  0  0  0
 17 19  1  0  0  0  0
 19 20  1  0  0  0  0
 19 21  1  0  0  0  0
 21 22  1  0  0  0  0
 21 23  1  0  0  0  0
 21 24  1  0  0  0  0
M  CHG  1  15  -1
M  END
$$$$

  -OEChem-03222214023D

 24 23  0     1  0  0  0  0  0999 V2000
   -2.7937   -3.6785    0.5433 H   0  0  0  0  0  0  0  0  0  0  0  0
   -2.7412   -2.6578    0.1547 C   0  0  0  0  0  0  0  0  0  0  0  0
   -3.3402   -2.0049    0.7944 H   0  0  0  0  0  0  0  0  0  0  0  0
   -3.1547   -2.6434   -0.8568 H   0  0  0  0  0  0  0  0  0  0  0  0
   -1.3009   -2.1779    0.1293 C   0  0  0  0  0  0  0  0  0  0  0  0
   -0.4090   -2.9264    0.5008 O   0  0  0  0  0  0  0  0  0  0  0  0
   -1.0316   -0.8926   -0.2822 N   0  0  0  0  0  0  0  0  0  0  0  0
   -1.8232   -0.2685   -0.4294 H   0  0  0  0  0  0  0  0  0  0  0  0
    0.2830   -0.2384   -0.2558 C   0  0  1  0  0  0  0  0  0  0  0  0
    0.9304   -0.7588    0.4570 H   0  0  0  0  0  0  0  0  0  0  0  0
    0.9491   -0.3593   -1.6572 C   0  0  0  0  0  0  0  0  0  0  0  0
    1.8748   -0.9256   -1.5304 H   0  0  0  0  0  0  0  0  0  0  0  0
    0.3005   -0.9537   -2.3072 H   0  0  0  0  0  0  0  0  0  0  0  0
    1.3227    0.9094   -2.4299 C   0  0  0  0  0  0  0  0  0  0  0  0
    1.6371    1.9492   -1.8013 O   0  5  0  0  0  0  0  0  0  0  0  0
    1.3401    0.8068   -3.6802 O   0  0  0  0  0  0  0  0  0  0  0  0
    0.0550    1.1869    0.3250 C   0  0  0  0  0  0  0  0  0  0  0  0
   -1.0702    1.6912    0.2616 O   0  0  0  0  0  0  0  0  0  0  0  0
    0.9299    1.6703    1.2822 N   0  0  0  0  0  0  0  0  0  0  0  0
    1.8890    1.3720    1.1310 H   0  0  0  0  0  0  0  0  0  0  0  0
    0.7381    2.9764    1.8953 C   0  0  0  0  0  0  0  0  0  0  0  0
   -0.1976    3.0019    2.4628 H   0  0  0  0  0  0  0  0  0  0  0  0
    1.5624    3.1924    2.5810 H   0  0  0  0  0  0  0  0  0  0  0  0
    0.7099    3.7570    1.1278 H   0  0  0  0  0  0  0  0  0  0  0  0
  1  2  1  0  0  0  0
  2  3  1  0  0  0  0
  2  4  1  0  0  0  0
  2  5  1  0  0  0  0
  5  6  2  0  0  0  0
  5  7  1  0  0  0  0
  7  8  1  0  0  0  0
  7  9  1  0  0  0  0
  9 10  1  0  0  0  0
  9 11  1  0  0  0  0
  9 17  1  0  0  0  0
 11 12  1  0  0  0  0
 11 13  1  0  0  0  0
 11 14  1  0  0  0  0
 14 15  1  0  0  0  0
 14 16  2  0  0  0  0
 17 18  2  0  0  0  0
 17 19  1  0  0  0  0
 19 20  1  0  0  0  0
 19 21  1  0  0  0  0
 21 22  1  0  0  0  0
 21 23  1  0  0  0  0
 21 24  1  0  0  0  0
M  CHG  1  15  -1
M  END
$$$$

  -OEChem-03222214023D

 24 23  0     1  0  0  0  0  0999 V2000
   -2.8079   -3.6788    0.5537 H   0  0  0  0  0  0  0  0  0  0  0  0
   -2.7479   -2.6618    0.1565 C   0  0  0  0  0  0  0  0  0  0  0  0
   -3.3532   -2.0017    0.7828 H   0  0  0  0  0  0  0  0  0  0  0  0
   -3.1487   -2.6556   -0.8602 H   0  0  0  0  0  0  0  0  0  0  0  0
   -1.3062   -2.1854    0.1448 C   0  0  0  0  0  0  0  0  0  0  0  0
   -0.4205   -2.9318    0.5344 O   0  0  0  0  0  0  0  0  0  0  0  0
   -1.0289   -0.9060   -0.2790 N   0  0  0  0  0  0  0  0  0  0  0  0
   -1.8170   -0.2844   -0.4527 H   0  0  0  0  0  0  0  0  0  0  0  0
    0.2874   -0.2558   -0.2540 C   0  0  1  0  0  0  0  0  0  0  0  0
    0.9356   -0.7737    0.4600 H   0  0  0  0  0  0  0  0  0  0  0  0
    0.9508   -0.3687   -1.6538 C   0  0  0  0  0  0  0  0  0  0  0  0
    1.8804   -0.9316   -1.5395 H   0  0  0  0  0  0  0  0  0  0  0  0
    0.3041   -0.9527   -2.3151 H   0  0  0  0  0  0  0  0  0  0  0  0
    1.3065    0.9303   -2.3766 C   0  0  0  0  0  0  0  0  0  0  0  0
    1.8741    1.8379   -1.7182 O   0  5  0  0  0  0  0  0  0  0  0  0
    1.0562    0.9905   -3.6044 O   0  0  0  0  0  0  0  0  0  0  0  0
    0.0656    1.1774    0.3098 C   0  0  0  0  0  0  0  0  0  0  0  0
   -1.0532    1.6916    0.2258 O   0  0  0  0  0  0  0  0  0  0  0  0
    0.9386    1.6682    1.2641 N   0  0  0  0  0  0  0  0  0  0  0  0
    1.8994    1.3794    1.1001 H   0  0  0  0  0  0  0  0  0  0  0  0
    0.7459    2.9794    1.8662 C   0  0  0  0  0  0  0  0  0  0  0  0
   -0.1965    3.0131    2.4221 H   0  0  0  0  0  0  0  0  0  0  0  0
    1.5629    3.1953    2.5608 H   0  0  0  0  0  0  0  0  0  0  0  0
    0.7308    3.7551    1.0934 H   0  0  0  0  0  0  0  0  0  0  0  0
  1  2  1  0  0  0  0
  2  3  1  0  0  0  0
  2  4  1  0  0  0  0
  2  5  1  0  0  0  0
  5  6  2  0  0  0  0
  5  7  1  0  0  0  0
  7  8  1  0  0  0  0
  7  9  1  0  0  0  0
  9 10  1  0  0  0  0
  9 11  1  0  0  0  0
  9 17  1  0  0  0  0
 11 12  1  0  0  0  0
 11 13  1  0  0  0  0
 11 14  1  0  0  0  0
 14 15  1  0  0  0  0
 14 16  2  0  0  0  0
 17 18  2  0  0  0  0
 17 19  1  0  0  0  0
 19 20  1  0  0  0  0
 19 21  1  0  0  0  0
 21 22  1  0  0  0  0
 21 23  1  0  0  0  0
 21 24  1  0  0  0  0
M  CHG  1  15  -1
M  END
$$$$

  -OEChem-03222214023D

 24 23  0     1  0  0  0  0  0999 V2000
   -2.8119   -3.6932    0.5541 H   0  0  0  0  0  0  0  0  0  0  0  0
   -2.7527   -2.6783    0.1514 C   0  0  0  0  0  0  0  0  0  0  0  0
   -3.3696   -2.0179    0.7659 H   0  0  0  0  0  0  0  0  0  0  0  0
   -3.1405   -2.6809   -0.8704 H   0  0  0  0  0  0  0  0  0  0  0  0
   -1.3137   -2.1941    0.1551 C   0  0  0  0  0  0  0  0  0  0  0  0
   -0.4296   -2.9335    0.5614 O   0  0  0  0  0  0  0  0  0  0  0  0
   -1.0377   -0.9179   -0.2787 N   0  0  0  0  0  0  0  0  0  0  0  0
   -1.8264   -0.3045   -0.4762 H   0  0  0  0  0  0  0  0  0  0  0  0
    0.2758   -0.2633   -0.2547 C   0  0  1  0  0  0  0  0  0  0  0  0
    0.9205   -0.7774    0.4652 H   0  0  0  0  0  0  0  0  0  0  0  0
    0.9537   -0.3742   -1.6431 C   0  0  0  0  0  0  0  0  0  0  0  0
    1.8890   -0.9277   -1.5287 H   0  0  0  0  0  0  0  0  0  0  0  0
    0.3190   -0.9534   -2.3199 H   0  0  0  0  0  0  0  0  0  0  0  0
    1.2853    0.9524   -2.3179 C   0  0  0  0  0  0  0  0  0  0  0  0
    2.0701    1.7192   -1.7032 O   0  5  0  0  0  0  0  0  0  0  0  0
    0.8045    1.1769   -3.4542 O   0  0  0  0  0  0  0  0  0  0  0  0
    0.0708    1.1779    0.2927 C   0  0  0  0  0  0  0  0  0  0  0  0
   -1.0418    1.7021    0.2027 O   0  0  0  0  0  0  0  0  0  0  0  0
    0.9502    1.6706    1.2396 N   0  0  0  0  0  0  0  0  0  0  0  0
    1.9093    1.3771    1.0702 H   0  0  0  0  0  0  0  0  0  0  0  0
    0.7667    2.9860    1.8355 C   0  0  0  0  0  0  0  0  0  0  0  0
   -0.1736    3.0278    2.3945 H   0  0  0  0  0  0  0  0  0  0  0  0
    1.5873    3.2012    2.5261 H   0  0  0  0  0  0  0  0  0  0  0  0
    0.7530    3.7579    1.0590 H   0  0  0  0  0  0  0  0  0  0  0  0
  1  2  1  0  0  0  0
  2  3  1  0  0  0  0
  2  4  1  0  0  0  0
  2  5  1  0  0  0  0
  5  6  2  0  0  0  0
  5  7  1  0  0  0  0
  7  8  1  0  0  0  0
  7  9  1  0  0  0  0
  9 10  1  0  0  0  0
  9 11  1  0  0  0  0
  9 17  1  0  0  0  0
 11 12  1  0  0  0  0
 11 13  1  0  0  0  0
 11 14  1  0  0  0  0
 14 15  1  0  0  0  0
 14 16  2  0  0  0  0
 17 18  2  0  0  0  0
 17 19  1  0  0  0  0
 19 20  1  0  0  0  0
 19 21  1  0  0  0  0
 21 22  1  0  0  0  0
 21 23  1  0  0  0  0
 21 24  1  0  0  0  0
M  CHG  1  15  -1
M  END
$$$$

  -OEChem-03222214023D

 24 23  0     1  0  0  0  0  0999 V2000
   -2.8069   -3.7209    0.5397 H   0  0  0  0  0  0  0  0  0  0  0  0
   -2.7544   -2.7059    0.1362 C   0  0  0  0  0  0  0  0  0  0  0  0
   -3.3892   -2.0525    0.7398 H   0  0  0  0  0  0  0  0  0  0  0  0
   -3.1267   -2.7151   -0.8913 H   0  0  0  0  0  0  0  0  0  0  0  0
   -1.3219   -2.2026    0.1611 C   0  0  0  0  0  0  0  0  0  0  0  0
   -0.4350   -2.9293    0.5838 O   0  0  0  0  0  0  0  0  0  0  0  0
   -1.0541   -0.9254   -0.2759 N   0  0  0  0  0  0  0  0  0  0  0  0
   -1.8455   -0.3271   -0.5052 H   0  0  0  0  0  0  0  0  0  0  0  0
    0.2526   -0.2583   -0.2532 C   0  0  1  0  0  0  0  0  0  0  0  0
    0.8922   -0.7685    0.4740 H   0  0  0  0  0  0  0  0  0  0  0  0
    0.9538   -0.3725   -1.6259 C   0  0  0  0  0  0  0  0  0  0  0  0
    1.8961   -0.9117   -1.4998 H   0  0  0  0  0  0  0  0  0  0  0  0
    0.3378   -0.9577   -2.3146 H   0  0  0  0  0  0  0  0  0  0  0  0
    1.2598    0.9706   -2.2738 C   0  0  0  0  0  0  0  0  0  0  0  0
    2.2232    1.6140   -1.7853 O   0  5  0  0  0  0  0  0  0  0  0  0
    0.5791    1.3307   -3.2630 O   0  0  0  0  0  0  0  0  0  0  0  0
    0.0676    1.1877    0.2854 C   0  0  0  0  0  0  0  0  0  0  0  0
   -1.0400    1.7211    0.2054 O   0  0  0  0  0  0  0  0  0  0  0  0
    0.9600    1.6757    1.2225 N   0  0  0  0  0  0  0  0  0  0  0  0
    1.9125    1.3533    1.0686 H   0  0  0  0  0  0  0  0  0  0  0  0
    0.8028    2.9986    1.8093 C   0  0  0  0  0  0  0  0  0  0  0  0
   -0.1361    3.0634    2.3683 H   0  0  0  0  0  0  0  0  0  0  0  0
    1.6276    3.2022    2.4982 H   0  0  0  0  0  0  0  0  0  0  0  0
    0.8042    3.7652    1.0274 H   0  0  0  0  0  0  0  0  0  0  0  0
  1  2  1  0  0  0  0
  2  3  1  0  0  0  0
  2  4  1  0  0  0  0
  2  5  1  0  0  0  0
  5  6  2  0  0  0  0
  5  7  1  0  0  0  0
  7  8  1  0  0  0  0
  7  9  1  0  0  0  0
  9 10  1  0  0  0  0
  9 11  1  0  0  0  0
  9 17  1  0  0  0  0
 11 12  1  0  0  0  0
 11 13  1  0  0  0  0
 11 14  1  0  0  0  0
 14 15  1  0  0  0  0
 14 16  2  0  0  0  0
 17 18  2  0  0  0  0
 17 19  1  0  0  0  0
 19 20  1  0  0  0  0
 19 21  1  0  0  0  0
 21 22  1  0  0  0  0
 21 23  1  0  0  0  0
 21 24  1  0  0  0  0
M  CHG  1  15  -1
M  END
$$$$

  -OEChem-03222214023D

 24 23  0     1  0  0  0  0  0999 V2000
   -2.7963   -3.7383    0.5243 H   0  0  0  0  0  0  0  0  0  0  0  0
   -2.7517   -2.7221    0.1230 C   0  0  0  0  0  0  0  0  0  0  0  0
   -3.4001   -2.0774    0.7216 H   0  0  0  0  0  0  0  0  0  0  0  0
   -3.1133   -2.7336   -0.9084 H   0  0  0  0  0  0  0  0  0  0  0  0
   -1.3255   -2.2023    0.1635 C   0  0  0  0  0  0  0  0  0  0  0  0
   -0.4355   -2.9173    0.5997 O   0  0  0  0  0  0  0  0  0  0  0  0
   -1.0672   -0.9235   -0.2743 N   0  0  0  0  0  0  0  0  0  0  0  0
   -1.8607   -0.3398   -0.5315 H   0  0  0  0  0  0  0  0  0  0  0  0
    0.2329   -0.2450   -0.2527 C   0  0  1  0  0  0  0  0  0  0  0  0
    0.8667   -0.7519    0.4817 H   0  0  0  0  0  0  0  0  0  0  0  0
    0.9531   -0.3707   -1.6121 C   0  0  0  0  0  0  0  0  0  0  0  0
    1.8986   -0.9007   -1.4686 H   0  0  0  0  0  0  0  0  0  0  0  0
    0.3522   -0.9671   -2.3041 H   0  0  0  0  0  0  0  0  0  0  0  0
    1.2461    0.9720   -2.2653 C   0  0  0  0  0  0  0  0  0  0  0  0
    2.3480    1.5023   -1.9784 O   0  5  0  0  0  0  0  0  0  0  0  0
    0.4074    1.4411   -3.0699 O   0  0  0  0  0  0  0  0  0  0  0  0
    0.0610    1.2028    0.2813 C   0  0  0  0  0  0  0  0  0  0  0  0
   -1.0436    1.7426    0.2189 O   0  0  0  0  0  0  0  0  0  0  0  0
    0.9653    1.6834    1.2113 N   0  0  0  0  0  0  0  0  0  0  0  0
    1.9093    1.3266    1.0868 H   0  0  0  0  0  0  0  0  0  0  0  0
    0.8281    3.0055    1.8048 C   0  0  0  0  0  0  0  0  0  0  0  0
   -0.1011    3.0752    2.3792 H   0  0  0  0  0  0  0  0  0  0  0  0
    1.6659    3.2005    2.4805 H   0  0  0  0  0  0  0  0  0  0  0  0
    0.8225    3.7746    1.0254 H   0  0  0  0  0  0  0  0  0  0  0  0
  1  2  1  0  0  0  0
  2  3  1  0  0  0  0
  2  4  1  0  0  0  0
  2  5  1  0  0  0  0
  5  6  2  0  0  0  0
  5  7  1  0  0  0  0
  7  8  1  0  0  0  0
  7  9  1  0  0  0  0
  9 10  1  0  0  0  0
  9 11  1  0  0  0  0
  9 17  1  0  0  0  0
 11 12  1  0  0  0  0
 11 13  1  0  0  0  0
 11 14  1  0  0  0  0
 14 15  1  0  0  0  0
 14 16  2  0  0  0  0
 17 18  2  0  0  0  0
 17 19  1  0  0  0  0
 19 20  1  0  0  0  0
 19 21  1  0  0  0  0
 21 22  1  0  0  0  0
 21 23  1  0  0  0  0
 21 24  1  0  0  0  0
M  CHG  1  15  -1
M  END
$$$$

  -OEChem-03222214023D

 24 23  0     1  0  0  0  0  0999 V2000
   -2.7864   -3.7432    0.5155 H   0  0  0  0  0  0  0  0  0  0  0  0
   -2.7478   -2.7256    0.1174 C   0  0  0  0  0  0  0  0  0  0  0  0
   -3.4020   -2.0871    0.7162 H   0  0  0  0  0  0  0  0  0  0  0  0
   -3.1070   -2.7365   -0.9146 H   0  0  0  0  0  0  0  0  0  0  0  0
   -1.3254   -2.1964    0.1630 C   0  0  0  0  0  0  0  0  0  0  0  0
   -0.4326   -2.9049    0.6044 O   0  0  0  0  0  0  0  0  0  0  0  0
   -1.0736   -0.9160   -0.2738 N   0  0  0  0  0  0  0  0  0  0  0  0
   -1.8687   -0.3390   -0.5412 H   0  0  0  0  0  0  0  0  0  0  0  0
    0.2225   -0.2302   -0.2554 C   0  0  1  0  0  0  0  0  0  0  0  0
    0.8529   -0.7338    0.4842 H   0  0  0  0  0  0  0  0  0  0  0  0
    0.9539   -0.3703   -1.6079 C   0  0  0  0  0  0  0  0  0  0  0  0
    1.8989   -0.8969   -1.4480 H   0  0  0  0  0  0  0  0  0  0  0  0
    0.3615   -0.9794   -2.2957 H   0  0  0  0  0  0  0  0  0  0  0  0
    1.2476    0.9600   -2.2869 C   0  0  0  0  0  0  0  0  0  0  0  0
    2.4352    1.3644   -2.2463 O   0  5  0  0  0  0  0  0  0  0  0  0
    0.3108    1.5398   -2.8835 O   0  0  0  0  0  0  0  0  0  0  0  0
    0.0549    1.2179    0.2792 C   0  0  0  0  0  0  0  0  0  0  0  0
   -1.0532    1.7527    0.2473 O   0  0  0  0  0  0  0  0  0  0  0  0
    0.9677    1.6933    1.2046 N   0  0  0  0  0  0  0  0  0  0  0  0
    1.9054    1.3151    1.1019 H   0  0  0  0  0  0  0  0  0  0  0  0
    0.8362    3.0068    1.8184 C   0  0  0  0  0  0  0  0  0  0  0  0
   -0.0831    3.0646    2.4100 H   0  0  0  0  0  0  0  0  0  0  0  0
    1.6847    3.1964    2.4822 H   0  0  0  0  0  0  0  0  0  0  0  0
    0.8139    3.7863    1.0499 H   0  0  0  0  0  0  0  0  0  0  0  0
  1  2  1  0  0  0  0
  2  3  1  0  0  0  0
  2  4  1  0  0  0  0
  2  5  1  0  0  0  0
  5  6  2  0  0  0  0
  5  7  1  0  0  0  0
  7  8  1  0  0  0  0
  7  9  1  0  0  0  0
  9 10  1  0  0  0  0
  9 11  1  0  0  0  0
  9 17  1  0  0  0  0
 11 12  1  0  0  0  0
 11 13  1  0  0  0  0
 11 14  1  0  0  0  0
 14 15  1  0  0  0  0
 14 16  2  0  0  0  0
 17 18  2  0  0  0  0
 17 19  1  0  0  0  0
 19 20  1  0  0  0  0
 19 21  1  0  0  0  0
 21 22  1  0  0  0  0
 21 23  1  0  0  0  0
 21 24  1  0  0  0  0
M  CHG  1  15  -1
M  END
$$$$

  -OEChem-03222214023D

 24 23  0     1  0  0  0  0  0999 V2000
   -2.7774   -3.7403    0.5143 H   0  0  0  0  0  0  0  0  0  0  0  0
   -2.7434   -2.7208    0.1206 C   0  0  0  0  0  0  0  0  0  0  0  0
   -3.3949   -2.0862    0.7265 H   0  0  0  0  0  0  0  0  0  0  0  0
   -3.1093   -2.7276   -0.9092 H   0  0  0  0  0  0  0  0  0  0  0  0
   -1.3217   -2.1890    0.1589 C   0  0  0  0  0  0  0  0  0  0  0  0
   -0.4245   -2.8973    0.5917 O   0  0  0  0  0  0  0  0  0  0  0  0
   -1.0761   -0.9063   -0.2749 N   0  0  0  0  0  0  0  0  0  0  0  0
   -1.8750   -0.3288   -0.5299 H   0  0  0  0  0  0  0  0  0  0  0  0
    0.2170   -0.2150   -0.2610 C   0  0  1  0  0  0  0  0  0  0  0  0
    0.8454   -0.7166    0.4819 H   0  0  0  0  0  0  0  0  0  0  0  0
    0.9566   -0.3670   -1.6101 C   0  0  0  0  0  0  0  0  0  0  0  0
    1.8999   -0.8909   -1.4323 H   0  0  0  0  0  0  0  0  0  0  0  0
    0.3701   -0.9901   -2.2901 H   0  0  0  0  0  0  0  0  0  0  0  0
    1.2606    0.9432   -2.3269 C   0  0  0  0  0  0  0  0  0  0  0  0
    2.4692    1.2007   -2.5456 O   0  5  0  0  0  0  0  0  0  0  0  0
    0.2986    1.6437   -2.7175 O   0  0  0  0  0  0  0  0  0  0  0  0
    0.0480    1.2309    0.2787 C   0  0  0  0  0  0  0  0  0  0  0  0
   -1.0673    1.7524    0.2808 O   0  0  0  0  0  0  0  0  0  0  0  0
    0.9671    1.7029    1.2004 N   0  0  0  0  0  0  0  0  0  0  0  0
    1.9017    1.3149    1.1099 H   0  0  0  0  0  0  0  0  0  0  0  0
    0.8310    3.0025    1.8424 C   0  0  0  0  0  0  0  0  0  0  0  0
   -0.0776    3.0366    2.4521 H   0  0  0  0  0  0  0  0  0  0  0  0
    1.6897    3.1900    2.4935 H   0  0  0  0  0  0  0  0  0  0  0  0
    0.7838    3.7967    1.0903 H   0  0  0  0  0  0  0  0  0  0  0  0
  1  2  1  0  0  0  0
  2  3  1  0  0  0  0
  2  4  1  0  0  0  0
  2  5  1  0  0  0  0
  5  6  2  0  0  0  0
  5  7  1  0  0  0  0
  7  8  1  0  0  0  0
  7  9  1  0  0  0  0
  9 10  1  0  0  0  0
  9 11  1  0  0  0  0
  9 17  1  0  0  0  0
 11 12  1  0  0  0  0
 11 13  1  0  0  0  0
 11 14  1  0  0  0  0
 14 15  1  0  0  0  0
 14 16  2  0  0  0  0
 17 18  2  0  0  0  0
 17 19  1  0  0  0  0
 19 20  1  0  0  0  0
 19 21  1  0  0  0  0
 21 22  1  0  0  0  0
 21 23  1  0  0  0  0
 21 24  1  0  0  0  0
M  CHG  1  15  -1
M  END
$$$$

  -OEChem-03222214023D

 24 23  0     1  0  0  0  0  0999 V2000
   -2.7671   -3.7342    0.5145 H   0  0  0  0  0  0  0  0  0  0  0  0
   -2.7389   -2.7120    0.1271 C   0  0  0  0  0  0  0  0  0  0  0  0
   -3.3788   -2.0809    0.7489 H   0  0  0  0  0  0  0  0  0  0  0  0
   -3.1230   -2.7112   -0.8961 H   0  0  0  0  0  0  0  0  0  0  0  0
   -1.3161   -2.1818    0.1437 C   0  0  0  0  0  0  0  0  0  0  0  0
   -0.4122   -2.8943    0.5548 O   0  0  0  0  0  0  0  0  0  0  0  0
   -1.0775   -0.8948   -0.2812 N   0  0  0  0  0  0  0  0  0  0  0  0
   -1.8816   -0.3111   -0.5032 H   0  0  0  0  0  0  0  0  0  0  0  0
    0.2136   -0.1993   -0.2680 C   0  0  1  0  0  0  0  0  0  0  0  0
    0.8402   -0.7009    0.4762 H   0  0  0  0  0  0  0  0  0  0  0  0
    0.9609   -0.3617   -1.6149 C   0  0  0  0  0  0  0  0  0  0  0  0
    1.9019   -0.8832   -1.4185 H   0  0  0  0  0  0  0  0  0  0  0  0
    0.3800   -1.0004   -2.2850 H   0  0  0  0  0  0  0  0  0  0  0  0
    1.2838    0.9217   -2.3761 C   0  0  0  0  0  0  0  0  0  0  0  0
    2.4435    1.0140   -2.8459 O   0  5  0  0  0  0  0  0  0  0  0  0
    0.3730    1.7601   -2.5645 O   0  0  0  0  0  0  0  0  0  0  0  0
    0.0386    1.2413    0.2847 C   0  0  0  0  0  0  0  0  0  0  0  0
   -1.0843    1.7470    0.3152 O   0  0  0  0  0  0  0  0  0  0  0  0
    0.9602    1.7086    1.2068 N   0  0  0  0  0  0  0  0  0  0  0  0
    1.8941    1.3198    1.1180 H   0  0  0  0  0  0  0  0  0  0  0  0
    0.8174    2.9963    1.8710 C   0  0  0  0  0  0  0  0  0  0  0  0
   -0.0763    3.0045    2.5031 H   0  0  0  0  0  0  0  0  0  0  0  0
    1.6886    3.1906    2.5033 H   0  0  0  0  0  0  0  0  0  0  0  0
    0.7371    3.8006    1.1323 H   0  0  0  0  0  0  0  0  0  0  0  0
  1  2  1  0  0  0  0
  2  3  1  0  0  0  0
  2  4  1  0  0  0  0
  2  5  1  0  0  0  0
  5  6  2  0  0  0  0
  5  7  1  0  0  0  0
  7  8  1  0  0  0  0
  7  9  1  0  0  0  0
  9 10  1  0  0  0  0
  9 11  1  0  0  0  0
  9 17  1  0  0  0  0
 11 12  1  0  0  0  0
 11 13  1  0  0  0  0
 11 14  1  0  0  0  0
 14 15  1  0  0  0  0
 14 16  2  0  0  0  0
 17 18  2  0  0  0  0
 17 19  1  0  0  0  0
 19 20  1  0  0  0  0
 19 21  1  0  0  0  0
 21 22  1  0  0  0  0
 21 23  1  0  0  0  0
 21 24  1  0  0  0  0
M  CHG  1  15  -1
M  END
$$$$

  -OEChem-03222214023D

 24 23  0     1  0  0  0  0  0999 V2000
   -2.7551   -3.7279    0.5174 H   0  0  0  0  0  0  0  0  0  0  0  0
   -2.7325   -2.7042    0.1337 C   0  0  0  0  0  0  0  0  0  0  0  0
   -3.3605   -2.0751    0.7694 H   0  0  0  0  0  0  0  0  0  0  0  0
   -3.1347   -2.6991   -0.8824 H   0  0  0  0  0  0  0  0  0  0  0  0
   -1.3088   -2.1760    0.1269 C   0  0  0  0  0  0  0  0  0  0  0  0
   -0.3981   -2.8952    0.5104 O   0  0  0  0  0  0  0  0  0  0  0  0
   -1.0762   -0.8835   -0.2851 N   0  0  0  0  0  0  0  0  0  0  0  0
   -1.8843   -0.2924   -0.4704 H   0  0  0  0  0  0  0  0  0  0  0  0
    0.2150   -0.1869   -0.2720 C   0  0  1  0  0  0  0  0  0  0  0  0
    0.8437   -0.6927    0.4675 H   0  0  0  0  0  0  0  0  0  0  0  0
    0.9581   -0.3534   -1.6248 C   0  0  0  0  0  0  0  0  0  0  0  0
    1.8965   -0.8767   -1.4207 H   0  0  0  0  0  0  0  0  0  0  0  0
    0.3736   -1.0024   -2.2816 H   0  0  0  0  0  0  0  0  0  0  0  0
    1.3042    0.8993   -2.4313 C   0  0  0  0  0  0  0  0  0  0  0  0
    2.3381    0.8200   -3.1376 O   0  5  0  0  0  0  0  0  0  0  0  0
    0.5433    1.8928   -2.4052 O   0  0  0  0  0  0  0  0  0  0  0  0
    0.0309    1.2453    0.3002 C   0  0  0  0  0  0  0  0  0  0  0  0
   -1.0993    1.7356    0.3457 O   0  0  0  0  0  0  0  0  0  0  0  0
    0.9513    1.7099    1.2254 N   0  0  0  0  0  0  0  0  0  0  0  0
    1.8896    1.3369    1.1224 H   0  0  0  0  0  0  0  0  0  0  0  0
    0.7993    2.9906    1.9011 C   0  0  0  0  0  0  0  0  0  0  0  0
   -0.0977    2.9897    2.5285 H   0  0  0  0  0  0  0  0  0  0  0  0
    1.6662    3.1819    2.5401 H   0  0  0  0  0  0  0  0  0  0  0  0
    0.7203    3.8012    1.1692 H   0  0  0  0  0  0  0  0  0  0  0  0
  1  2  1  0  0  0  0
  2  3  1  0  0  0  0
  2  4  1  0  0  0  0
  2  5  1  0  0  0  0
  5  6  2  0  0  0  0
  5  7  1  0  0  0  0
  7  8  1  0  0  0  0
  7  9  1  0  0  0  0
  9 10  1  0  0  0  0
  9 11  1  0  0  0  0
  9 17  1  0  0  0  0
 11 12  1  0  0  0  0
 11 13  1  0  0  0  0
 11 14  1  0  0  0  0
 14 15  1  0  0  0  0
 14 16  2  0  0  0  0
 17 18  2  0  0  0  0
 17 19  1  0  0  0  0
 19 20  1  0  0  0  0
 19 21  1  0  0  0  0
 21 22  1  0  0  0  0
 21 23  1  0  0  0  0
 21 24  1  0  0  0  0
M  CHG  1  15  -1
M  END
$$$$

  -OEChem-03222214023D

 24 23  0     1  0  0  0  0  0999 V2000
   -2.7518   -3.7136    0.5217 H   0  0  0  0  0  0  0  0  0  0  0  0
   -2.7277   -2.6882    0.1429 C   0  0  0  0  0  0  0  0  0  0  0  0
   -3.3385   -2.0570    0.7931 H   0  0  0  0  0  0  0  0  0  0  0  0
   -3.1487   -2.6744   -0.8654 H   0  0  0  0  0  0  0  0  0  0  0  0
   -1.2998   -2.1726    0.1130 C   0  0  0  0  0  0  0  0  0  0  0  0
   -0.3879   -2.9030    0.4717 O   0  0  0  0  0  0  0  0  0  0  0  0
   -1.0647   -0.8773   -0.2884 N   0  0  0  0  0  0  0  0  0  0  0  0
   -1.8720   -0.2723   -0.4273 H   0  0  0  0  0  0  0  0  0  0  0  0
    0.2317   -0.1890   -0.2722 C   0  0  1  0  0  0  0  0  0  0  0  0
    0.8681   -0.7010    0.4566 H   0  0  0  0  0  0  0  0  0  0  0  0
    0.9526   -0.3467   -1.6422 C   0  0  0  0  0  0  0  0  0  0  0  0
    1.8847   -0.8871   -1.4549 H   0  0  0  0  0  0  0  0  0  0  0  0
    0.3466   -0.9867   -2.2888 H   0  0  0  0  0  0  0  0  0  0  0  0
    1.3214    0.8851   -2.4759 C   0  0  0  0  0  0  0  0  0  0  0  0
    2.1449    0.6681   -3.3972 O   0  5  0  0  0  0  0  0  0  0  0  0
    0.8492    2.0134   -2.2098 O   0  0  0  0  0  0  0  0  0  0  0  0
    0.0278    1.2339    0.3182 C   0  0  0  0  0  0  0  0  0  0  0  0
   -1.1086    1.7137    0.3499 O   0  0  0  0  0  0  0  0  0  0  0  0
    0.9359    1.7006    1.2539 N   0  0  0  0  0  0  0  0  0  0  0  0
    1.8823    1.3547    1.1326 H   0  0  0  0  0  0  0  0  0  0  0  0
    0.7666    2.9831    1.9215 C   0  0  0  0  0  0  0  0  0  0  0  0
   -0.1374    2.9787    2.5389 H   0  0  0  0  0  0  0  0  0  0  0  0
    1.6245    3.1847    2.5694 H   0  0  0  0  0  0  0  0  0  0  0  0
    0.6895    3.7893    1.1845 H   0  0  0  0  0  0  0  0  0  0  0  0
  1  2  1  0  0  0  0
  2  3  1  0  0  0  0
  2  4  1  0  0  0  0
  2  5  1  0  0  0  0
  5  6  2  0  0  0  0
  5  7  1  0  0  0  0
  7  8  1  0  0  0  0
  7  9  1  0  0  0  0
  9 10  1  0  0  0  0
  9 11  1  0  0  0  0
  9 17  1  0  0  0  0
 11 12  1  0  0  0  0
 11 13  1  0  0  0  0
 11 14  1  0  0  0  0
 14 15  1  0  0  0  0
 14 16  2  0  0  0  0
 17 18  2  0  0  0  0
 17 19  1  0  0  0  0
 19 20  1  0  0  0  0
 19 21  1  0  0  0  0
 21 22  1  0  0  0  0
 21 23  1  0  0  0  0
 21 24  1  0  0  0  0
M  CHG  1  15  -1
M  END
$$$$

  -OEChem-03222214023D

 24 23  0     1  0  0  0  0  0999 V2000
   -2.7922   -3.6548    0.5687 H   0  0  0  0  0  0  0  0  0  0  0  0
   -2.7318   -2.6382    0.1701 C   0  0  0  0  0  0  0  0  0  0  0  0
   -3.3166   -1.9731    0.8104 H   0  0  0  0  0  0  0  0  0  0  0  0
   -3.1557   -2.6281   -0.8372 H   0  0  0  0  0  0  0  0  0  0  0  0
   -1.2861   -2.1758    0.1259 C   0  0  0  0  0  0  0  0  0  0  0  0
   -0.4003   -2.9337    0.4912 O   0  0  0  0  0  0  0  0  0  0  0  0
   -1.0054   -0.8952   -0.2923 N   0  0  0  0  0  0  0  0  0  0  0  0
   -1.7910   -0.2577   -0.4139 H   0  0  0  0  0  0  0  0  0  0  0  0
    0.3163   -0.2540   -0.2561 C   0  0  1  0  0  0  0  0  0  0  0  0
    0.9740   -0.7661    0.4535 H   0  0  0  0  0  0  0  0  0  0  0  0
    0.9646   -0.3509   -1.6675 C   0  0  0  0  0  0  0  0  0  0  0  0
    1.6905   -1.1678   -1.6471 H   0  0  0  0  0  0  0  0  0  0  0  0
    0.1894   -0.6345   -2.3846 H   0  0  0  0  0  0  0  0  0  0  0  0
    1.6621    0.8700   -2.2791 C   0  0  0  0  0  0  0  0  0  0  0  0
    2.1448    0.6802   -3.4211 O   0  5  0  0  0  0  0  0  0  0  0  0
    1.9318    1.8652   -1.5639 O   0  0  0  0  0  0  0  0  0  0  0  0
    0.0569    1.1707    0.3173 C   0  0  0  0  0  0  0  0  0  0  0  0
   -1.0668    1.6731    0.2078 O   0  0  0  0  0  0  0  0  0  0  0  0
    0.9042    1.6695    1.2903 N   0  0  0  0  0  0  0  0  0  0  0  0
    1.8744    1.4167    1.1188 H   0  0  0  0  0  0  0  0  0  0  0  0
    0.6726    2.9690    1.9033 C   0  0  0  0  0  0  0  0  0  0  0  0
   -0.2818    2.9781    2.4392 H   0  0  0  0  0  0  0  0  0  0  0  0
    1.4700    3.1927    2.6178 H   0  0  0  0  0  0  0  0  0  0  0  0
    0.6586    3.7530    1.1390 H   0  0  0  0  0  0  0  0  0  0  0  0
  1  2  1  0  0  0  0
  2  3  1  0  0  0  0
  2  4  1  0  0  0  0
  2  5  1  0  0  0  0
  5  6  2  0  0  0  0
  5  7  1  0  0  0  0
  7  8  1  0  0  0  0
  7  9  1  0  0  0  0
  9 10  1  0  0  0  0
  9 11  1  0  0  0  0
  9 17  1  0  0  0  0
 11 12  1  0  0  0  0
 11 13  1  0  0  0  0
 11 14  1  0  0  0  0
 14 15  1  0  0  0  0
 14 16  2  0  0  0  0
 17 18  2  0  0  0  0
 17 19  1  0  0  0  0
 19 20  1  0  0  0  0
 19 21  1  0  0  0  0
 21 22  1  0  0  0  0
 21 23  1  0  0  0  0
 21 24  1  0  0  0  0
M  CHG  1  15  -1
M  END
$$$$

  -OEChem-03222214023D

 24 23  0     1  0  0  0  0  0999 V2000
   -2.8084   -3.6523    0.5809 H   0  0  0  0  0  0  0  0  0  0  0  0
   -2.7415   -2.6381    0.1777 C   0  0  0  0  0  0  0  0  0  0  0  0
   -3.3265   -1.9672    0.8118 H   0  0  0  0  0  0  0  0  0  0  0  0
   -3.1605   -2.6310   -0.8316 H   0  0  0  0  0  0  0  0  0  0  0  0
   -1.2934   -2.1827    0.1380 C   0  0  0  0  0  0  0  0  0  0  0  0
   -0.4129   -2.9430    0.5108 O   0  0  0  0  0  0  0  0  0  0  0  0
   -1.0044   -0.9074   -0.2904 N   0  0  0  0  0  0  0  0  0  0  0  0
   -1.7867   -0.2684   -0.4242 H   0  0  0  0  0  0  0  0  0  0  0  0
    0.3204   -0.2726   -0.2555 C   0  0  1  0  0  0  0  0  0  0  0  0
    0.9794   -0.7843    0.4531 H   0  0  0  0  0  0  0  0  0  0  0  0
    0.9661   -0.3540   -1.6664 C   0  0  0  0  0  0  0  0  0  0  0  0
    1.6959   -1.1673   -1.6669 H   0  0  0  0  0  0  0  0  0  0  0  0
    0.1907   -0.6215   -2.3897 H   0  0  0  0  0  0  0  0  0  0  0  0
    1.6557    0.8943   -2.2235 C   0  0  0  0  0  0  0  0  0  0  0  0
    1.8949    0.8809   -3.4546 O   0  5  0  0  0  0  0  0  0  0  0  0
    2.1734    1.7059   -1.4151 O   0  0  0  0  0  0  0  0  0  0  0  0
    0.0658    1.1588    0.3045 C   0  0  0  0  0  0  0  0  0  0  0  0
   -1.0491    1.6734    0.1698 O   0  0  0  0  0  0  0  0  0  0  0  0
    0.9103    1.6647    1.2755 N   0  0  0  0  0  0  0  0  0  0  0  0
    1.8822    1.4253    1.0846 H   0  0  0  0  0  0  0  0  0  0  0  0
    0.6767    2.9680    1.8795 C   0  0  0  0  0  0  0  0  0  0  0  0
   -0.2814    2.9815    2.4087 H   0  0  0  0  0  0  0  0  0  0  0  0
    1.4697    3.1938    2.5983 H   0  0  0  0  0  0  0  0  0  0  0  0
    0.6695    3.7486    1.1117 H   0  0  0  0  0  0  0  0  0  0  0  0
  1  2  1  0  0  0  0
  2  3  1  0  0  0  0
  2  4  1  0  0  0  0
  2  5  1  0  0  0  0
  5  6  2  0  0  0  0
  5  7  1  0  0  0  0
  7  8  1  0  0  0  0
  7  9  1  0  0  0  0
  9 10  1  0  0  0  0
  9 11  1  0  0  0  0
  9 17  1  0  0  0  0
 11 12  1  0  0  0  0
 11 13  1  0  0  0  0
 11 14  1  0  0  0  0
 14 15  1  0  0  0  0
 14 16  2  0  0  0  0
 17 18  2  0  0  0  0
 17 19  1  0  0  0  0
 19 20  1  0  0  0  0
 19 21  1  0  0  0  0
 21 22  1  0  0  0  0
 21 23  1  0  0  0  0
 21 24  1  0  0  0  0
M  CHG  1  15  -1
M  END
$$$$

  -OEChem-03222214023D

 24 23  0     1  0  0  0  0  0999 V2000
   -2.8180   -3.6532    0.5927 H   0  0  0  0  0  0  0  0  0  0  0  0
   -2.7494   -2.6424    0.1815 C   0  0  0  0  0  0  0  0  0  0  0  0
   -3.3355   -1.9658    0.8083 H   0  0  0  0  0  0  0  0  0  0  0  0
   -3.1654   -2.6432   -0.8290 H   0  0  0  0  0  0  0  0  0  0  0  0
   -1.3011   -2.1882    0.1426 C   0  0  0  0  0  0  0  0  0  0  0  0
   -0.4219   -2.9465    0.5226 O   0  0  0  0  0  0  0  0  0  0  0  0
   -1.0108   -0.9164   -0.2953 N   0  0  0  0  0  0  0  0  0  0  0  0
   -1.7926   -0.2796   -0.4400 H   0  0  0  0  0  0  0  0  0  0  0  0
    0.3130   -0.2811   -0.2599 C   0  0  1  0  0  0  0  0  0  0  0  0
    0.9664   -0.7895    0.4563 H   0  0  0  0  0  0  0  0  0  0  0  0
    0.9734   -0.3642   -1.6604 C   0  0  0  0  0  0  0  0  0  0  0  0
    1.7132   -1.1682   -1.6571 H   0  0  0  0  0  0  0  0  0  0  0  0
    0.2101   -0.6333   -2.3963 H   0  0  0  0  0  0  0  0  0  0  0  0
    1.6514    0.9068   -2.1703 C   0  0  0  0  0  0  0  0  0  0  0  0
    1.6684    1.0856   -3.4113 O   0  5  0  0  0  0  0  0  0  0  0  0
    2.3350    1.5684   -1.3466 O   0  0  0  0  0  0  0  0  0  0  0  0
    0.0721    1.1578    0.2853 C   0  0  0  0  0  0  0  0  0  0  0  0
   -1.0385    1.6788    0.1465 O   0  0  0  0  0  0  0  0  0  0  0  0
    0.9215    1.6639    1.2511 N   0  0  0  0  0  0  0  0  0  0  0  0
    1.8925    1.4265    1.0477 H   0  0  0  0  0  0  0  0  0  0  0  0
    0.6931    2.9669    1.8578 C   0  0  0  0  0  0  0  0  0  0  0  0
   -0.2607    2.9799    2.3946 H   0  0  0  0  0  0  0  0  0  0  0  0
    1.4917    3.1914    2.5705 H   0  0  0  0  0  0  0  0  0  0  0  0
    0.6805    3.7483    1.0911 H   0  0  0  0  0  0  0  0  0  0  0  0
  1  2  1  0  0  0  0
  2  3  1  0  0  0  0
  2  4  1  0  0  0  0
  2  5  1  0  0  0  0
  5  6  2  0  0  0  0
  5  7  1  0  0  0  0
  7  8  1  0  0  0  0
  7  9  1  0  0  0  0
  9 10  1  0  0  0  0
  9 11  1  0  0  0  0
  9 17  1  0  0  0  0
 11 12  1  0  0  0  0
 11 13  1  0  0  0  0
 11 14  1  0  0  0  0
 14 15  1  0  0  0  0
 14 16  2  0  0  0  0
 17 18  2  0  0  0  0
 17 19  1  0  0  0  0
 19 20  1  0  0  0  0
 19 21  1  0  0  0  0
 21 22  1  0  0  0  0
 21 23  1  0  0  0  0
 21 24  1  0  0  0  0
M  CHG  1  15  -1
M  END
$$$$

  -OEChem-03222214023D

 24 23  0     1  0  0  0  0  0999 V2000
   -2.8240   -3.6651    0.5924 H   0  0  0  0  0  0  0  0  0  0  0  0
   -2.7555   -2.6545    0.1800 C   0  0  0  0  0  0  0  0  0  0  0  0
   -3.3462   -1.9783    0.8032 H   0  0  0  0  0  0  0  0  0  0  0  0
   -3.1664   -2.6575   -0.8325 H   0  0  0  0  0  0  0  0  0  0  0  0
   -1.3080   -2.1966    0.1467 C   0  0  0  0  0  0  0  0  0  0  0  0
   -0.4291   -2.9512    0.5345 O   0  0  0  0  0  0  0  0  0  0  0  0
   -1.0183   -0.9265   -0.2967 N   0  0  0  0  0  0  0  0  0  0  0  0
   -1.8007   -0.2950   -0.4597 H   0  0  0  0  0  0  0  0  0  0  0  0
    0.3034   -0.2874   -0.2627 C   0  0  1  0  0  0  0  0  0  0  0  0
    0.9527   -0.7945    0.4585 H   0  0  0  0  0  0  0  0  0  0  0  0
    0.9789   -0.3712   -1.6531 C   0  0  0  0  0  0  0  0  0  0  0  0
    1.7295   -1.1651   -1.6434 H   0  0  0  0  0  0  0  0  0  0  0  0
    0.2288   -0.6451   -2.4007 H   0  0  0  0  0  0  0  0  0  0  0  0
    1.6430    0.9196   -2.1250 C   0  0  0  0  0  0  0  0  0  0  0  0
    1.4480    1.2870   -3.3077 O   0  5  0  0  0  0  0  0  0  0  0  0
    2.4483    1.4662   -1.3267 O   0  0  0  0  0  0  0  0  0  0  0  0
    0.0767    1.1563    0.2731 C   0  0  0  0  0  0  0  0  0  0  0  0
   -1.0314    1.6825    0.1386 O   0  0  0  0  0  0  0  0  0  0  0  0
    0.9338    1.6606    1.2327 N   0  0  0  0  0  0  0  0  0  0  0  0
    1.9026    1.4091    1.0329 H   0  0  0  0  0  0  0  0  0  0  0  0
    0.7201    2.9706    1.8294 C   0  0  0  0  0  0  0  0  0  0  0  0
   -0.2328    2.9981    2.3674 H   0  0  0  0  0  0  0  0  0  0  0  0
    1.5221    3.1924    2.5394 H   0  0  0  0  0  0  0  0  0  0  0  0
    0.7141    3.7459    1.0563 H   0  0  0  0  0  0  0  0  0  0  0  0
  1  2  1  0  0  0  0
  2  3  1  0  0  0  0
  2  4  1  0  0  0  0
  2  5  1  0  0  0  0
  5  6  2  0  0  0  0
  5  7  1  0  0  0  0
  7  8  1  0  0  0  0
  7  9  1  0  0  0  0
  9 10  1  0  0  0  0
  9 11  1  0  0  0  0
  9 17  1  0  0  0  0
 11 12  1  0  0  0  0
 11 13  1  0  0  0  0
 11 14  1  0  0  0  0
 14 15  1  0  0  0  0
 14 16  2  0  0  0  0
 17 18  2  0  0  0  0
 17 19  1  0  0  0  0
 19 20  1  0  0  0  0
 19 21  1  0  0  0  0
 21 22  1  0  0  0  0
 21 23  1  0  0  0  0
 21 24  1  0  0  0  0
M  CHG  1  15  -1
M  END
$$$$

  -OEChem-03222214023D

 24 23  0     1  0  0  0  0  0999 V2000
   -2.8252   -3.6776    0.5876 H   0  0  0  0  0  0  0  0  0  0  0  0
   -2.7605   -2.6663    0.1767 C   0  0  0  0  0  0  0  0  0  0  0  0
   -3.3527   -1.9930    0.8014 H   0  0  0  0  0  0  0  0  0  0  0  0
   -3.1733   -2.6696   -0.8352 H   0  0  0  0  0  0  0  0  0  0  0  0
   -1.3143   -2.2039    0.1434 C   0  0  0  0  0  0  0  0  0  0  0  0
   -0.4332   -2.9564    0.5306 O   0  0  0  0  0  0  0  0  0  0  0  0
   -1.0280   -0.9338   -0.3024 N   0  0  0  0  0  0  0  0  0  0  0  0
   -1.8125   -0.3060   -0.4692 H   0  0  0  0  0  0  0  0  0  0  0  0
    0.2903   -0.2881   -0.2697 C   0  0  1  0  0  0  0  0  0  0  0  0
    0.9330   -0.7930    0.4588 H   0  0  0  0  0  0  0  0  0  0  0  0
    0.9869   -0.3785   -1.6469 C   0  0  0  0  0  0  0  0  0  0  0  0
    1.7490   -1.1610   -1.6204 H   0  0  0  0  0  0  0  0  0  0  0  0
    0.2546   -0.6641   -2.4073 H   0  0  0  0  0  0  0  0  0  0  0  0
    1.6367    0.9265   -2.0930 C   0  0  0  0  0  0  0  0  0  0  0  0
    1.2514    1.4589   -3.1601 O   0  5  0  0  0  0  0  0  0  0  0  0
    2.5386    1.3831   -1.3430 O   0  0  0  0  0  0  0  0  0  0  0  0
    0.0774    1.1593    0.2603 C   0  0  0  0  0  0  0  0  0  0  0  0
   -1.0327    1.6846    0.1450 O   0  0  0  0  0  0  0  0  0  0  0  0
    0.9446    1.6587    1.2133 N   0  0  0  0  0  0  0  0  0  0  0  0
    1.9099    1.3927    1.0148 H   0  0  0  0  0  0  0  0  0  0  0  0
    0.7482    2.9741    1.8042 C   0  0  0  0  0  0  0  0  0  0  0  0
   -0.1995    3.0136    2.3505 H   0  0  0  0  0  0  0  0  0  0  0  0
    1.5587    3.1932    2.5054 H   0  0  0  0  0  0  0  0  0  0  0  0
    0.7423    3.7447    1.0263 H   0  0  0  0  0  0  0  0  0  0  0  0
  1  2  1  0  0  0  0
  2  3  1  0  0  0  0
  2  4  1  0  0  0  0
  2  5  1  0  0  0  0
  5  6  2  0  0  0  0
  5  7  1  0  0  0  0
  7  8  1  0  0  0  0
  7  9  1  0  0  0  0
  9 10  1  0  0  0  0
  9 11  1  0  0  0  0
  9 17  1  0  0  0  0
 11 12  1  0  0  0  0
 11 13  1  0  0  0  0
 11 14  1  0  0  0  0
 14 15  1  0  0  0  0
 14 16  2  0  0  0  0
 17 18  2  0  0  0  0
 17 19  1  0  0  0  0
 19 20  1  0  0  0  0
 19 21  1  0  0  0  0
 21 22  1  0  0  0  0
 21 23  1  0  0  0  0
 21 24  1  0  0  0  0
M  CHG  1  15  -1
M  END
$$$$

  -OEChem-03222214023D

 24 23  0     1  0  0  0  0  0999 V2000
   -2.8205   -3.6799    0.6018 H   0  0  0  0  0  0  0  0  0  0  0  0
   -2.7611   -2.6741    0.1765 C   0  0  0  0  0  0  0  0  0  0  0  0
   -3.3560   -1.9951    0.7924 H   0  0  0  0  0  0  0  0  0  0  0  0
   -3.1739   -2.6931   -0.8351 H   0  0  0  0  0  0  0  0  0  0  0  0
   -1.3172   -2.2056    0.1355 C   0  0  0  0  0  0  0  0  0  0  0  0
   -0.4313   -2.9552    0.5175 O   0  0  0  0  0  0  0  0  0  0  0  0
   -1.0383   -0.9347   -0.3126 N   0  0  0  0  0  0  0  0  0  0  0  0
   -1.8258   -0.3103   -0.4774 H   0  0  0  0  0  0  0  0  0  0  0  0
    0.2761   -0.2824   -0.2813 C   0  0  1  0  0  0  0  0  0  0  0  0
    0.9124   -0.7833    0.4552 H   0  0  0  0  0  0  0  0  0  0  0  0
    0.9932   -0.3851   -1.6451 C   0  0  0  0  0  0  0  0  0  0  0  0
    1.7629   -1.1597   -1.5993 H   0  0  0  0  0  0  0  0  0  0  0  0
    0.2770   -0.6825   -2.4161 H   0  0  0  0  0  0  0  0  0  0  0  0
    1.6312    0.9274   -2.0800 C   0  0  0  0  0  0  0  0  0  0  0  0
    1.0812    1.5974   -2.9846 O   0  5  0  0  0  0  0  0  0  0  0  0
    2.6261    1.3022   -1.4077 O   0  0  0  0  0  0  0  0  0  0  0  0
    0.0744    1.1672    0.2445 C   0  0  0  0  0  0  0  0  0  0  0  0
   -1.0394    1.6890    0.1547 O   0  0  0  0  0  0  0  0  0  0  0  0
    0.9527    1.6586    1.1920 N   0  0  0  0  0  0  0  0  0  0  0  0
    1.9144    1.3755    1.0013 H   0  0  0  0  0  0  0  0  0  0  0  0
    0.7704    2.9730    1.7897 C   0  0  0  0  0  0  0  0  0  0  0  0
   -0.1733    3.0173    2.3425 H   0  0  0  0  0  0  0  0  0  0  0  0
    1.5872    3.1831    2.4862 H   0  0  0  0  0  0  0  0  0  0  0  0
    0.7652    3.7468    1.0151 H   0  0  0  0  0  0  0  0  0  0  0  0
  1  2  1  0  0  0  0
  2  3  1  0  0  0  0
  2  4  1  0  0  0  0
  2  5  1  0  0  0  0
  5  6  2  0  0  0  0
  5  7  1  0  0  0  0
  7  8  1  0  0  0  0
  7  9  1  0  0  0  0
  9 10  1  0  0  0  0
  9 11  1  0  0  0  0
  9 17  1  0  0  0  0
 11 12  1  0  0  0  0
 11 13  1  0  0  0  0
 11 14  1  0  0  0  0
 14 15  1  0  0  0  0
 14 16  2  0  0  0  0
 17 18  2  0  0  0  0
 17 19  1  0  0  0  0
 19 20  1  0  0  0  0
 19 21  1  0  0  0  0
 21 22  1  0  0  0  0
 21 23  1  0  0  0  0
 21 24  1  0  0  0  0
M  CHG  1  15  -1
M  END
$$$$

  -OEChem-03222214023D

 24 23  0     1  0  0  0  0  0999 V2000
   -2.8178   -3.6874    0.5946 H   0  0  0  0  0  0  0  0  0  0  0  0
   -2.7617   -2.6798    0.1734 C   0  0  0  0  0  0  0  0  0  0  0  0
   -3.3544   -2.0040    0.7949 H   0  0  0  0  0  0  0  0  0  0  0  0
   -3.1801   -2.6949   -0.8361 H   0  0  0  0  0  0  0  0  0  0  0  0
   -1.3190   -2.2085    0.1273 C   0  0  0  0  0  0  0  0  0  0  0  0
   -0.4294   -2.9564    0.5043 O   0  0  0  0  0  0  0  0  0  0  0  0
   -1.0464   -0.9359   -0.3193 N   0  0  0  0  0  0  0  0  0  0  0  0
   -1.8373   -0.3133   -0.4749 H   0  0  0  0  0  0  0  0  0  0  0  0
    0.2637   -0.2756   -0.2908 C   0  0  1  0  0  0  0  0  0  0  0  0
    0.8958   -0.7752    0.4505 H   0  0  0  0  0  0  0  0  0  0  0  0
    0.9968   -0.3878   -1.6440 C   0  0  0  0  0  0  0  0  0  0  0  0
    1.7717   -1.1562   -1.5811 H   0  0  0  0  0  0  0  0  0  0  0  0
    0.2927   -0.6967   -2.4214 H   0  0  0  0  0  0  0  0  0  0  0  0
    1.6252    0.9280   -2.0805 C   0  0  0  0  0  0  0  0  0  0  0  0
    0.9461    1.7143   -2.7803 O   0  5  0  0  0  0  0  0  0  0  0  0
    2.7214    1.2143   -1.5365 O   0  0  0  0  0  0  0  0  0  0  0  0
    0.0698    1.1743    0.2356 C   0  0  0  0  0  0  0  0  0  0  0  0
   -1.0499    1.6878    0.1779 O   0  0  0  0  0  0  0  0  0  0  0  0
    0.9577    1.6604    1.1776 N   0  0  0  0  0  0  0  0  0  0  0  0
    1.9158    1.3590    1.0020 H   0  0  0  0  0  0  0  0  0  0  0  0
    0.7868    2.9753    1.7777 C   0  0  0  0  0  0  0  0  0  0  0  0
   -0.1473    3.0206    2.3467 H   0  0  0  0  0  0  0  0  0  0  0  0
    1.6158    3.1848    2.4599 H   0  0  0  0  0  0  0  0  0  0  0  0
    0.7686    3.7489    1.0028 H   0  0  0  0  0  0  0  0  0  0  0  0
  1  2  1  0  0  0  0
  2  3  1  0  0  0  0
  2  4  1  0  0  0  0
  2  5  1  0  0  0  0
  5  6  2  0  0  0  0
  5  7  1  0  0  0  0
  7  8  1  0  0  0  0
  7  9  1  0  0  0  0
  9 10  1  0  0  0  0
  9 11  1  0  0  0  0
  9 17  1  0  0  0  0
 11 12  1  0  0  0  0
 11 13  1  0  0  0  0
 11 14  1  0  0  0  0
 14 15  1  0  0  0  0
 14 16  2  0  0  0  0
 17 18  2  0  0  0  0
 17 19  1  0  0  0  0
 19 20  1  0  0  0  0
 19 21  1  0  0  0  0
 21 22  1  0  0  0  0
 21 23  1  0  0  0  0
 21 24  1  0  0  0  0
M  CHG  1  15  -1
M  END
$$$$

  -OEChem-03222214023D

 24 23  0     1  0  0  0  0  0999 V2000
   -2.8072   -3.6924    0.5865 H   0  0  0  0  0  0  0  0  0  0  0  0
   -2.7574   -2.6821    0.1712 C   0  0  0  0  0  0  0  0  0  0  0  0
   -3.3495   -2.0124    0.8001 H   0  0  0  0  0  0  0  0  0  0  0  0
   -3.1808   -2.6932   -0.8362 H   0  0  0  0  0  0  0  0  0  0  0  0
   -1.3168   -2.2051    0.1201 C   0  0  0  0  0  0  0  0  0  0  0  0
   -0.4229   -2.9501    0.4924 O   0  0  0  0  0  0  0  0  0  0  0  0
   -1.0516   -0.9291   -0.3212 N   0  0  0  0  0  0  0  0  0  0  0  0
   -1.8460   -0.3103   -0.4741 H   0  0  0  0  0  0  0  0  0  0  0  0
    0.2544   -0.2610   -0.2935 C   0  0  1  0  0  0  0  0  0  0  0  0
    0.8850   -0.7591    0.4500 H   0  0  0  0  0  0  0  0  0  0  0  0
    0.9935   -0.3858   -1.6436 C   0  0  0  0  0  0  0  0  0  0  0  0
    1.7655   -1.1563   -1.5668 H   0  0  0  0  0  0  0  0  0  0  0  0
    0.2910   -0.7064   -2.4174 H   0  0  0  0  0  0  0  0  0  0  0  0
    1.6249    0.9181   -2.1149 C   0  0  0  0  0  0  0  0  0  0  0  0
    0.8801    1.8089   -2.5846 O   0  5  0  0  0  0  0  0  0  0  0  0
    2.8335    1.0812   -1.8180 O   0  0  0  0  0  0  0  0  0  0  0  0
    0.0596    1.1860    0.2391 C   0  0  0  0  0  0  0  0  0  0  0  0
   -1.0653    1.6905    0.2069 O   0  0  0  0  0  0  0  0  0  0  0  0
    0.9519    1.6684    1.1800 N   0  0  0  0  0  0  0  0  0  0  0  0
    1.9052    1.3398    1.0393 H   0  0  0  0  0  0  0  0  0  0  0  0
    0.7878    2.9802    1.7893 C   0  0  0  0  0  0  0  0  0  0  0  0
   -0.1334    3.0177    2.3794 H   0  0  0  0  0  0  0  0  0  0  0  0
    1.6305    3.1922    2.4536 H   0  0  0  0  0  0  0  0  0  0  0  0
    0.7485    3.7568    1.0181 H   0  0  0  0  0  0  0  0  0  0  0  0
  1  2  1  0  0  0  0
  2  3  1  0  0  0  0
  2  4  1  0  0  0  0
  2  5  1  0  0  0  0
  5  6  2  0  0  0  0
  5  7  1  0  0  0  0
  7  8  1  0  0  0  0
  7  9  1  0  0  0  0
  9 10  1  0  0  0  0
  9 11  1  0  0  0  0
  9 17  1  0  0  0  0
 11 12  1  0  0  0  0
 11 13  1  0  0  0  0
 11 14  1  0  0  0  0
 14 15  1  0  0  0  0
 14 16  2  0  0  0  0
 17 18  2  0  0  0  0
 17 19  1  0  0  0  0
 19 20  1  0  0  0  0
 19 21  1  0  0  0  0
 21 22  1  0  0  0  0
 21 23  1  0  0  0  0
 21 24  1  0  0  0  0
M  CHG  1  15  -1
M  END
$$$$

  -OEChem-03222214023D

 24 23  0     1  0  0  0  0  0999 V2000
   -2.7907   -3.6947    0.5763 H   0  0  0  0  0  0  0  0  0  0  0  0
   -2.7471   -2.6818    0.1666 C   0  0  0  0  0  0  0  0  0  0  0  0
   -3.3435   -2.0197    0.7994 H   0  0  0  0  0  0  0  0  0  0  0  0
   -3.1704   -2.6897   -0.8409 H   0  0  0  0  0  0  0  0  0  0  0  0
   -1.3094   -2.1952    0.1186 C   0  0  0  0  0  0  0  0  0  0  0  0
   -0.4111   -2.9349    0.4913 O   0  0  0  0  0  0  0  0  0  0  0  0
   -1.0513   -0.9149   -0.3151 N   0  0  0  0  0  0  0  0  0  0  0  0
   -1.8486   -0.2991   -0.4655 H   0  0  0  0  0  0  0  0  0  0  0  0
    0.2524   -0.2418   -0.2879 C   0  0  1  0  0  0  0  0  0  0  0  0
    0.8853   -0.7396    0.4540 H   0  0  0  0  0  0  0  0  0  0  0  0
    0.9853   -0.3802   -1.6439 C   0  0  0  0  0  0  0  0  0  0  0  0
    1.7466   -1.1604   -1.5568 H   0  0  0  0  0  0  0  0  0  0  0  0
    0.2727   -0.7096   -2.4043 H   0  0  0  0  0  0  0  0  0  0  0  0
    1.6320    0.8962   -2.1767 C   0  0  0  0  0  0  0  0  0  0  0  0
    0.9102    1.8932   -2.4083 O   0  5  0  0  0  0  0  0  0  0  0  0
    2.8855    0.8996   -2.2300 O   0  0  0  0  0  0  0  0  0  0  0  0
    0.0497    1.1997    0.2562 C   0  0  0  0  0  0  0  0  0  0  0  0
   -1.0793    1.6963    0.2371 O   0  0  0  0  0  0  0  0  0  0  0  0
    0.9416    1.6812    1.1990 N   0  0  0  0  0  0  0  0  0  0  0  0
    1.8909    1.3347    1.0888 H   0  0  0  0  0  0  0  0  0  0  0  0
    0.7739    2.9847    1.8248 C   0  0  0  0  0  0  0  0  0  0  0  0
   -0.1471    3.0118    2.4158 H   0  0  0  0  0  0  0  0  0  0  0  0
    1.6167    3.1909    2.4909 H   0  0  0  0  0  0  0  0  0  0  0  0
    0.7311    3.7706    1.0636 H   0  0  0  0  0  0  0  0  0  0  0  0
  1  2  1  0  0  0  0
  2  3  1  0  0  0  0
  2  4  1  0  0  0  0
  2  5  1  0  0  0  0
  5  6  2  0  0  0  0
  5  7  1  0  0  0  0
  7  8  1  0  0  0  0
  7  9  1  0  0  0  0
  9 10  1  0  0  0  0
  9 11  1  0  0  0  0
  9 17  1  0  0  0  0
 11 12  1  0  0  0  0
 11 13  1  0  0  0  0
 11 14  1  0  0  0  0
 14 15  1  0  0  0  0
 14 16  2  0  0  0  0
 17 18  2  0  0  0  0
 17 19  1  0  0  0  0
 19 20  1  0  0  0  0
 19 21  1  0  0  0  0
 21 22  1  0  0  0  0
 21 23  1  0  0  0  0
 21 24  1  0  0  0  0
M  CHG  1  15  -1
M  END
$$$$

  -OEChem-03222214023D

 24 23  0     1  0  0  0  0  0999 V2000
   -2.7784   -3.6940    0.5571 H   0  0  0  0  0  0  0  0  0  0  0  0
   -2.7355   -2.6768    0.1580 C   0  0  0  0  0  0  0  0  0  0  0  0
   -3.3359   -2.0221    0.7946 H   0  0  0  0  0  0  0  0  0  0  0  0
   -3.1548   -2.6755   -0.8512 H   0  0  0  0  0  0  0  0  0  0  0  0
   -1.2991   -2.1862    0.1202 C   0  0  0  0  0  0  0  0  0  0  0  0
   -0.3994   -2.9259    0.4891 O   0  0  0  0  0  0  0  0  0  0  0  0
   -1.0440   -0.9020   -0.3030 N   0  0  0  0  0  0  0  0  0  0  0  0
   -1.8426   -0.2851   -0.4415 H   0  0  0  0  0  0  0  0  0  0  0  0
    0.2600   -0.2287   -0.2764 C   0  0  1  0  0  0  0  0  0  0  0  0
    0.8986   -0.7292    0.4585 H   0  0  0  0  0  0  0  0  0  0  0  0
    0.9767   -0.3719   -1.6451 C   0  0  0  0  0  0  0  0  0  0  0  0
    1.7260   -1.1639   -1.5584 H   0  0  0  0  0  0  0  0  0  0  0  0
    0.2469   -0.7025   -2.3885 H   0  0  0  0  0  0  0  0  0  0  0  0
    1.6413    0.8736   -2.2362 C   0  0  0  0  0  0  0  0  0  0  0  0
    1.0337    1.9686   -2.2325 O   0  5  0  0  0  0  0  0  0  0  0  0
    2.8194    0.7222   -2.6398 O   0  0  0  0  0  0  0  0  0  0  0  0
    0.0452    1.2050    0.2835 C   0  0  0  0  0  0  0  0  0  0  0  0
   -1.0880    1.6935    0.2665 O   0  0  0  0  0  0  0  0  0  0  0  0
    0.9326    1.6875    1.2305 N   0  0  0  0  0  0  0  0  0  0  0  0
    1.8832    1.3451    1.1255 H   0  0  0  0  0  0  0  0  0  0  0  0
    0.7536    2.9876    1.8603 C   0  0  0  0  0  0  0  0  0  0  0  0
   -0.1754    3.0102    2.4388 H   0  0  0  0  0  0  0  0  0  0  0  0
    1.5863    3.1927    2.5390 H   0  0  0  0  0  0  0  0  0  0  0  0
    0.7194    3.7767    1.1020 H   0  0  0  0  0  0  0  0  0  0  0  0
  1  2  1  0  0  0  0
  2  3  1  0  0  0  0
  2  4  1  0  0  0  0
  2  5  1  0  0  0  0
  5  6  2  0  0  0  0
  5  7  1  0  0  0  0
  7  8  1  0  0  0  0
  7  9  1  0  0  0  0
  9 10  1  0  0  0  0
  9 11  1  0  0  0  0
  9 17  1  0  0  0  0
 11 12  1  0  0  0  0
 11 13  1  0  0  0  0
 11 14  1  0  0  0  0
 14 15  1  0  0  0  0
 14 16  2  0  0  0  0
 17 18  2  0  0  0  0
 17 19  1  0  0  0  0
 19 20  1  0  0  0  0
 19 21  1  0  0  0  0
 21 22  1  0  0  0  0
 21 23  1  0  0  0  0
 21 24  1  0  0  0  0
M  CHG  1  15  -1
M  END
$$$$

  -OEChem-03222214023D

 24 23  0     1  0  0  0  0  0999 V2000
   -2.7722   -3.6853    0.5498 H   0  0  0  0  0  0  0  0  0  0  0  0
   -2.7282   -2.6662    0.1558 C   0  0  0  0  0  0  0  0  0  0  0  0
   -3.3258   -2.0139    0.7975 H   0  0  0  0  0  0  0  0  0  0  0  0
   -3.1495   -2.6586   -0.8525 H   0  0  0  0  0  0  0  0  0  0  0  0
   -1.2908   -2.1787    0.1172 C   0  0  0  0  0  0  0  0  0  0  0  0
   -0.3925   -2.9213    0.4837 O   0  0  0  0  0  0  0  0  0  0  0  0
   -1.0330   -0.8924   -0.2976 N   0  0  0  0  0  0  0  0  0  0  0  0
   -1.8298   -0.2713   -0.4282 H   0  0  0  0  0  0  0  0  0  0  0  0
    0.2744   -0.2248   -0.2677 C   0  0  1  0  0  0  0  0  0  0  0  0
    0.9179   -0.7298    0.4597 H   0  0  0  0  0  0  0  0  0  0  0  0
    0.9734   -0.3637   -1.6500 C   0  0  0  0  0  0  0  0  0  0  0  0
    1.7136   -1.1648   -1.5700 H   0  0  0  0  0  0  0  0  0  0  0  0
    0.2285   -0.6889   -2.3806 H   0  0  0  0  0  0  0  0  0  0  0  0
    1.6552    0.8570   -2.2792 C   0  0  0  0  0  0  0  0  0  0  0  0
    1.2348    2.0149   -2.0555 O   0  5  0  0  0  0  0  0  0  0  0  0
    2.6601    0.6000   -2.9848 O   0  0  0  0  0  0  0  0  0  0  0  0
    0.0440    1.2023    0.3053 C   0  0  0  0  0  0  0  0  0  0  0  0
   -1.0910    1.6878    0.2754 O   0  0  0  0  0  0  0  0  0  0  0  0
    0.9215    1.6862    1.2608 N   0  0  0  0  0  0  0  0  0  0  0  0
    1.8766    1.3604    1.1483 H   0  0  0  0  0  0  0  0  0  0  0  0
    0.7295    2.9843    1.8909 C   0  0  0  0  0  0  0  0  0  0  0  0
   -0.2053    3.0015    2.4601 H   0  0  0  0  0  0  0  0  0  0  0  0
    1.5544    3.1925    2.5784 H   0  0  0  0  0  0  0  0  0  0  0  0
    0.6986    3.7744    1.1333 H   0  0  0  0  0  0  0  0  0  0  0  0
  1  2  1  0  0  0  0
  2  3  1  0  0  0  0
  2  4  1  0  0  0  0
  2  5  1  0  0  0  0
  5  6  2  0  0  0  0
  5  7  1  0  0  0  0
  7  8  1  0  0  0  0
  7  9  1  0  0  0  0
  9 10  1  0  0  0  0
  9 11  1  0  0  0  0
  9 17  1  0  0  0  0
 11 12  1  0  0  0  0
 11 13  1  0  0  0  0
 11 14  1  0  0  0  0
 14 15  1  0  0  0  0
 14 16  2  0  0  0  0
 17 18  2  0  0  0  0
 17 19  1  0  0  0  0
 19 20  1  0  0  0  0
 19 21  1  0  0  0  0
 21 22  1  0  0  0  0
 21 23  1  0  0  0  0
 21 24  1  0  0  0  0
M  CHG  1  15  -1
M  END
$$$$

  -OEChem-03222214023D

 24 23  0     1  0  0  0  0  0999 V2000
   -2.7783   -3.6717    0.5469 H   0  0  0  0  0  0  0  0  0  0  0  0
   -2.7274   -2.6517    0.1562 C   0  0  0  0  0  0  0  0  0  0  0  0
   -3.3195   -1.9972    0.8007 H   0  0  0  0  0  0  0  0  0  0  0  0
   -3.1501   -2.6381   -0.8515 H   0  0  0  0  0  0  0  0  0  0  0  0
   -1.2867   -2.1742    0.1170 C   0  0  0  0  0  0  0  0  0  0  0  0
   -0.3931   -2.9235    0.4814 O   0  0  0  0  0  0  0  0  0  0  0  0
   -1.0200   -0.8885   -0.2945 N   0  0  0  0  0  0  0  0  0  0  0  0
   -1.8125   -0.2602   -0.4176 H   0  0  0  0  0  0  0  0  0  0  0  0
    0.2932   -0.2314   -0.2598 C   0  0  1  0  0  0  0  0  0  0  0  0
    0.9412   -0.7407    0.4606 H   0  0  0  0  0  0  0  0  0  0  0  0
    0.9731   -0.3586   -1.6548 C   0  0  0  0  0  0  0  0  0  0  0  0
    1.7058   -1.1678   -1.5906 H   0  0  0  0  0  0  0  0  0  0  0  0
    0.2140   -0.6702   -2.3770 H   0  0  0  0  0  0  0  0  0  0  0  0
    1.6684    0.8485   -2.2981 C   0  0  0  0  0  0  0  0  0  0  0  0
    1.4806    2.0124   -1.8752 O   0  5  0  0  0  0  0  0  0  0  0  0
    2.4409    0.5636   -3.2445 O   0  0  0  0  0  0  0  0  0  0  0  0
    0.0491    1.1920    0.3190 C   0  0  0  0  0  0  0  0  0  0  0  0
   -1.0838    1.6813    0.2623 O   0  0  0  0  0  0  0  0  0  0  0  0
    0.9139    1.6789    1.2842 N   0  0  0  0  0  0  0  0  0  0  0  0
    1.8748    1.3750    1.1593 H   0  0  0  0  0  0  0  0  0  0  0  0
    0.7070    2.9775    1.9082 C   0  0  0  0  0  0  0  0  0  0  0  0
   -0.2326    2.9892    2.4697 H   0  0  0  0  0  0  0  0  0  0  0  0
    1.5247    3.1945    2.6017 H   0  0  0  0  0  0  0  0  0  0  0  0
    0.6764    3.7649    1.1477 H   0  0  0  0  0  0  0  0  0  0  0  0
  1  2  1  0  0  0  0
  2  3  1  0  0  0  0
  2  4  1  0  0  0  0
  2  5  1  0  0  0  0
  5  6  2  0  0  0  0
  5  7  1  0  0  0  0
  7  8  1  0  0  0  0
  7  9  1  0  0  0  0
  9 10  1  0  0  0  0
  9 11  1  0  0  0  0
  9 17  1  0  0  0  0
 11 12  1  0  0  0  0
 11 13  1  0  0  0  0
 11 14  1  0  0  0  0
 14 15  1  0  0  0  0
 14 16  2  0  0  0  0
 17 18  2  0  0  0  0
 17 19  1  0  0  0  0
 19 20  1  0  0  0  0
 19 21  1  0  0  0  0
 21 22  1  0  0  0  0
 21 23  1  0  0  0  0
 21 24  1  0  0  0  0
M  CHG  1  15  -1
M  END
$$$$

  -OEChem-03222214023D

 24 23  0     1  0  0  0  0  0999 V2000
   -2.7927   -3.6526    0.5568 H   0  0  0  0  0  0  0  0  0  0  0  0
   -2.7317   -2.6350    0.1614 C   0  0  0  0  0  0  0  0  0  0  0  0
   -3.3179   -1.9716    0.8022 H   0  0  0  0  0  0  0  0  0  0  0  0
   -3.1536   -2.6222   -0.8466 H   0  0  0  0  0  0  0  0  0  0  0  0
   -1.2862   -2.1718    0.1216 C   0  0  0  0  0  0  0  0  0  0  0  0
   -0.3997   -2.9296    0.4863 O   0  0  0  0  0  0  0  0  0  0  0  0
   -1.0065   -0.8898   -0.2926 N   0  0  0  0  0  0  0  0  0  0  0  0
   -1.7924   -0.2529   -0.4157 H   0  0  0  0  0  0  0  0  0  0  0  0
    0.3136   -0.2464   -0.2552 C   0  0  1  0  0  0  0  0  0  0  0  0
    0.9651   -0.7589    0.4598 H   0  0  0  0  0  0  0  0  0  0  0  0
    0.9736   -0.3611   -1.6612 C   0  0  0  0  0  0  0  0  0  0  0  0
    1.7003   -1.1765   -1.6182 H   0  0  0  0  0  0  0  0  0  0  0  0
    0.2020   -0.6561   -2.3777 H   0  0  0  0  0  0  0  0  0  0  0  0
    1.6767    0.8458   -2.2952 C   0  0  0  0  0  0  0  0  0  0  0  0
    1.7403    1.9473   -1.7004 O   0  5  0  0  0  0  0  0  0  0  0  0
    2.1934    0.6236   -3.4164 O   0  0  0  0  0  0  0  0  0  0  0  0
    0.0600    1.1780    0.3218 C   0  0  0  0  0  0  0  0  0  0  0  0
   -1.0683    1.6743    0.2359 O   0  0  0  0  0  0  0  0  0  0  0  0
    0.9125    1.6713    1.2942 N   0  0  0  0  0  0  0  0  0  0  0  0
    1.8799    1.3979    1.1457 H   0  0  0  0  0  0  0  0  0  0  0  0
    0.6880    2.9694    1.9139 C   0  0  0  0  0  0  0  0  0  0  0  0
   -0.2580    2.9749    2.4648 H   0  0  0  0  0  0  0  0  0  0  0  0
    1.4961    3.1934    2.6162 H   0  0  0  0  0  0  0  0  0  0  0  0
    0.6602    3.7556    1.1522 H   0  0  0  0  0  0  0  0  0  0  0  0
  1  2  1  0  0  0  0
  2  3  1  0  0  0  0
  2  4  1  0  0  0  0
  2  5  1  0  0  0  0
  5  6  2  0  0  0  0
  5  7  1  0  0  0  0
  7  8  1  0  0  0  0
  7  9  1  0  0  0  0
  9 10  1  0  0  0  0
  9 11  1  0  0  0  0
  9 17  1  0  0  0  0
 11 12  1  0  0  0  0
 11 13  1  0  0  0  0
 11 14  1  0  0  0  0
 14 15  1  0  0  0  0
 14 16  2  0  0  0  0
 17 18  2  0  0  0  0
 17 19  1  0  0  0  0
 19 20  1  0  0  0  0
 19 21  1  0  0  0  0
 21 22  1  0  0  0  0
 21 23  1  0  0  0  0
 21 24  1  0  0  0  0
M  CHG  1  15  -1
M  END
$$$$

  -OEChem-03222214023D

 24 23  0     1  0  0  0  0  0999 V2000
   -2.8065   -3.6440    0.5690 H   0  0  0  0  0  0  0  0  0  0  0  0
   -2.7383   -2.6290    0.1676 C   0  0  0  0  0  0  0  0  0  0  0  0
   -3.3244   -1.9587    0.8016 H   0  0  0  0  0  0  0  0  0  0  0  0
   -3.1547   -2.6200   -0.8428 H   0  0  0  0  0  0  0  0  0  0  0  0
   -1.2903   -2.1738    0.1320 C   0  0  0  0  0  0  0  0  0  0  0  0
   -0.4096   -2.9352    0.5027 O   0  0  0  0  0  0  0  0  0  0  0  0
   -1.0014   -0.8965   -0.2900 N   0  0  0  0  0  0  0  0  0  0  0  0
   -1.7831   -0.2561   -0.4212 H   0  0  0  0  0  0  0  0  0  0  0  0
    0.3231   -0.2621   -0.2530 C   0  0  1  0  0  0  0  0  0  0  0  0
    0.9767   -0.7754    0.4595 H   0  0  0  0  0  0  0  0  0  0  0  0
    0.9725   -0.3648   -1.6633 C   0  0  0  0  0  0  0  0  0  0  0  0
    1.7005   -1.1794   -1.6361 H   0  0  0  0  0  0  0  0  0  0  0  0
    0.1971   -0.6494   -2.3803 H   0  0  0  0  0  0  0  0  0  0  0  0
    1.6750    0.8558   -2.2685 C   0  0  0  0  0  0  0  0  0  0  0  0
    1.9822    1.8337   -1.5443 O   0  5  0  0  0  0  0  0  0  0  0  0
    1.9421    0.7736   -3.4912 O   0  0  0  0  0  0  0  0  0  0  0  0
    0.0690    1.1666    0.3146 C   0  0  0  0  0  0  0  0  0  0  0  0
   -1.0532    1.6721    0.2054 O   0  0  0  0  0  0  0  0  0  0  0  0
    0.9168    1.6647    1.2879 N   0  0  0  0  0  0  0  0  0  0  0  0
    1.8873    1.4157    1.1114 H   0  0  0  0  0  0  0  0  0  0  0  0
    0.6852    2.9639    1.9022 C   0  0  0  0  0  0  0  0  0  0  0  0
   -0.2700    2.9728    2.4366 H   0  0  0  0  0  0  0  0  0  0  0  0
    1.4816    3.1859    2.6183 H   0  0  0  0  0  0  0  0  0  0  0  0
    0.6729    3.7493    1.1394 H   0  0  0  0  0  0  0  0  0  0  0  0
  1  2  1  0  0  0  0
  2  3  1  0  0  0  0
  2  4  1  0  0  0  0
  2  5  1  0  0  0  0
  5  6  2  0  0  0  0
  5  7  1  0  0  0  0
  7  8  1  0  0  0  0
  7  9  1  0  0  0  0
  9 10  1  0  0  0  0
  9 11  1  0  0  0  0
  9 17  1  0  0  0  0
 11 12  1  0  0  0  0
 11 13  1  0  0  0  0
 11 14  1  0  0  0  0
 14 15  1  0  0  0  0
 14 16  2  0  0  0  0
 17 18  2  0  0  0  0
 17 19  1  0  0  0  0
 19 20  1  0  0  0  0
 19 21  1  0  0  0  0
 21 22  1  0  0  0  0
 21 23  1  0  0  0  0
 21 24  1  0  0  0  0
M  CHG  1  15  -1
M  END
$$$$

  -OEChem-03222214023D

 24 23  0     1  0  0  0  0  0999 V2000
   -2.8171   -3.6423    0.5880 H   0  0  0  0  0  0  0  0  0  0  0  0
   -2.7461   -2.6308    0.1785 C   0  0  0  0  0  0  0  0  0  0  0  0
   -3.3298   -1.9538    0.8074 H   0  0  0  0  0  0  0  0  0  0  0  0
   -3.1628   -2.6284   -0.8319 H   0  0  0  0  0  0  0  0  0  0  0  0
   -1.2967   -2.1804    0.1387 C   0  0  0  0  0  0  0  0  0  0  0  0
   -0.4185   -2.9424    0.5142 O   0  0  0  0  0  0  0  0  0  0  0  0
   -1.0033   -0.9073   -0.2929 N   0  0  0  0  0  0  0  0  0  0  0  0
   -1.7829   -0.2660   -0.4317 H   0  0  0  0  0  0  0  0  0  0  0  0
    0.3232   -0.2775   -0.2571 C   0  0  1  0  0  0  0  0  0  0  0  0
    0.9771   -0.7892    0.4563 H   0  0  0  0  0  0  0  0  0  0  0  0
    0.9730   -0.3698   -1.6650 C   0  0  0  0  0  0  0  0  0  0  0  0
    1.7073   -1.1787   -1.6477 H   0  0  0  0  0  0  0  0  0  0  0  0
    0.2025   -0.6471   -2.3902 H   0  0  0  0  0  0  0  0  0  0  0  0
    1.6672    0.8765   -2.2201 C   0  0  0  0  0  0  0  0  0  0  0  0
    2.1987    1.6841   -1.4167 O   0  5  0  0  0  0  0  0  0  0  0  0
    1.7056    0.9896   -3.4686 O   0  0  0  0  0  0  0  0  0  0  0  0
    0.0751    1.1573    0.2982 C   0  0  0  0  0  0  0  0  0  0  0  0
   -1.0408    1.6718    0.1721 O   0  0  0  0  0  0  0  0  0  0  0  0
    0.9225    1.6595    1.2688 N   0  0  0  0  0  0  0  0  0  0  0  0
    1.8934    1.4208    1.0730 H   0  0  0  0  0  0  0  0  0  0  0  0
    0.6924    2.9619    1.8765 C   0  0  0  0  0  0  0  0  0  0  0  0
   -0.2643    2.9758    2.4083 H   0  0  0  0  0  0  0  0  0  0  0  0
    1.4878    3.1848    2.5936 H   0  0  0  0  0  0  0  0  0  0  0  0
    0.6844    3.7442    1.1105 H   0  0  0  0  0  0  0  0  0  0  0  0
  1  2  1  0  0  0  0
  2  3  1  0  0  0  0
  2  4  1  0  0  0  0
  2  5  1  0  0  0  0
  5  6  2  0  0  0  0
  5  7  1  0  0  0  0
  7  8  1  0  0  0  0
  7  9  1  0  0  0  0
  9 10  1  0  0  0  0
  9 11  1  0  0  0  0
  9 17  1  0  0  0  0
 11 12  1  0  0  0  0
 11 13  1  0  0  0  0
 11 14  1  0  0  0  0
 14 15  1  0  0  0  0
 14 16  2  0  0  0  0
 17 18  2  0  0  0  0
 17 19  1  0  0  0  0
 19 20  1  0  0  0  0
 19 21  1  0  0  0  0
 21 22  1  0  0  0  0
 21 23  1  0  0  0  0
 21 24  1  0  0  0  0
M  CHG  1  15  -1
M  END
$$$$

  -OEChem-03222214023D

 24 23  0     1  0  0  0  0  0999 V2000
   -2.8231   -3.6526    0.5992 H   0  0  0  0  0  0  0  0  0  0  0  0
   -2.7534   -2.6430    0.1849 C   0  0  0  0  0  0  0  0  0  0  0  0
   -3.3386   -1.9640    0.8100 H   0  0  0  0  0  0  0  0  0  0  0  0
   -3.1696   -2.6464   -0.8255 H   0  0  0  0  0  0  0  0  0  0  0  0
   -1.3046   -2.1905    0.1442 C   0  0  0  0  0  0  0  0  0  0  0  0
   -0.4262   -2.9496    0.5243 O   0  0  0  0  0  0  0  0  0  0  0  0
   -1.0122   -0.9204   -0.2971 N   0  0  0  0  0  0  0  0  0  0  0  0
   -1.7926   -0.2834   -0.4487 H   0  0  0  0  0  0  0  0  0  0  0  0
    0.3121   -0.2865   -0.2641 C   0  0  1  0  0  0  0  0  0  0  0  0
    0.9631   -0.7950    0.4543 H   0  0  0  0  0  0  0  0  0  0  0  0
    0.9756   -0.3745   -1.6619 C   0  0  0  0  0  0  0  0  0  0  0  0
    1.7233   -1.1709   -1.6446 H   0  0  0  0  0  0  0  0  0  0  0  0
    0.2200   -0.6537   -2.4018 H   0  0  0  0  0  0  0  0  0  0  0  0
    1.6504    0.9025   -2.1597 C   0  0  0  0  0  0  0  0  0  0  0  0
    2.3799    1.5264   -1.3456 O   0  5  0  0  0  0  0  0  0  0  0  0
    1.4773    1.2276   -3.3582 O   0  0  0  0  0  0  0  0  0  0  0  0
    0.0795    1.1556    0.2767 C   0  0  0  0  0  0  0  0  0  0  0  0
   -1.0323    1.6765    0.1487 O   0  0  0  0  0  0  0  0  0  0  0  0
    0.9342    1.6598    1.2389 N   0  0  0  0  0  0  0  0  0  0  0  0
    1.9041    1.4207    1.0313 H   0  0  0  0  0  0  0  0  0  0  0  0
    0.7110    2.9641    1.8451 C   0  0  0  0  0  0  0  0  0  0  0  0
   -0.2419    2.9810    2.3837 H   0  0  0  0  0  0  0  0  0  0  0  0
    1.5117    3.1873    2.5563 H   0  0  0  0  0  0  0  0  0  0  0  0
    0.6994    3.7444    1.0770 H   0  0  0  0  0  0  0  0  0  0  0  0
  1  2  1  0  0  0  0
  2  3  1  0  0  0  0
  2  4  1  0  0  0  0
  2  5  1  0  0  0  0
  5  6  2  0  0  0  0
  5  7  1  0  0  0  0
  7  8  1  0  0  0  0
  7  9  1  0  0  0  0
  9 10  1  0  0  0  0
  9 11  1  0  0  0  0
  9 17  1  0  0  0  0
 11 12  1  0  0  0  0
 11 13  1  0  0  0  0
 11 14  1  0  0  0  0
 14 15  1  0  0  0  0
 14 16  2  0  0  0  0
 17 18  2  0  0  0  0
 17 19  1  0  0  0  0
 19 20  1  0  0  0  0
 19 21  1  0  0  0  0
 21 22  1  0  0  0  0
 21 23  1  0  0  0  0
 21 24  1  0  0  0  0
M  CHG  1  15  -1
M  END
$$$$

  -OEChem-03222214023D

 24 23  0     1  0  0  0  0  0999 V2000
   -2.8204   -3.6734    0.5996 H   0  0  0  0  0  0  0  0  0  0  0  0
   -2.7562   -2.6663    0.1787 C   0  0  0  0  0  0  0  0  0  0  0  0
   -3.3531   -1.9881    0.7936 H   0  0  0  0  0  0  0  0  0  0  0  0
   -3.1631   -2.6806   -0.8355 H   0  0  0  0  0  0  0  0  0  0  0  0
   -1.3114   -2.2008    0.1476 C   0  0  0  0  0  0  0  0  0  0  0  0
   -0.4289   -2.9504    0.5373 O   0  0  0  0  0  0  0  0  0  0  0  0
   -1.0285   -0.9305   -0.2991 N   0  0  0  0  0  0  0  0  0  0  0  0
   -1.8141   -0.3041   -0.4660 H   0  0  0  0  0  0  0  0  0  0  0  0
    0.2893   -0.2846   -0.2703 C   0  0  1  0  0  0  0  0  0  0  0  0
    0.9361   -0.7885    0.4552 H   0  0  0  0  0  0  0  0  0  0  0  0
    0.9764   -0.3759   -1.6522 C   0  0  0  0  0  0  0  0  0  0  0  0
    1.7406   -1.1561   -1.6230 H   0  0  0  0  0  0  0  0  0  0  0  0
    0.2416   -0.6647   -2.4091 H   0  0  0  0  0  0  0  0  0  0  0  0
    1.6236    0.9290   -2.1019 C   0  0  0  0  0  0  0  0  0  0  0  0
    2.5269    1.3883   -1.3552 O   0  5  0  0  0  0  0  0  0  0  0  0
    1.2546    1.4433   -3.1836 O   0  0  0  0  0  0  0  0  0  0  0  0
    0.0762    1.1620    0.2608 C   0  0  0  0  0  0  0  0  0  0  0  0
   -1.0340    1.6873    0.1467 O   0  0  0  0  0  0  0  0  0  0  0  0
    0.9457    1.6613    1.2118 N   0  0  0  0  0  0  0  0  0  0  0  0
    1.9112    1.3979    1.0110 H   0  0  0  0  0  0  0  0  0  0  0  0
    0.7454    2.9718    1.8123 C   0  0  0  0  0  0  0  0  0  0  0  0
   -0.2076    3.0073    2.3495 H   0  0  0  0  0  0  0  0  0  0  0  0
    1.5490    3.1839    2.5236 H   0  0  0  0  0  0  0  0  0  0  0  0
    0.7477    3.7493    1.0414 H   0  0  0  0  0  0  0  0  0  0  0  0
  1  2  1  0  0  0  0
  2  3  1  0  0  0  0
  2  4  1  0  0  0  0
  2  5  1  0  0  0  0
  5  6  2  0  0  0  0
  5  7  1  0  0  0  0
  7  8  1  0  0  0  0
  7  9  1  0  0  0  0
  9 10  1  0  0  0  0
  9 11  1  0  0  0  0
  9 17  1  0  0  0  0
 11 12  1  0  0  0  0
 11 13  1  0  0  0  0
 11 14  1  0  0  0  0
 14 15  1  0  0  0  0
 14 16  2  0  0  0  0
 17 18  2  0  0  0  0
 17 19  1  0  0  0  0
 19 20  1  0  0  0  0
 19 21  1  0  0  0  0
 21 22  1  0  0  0  0
 21 23  1  0  0  0  0
 21 24  1  0  0  0  0
M  CHG  1  15  -1
M  END
$$$$

  -OEChem-03222214023D

 24 23  0     1  0  0  0  0  0999 V2000
   -2.8151   -3.7021    0.5756 H   0  0  0  0  0  0  0  0  0  0  0  0
   -2.7582   -2.6905    0.1645 C   0  0  0  0  0  0  0  0  0  0  0  0
   -3.3648   -2.0239    0.7825 H   0  0  0  0  0  0  0  0  0  0  0  0
   -3.1599   -2.6993   -0.8517 H   0  0  0  0  0  0  0  0  0  0  0  0
   -1.3178   -2.2101    0.1454 C   0  0  0  0  0  0  0  0  0  0  0  0
   -0.4308   -2.9510    0.5416 O   0  0  0  0  0  0  0  0  0  0  0  0
   -1.0448   -0.9368   -0.2993 N   0  0  0  0  0  0  0  0  0  0  0  0
   -1.8359   -0.3217   -0.4804 H   0  0  0  0  0  0  0  0  0  0  0  0
    0.2654   -0.2764   -0.2722 C   0  0  1  0  0  0  0  0  0  0  0  0
    0.9059   -0.7783    0.4603 H   0  0  0  0  0  0  0  0  0  0  0  0
    0.9784   -0.3739   -1.6375 C   0  0  0  0  0  0  0  0  0  0  0  0
    1.7571   -1.1395   -1.5897 H   0  0  0  0  0  0  0  0  0  0  0  0
    0.2651   -0.6785   -2.4083 H   0  0  0  0  0  0  0  0  0  0  0  0
    1.6023    0.9474   -2.0657 C   0  0  0  0  0  0  0  0  0  0  0  0
    2.6582    1.2759   -1.4677 O   0  5  0  0  0  0  0  0  0  0  0  0
    1.0566    1.6088   -2.9792 O   0  0  0  0  0  0  0  0  0  0  0  0
    0.0682    1.1715    0.2572 C   0  0  0  0  0  0  0  0  0  0  0  0
   -1.0417    1.6993    0.1639 O   0  0  0  0  0  0  0  0  0  0  0  0
    0.9515    1.6639    1.1996 N   0  0  0  0  0  0  0  0  0  0  0  0
    1.9103    1.3611    1.0283 H   0  0  0  0  0  0  0  0  0  0  0  0
    0.7806    2.9849    1.7864 C   0  0  0  0  0  0  0  0  0  0  0  0
   -0.1658    3.0443    2.3334 H   0  0  0  0  0  0  0  0  0  0  0  0
    1.5956    3.1913    2.4863 H   0  0  0  0  0  0  0  0  0  0  0  0
    0.7884    3.7523    1.0055 H   0  0  0  0  0  0  0  0  0  0  0  0
  1  2  1  0  0  0  0
  2  3  1  0  0  0  0
  2  4  1  0  0  0  0
  2  5  1  0  0  0  0
  5  6  2  0  0  0  0
  5  7  1  0  0  0  0
  7  8  1  0  0  0  0
  7  9  1  0  0  0  0
  9 10  1  0  0  0  0
  9 11  1  0  0  0  0
  9 17  1  0  0  0  0
 11 12  1  0  0  0  0
 11 13  1  0  0  0  0
 11 14  1  0  0  0  0
 14 15  1  0  0  0  0
 14 16  2  0  0  0  0
 17 18  2  0  0  0  0
 17 19  1  0  0  0  0
 19 20  1  0  0  0  0
 19 21  1  0  0  0  0
 21 22  1  0  0  0  0
 21 23  1  0  0  0  0
 21 24  1  0  0  0  0
M  CHG  1  15  -1
M  END
$$$$

  -OEChem-03222214023D

 24 23  0     1  0  0  0  0  0999 V2000
   -2.8074   -3.7057    0.5744 H   0  0  0  0  0  0  0  0  0  0  0  0
   -2.7564   -2.6948    0.1605 C   0  0  0  0  0  0  0  0  0  0  0  0
   -3.3646   -2.0296    0.7785 H   0  0  0  0  0  0  0  0  0  0  0  0
   -3.1610   -2.7083   -0.8546 H   0  0  0  0  0  0  0  0  0  0  0  0
   -1.3181   -2.2082    0.1369 C   0  0  0  0  0  0  0  0  0  0  0  0
   -0.4270   -2.9452    0.5314 O   0  0  0  0  0  0  0  0  0  0  0  0
   -1.0510   -0.9329   -0.3058 N   0  0  0  0  0  0  0  0  0  0  0  0
   -1.8447   -0.3220   -0.4900 H   0  0  0  0  0  0  0  0  0  0  0  0
    0.2552   -0.2652   -0.2755 C   0  0  1  0  0  0  0  0  0  0  0  0
    0.8902   -0.7651    0.4633 H   0  0  0  0  0  0  0  0  0  0  0  0
    0.9831   -0.3746   -1.6317 C   0  0  0  0  0  0  0  0  0  0  0  0
    1.7613   -1.1402   -1.5694 H   0  0  0  0  0  0  0  0  0  0  0  0
    0.2788   -0.6880   -2.4072 H   0  0  0  0  0  0  0  0  0  0  0  0
    1.6040    0.9437   -2.0732 C   0  0  0  0  0  0  0  0  0  0  0  0
    2.7832    1.1568   -1.6982 O   0  5  0  0  0  0  0  0  0  0  0  0
    0.9248    1.7198   -2.7842 O   0  0  0  0  0  0  0  0  0  0  0  0
    0.0615    1.1823    0.2537 C   0  0  0  0  0  0  0  0  0  0  0  0
   -1.0518    1.7056    0.1822 O   0  0  0  0  0  0  0  0  0  0  0  0
    0.9488    1.6698    1.1958 N   0  0  0  0  0  0  0  0  0  0  0  0
    1.9010    1.3317    1.0683 H   0  0  0  0  0  0  0  0  0  0  0  0
    0.7892    2.9893    1.7894 C   0  0  0  0  0  0  0  0  0  0  0  0
   -0.1419    3.0432    2.3626 H   0  0  0  0  0  0  0  0  0  0  0  0
    1.6228    3.1978    2.4663 H   0  0  0  0  0  0  0  0  0  0  0  0
    0.7719    3.7588    1.0107 H   0  0  0  0  0  0  0  0  0  0  0  0
  1  2  1  0  0  0  0
  2  3  1  0  0  0  0
  2  4  1  0  0  0  0
  2  5  1  0  0  0  0
  5  6  2  0  0  0  0
  5  7  1  0  0  0  0
  7  8  1  0  0  0  0
  7  9  1  0  0  0  0
  9 10  1  0  0  0  0
  9 11  1  0  0  0  0
  9 17  1  0  0  0  0
 11 12  1  0  0  0  0
 11 13  1  0  0  0  0
 11 14  1  0  0  0  0
 14 15  1  0  0  0  0
 14 16  2  0  0  0  0
 17 18  2  0  0  0  0
 17 19  1  0  0  0  0
 19 20  1  0  0  0  0
 19 21  1  0  0  0  0
 21 22  1  0  0  0  0
 21 23  1  0  0  0  0
 21 24  1  0  0  0  0
M  CHG  1  15  -1
M  END
$$$$

  -OEChem-03222214023D

 24 23  0     1  0  0  0  0  0999 V2000
   -2.7966   -3.7079    0.5639 H   0  0  0  0  0  0  0  0  0  0  0  0
   -2.7491   -2.6957    0.1528 C   0  0  0  0  0  0  0  0  0  0  0  0
   -3.3631   -2.0351    0.7701 H   0  0  0  0  0  0  0  0  0  0  0  0
   -3.1493   -2.7090   -0.8640 H   0  0  0  0  0  0  0  0  0  0  0  0
   -1.3136   -2.2014    0.1368 C   0  0  0  0  0  0  0  0  0  0  0  0
   -0.4204   -2.9337    0.5352 O   0  0  0  0  0  0  0  0  0  0  0  0
   -1.0517   -0.9240   -0.3024 N   0  0  0  0  0  0  0  0  0  0  0  0
   -1.8472   -0.3159   -0.4881 H   0  0  0  0  0  0  0  0  0  0  0  0
    0.2521   -0.2524   -0.2726 C   0  0  1  0  0  0  0  0  0  0  0  0
    0.8871   -0.7513    0.4667 H   0  0  0  0  0  0  0  0  0  0  0  0
    0.9787   -0.3742   -1.6300 C   0  0  0  0  0  0  0  0  0  0  0  0
    1.7511   -1.1448   -1.5581 H   0  0  0  0  0  0  0  0  0  0  0  0
    0.2720   -0.6965   -2.3993 H   0  0  0  0  0  0  0  0  0  0  0  0
    1.6069    0.9294   -2.1084 C   0  0  0  0  0  0  0  0  0  0  0  0
    2.8538    1.0236   -2.0058 O   0  5  0  0  0  0  0  0  0  0  0  0
    0.8613    1.8087   -2.5980 O   0  0  0  0  0  0  0  0  0  0  0  0
    0.0564    1.1931    0.2616 C   0  0  0  0  0  0  0  0  0  0  0  0
   -1.0621    1.7085    0.2122 O   0  0  0  0  0  0  0  0  0  0  0  0
    0.9466    1.6775    1.2039 N   0  0  0  0  0  0  0  0  0  0  0  0
    1.8930    1.3179    1.1056 H   0  0  0  0  0  0  0  0  0  0  0  0
    0.7905    2.9932    1.8070 C   0  0  0  0  0  0  0  0  0  0  0  0
   -0.1446    3.0492    2.3732 H   0  0  0  0  0  0  0  0  0  0  0  0
    1.6197    3.1912    2.4923 H   0  0  0  0  0  0  0  0  0  0  0  0
    0.7846    3.7684    1.0338 H   0  0  0  0  0  0  0  0  0  0  0  0
  1  2  1  0  0  0  0
  2  3  1  0  0  0  0
  2  4  1  0  0  0  0
  2  5  1  0  0  0  0
  5  6  2  0  0  0  0
  5  7  1  0  0  0  0
  7  8  1  0  0  0  0
  7  9  1  0  0  0  0
  9 10  1  0  0  0  0
  9 11  1  0  0  0  0
  9 17  1  0  0  0  0
 11 12  1  0  0  0  0
 11 13  1  0  0  0  0
 11 14  1  0  0  0  0
 14 15  1  0  0  0  0
 14 16  2  0  0  0  0
 17 18  2  0  0  0  0
 17 19  1  0  0  0  0
 19 20  1  0  0  0  0
 19 21  1  0  0  0  0
 21 22  1  0  0  0  0
 21 23  1  0  0  0  0
 21 24  1  0  0  0  0
M  CHG  1  15  -1
M  END
$$$$

  -OEChem-03222214023D

 24 23  0     1  0  0  0  0  0999 V2000
   -2.7885   -3.7073    0.5474 H   0  0  0  0  0  0  0  0  0  0  0  0
   -2.7433   -2.6897    0.1494 C   0  0  0  0  0  0  0  0  0  0  0  0
   -3.3551   -2.0374    0.7776 H   0  0  0  0  0  0  0  0  0  0  0  0
   -3.1481   -2.6895   -0.8658 H   0  0  0  0  0  0  0  0  0  0  0  0
   -1.3081   -2.1939    0.1332 C   0  0  0  0  0  0  0  0  0  0  0  0
   -0.4133   -2.9269    0.5270 O   0  0  0  0  0  0  0  0  0  0  0  0
   -1.0483   -0.9137   -0.2992 N   0  0  0  0  0  0  0  0  0  0  0  0
   -1.8451   -0.3034   -0.4723 H   0  0  0  0  0  0  0  0  0  0  0  0
    0.2549   -0.2399   -0.2698 C   0  0  1  0  0  0  0  0  0  0  0  0
    0.8907   -0.7393    0.4686 H   0  0  0  0  0  0  0  0  0  0  0  0
    0.9792   -0.3715   -1.6309 C   0  0  0  0  0  0  0  0  0  0  0  0
    1.7439   -1.1489   -1.5482 H   0  0  0  0  0  0  0  0  0  0  0  0
    0.2683   -0.7024   -2.3923 H   0  0  0  0  0  0  0  0  0  0  0  0
    1.6222    0.9092   -2.1572 C   0  0  0  0  0  0  0  0  0  0  0  0
    2.8628    0.8782   -2.3408 O   0  5  0  0  0  0  0  0  0  0  0  0
    0.8882    1.8874   -2.4278 O   0  0  0  0  0  0  0  0  0  0  0  0
    0.0515    1.2011    0.2741 C   0  0  0  0  0  0  0  0  0  0  0  0
   -1.0735    1.7048    0.2432 O   0  0  0  0  0  0  0  0  0  0  0  0
    0.9408    1.6842    1.2185 N   0  0  0  0  0  0  0  0  0  0  0  0
    1.8851    1.3180    1.1356 H   0  0  0  0  0  0  0  0  0  0  0  0
    0.7786    2.9936    1.8335 C   0  0  0  0  0  0  0  0  0  0  0  0
   -0.1495    3.0342    2.4125 H   0  0  0  0  0  0  0  0  0  0  0  0
    1.6146    3.1968    2.5090 H   0  0  0  0  0  0  0  0  0  0  0  0
    0.7530    3.7743    1.0662 H   0  0  0  0  0  0  0  0  0  0  0  0
  1  2  1  0  0  0  0
  2  3  1  0  0  0  0
  2  4  1  0  0  0  0
  2  5  1  0  0  0  0
  5  6  2  0  0  0  0
  5  7  1  0  0  0  0
  7  8  1  0  0  0  0
  7  9  1  0  0  0  0
  9 10  1  0  0  0  0
  9 11  1  0  0  0  0
  9 17  1  0  0  0  0
 11 12  1  0  0  0  0
 11 13  1  0  0  0  0
 11 14  1  0  0  0  0
 14 15  1  0  0  0  0
 14 16  2  0  0  0  0
 17 18  2  0  0  0  0
 17 19  1  0  0  0  0
 19 20  1  0  0  0  0
 19 21  1  0  0  0  0
 21 22  1  0  0  0  0
 21 23  1  0  0  0  0
 21 24  1  0  0  0  0
M  CHG  1  15  -1
M  END
$$$$

  -OEChem-03222214023D

 24 23  0     1  0  0  0  0  0999 V2000
   -2.7781   -3.6950    0.5475 H   0  0  0  0  0  0  0  0  0  0  0  0
   -2.7343   -2.6773    0.1501 C   0  0  0  0  0  0  0  0  0  0  0  0
   -3.3422   -2.0248    0.7818 H   0  0  0  0  0  0  0  0  0  0  0  0
   -3.1435   -2.6756   -0.8633 H   0  0  0  0  0  0  0  0  0  0  0  0
   -1.2987   -2.1837    0.1266 C   0  0  0  0  0  0  0  0  0  0  0  0
   -0.4018   -2.9204    0.5086 O   0  0  0  0  0  0  0  0  0  0  0  0
   -1.0413   -0.9002   -0.2974 N   0  0  0  0  0  0  0  0  0  0  0  0
   -1.8388   -0.2857   -0.4517 H   0  0  0  0  0  0  0  0  0  0  0  0
    0.2626   -0.2277   -0.2683 C   0  0  1  0  0  0  0  0  0  0  0  0
    0.9003   -0.7294    0.4665 H   0  0  0  0  0  0  0  0  0  0  0  0
    0.9780   -0.3691   -1.6372 C   0  0  0  0  0  0  0  0  0  0  0  0
    1.7328   -1.1554   -1.5462 H   0  0  0  0  0  0  0  0  0  0  0  0
    0.2569   -0.7079   -2.3854 H   0  0  0  0  0  0  0  0  0  0  0  0
    1.6413    0.8797   -2.2211 C   0  0  0  0  0  0  0  0  0  0  0  0
    2.7940    0.7195   -2.6892 O   0  5  0  0  0  0  0  0  0  0  0  0
    1.0102    1.9608   -2.2555 O   0  0  0  0  0  0  0  0  0  0  0  0
    0.0480    1.2072    0.2894 C   0  0  0  0  0  0  0  0  0  0  0  0
   -1.0834    1.6989    0.2677 O   0  0  0  0  0  0  0  0  0  0  0  0
    0.9334    1.6904    1.2380 N   0  0  0  0  0  0  0  0  0  0  0  0
    1.8819    1.3389    1.1475 H   0  0  0  0  0  0  0  0  0  0  0  0
    0.7548    2.9893    1.8708 C   0  0  0  0  0  0  0  0  0  0  0  0
   -0.1732    3.0104    2.4511 H   0  0  0  0  0  0  0  0  0  0  0  0
    1.5886    3.1930    2.5488 H   0  0  0  0  0  0  0  0  0  0  0  0
    0.7191    3.7806    1.1146 H   0  0  0  0  0  0  0  0  0  0  0  0
  1  2  1  0  0  0  0
  2  3  1  0  0  0  0
  2  4  1  0  0  0  0
  2  5  1  0  0  0  0
  5  6  2  0  0  0  0
  5  7  1  0  0  0  0
  7  8  1  0  0  0  0
  7  9  1  0  0  0  0
  9 10  1  0  0  0  0
  9 11  1  0  0  0  0
  9 17  1  0  0  0  0
 11 12  1  0  0  0  0
 11 13  1  0  0  0  0
 11 14  1  0  0  0  0
 14 15  1  0  0  0  0
 14 16  2  0  0  0  0
 17 18  2  0  0  0  0
 17 19  1  0  0  0  0
 19 20  1  0  0  0  0
 19 21  1  0  0  0  0
 21 22  1  0  0  0  0
 21 23  1  0  0  0  0
 21 24  1  0  0  0  0
M  CHG  1  15  -1
M  END
$$$$

  -OEChem-03222214023D

 24 23  0     1  0  0  0  0  0999 V2000
   -2.7681   -3.6924    0.5367 H   0  0  0  0  0  0  0  0  0  0  0  0
   -2.7270   -2.6704    0.1503 C   0  0  0  0  0  0  0  0  0  0  0  0
   -3.3265   -2.0245    0.7964 H   0  0  0  0  0  0  0  0  0  0  0  0
   -3.1477   -2.6569   -0.8581 H   0  0  0  0  0  0  0  0  0  0  0  0
   -1.2910   -2.1785    0.1161 C   0  0  0  0  0  0  0  0  0  0  0  0
   -0.3916   -2.9200    0.4822 O   0  0  0  0  0  0  0  0  0  0  0  0
   -1.0349   -0.8909   -0.2966 N   0  0  0  0  0  0  0  0  0  0  0  0
   -1.8324   -0.2705   -0.4267 H   0  0  0  0  0  0  0  0  0  0  0  0
    0.2722   -0.2227   -0.2628 C   0  0  1  0  0  0  0  0  0  0  0  0
    0.9143   -0.7284    0.4653 H   0  0  0  0  0  0  0  0  0  0  0  0
    0.9736   -0.3595   -1.6438 C   0  0  0  0  0  0  0  0  0  0  0  0
    1.7180   -1.1560   -1.5572 H   0  0  0  0  0  0  0  0  0  0  0  0
    0.2382   -0.6953   -2.3792 H   0  0  0  0  0  0  0  0  0  0  0  0
    1.6573    0.8604   -2.2724 C   0  0  0  0  0  0  0  0  0  0  0  0
    2.6410    0.5987   -3.0055 O   0  5  0  0  0  0  0  0  0  0  0  0
    1.2477    2.0201   -2.0383 O   0  0  0  0  0  0  0  0  0  0  0  0
    0.0410    1.2033    0.3121 C   0  0  0  0  0  0  0  0  0  0  0  0
   -1.0926    1.6913    0.2778 O   0  0  0  0  0  0  0  0  0  0  0  0
    0.9171    1.6849    1.2700 N   0  0  0  0  0  0  0  0  0  0  0  0
    1.8705    1.3525    1.1628 H   0  0  0  0  0  0  0  0  0  0  0  0
    0.7318    2.9874    1.8928 C   0  0  0  0  0  0  0  0  0  0  0  0
   -0.2036    3.0134    2.4607 H   0  0  0  0  0  0  0  0  0  0  0  0
    1.5571    3.1941    2.5802 H   0  0  0  0  0  0  0  0  0  0  0  0
    0.7075    3.7739    1.1312 H   0  0  0  0  0  0  0  0  0  0  0  0
  1  2  1  0  0  0  0
  2  3  1  0  0  0  0
  2  4  1  0  0  0  0
  2  5  1  0  0  0  0
  5  6  2  0  0  0  0
  5  7  1  0  0  0  0
  7  8  1  0  0  0  0
  7  9  1  0  0  0  0
  9 10  1  0  0  0  0
  9 11  1  0  0  0  0
  9 17  1  0  0  0  0
 11 12  1  0  0  0  0
 11 13  1  0  0  0  0
 11 14  1  0  0  0  0
 14 15  1  0  0  0  0
 14 16  2  0  0  0  0
 17 18  2  0  0  0  0
 17 19  1  0  0  0  0
 19 20  1  0  0  0  0
 19 21  1  0  0  0  0
 21 22  1  0  0  0  0
 21 23  1  0  0  0  0
 21 24  1  0  0  0  0
M  CHG  1  15  -1
M  END
$$$$

  -OEChem-03222214023D

 24 23  0     1  0  0  0  0  0999 V2000
   -2.7758   -3.6676    0.5569 H   0  0  0  0  0  0  0  0  0  0  0  0
   -2.7255   -2.6492    0.1616 C   0  0  0  0  0  0  0  0  0  0  0  0
   -3.3140   -1.9913    0.8058 H   0  0  0  0  0  0  0  0  0  0  0  0
   -3.1524   -2.6393   -0.8444 H   0  0  0  0  0  0  0  0  0  0  0  0
   -1.2841   -2.1739    0.1149 C   0  0  0  0  0  0  0  0  0  0  0  0
   -0.3902   -2.9264    0.4715 O   0  0  0  0  0  0  0  0  0  0  0  0
   -1.0163   -0.8883   -0.2964 N   0  0  0  0  0  0  0  0  0  0  0  0
   -1.8078   -0.2568   -0.4100 H   0  0  0  0  0  0  0  0  0  0  0  0
    0.2985   -0.2344   -0.2602 C   0  0  1  0  0  0  0  0  0  0  0  0
    0.9500   -0.7441    0.4567 H   0  0  0  0  0  0  0  0  0  0  0  0
    0.9685   -0.3540   -1.6607 C   0  0  0  0  0  0  0  0  0  0  0  0
    1.6999   -1.1649   -1.6052 H   0  0  0  0  0  0  0  0  0  0  0  0
    0.2085   -0.6652   -2.3823 H   0  0  0  0  0  0  0  0  0  0  0  0
    1.6656    0.8526   -2.3033 C   0  0  0  0  0  0  0  0  0  0  0  0
    2.4079    0.5677   -3.2735 O   0  5  0  0  0  0  0  0  0  0  0  0
    1.6019    1.9916   -1.7856 O   0  0  0  0  0  0  0  0  0  0  0  0
    0.0466    1.1879    0.3201 C   0  0  0  0  0  0  0  0  0  0  0  0
   -1.0854    1.6781    0.2501 O   0  0  0  0  0  0  0  0  0  0  0  0
    0.9052    1.6780    1.2889 N   0  0  0  0  0  0  0  0  0  0  0  0
    1.8695    1.3901    1.1497 H   0  0  0  0  0  0  0  0  0  0  0  0
    0.6910    2.9763    1.9112 C   0  0  0  0  0  0  0  0  0  0  0  0
   -0.2522    2.9863    2.4666 H   0  0  0  0  0  0  0  0  0  0  0  0
    1.5038    3.1943    2.6100 H   0  0  0  0  0  0  0  0  0  0  0  0
    0.6645    3.7639    1.1508 H   0  0  0  0  0  0  0  0  0  0  0  0
  1  2  1  0  0  0  0
  2  3  1  0  0  0  0
  2  4  1  0  0  0  0
  2  5  1  0  0  0  0
  5  6  2  0  0  0  0
  5  7  1  0  0  0  0
  7  8  1  0  0  0  0
  7  9  1  0  0  0  0
  9 10  1  0  0  0  0
  9 11  1  0  0  0  0
  9 17  1  0  0  0  0
 11 12  1  0  0  0  0
 11 13  1  0  0  0  0
 11 14  1  0  0  0  0
 14 15  1  0  0  0  0
 14 16  2  0  0  0  0
 17 18  2  0  0  0  0
 17 19  1  0  0  0  0
 19 20  1  0  0  0  0
 19 21  1  0  0  0  0
 21 22  1  0  0  0  0
 21 23  1  0  0  0  0
 21 24  1  0  0  0  0
M  CHG  1  15  -1
M  END
$$$$

  -OEChem-03222214023D

 24 23  0     1  0  0  0  0  0999 V2000
   -2.8169   -3.6390    0.5849 H   0  0  0  0  0  0  0  0  0  0  0  0
   -2.7403   -2.6272    0.1773 C   0  0  0  0  0  0  0  0  0  0  0  0
   -3.3217   -1.9485    0.8063 H   0  0  0  0  0  0  0  0  0  0  0  0
   -3.1555   -2.6219   -0.8335 H   0  0  0  0  0  0  0  0  0  0  0  0
   -1.2882   -2.1845    0.1408 C   0  0  0  0  0  0  0  0  0  0  0  0
   -0.4164   -2.9505    0.5216 O   0  0  0  0  0  0  0  0  0  0  0  0
   -0.9865   -0.9145   -0.2951 N   0  0  0  0  0  0  0  0  0  0  0  0
   -1.7627   -0.2693   -0.4336 H   0  0  0  0  0  0  0  0  0  0  0  0
    0.3424   -0.2896   -0.2482 C   0  0  1  0  0  0  0  0  0  0  0  0
    1.0030   -0.8004    0.4597 H   0  0  0  0  0  0  0  0  0  0  0  0
    0.9759   -0.3537   -1.6613 C   0  0  0  0  0  0  0  0  0  0  0  0
    1.4801   -1.3171   -1.7723 H   0  0  0  0  0  0  0  0  0  0  0  0
    0.1729   -0.3195   -2.4028 H   0  0  0  0  0  0  0  0  0  0  0  0
    1.9604    0.7523   -2.0558 C   0  0  0  0  0  0  0  0  0  0  0  0
    2.4398    0.6553   -3.2103 O   0  5  0  0  0  0  0  0  0  0  0  0
    2.4179    1.5158   -1.1681 O   0  0  0  0  0  0  0  0  0  0  0  0
    0.0793    1.1464    0.2975 C   0  0  0  0  0  0  0  0  0  0  0  0
   -1.0260    1.6702    0.1221 O   0  0  0  0  0  0  0  0  0  0  0  0
    0.9059    1.6621    1.2776 N   0  0  0  0  0  0  0  0  0  0  0  0
    1.8822    1.4368    1.0794 H   0  0  0  0  0  0  0  0  0  0  0  0
    0.6599    2.9700    1.8659 C   0  0  0  0  0  0  0  0  0  0  0  0
   -0.3094    2.9870    2.3741 H   0  0  0  0  0  0  0  0  0  0  0  0
    1.4374    3.2018    2.5996 H   0  0  0  0  0  0  0  0  0  0  0  0
    0.6692    3.7444    1.0919 H   0  0  0  0  0  0  0  0  0  0  0  0
  1  2  1  0  0  0  0
  2  3  1  0  0  0  0
  2  4  1  0  0  0  0
  2  5  1  0  0  0  0
  5  6  2  0  0  0  0
  5  7  1  0  0  0  0
  7  8  1  0  0  0  0
  7  9  1  0  0  0  0
  9 10  1  0  0  0  0
  9 11  1  0  0  0  0
  9 17  1  0  0  0  0
 11 12  1  0  0  0  0
 11 13  1  0  0  0  0
 11 14  1  0  0  0  0
 14 15  1  0  0  0  0
 14 16  2  0  0  0  0
 17 18  2  0  0  0  0
 17 19  1  0  0  0  0
 19 20  1  0  0  0  0
 19 21  1  0  0  0  0
 21 22  1  0  0  0  0
 21 23  1  0  0  0  0
 21 24  1  0  0  0  0
M  CHG  1  15  -1
M  END
$$$$

  -OEChem-03222214023D

 24 23  0     1  0  0  0  0  0999 V2000
   -2.8256   -3.6472    0.5923 H   0  0  0  0  0  0  0  0  0  0  0  0
   -2.7480   -2.6369    0.1810 C   0  0  0  0  0  0  0  0  0  0  0  0
   -3.3306   -1.9559    0.8064 H   0  0  0  0  0  0  0  0  0  0  0  0
   -3.1614   -2.6348   -0.8305 H   0  0  0  0  0  0  0  0  0  0  0  0
   -1.2960   -2.1940    0.1457 C   0  0  0  0  0  0  0  0  0  0  0  0
   -0.4250   -2.9583    0.5314 O   0  0  0  0  0  0  0  0  0  0  0  0
   -0.9942   -0.9261   -0.2958 N   0  0  0  0  0  0  0  0  0  0  0  0
   -1.7708   -0.2844   -0.4464 H   0  0  0  0  0  0  0  0  0  0  0  0
    0.3335   -0.2992   -0.2504 C   0  0  1  0  0  0  0  0  0  0  0  0
    0.9930   -0.8096    0.4592 H   0  0  0  0  0  0  0  0  0  0  0  0
    0.9759   -0.3549   -1.6571 C   0  0  0  0  0  0  0  0  0  0  0  0
    1.4930   -1.3101   -1.7762 H   0  0  0  0  0  0  0  0  0  0  0  0
    0.1799   -0.3176   -2.4061 H   0  0  0  0  0  0  0  0  0  0  0  0
    1.9507    0.7732   -2.0016 C   0  0  0  0  0  0  0  0  0  0  0  0
    2.2433    0.9044   -3.2137 O   0  5  0  0  0  0  0  0  0  0  0  0
    2.5603    1.3442   -1.0597 O   0  0  0  0  0  0  0  0  0  0  0  0
    0.0829    1.1413    0.2864 C   0  0  0  0  0  0  0  0  0  0  0  0
   -1.0156    1.6747    0.1024 O   0  0  0  0  0  0  0  0  0  0  0  0
    0.9146    1.6578    1.2610 N   0  0  0  0  0  0  0  0  0  0  0  0
    1.8893    1.4192    1.0628 H   0  0  0  0  0  0  0  0  0  0  0  0
    0.6821    2.9722    1.8404 C   0  0  0  0  0  0  0  0  0  0  0  0
   -0.2867    3.0028    2.3490 H   0  0  0  0  0  0  0  0  0  0  0  0
    1.4622    3.2009    2.5722 H   0  0  0  0  0  0  0  0  0  0  0  0
    0.6991    3.7411    1.0611 H   0  0  0  0  0  0  0  0  0  0  0  0
  1  2  1  0  0  0  0
  2  3  1  0  0  0  0
  2  4  1  0  0  0  0
  2  5  1  0  0  0  0
  5  6  2  0  0  0  0
  5  7  1  0  0  0  0
  7  8  1  0  0  0  0
  7  9  1  0  0  0  0
  9 10  1  0  0  0  0
  9 11  1  0  0  0  0
  9 17  1  0  0  0  0
 11 12  1  0  0  0  0
 11 13  1  0  0  0  0
 11 14  1  0  0  0  0
 14 15  1  0  0  0  0
 14 16  2  0  0  0  0
 17 18  2  0  0  0  0
 17 19  1  0  0  0  0
 19 20  1  0  0  0  0
 19 21  1  0  0  0  0
 21 22  1  0  0  0  0
 21 23  1  0  0  0  0
 21 24  1  0  0  0  0
M  CHG  1  15  -1
M  END
$$$$

  -OEChem-03222214023D

 24 23  0     1  0  0  0  0  0999 V2000
   -2.8290   -3.6574    0.6004 H   0  0  0  0  0  0  0  0  0  0  0  0
   -2.7536   -2.6499    0.1820 C   0  0  0  0  0  0  0  0  0  0  0  0
   -3.3394   -1.9663    0.8015 H   0  0  0  0  0  0  0  0  0  0  0  0
   -3.1650   -2.6562   -0.8304 H   0  0  0  0  0  0  0  0  0  0  0  0
   -1.3029   -2.2026    0.1464 C   0  0  0  0  0  0  0  0  0  0  0  0
   -0.4295   -2.9635    0.5336 O   0  0  0  0  0  0  0  0  0  0  0  0
   -1.0056   -0.9355   -0.3005 N   0  0  0  0  0  0  0  0  0  0  0  0
   -1.7850   -0.2984   -0.4550 H   0  0  0  0  0  0  0  0  0  0  0  0
    0.3184   -0.3020   -0.2567 C   0  0  1  0  0  0  0  0  0  0  0  0
    0.9735   -0.8088    0.4598 H   0  0  0  0  0  0  0  0  0  0  0  0
    0.9788   -0.3616   -1.6521 C   0  0  0  0  0  0  0  0  0  0  0  0
    1.5130   -1.3082   -1.7628 H   0  0  0  0  0  0  0  0  0  0  0  0
    0.1957   -0.3338   -2.4151 H   0  0  0  0  0  0  0  0  0  0  0  0
    1.9403    0.7876   -1.9528 C   0  0  0  0  0  0  0  0  0  0  0  0
    2.0565    1.1457   -3.1485 O   0  5  0  0  0  0  0  0  0  0  0  0
    2.6579    1.2091   -1.0074 O   0  0  0  0  0  0  0  0  0  0  0  0
    0.0825    1.1430    0.2710 C   0  0  0  0  0  0  0  0  0  0  0  0
   -1.0143    1.6807    0.0941 O   0  0  0  0  0  0  0  0  0  0  0  0
    0.9250    1.6547    1.2384 N   0  0  0  0  0  0  0  0  0  0  0  0
    1.8965    1.3986    1.0412 H   0  0  0  0  0  0  0  0  0  0  0  0
    0.7124    2.9734    1.8155 C   0  0  0  0  0  0  0  0  0  0  0  0
   -0.2549    3.0192    2.3256 H   0  0  0  0  0  0  0  0  0  0  0  0
    1.4971    3.1917    2.5457 H   0  0  0  0  0  0  0  0  0  0  0  0
    0.7395    3.7405    1.0349 H   0  0  0  0  0  0  0  0  0  0  0  0
  1  2  1  0  0  0  0
  2  3  1  0  0  0  0
  2  4  1  0  0  0  0
  2  5  1  0  0  0  0
  5  6  2  0  0  0  0
  5  7  1  0  0  0  0
  7  8  1  0  0  0  0
  7  9  1  0  0  0  0
  9 10  1  0  0  0  0
  9 11  1  0  0  0  0
  9 17  1  0  0  0  0
 11 12  1  0  0  0  0
 11 13  1  0  0  0  0
 11 14  1  0  0  0  0
 14 15  1  0  0  0  0
 14 16  2  0  0  0  0
 17 18  2  0  0  0  0
 17 19  1  0  0  0  0
 19 20  1  0  0  0  0
 19 21  1  0  0  0  0
 21 22  1  0  0  0  0
 21 23  1  0  0  0  0
 21 24  1  0  0  0  0
M  CHG  1  15  -1
M  END
$$$$

  -OEChem-03222214023D

 24 23  0     1  0  0  0  0  0999 V2000
   -2.8285   -3.6665    0.6074 H   0  0  0  0  0  0  0  0  0  0  0  0
   -2.7569   -2.6612    0.1831 C   0  0  0  0  0  0  0  0  0  0  0  0
   -3.3438   -1.9756    0.7993 H   0  0  0  0  0  0  0  0  0  0  0  0
   -3.1698   -2.6743   -0.8285 H   0  0  0  0  0  0  0  0  0  0  0  0
   -1.3078   -2.2099    0.1424 C   0  0  0  0  0  0  0  0  0  0  0  0
   -0.4311   -2.9690    0.5257 O   0  0  0  0  0  0  0  0  0  0  0  0
   -1.0157   -0.9426   -0.3072 N   0  0  0  0  0  0  0  0  0  0  0  0
   -1.7976   -0.3094   -0.4640 H   0  0  0  0  0  0  0  0  0  0  0  0
    0.3048   -0.3029   -0.2654 C   0  0  1  0  0  0  0  0  0  0  0  0
    0.9550   -0.8077    0.4571 H   0  0  0  0  0  0  0  0  0  0  0  0
    0.9825   -0.3690   -1.6499 C   0  0  0  0  0  0  0  0  0  0  0  0
    1.5320   -1.3081   -1.7489 H   0  0  0  0  0  0  0  0  0  0  0  0
    0.2121   -0.3526   -2.4262 H   0  0  0  0  0  0  0  0  0  0  0  0
    1.9303    0.7984   -1.9145 C   0  0  0  0  0  0  0  0  0  0  0  0
    1.8735    1.3674   -3.0297 O   0  5  0  0  0  0  0  0  0  0  0  0
    2.7379    1.0972   -0.9951 O   0  0  0  0  0  0  0  0  0  0  0  0
    0.0828    1.1449    0.2571 C   0  0  0  0  0  0  0  0  0  0  0  0
   -1.0146    1.6846    0.0938 O   0  0  0  0  0  0  0  0  0  0  0  0
    0.9360    1.6506    1.2180 N   0  0  0  0  0  0  0  0  0  0  0  0
    1.9038    1.3750    1.0281 H   0  0  0  0  0  0  0  0  0  0  0  0
    0.7414    2.9736    1.7911 C   0  0  0  0  0  0  0  0  0  0  0  0
   -0.2236    3.0327    2.3043 H   0  0  0  0  0  0  0  0  0  0  0  0
    1.5308    3.1852    2.5179 H   0  0  0  0  0  0  0  0  0  0  0  0
    0.7750    3.7372    1.0074 H   0  0  0  0  0  0  0  0  0  0  0  0
  1  2  1  0  0  0  0
  2  3  1  0  0  0  0
  2  4  1  0  0  0  0
  2  5  1  0  0  0  0
  5  6  2  0  0  0  0
  5  7  1  0  0  0  0
  7  8  1  0  0  0  0
  7  9  1  0  0  0  0
  9 10  1  0  0  0  0
  9 11  1  0  0  0  0
  9 17  1  0  0  0  0
 11 12  1  0  0  0  0
 11 13  1  0  0  0  0
 11 14  1  0  0  0  0
 14 15  1  0  0  0  0
 14 16  2  0  0  0  0
 17 18  2  0  0  0  0
 17 19  1  0  0  0  0
 19 20  1  0  0  0  0
 19 21  1  0  0  0  0
 21 22  1  0  0  0  0
 21 23  1  0  0  0  0
 21 24  1  0  0  0  0
M  CHG  1  15  -1
M  END
$$$$

  -OEChem-03222214023D

 24 23  0     1  0  0  0  0  0999 V2000
   -2.8293   -3.6758    0.6064 H   0  0  0  0  0  0  0  0  0  0  0  0
   -2.7608   -2.6691    0.1847 C   0  0  0  0  0  0  0  0  0  0  0  0
   -3.3438   -1.9857    0.8073 H   0  0  0  0  0  0  0  0  0  0  0  0
   -3.1806   -2.6792   -0.8242 H   0  0  0  0  0  0  0  0  0  0  0  0
   -1.3121   -2.2168    0.1357 C   0  0  0  0  0  0  0  0  0  0  0  0
   -0.4326   -2.9753    0.5136 O   0  0  0  0  0  0  0  0  0  0  0  0
   -1.0249   -0.9491   -0.3160 N   0  0  0  0  0  0  0  0  0  0  0  0
   -1.8097   -0.3185   -0.4689 H   0  0  0  0  0  0  0  0  0  0  0  0
    0.2921   -0.3026   -0.2782 C   0  0  1  0  0  0  0  0  0  0  0  0
    0.9375   -0.8051    0.4503 H   0  0  0  0  0  0  0  0  0  0  0  0
    0.9899   -0.3753   -1.6506 C   0  0  0  0  0  0  0  0  0  0  0  0
    1.5549   -1.3067   -1.7341 H   0  0  0  0  0  0  0  0  0  0  0  0
    0.2353   -0.3725   -2.4420 H   0  0  0  0  0  0  0  0  0  0  0  0
    1.9233    0.8085   -1.8844 C   0  0  0  0  0  0  0  0  0  0  0  0
    1.7053    1.5608   -2.8623 O   0  5  0  0  0  0  0  0  0  0  0  0
    2.8103    1.0015   -1.0118 O   0  0  0  0  0  0  0  0  0  0  0  0
    0.0807    1.1473    0.2406 C   0  0  0  0  0  0  0  0  0  0  0  0
   -1.0220    1.6827    0.1019 O   0  0  0  0  0  0  0  0  0  0  0  0
    0.9458    1.6466    1.1946 N   0  0  0  0  0  0  0  0  0  0  0  0
    1.9099    1.3568    1.0073 H   0  0  0  0  0  0  0  0  0  0  0  0
    0.7669    2.9719    1.7678 C   0  0  0  0  0  0  0  0  0  0  0  0
   -0.1887    3.0372    2.2976 H   0  0  0  0  0  0  0  0  0  0  0  0
    1.5701    3.1814    2.4801 H   0  0  0  0  0  0  0  0  0  0  0  0
    0.7904    3.7335    0.9817 H   0  0  0  0  0  0  0  0  0  0  0  0
  1  2  1  0  0  0  0
  2  3  1  0  0  0  0
  2  4  1  0  0  0  0
  2  5  1  0  0  0  0
  5  6  2  0  0  0  0
  5  7  1  0  0  0  0
  7  8  1  0  0  0  0
  7  9  1  0  0  0  0
  9 10  1  0  0  0  0
  9 11  1  0  0  0  0
  9 17  1  0  0  0  0
 11 12  1  0  0  0  0
 11 13  1  0  0  0  0
 11 14  1  0  0  0  0
 14 15  1  0  0  0  0
 14 16  2  0  0  0  0
 17 18  2  0  0  0  0
 17 19  1  0  0  0  0
 19 20  1  0  0  0  0
 19 21  1  0  0  0  0
 21 22  1  0  0  0  0
 21 23  1  0  0  0  0
 21 24  1  0  0  0  0
M  CHG  1  15  -1
M  END
$$$$

  -OEChem-03222214023D

 24 23  0     1  0  0  0  0  0999 V2000
   -2.8248   -3.6819    0.6088 H   0  0  0  0  0  0  0  0  0  0  0  0
   -2.7617   -2.6762    0.1840 C   0  0  0  0  0  0  0  0  0  0  0  0
   -3.3418   -1.9925    0.8087 H   0  0  0  0  0  0  0  0  0  0  0  0
   -3.1885   -2.6899   -0.8219 H   0  0  0  0  0  0  0  0  0  0  0  0
   -1.3144   -2.2209    0.1240 C   0  0  0  0  0  0  0  0  0  0  0  0
   -0.4305   -2.9792    0.4920 O   0  0  0  0  0  0  0  0  0  0  0  0
   -1.0339   -0.9512   -0.3262 N   0  0  0  0  0  0  0  0  0  0  0  0
   -1.8218   -0.3222   -0.4697 H   0  0  0  0  0  0  0  0  0  0  0  0
    0.2796   -0.2978   -0.2912 C   0  0  1  0  0  0  0  0  0  0  0  0
    0.9210   -0.7988    0.4420 H   0  0  0  0  0  0  0  0  0  0  0  0
    0.9940   -0.3797   -1.6533 C   0  0  0  0  0  0  0  0  0  0  0  0
    1.5699   -1.3059   -1.7215 H   0  0  0  0  0  0  0  0  0  0  0  0
    0.2525   -0.3883   -2.4570 H   0  0  0  0  0  0  0  0  0  0  0  0
    1.9144    0.8157   -1.8694 C   0  0  0  0  0  0  0  0  0  0  0  0
    1.5511    1.7143   -2.6629 O   0  5  0  0  0  0  0  0  0  0  0  0
    2.8867    0.9098   -1.0766 O   0  0  0  0  0  0  0  0  0  0  0  0
    0.0781    1.1525    0.2290 C   0  0  0  0  0  0  0  0  0  0  0  0
   -1.0308    1.6817    0.1190 O   0  0  0  0  0  0  0  0  0  0  0  0
    0.9544    1.6440    1.1775 N   0  0  0  0  0  0  0  0  0  0  0  0
    1.9147    1.3400    0.9975 H   0  0  0  0  0  0  0  0  0  0  0  0
    0.7891    2.9712    1.7508 C   0  0  0  0  0  0  0  0  0  0  0  0
   -0.1610    3.0427    2.2898 H   0  0  0  0  0  0  0  0  0  0  0  0
    1.6004    3.1777    2.4550 H   0  0  0  0  0  0  0  0  0  0  0  0
    0.8091    3.7315    0.9631 H   0  0  0  0  0  0  0  0  0  0  0  0
  1  2  1  0  0  0  0
  2  3  1  0  0  0  0
  2  4  1  0  0  0  0
  2  5  1  0  0  0  0
  5  6  2  0  0  0  0
  5  7  1  0  0  0  0
  7  8  1  0  0  0  0
  7  9  1  0  0  0  0
  9 10  1  0  0  0  0
  9 11  1  0  0  0  0
  9 17  1  0  0  0  0
 11 12  1  0  0  0  0
 11 13  1  0  0  0  0
 11 14  1  0  0  0  0
 14 15  1  0  0  0  0
 14 16  2  0  0  0  0
 17 18  2  0  0  0  0
 17 19  1  0  0  0  0
 19 20  1  0  0  0  0
 19 21  1  0  0  0  0
 21 22  1  0  0  0  0
 21 23  1  0  0  0  0
 21 24  1  0  0  0  0
M  CHG  1  15  -1
M  END
$$$$

  -OEChem-03222214023D

 24 23  0     1  0  0  0  0  0999 V2000
   -2.8148   -3.6917    0.5946 H   0  0  0  0  0  0  0  0  0  0  0  0
   -2.7592   -2.6811    0.1802 C   0  0  0  0  0  0  0  0  0  0  0  0
   -3.3397   -2.0069    0.8149 H   0  0  0  0  0  0  0  0  0  0  0  0
   -3.1913   -2.6865   -0.8235 H   0  0  0  0  0  0  0  0  0  0  0  0
   -1.3146   -2.2173    0.1173 C   0  0  0  0  0  0  0  0  0  0  0  0
   -0.4257   -2.9721    0.4802 O   0  0  0  0  0  0  0  0  0  0  0  0
   -1.0414   -0.9454   -0.3316 N   0  0  0  0  0  0  0  0  0  0  0  0
   -1.8322   -0.3185   -0.4675 H   0  0  0  0  0  0  0  0  0  0  0  0
    0.2694   -0.2862   -0.2989 C   0  0  1  0  0  0  0  0  0  0  0  0
    0.9076   -0.7852    0.4381 H   0  0  0  0  0  0  0  0  0  0  0  0
    0.9932   -0.3834   -1.6548 C   0  0  0  0  0  0  0  0  0  0  0  0
    1.5700   -1.3104   -1.7070 H   0  0  0  0  0  0  0  0  0  0  0  0
    0.2575   -0.4029   -2.4632 H   0  0  0  0  0  0  0  0  0  0  0  0
    1.9095    0.8118   -1.8840 C   0  0  0  0  0  0  0  0  0  0  0  0
    1.4384    1.8202   -2.4589 O   0  5  0  0  0  0  0  0  0  0  0  0
    2.9937    0.7950   -1.2499 O   0  0  0  0  0  0  0  0  0  0  0  0
    0.0732    1.1634    0.2232 C   0  0  0  0  0  0  0  0  0  0  0  0
   -1.0418    1.6848    0.1404 O   0  0  0  0  0  0  0  0  0  0  0  0
    0.9573    1.6495    1.1683 N   0  0  0  0  0  0  0  0  0  0  0  0
    1.9139    1.3296    1.0078 H   0  0  0  0  0  0  0  0  0  0  0  0
    0.7985    2.9737    1.7498 C   0  0  0  0  0  0  0  0  0  0  0  0
   -0.1411    3.0390    2.3075 H   0  0  0  0  0  0  0  0  0  0  0  0
    1.6226    3.1806    2.4385 H   0  0  0  0  0  0  0  0  0  0  0  0
    0.7999    3.7372    0.9650 H   0  0  0  0  0  0  0  0  0  0  0  0
  1  2  1  0  0  0  0
  2  3  1  0  0  0  0
  2  4  1  0  0  0  0
  2  5  1  0  0  0  0
  5  6  2  0  0  0  0
  5  7  1  0  0  0  0
  7  8  1  0  0  0  0
  7  9  1  0  0  0  0
  9 10  1  0  0  0  0
  9 11  1  0  0  0  0
  9 17  1  0  0  0  0
 11 12  1  0  0  0  0
 11 13  1  0  0  0  0
 11 14  1  0  0  0  0
 14 15  1  0  0  0  0
 14 16  2  0  0  0  0
 17 18  2  0  0  0  0
 17 19  1  0  0  0  0
 19 20  1  0  0  0  0
 19 21  1  0  0  0  0
 21 22  1  0  0  0  0
 21 23  1  0  0  0  0
 21 24  1  0  0  0  0
M  CHG  1  15  -1
M  END
$$$$

  -OEChem-03222214023D

 24 23  0     1  0  0  0  0  0999 V2000
   -2.8067   -3.6917    0.5890 H   0  0  0  0  0  0  0  0  0  0  0  0
   -2.7519   -2.6831    0.1699 C   0  0  0  0  0  0  0  0  0  0  0  0
   -3.3404   -2.0085    0.7968 H   0  0  0  0  0  0  0  0  0  0  0  0
   -3.1760   -2.6955   -0.8371 H   0  0  0  0  0  0  0  0  0  0  0  0
   -1.3089   -2.2132    0.1164 C   0  0  0  0  0  0  0  0  0  0  0  0
   -0.4186   -2.9648    0.4825 O   0  0  0  0  0  0  0  0  0  0  0  0
   -1.0383   -0.9373   -0.3225 N   0  0  0  0  0  0  0  0  0  0  0  0
   -1.8305   -0.3126   -0.4609 H   0  0  0  0  0  0  0  0  0  0  0  0
    0.2712   -0.2749   -0.2882 C   0  0  1  0  0  0  0  0  0  0  0  0
    0.9141   -0.7764    0.4430 H   0  0  0  0  0  0  0  0  0  0  0  0
    0.9808   -0.3775   -1.6538 C   0  0  0  0  0  0  0  0  0  0  0  0
    1.5442   -1.3130   -1.7063 H   0  0  0  0  0  0  0  0  0  0  0  0
    0.2325   -0.3982   -2.4505 H   0  0  0  0  0  0  0  0  0  0  0  0
    1.9076    0.8008   -1.9350 C   0  0  0  0  0  0  0  0  0  0  0  0
    1.3997    1.9006   -2.2551 O   0  5  0  0  0  0  0  0  0  0  0  0
    3.1129    0.6387   -1.6272 O   0  0  0  0  0  0  0  0  0  0  0  0
    0.0660    1.1689    0.2468 C   0  0  0  0  0  0  0  0  0  0  0  0
   -1.0531    1.6833    0.1721 O   0  0  0  0  0  0  0  0  0  0  0  0
    0.9460    1.6567    1.1964 N   0  0  0  0  0  0  0  0  0  0  0  0
    1.8977    1.3129    1.0797 H   0  0  0  0  0  0  0  0  0  0  0  0
    0.7906    2.9859    1.7682 C   0  0  0  0  0  0  0  0  0  0  0  0
   -0.1575    3.0642    2.3097 H   0  0  0  0  0  0  0  0  0  0  0  0
    1.6050    3.1892    2.4694 H   0  0  0  0  0  0  0  0  0  0  0  0
    0.8128    3.7443    0.9788 H   0  0  0  0  0  0  0  0  0  0  0  0
  1  2  1  0  0  0  0
  2  3  1  0  0  0  0
  2  4  1  0  0  0  0
  2  5  1  0  0  0  0
  5  6  2  0  0  0  0
  5  7  1  0  0  0  0
  7  8  1  0  0  0  0
  7  9  1  0  0  0  0
  9 10  1  0  0  0  0
  9 11  1  0  0  0  0
  9 17  1  0  0  0  0
 11 12  1  0  0  0  0
 11 13  1  0  0  0  0
 11 14  1  0  0  0  0
 14 15  1  0  0  0  0
 14 16  2  0  0  0  0
 17 18  2  0  0  0  0
 17 19  1  0  0  0  0
 19 20  1  0  0  0  0
 19 21  1  0  0  0  0
 21 22  1  0  0  0  0
 21 23  1  0  0  0  0
 21 24  1  0  0  0  0
M  CHG  1  15  -1
M  END
$$$$

  -OEChem-03222214023D

 24 23  0     1  0  0  0  0  0999 V2000
   -2.7974   -3.6852    0.5705 H   0  0  0  0  0  0  0  0  0  0  0  0
   -2.7413   -2.6730    0.1605 C   0  0  0  0  0  0  0  0  0  0  0  0
   -3.3361   -2.0047    0.7880 H   0  0  0  0  0  0  0  0  0  0  0  0
   -3.1569   -2.6778   -0.8501 H   0  0  0  0  0  0  0  0  0  0  0  0
   -1.2990   -2.2004    0.1230 C   0  0  0  0  0  0  0  0  0  0  0  0
   -0.4110   -2.9489    0.5010 O   0  0  0  0  0  0  0  0  0  0  0  0
   -1.0261   -0.9230   -0.3097 N   0  0  0  0  0  0  0  0  0  0  0  0
   -1.8166   -0.2963   -0.4502 H   0  0  0  0  0  0  0  0  0  0  0  0
    0.2850   -0.2641   -0.2722 C   0  0  1  0  0  0  0  0  0  0  0  0
    0.9317   -0.7675    0.4540 H   0  0  0  0  0  0  0  0  0  0  0  0
    0.9752   -0.3759   -1.6513 C   0  0  0  0  0  0  0  0  0  0  0  0
    1.5154   -1.3254   -1.7033 H   0  0  0  0  0  0  0  0  0  0  0  0
    0.2086   -0.3931   -2.4302 H   0  0  0  0  0  0  0  0  0  0  0  0
    1.9225    0.7711   -2.0036 C   0  0  0  0  0  0  0  0  0  0  0  0
    1.4750    1.9397   -2.0662 O   0  5  0  0  0  0  0  0  0  0  0  0
    3.1366    0.4736   -2.1034 O   0  0  0  0  0  0  0  0  0  0  0  0
    0.0632    1.1743    0.2724 C   0  0  0  0  0  0  0  0  0  0  0  0
   -1.0590    1.6822    0.1911 O   0  0  0  0  0  0  0  0  0  0  0  0
    0.9317    1.6675    1.2304 N   0  0  0  0  0  0  0  0  0  0  0  0
    1.8844    1.3249    1.1356 H   0  0  0  0  0  0  0  0  0  0  0  0
    0.7585    2.9918    1.8085 C   0  0  0  0  0  0  0  0  0  0  0  0
   -0.1950    3.0579    2.3419 H   0  0  0  0  0  0  0  0  0  0  0  0
    1.5646    3.1986    2.5184 H   0  0  0  0  0  0  0  0  0  0  0  0
    0.7805    3.7549    1.0235 H   0  0  0  0  0  0  0  0  0  0  0  0
  1  2  1  0  0  0  0
  2  3  1  0  0  0  0
  2  4  1  0  0  0  0
  2  5  1  0  0  0  0
  5  6  2  0  0  0  0
  5  7  1  0  0  0  0
  7  8  1  0  0  0  0
  7  9  1  0  0  0  0
  9 10  1  0  0  0  0
  9 11  1  0  0  0  0
  9 17  1  0  0  0  0
 11 12  1  0  0  0  0
 11 13  1  0  0  0  0
 11 14  1  0  0  0  0
 14 15  1  0  0  0  0
 14 16  2  0  0  0  0
 17 18  2  0  0  0  0
 17 19  1  0  0  0  0
 19 20  1  0  0  0  0
 19 21  1  0  0  0  0
 21 22  1  0  0  0  0
 21 23  1  0  0  0  0
 21 24  1  0  0  0  0
M  CHG  1  15  -1
M  END
$$$$

  -OEChem-03222214023D

 24 23  0     1  0  0  0  0  0999 V2000
   -2.7927   -3.6722    0.5602 H   0  0  0  0  0  0  0  0  0  0  0  0
   -2.7340   -2.6568    0.1586 C   0  0  0  0  0  0  0  0  0  0  0  0
   -3.3251   -1.9917    0.7929 H   0  0  0  0  0  0  0  0  0  0  0  0
   -3.1517   -2.6518   -0.8511 H   0  0  0  0  0  0  0  0  0  0  0  0
   -1.2900   -2.1888    0.1221 C   0  0  0  0  0  0  0  0  0  0  0  0
   -0.4042   -2.9412    0.4977 O   0  0  0  0  0  0  0  0  0  0  0  0
   -1.0124   -0.9105   -0.3047 N   0  0  0  0  0  0  0  0  0  0  0  0
   -1.8004   -0.2784   -0.4359 H   0  0  0  0  0  0  0  0  0  0  0  0
    0.3027   -0.2590   -0.2611 C   0  0  1  0  0  0  0  0  0  0  0  0
    0.9506   -0.7645    0.4622 H   0  0  0  0  0  0  0  0  0  0  0  0
    0.9794   -0.3744   -1.6508 C   0  0  0  0  0  0  0  0  0  0  0  0
    1.4982   -1.3358   -1.7041 H   0  0  0  0  0  0  0  0  0  0  0  0
    0.1985   -0.3832   -2.4155 H   0  0  0  0  0  0  0  0  0  0  0  0
    1.9466    0.7419   -2.0577 C   0  0  0  0  0  0  0  0  0  0  0  0
    1.6378    1.9420   -1.8739 O   0  5  0  0  0  0  0  0  0  0  0  0
    3.0488    0.3632   -2.5208 O   0  0  0  0  0  0  0  0  0  0  0  0
    0.0633    1.1745    0.2923 C   0  0  0  0  0  0  0  0  0  0  0  0
   -1.0607    1.6777    0.1985 O   0  0  0  0  0  0  0  0  0  0  0  0
    0.9177    1.6718    1.2607 N   0  0  0  0  0  0  0  0  0  0  0  0
    1.8768    1.3514    1.1593 H   0  0  0  0  0  0  0  0  0  0  0  0
    0.7211    2.9898    1.8461 C   0  0  0  0  0  0  0  0  0  0  0  0
   -0.2302    3.0334    2.3858 H   0  0  0  0  0  0  0  0  0  0  0  0
    1.5275    3.2099    2.5516 H   0  0  0  0  0  0  0  0  0  0  0  0
    0.7222    3.7574    1.0652 H   0  0  0  0  0  0  0  0  0  0  0  0
  1  2  1  0  0  0  0
  2  3  1  0  0  0  0
  2  4  1  0  0  0  0
  2  5  1  0  0  0  0
  5  6  2  0  0  0  0
  5  7  1  0  0  0  0
  7  8  1  0  0  0  0
  7  9  1  0  0  0  0
  9 10  1  0  0  0  0
  9 11  1  0  0  0  0
  9 17  1  0  0  0  0
 11 12  1  0  0  0  0
 11 13  1  0  0  0  0
 11 14  1  0  0  0  0
 14 15  1  0  0  0  0
 14 16  2  0  0  0  0
 17 18  2  0  0  0  0
 17 19  1  0  0  0  0
 19 20  1  0  0  0  0
 19 21  1  0  0  0  0
 21 22  1  0  0  0  0
 21 23  1  0  0  0  0
 21 24  1  0  0  0  0
M  CHG  1  15  -1
M  END
$$$$

  -OEChem-03222214023D

 24 23  0     1  0  0  0  0  0999 V2000
   -2.7939   -3.6610    0.5578 H   0  0  0  0  0  0  0  0  0  0  0  0
   -2.7308   -2.6461    0.1558 C   0  0  0  0  0  0  0  0  0  0  0  0
   -3.3234   -1.9795    0.7873 H   0  0  0  0  0  0  0  0  0  0  0  0
   -3.1442   -2.6411   -0.8557 H   0  0  0  0  0  0  0  0  0  0  0  0
   -1.2853   -2.1818    0.1252 C   0  0  0  0  0  0  0  0  0  0  0  0
   -0.4032   -2.9364    0.5052 O   0  0  0  0  0  0  0  0  0  0  0  0
   -1.0010   -0.9038   -0.2989 N   0  0  0  0  0  0  0  0  0  0  0  0
   -1.7855   -0.2673   -0.4313 H   0  0  0  0  0  0  0  0  0  0  0  0
    0.3188   -0.2606   -0.2508 C   0  0  1  0  0  0  0  0  0  0  0  0
    0.9692   -0.7683    0.4684 H   0  0  0  0  0  0  0  0  0  0  0  0
    0.9812   -0.3704   -1.6502 C   0  0  0  0  0  0  0  0  0  0  0  0
    1.4882   -1.3376   -1.7101 H   0  0  0  0  0  0  0  0  0  0  0  0
    0.1890   -0.3698   -2.4033 H   0  0  0  0  0  0  0  0  0  0  0  0
    1.9616    0.7243   -2.0894 C   0  0  0  0  0  0  0  0  0  0  0  0
    1.8394    1.9012   -1.6770 O   0  5  0  0  0  0  0  0  0  0  0  0
    2.8788    0.3423   -2.8546 O   0  0  0  0  0  0  0  0  0  0  0  0
    0.0661    1.1705    0.3074 C   0  0  0  0  0  0  0  0  0  0  0  0
   -1.0561    1.6749    0.1944 O   0  0  0  0  0  0  0  0  0  0  0  0
    0.9096    1.6704    1.2841 N   0  0  0  0  0  0  0  0  0  0  0  0
    1.8754    1.3787    1.1591 H   0  0  0  0  0  0  0  0  0  0  0  0
    0.6967    2.9851    1.8717 C   0  0  0  0  0  0  0  0  0  0  0  0
   -0.2648    3.0235    2.3936 H   0  0  0  0  0  0  0  0  0  0  0  0
    1.4887    3.2043    2.5937 H   0  0  0  0  0  0  0  0  0  0  0  0
    0.7102    3.7565    1.0946 H   0  0  0  0  0  0  0  0  0  0  0  0
  1  2  1  0  0  0  0
  2  3  1  0  0  0  0
  2  4  1  0  0  0  0
  2  5  1  0  0  0  0
  5  6  2  0  0  0  0
  5  7  1  0  0  0  0
  7  8  1  0  0  0  0
  7  9  1  0  0  0  0
  9 10  1  0  0  0  0
  9 11  1  0  0  0  0
  9 17  1  0  0  0  0
 11 12  1  0  0  0  0
 11 13  1  0  0  0  0
 11 14  1  0  0  0  0
 14 15  1  0  0  0  0
 14 16  2  0  0  0  0
 17 18  2  0  0  0  0
 17 19  1  0  0  0  0
 19 20  1  0  0  0  0
 19 21  1  0  0  0  0
 21 22  1  0  0  0  0
 21 23  1  0  0  0  0
 21 24  1  0  0  0  0
M  CHG  1  15  -1
M  END
$$$$

  -OEChem-03222214023D

 24 23  0     1  0  0  0  0  0999 V2000
   -2.8088   -3.6388    0.5644 H   0  0  0  0  0  0  0  0  0  0  0  0
   -2.7347   -2.6240    0.1637 C   0  0  0  0  0  0  0  0  0  0  0  0
   -3.3184   -1.9513    0.7971 H   0  0  0  0  0  0  0  0  0  0  0  0
   -3.1500   -2.6127   -0.8471 H   0  0  0  0  0  0  0  0  0  0  0  0
   -1.2840   -2.1765    0.1307 C   0  0  0  0  0  0  0  0  0  0  0  0
   -0.4096   -2.9400    0.5113 O   0  0  0  0  0  0  0  0  0  0  0  0
   -0.9864   -0.9030   -0.2971 N   0  0  0  0  0  0  0  0  0  0  0  0
   -1.7645   -0.2586   -0.4296 H   0  0  0  0  0  0  0  0  0  0  0  0
    0.3395   -0.2722   -0.2471 C   0  0  1  0  0  0  0  0  0  0  0  0
    0.9918   -0.7818    0.4692 H   0  0  0  0  0  0  0  0  0  0  0  0
    0.9875   -0.3717   -1.6545 C   0  0  0  0  0  0  0  0  0  0  0  0
    1.4865   -1.3418   -1.7277 H   0  0  0  0  0  0  0  0  0  0  0  0
    0.1873   -0.3572   -2.3991 H   0  0  0  0  0  0  0  0  0  0  0  0
    1.9778    0.7119   -2.1000 C   0  0  0  0  0  0  0  0  0  0  0  0
    2.0662    1.8012   -1.4853 O   0  5  0  0  0  0  0  0  0  0  0  0
    2.6779    0.4108   -3.0958 O   0  0  0  0  0  0  0  0  0  0  0  0
    0.0774    1.1603    0.3069 C   0  0  0  0  0  0  0  0  0  0  0  0
   -1.0413    1.6680    0.1710 O   0  0  0  0  0  0  0  0  0  0  0  0
    0.9098    1.6669    1.2891 N   0  0  0  0  0  0  0  0  0  0  0  0
    1.8835    1.4186    1.1279 H   0  0  0  0  0  0  0  0  0  0  0  0
    0.6679    2.9709    1.8886 C   0  0  0  0  0  0  0  0  0  0  0  0
   -0.2937    2.9817    2.4114 H   0  0  0  0  0  0  0  0  0  0  0  0
    1.4554    3.2017    2.6118 H   0  0  0  0  0  0  0  0  0  0  0  0
    0.6630    3.7493    1.1185 H   0  0  0  0  0  0  0  0  0  0  0  0
  1  2  1  0  0  0  0
  2  3  1  0  0  0  0
  2  4  1  0  0  0  0
  2  5  1  0  0  0  0
  5  6  2  0  0  0  0
  5  7  1  0  0  0  0
  7  8  1  0  0  0  0
  7  9  1  0  0  0  0
  9 10  1  0  0  0  0
  9 11  1  0  0  0  0
  9 17  1  0  0  0  0
 11 12  1  0  0  0  0
 11 13  1  0  0  0  0
 11 14  1  0  0  0  0
 14 15  1  0  0  0  0
 14 16  2  0  0  0  0
 17 18  2  0  0  0  0
 17 19  1  0  0  0  0
 19 20  1  0  0  0  0
 19 21  1  0  0  0  0
 21 22  1  0  0  0  0
 21 23  1  0  0  0  0
 21 24  1  0  0  0  0
M  CHG  1  15  -1
M  END
$$$$

  -OEChem-03222214023D

 24 23  0     1  0  0  0  0  0999 V2000
   -2.8210   -3.6282    0.5789 H   0  0  0  0  0  0  0  0  0  0  0  0
   -2.7407   -2.6162    0.1723 C   0  0  0  0  0  0  0  0  0  0  0  0
   -3.3196   -1.9360    0.8020 H   0  0  0  0  0  0  0  0  0  0  0  0
   -3.1566   -2.6080   -0.8383 H   0  0  0  0  0  0  0  0  0  0  0  0
   -1.2873   -2.1775    0.1359 C   0  0  0  0  0  0  0  0  0  0  0  0
   -0.4170   -2.9453    0.5168 O   0  0  0  0  0  0  0  0  0  0  0  0
   -0.9822   -0.9076   -0.2971 N   0  0  0  0  0  0  0  0  0  0  0  0
   -1.7564   -0.2592   -0.4325 H   0  0  0  0  0  0  0  0  0  0  0  0
    0.3477   -0.2851   -0.2468 C   0  0  1  0  0  0  0  0  0  0  0  0
    1.0019   -0.7959    0.4671 H   0  0  0  0  0  0  0  0  0  0  0  0
    0.9884   -0.3708   -1.6574 C   0  0  0  0  0  0  0  0  0  0  0  0
    1.4882   -1.3389   -1.7451 H   0  0  0  0  0  0  0  0  0  0  0  0
    0.1857   -0.3459   -2.3994 H   0  0  0  0  0  0  0  0  0  0  0  0
    1.9819    0.7168   -2.0834 C   0  0  0  0  0  0  0  0  0  0  0  0
    2.2751    1.6570   -1.3046 O   0  5  0  0  0  0  0  0  0  0  0  0
    2.4701    0.5758   -3.2298 O   0  0  0  0  0  0  0  0  0  0  0  0
    0.0843    1.1505    0.3012 C   0  0  0  0  0  0  0  0  0  0  0  0
   -1.0287    1.6653    0.1467 O   0  0  0  0  0  0  0  0  0  0  0  0
    0.9120    1.6606    1.2845 N   0  0  0  0  0  0  0  0  0  0  0  0
    1.8881    1.4366    1.0936 H   0  0  0  0  0  0  0  0  0  0  0  0
    0.6618    2.9623    1.8848 C   0  0  0  0  0  0  0  0  0  0  0  0
   -0.3037    2.9696    2.4006 H   0  0  0  0  0  0  0  0  0  0  0  0
    1.4434    3.1930    2.6145 H   0  0  0  0  0  0  0  0  0  0  0  0
    0.6608    3.7426    1.1166 H   0  0  0  0  0  0  0  0  0  0  0  0
  1  2  1  0  0  0  0
  2  3  1  0  0  0  0
  2  4  1  0  0  0  0
  2  5  1  0  0  0  0
  5  6  2  0  0  0  0
  5  7  1  0  0  0  0
  7  8  1  0  0  0  0
  7  9  1  0  0  0  0
  9 10  1  0  0  0  0
  9 11  1  0  0  0  0
  9 17  1  0  0  0  0
 11 12  1  0  0  0  0
 11 13  1  0  0  0  0
 11 14  1  0  0  0  0
 14 15  1  0  0  0  0
 14 16  2  0  0  0  0
 17 18  2  0  0  0  0
 17 19  1  0  0  0  0
 19 20  1  0  0  0  0
 19 21  1  0  0  0  0
 21 22  1  0  0  0  0
 21 23  1  0  0  0  0
 21 24  1  0  0  0  0
M  CHG  1  15  -1
M  END
$$$$

  -OEChem-03222214023D

 24 23  0     1  0  0  0  0  0999 V2000
   -2.8317   -3.6235    0.5978 H   0  0  0  0  0  0  0  0  0  0  0  0
   -2.7487   -2.6139    0.1860 C   0  0  0  0  0  0  0  0  0  0  0  0
   -3.3196   -1.9278    0.8166 H   0  0  0  0  0  0  0  0  0  0  0  0
   -3.1709   -2.6078   -0.8219 H   0  0  0  0  0  0  0  0  0  0  0  0
   -1.2932   -2.1836    0.1384 C   0  0  0  0  0  0  0  0  0  0  0  0
   -0.4250   -2.9550    0.5169 O   0  0  0  0  0  0  0  0  0  0  0  0
   -0.9841   -0.9171   -0.3021 N   0  0  0  0  0  0  0  0  0  0  0  0
   -1.7565   -0.2669   -0.4395 H   0  0  0  0  0  0  0  0  0  0  0  0
    0.3474   -0.2983   -0.2530 C   0  0  1  0  0  0  0  0  0  0  0  0
    1.0018   -0.8091    0.4610 H   0  0  0  0  0  0  0  0  0  0  0  0
    0.9892   -0.3708   -1.6616 C   0  0  0  0  0  0  0  0  0  0  0  0
    1.4976   -1.3331   -1.7591 H   0  0  0  0  0  0  0  0  0  0  0  0
    0.1903   -0.3406   -2.4081 H   0  0  0  0  0  0  0  0  0  0  0  0
    1.9794    0.7334   -2.0455 C   0  0  0  0  0  0  0  0  0  0  0  0
    2.4597    1.4761   -1.1517 O   0  5  0  0  0  0  0  0  0  0  0  0
    2.2755    0.8093   -3.2615 O   0  0  0  0  0  0  0  0  0  0  0  0
    0.0899    1.1419    0.2854 C   0  0  0  0  0  0  0  0  0  0  0  0
   -1.0168    1.6648    0.1166 O   0  0  0  0  0  0  0  0  0  0  0  0
    0.9172    1.6557    1.2659 N   0  0  0  0  0  0  0  0  0  0  0  0
    1.8940    1.4390    1.0591 H   0  0  0  0  0  0  0  0  0  0  0  0
    0.6660    2.9570    1.8667 C   0  0  0  0  0  0  0  0  0  0  0  0
   -0.2950    2.9596    2.3909 H   0  0  0  0  0  0  0  0  0  0  0  0
    1.4526    3.1929    2.5894 H   0  0  0  0  0  0  0  0  0  0  0  0
    0.6541    3.7366    1.0981 H   0  0  0  0  0  0  0  0  0  0  0  0
  1  2  1  0  0  0  0
  2  3  1  0  0  0  0
  2  4  1  0  0  0  0
  2  5  1  0  0  0  0
  5  6  2  0  0  0  0
  5  7  1  0  0  0  0
  7  8  1  0  0  0  0
  7  9  1  0  0  0  0
  9 10  1  0  0  0  0
  9 11  1  0  0  0  0
  9 17  1  0  0  0  0
 11 12  1  0  0  0  0
 11 13  1  0  0  0  0
 11 14  1  0  0  0  0
 14 15  1  0  0  0  0
 14 16  2  0  0  0  0
 17 18  2  0  0  0  0
 17 19  1  0  0  0  0
 19 20  1  0  0  0  0
 19 21  1  0  0  0  0
 21 22  1  0  0  0  0
 21 23  1  0  0  0  0
 21 24  1  0  0  0  0
M  CHG  1  15  -1
M  END
$$$$

  -OEChem-03222214023D

 24 23  0     1  0  0  0  0  0999 V2000
   -2.8339   -3.6404    0.6049 H   0  0  0  0  0  0  0  0  0  0  0  0
   -2.7539   -2.6322    0.1890 C   0  0  0  0  0  0  0  0  0  0  0  0
   -3.3289   -1.9456    0.8154 H   0  0  0  0  0  0  0  0  0  0  0  0
   -3.1740   -2.6322   -0.8198 H   0  0  0  0  0  0  0  0  0  0  0  0
   -1.3002   -2.1962    0.1428 C   0  0  0  0  0  0  0  0  0  0  0  0
   -0.4296   -2.9644    0.5219 O   0  0  0  0  0  0  0  0  0  0  0  0
   -0.9961   -0.9303   -0.3026 N   0  0  0  0  0  0  0  0  0  0  0  0
   -1.7715   -0.2858   -0.4473 H   0  0  0  0  0  0  0  0  0  0  0  0
    0.3322   -0.3054   -0.2581 C   0  0  1  0  0  0  0  0  0  0  0  0
    0.9874   -0.8147    0.4562 H   0  0  0  0  0  0  0  0  0  0  0  0
    0.9825   -0.3675   -1.6599 C   0  0  0  0  0  0  0  0  0  0  0  0
    1.5100   -1.3190   -1.7611 H   0  0  0  0  0  0  0  0  0  0  0  0
    0.1934   -0.3410   -2.4168 H   0  0  0  0  0  0  0  0  0  0  0  0
    1.9570    0.7653   -1.9878 C   0  0  0  0  0  0  0  0  0  0  0  0
    2.6035    1.2889   -1.0426 O   0  5  0  0  0  0  0  0  0  0  0  0
    2.0757    1.0863   -3.1938 O   0  0  0  0  0  0  0  0  0  0  0  0
    0.0889    1.1385    0.2733 C   0  0  0  0  0  0  0  0  0  0  0  0
   -1.0126    1.6697    0.1017 O   0  0  0  0  0  0  0  0  0  0  0  0
    0.9255    1.6517    1.2453 N   0  0  0  0  0  0  0  0  0  0  0  0
    1.8993    1.4148    1.0383 H   0  0  0  0  0  0  0  0  0  0  0  0
    0.6964    2.9638    1.8312 C   0  0  0  0  0  0  0  0  0  0  0  0
   -0.2667    2.9907    2.3508 H   0  0  0  0  0  0  0  0  0  0  0  0
    1.4844    3.1917    2.5550 H   0  0  0  0  0  0  0  0  0  0  0  0
    0.7025    3.7349    1.0539 H   0  0  0  0  0  0  0  0  0  0  0  0
  1  2  1  0  0  0  0
  2  3  1  0  0  0  0
  2  4  1  0  0  0  0
  2  5  1  0  0  0  0
  5  6  2  0  0  0  0
  5  7  1  0  0  0  0
  7  8  1  0  0  0  0
  7  9  1  0  0  0  0
  9 10  1  0  0  0  0
  9 11  1  0  0  0  0
  9 17  1  0  0  0  0
 11 12  1  0  0  0  0
 11 13  1  0  0  0  0
 11 14  1  0  0  0  0
 14 15  1  0  0  0  0
 14 16  2  0  0  0  0
 17 18  2  0  0  0  0
 17 19  1  0  0  0  0
 19 20  1  0  0  0  0
 19 21  1  0  0  0  0
 21 22  1  0  0  0  0
 21 23  1  0  0  0  0
 21 24  1  0  0  0  0
M  CHG  1  15  -1
M  END
$$$$

  -OEChem-03222214023D

 24 23  0     1  0  0  0  0  0999 V2000
   -2.8288   -3.6624    0.6130 H   0  0  0  0  0  0  0  0  0  0  0  0
   -2.7570   -2.6566    0.1898 C   0  0  0  0  0  0  0  0  0  0  0  0
   -3.3387   -1.9706    0.8108 H   0  0  0  0  0  0  0  0  0  0  0  0
   -3.1756   -2.6675   -0.8196 H   0  0  0  0  0  0  0  0  0  0  0  0
   -1.3069   -2.2085    0.1418 C   0  0  0  0  0  0  0  0  0  0  0  0
   -0.4299   -2.9697    0.5200 O   0  0  0  0  0  0  0  0  0  0  0  0
   -1.0143   -0.9413   -0.3076 N   0  0  0  0  0  0  0  0  0  0  0  0
   -1.7961   -0.3061   -0.4577 H   0  0  0  0  0  0  0  0  0  0  0  0
    0.3071   -0.3028   -0.2688 C   0  0  1  0  0  0  0  0  0  0  0  0
    0.9600   -0.8082    0.4508 H   0  0  0  0  0  0  0  0  0  0  0  0
    0.9797   -0.3660   -1.6567 C   0  0  0  0  0  0  0  0  0  0  0  0
    1.5329   -1.3038   -1.7478 H   0  0  0  0  0  0  0  0  0  0  0  0
    0.2086   -0.3542   -2.4322 H   0  0  0  0  0  0  0  0  0  0  0  0
    1.9289    0.7999   -1.9253 C   0  0  0  0  0  0  0  0  0  0  0  0
    2.7226    1.1174   -1.0000 O   0  5  0  0  0  0  0  0  0  0  0  0
    1.8846    1.3515   -3.0498 O   0  0  0  0  0  0  0  0  0  0  0  0
    0.0821    1.1441    0.2557 C   0  0  0  0  0  0  0  0  0  0  0  0
   -1.0174    1.6807    0.0952 O   0  0  0  0  0  0  0  0  0  0  0  0
    0.9351    1.6514    1.2161 N   0  0  0  0  0  0  0  0  0  0  0  0
    1.9039    1.3838    1.0197 H   0  0  0  0  0  0  0  0  0  0  0  0
    0.7342    2.9703    1.7964 C   0  0  0  0  0  0  0  0  0  0  0  0
   -0.2264    3.0189    2.3188 H   0  0  0  0  0  0  0  0  0  0  0  0
    1.5287    3.1853    2.5169 H   0  0  0  0  0  0  0  0  0  0  0  0
    0.7534    3.7379    1.0160 H   0  0  0  0  0  0  0  0  0  0  0  0
  1  2  1  0  0  0  0
  2  3  1  0  0  0  0
  2  4  1  0  0  0  0
  2  5  1  0  0  0  0
  5  6  2  0  0  0  0
  5  7  1  0  0  0  0
  7  8  1  0  0  0  0
  7  9  1  0  0  0  0
  9 10  1  0  0  0  0
  9 11  1  0  0  0  0
  9 17  1  0  0  0  0
 11 12  1  0  0  0  0
 11 13  1  0  0  0  0
 11 14  1  0  0  0  0
 14 15  1  0  0  0  0
 14 16  2  0  0  0  0
 17 18  2  0  0  0  0
 17 19  1  0  0  0  0
 19 20  1  0  0  0  0
 19 21  1  0  0  0  0
 21 22  1  0  0  0  0
 21 23  1  0  0  0  0
 21 24  1  0  0  0  0
M  CHG  1  15  -1
M  END
$$$$

  -OEChem-03222214023D

 24 23  0     1  0  0  0  0  0999 V2000
   -2.8199   -3.6888    0.6056 H   0  0  0  0  0  0  0  0  0  0  0  0
   -2.7585   -2.6827    0.1818 C   0  0  0  0  0  0  0  0  0  0  0  0
   -3.3487   -2.0026    0.8009 H   0  0  0  0  0  0  0  0  0  0  0  0
   -3.1753   -2.6988   -0.8282 H   0  0  0  0  0  0  0  0  0  0  0  0
   -1.3134   -2.2190    0.1361 C   0  0  0  0  0  0  0  0  0  0  0  0
   -0.4288   -2.9716    0.5134 O   0  0  0  0  0  0  0  0  0  0  0  0
   -1.0345   -0.9484   -0.3126 N   0  0  0  0  0  0  0  0  0  0  0  0
   -1.8234   -0.3241   -0.4690 H   0  0  0  0  0  0  0  0  0  0  0  0
    0.2790   -0.2944   -0.2776 C   0  0  1  0  0  0  0  0  0  0  0  0
    0.9263   -0.7967    0.4493 H   0  0  0  0  0  0  0  0  0  0  0  0
    0.9804   -0.3657   -1.6478 C   0  0  0  0  0  0  0  0  0  0  0  0
    1.5578   -1.2905   -1.7207 H   0  0  0  0  0  0  0  0  0  0  0  0
    0.2315   -0.3723   -2.4446 H   0  0  0  0  0  0  0  0  0  0  0  0
    1.9020    0.8285   -1.8699 C   0  0  0  0  0  0  0  0  0  0  0  0
    2.8359    0.9742   -1.0387 O   0  5  0  0  0  0  0  0  0  0  0  0
    1.6900    1.5795   -2.8500 O   0  0  0  0  0  0  0  0  0  0  0  0
    0.0721    1.1536    0.2452 C   0  0  0  0  0  0  0  0  0  0  0  0
   -1.0284    1.6926    0.1078 O   0  0  0  0  0  0  0  0  0  0  0  0
    0.9431    1.6504    1.1952 N   0  0  0  0  0  0  0  0  0  0  0  0
    1.9044    1.3456    1.0203 H   0  0  0  0  0  0  0  0  0  0  0  0
    0.7751    2.9792    1.7634 C   0  0  0  0  0  0  0  0  0  0  0  0
   -0.1802    3.0542    2.2926 H   0  0  0  0  0  0  0  0  0  0  0  0
    1.5799    3.1850    2.4752 H   0  0  0  0  0  0  0  0  0  0  0  0
    0.8048    3.7376    0.9742 H   0  0  0  0  0  0  0  0  0  0  0  0
  1  2  1  0  0  0  0
  2  3  1  0  0  0  0
  2  4  1  0  0  0  0
  2  5  1  0  0  0  0
  5  6  2  0  0  0  0
  5  7  1  0  0  0  0
  7  8  1  0  0  0  0
  7  9  1  0  0  0  0
  9 10  1  0  0  0  0
  9 11  1  0  0  0  0
  9 17  1  0  0  0  0
 11 12  1  0  0  0  0
 11 13  1  0  0  0  0
 11 14  1  0  0  0  0
 14 15  1  0  0  0  0
 14 16  2  0  0  0  0
 17 18  2  0  0  0  0
 17 19  1  0  0  0  0
 19 20  1  0  0  0  0
 19 21  1  0  0  0  0
 21 22  1  0  0  0  0
 21 23  1  0  0  0  0
 21 24  1  0  0  0  0
M  CHG  1  15  -1
M  END
$$$$

  -OEChem-03222214023D

 24 23  0     1  0  0  0  0  0999 V2000
   -2.8121   -3.7067    0.5807 H   0  0  0  0  0  0  0  0  0  0  0  0
   -2.7563   -2.6953    0.1686 C   0  0  0  0  0  0  0  0  0  0  0  0
   -3.3546   -2.0266    0.7926 H   0  0  0  0  0  0  0  0  0  0  0  0
   -3.1681   -2.7029   -0.8437 H   0  0  0  0  0  0  0  0  0  0  0  0
   -1.3147   -2.2198    0.1354 C   0  0  0  0  0  0  0  0  0  0  0  0
   -0.4275   -2.9630    0.5253 O   0  0  0  0  0  0  0  0  0  0  0  0
   -1.0431   -0.9476   -0.3133 N   0  0  0  0  0  0  0  0  0  0  0  0
   -1.8355   -0.3308   -0.4807 H   0  0  0  0  0  0  0  0  0  0  0  0
    0.2653   -0.2845   -0.2798 C   0  0  1  0  0  0  0  0  0  0  0  0
    0.9083   -0.7835    0.4531 H   0  0  0  0  0  0  0  0  0  0  0  0
    0.9795   -0.3705   -1.6407 C   0  0  0  0  0  0  0  0  0  0  0  0
    1.5643   -1.2923   -1.6986 H   0  0  0  0  0  0  0  0  0  0  0  0
    0.2410   -0.3912   -2.4469 H   0  0  0  0  0  0  0  0  0  0  0  0
    1.8877    0.8332   -1.8569 C   0  0  0  0  0  0  0  0  0  0  0  0
    2.9628    0.8430   -1.2068 O   0  5  0  0  0  0  0  0  0  0  0  0
    1.5157    1.7357   -2.6420 O   0  0  0  0  0  0  0  0  0  0  0  0
    0.0677    1.1644    0.2409 C   0  0  0  0  0  0  0  0  0  0  0  0
   -1.0363    1.7006    0.1258 O   0  0  0  0  0  0  0  0  0  0  0  0
    0.9486    1.6553    1.1860 N   0  0  0  0  0  0  0  0  0  0  0  0
    1.9032    1.3200    1.0457 H   0  0  0  0  0  0  0  0  0  0  0  0
    0.7966    2.9866    1.7530 C   0  0  0  0  0  0  0  0  0  0  0  0
   -0.1534    3.0697    2.2906 H   0  0  0  0  0  0  0  0  0  0  0  0
    1.6094    3.1881    2.4569 H   0  0  0  0  0  0  0  0  0  0  0  0
    0.8248    3.7431    0.9619 H   0  0  0  0  0  0  0  0  0  0  0  0
  1  2  1  0  0  0  0
  2  3  1  0  0  0  0
  2  4  1  0  0  0  0
  2  5  1  0  0  0  0
  5  6  2  0  0  0  0
  5  7  1  0  0  0  0
  7  8  1  0  0  0  0
  7  9  1  0  0  0  0
  9 10  1  0  0  0  0
  9 11  1  0  0  0  0
  9 17  1  0  0  0  0
 11 12  1  0  0  0  0
 11 13  1  0  0  0  0
 11 14  1  0  0  0  0
 14 15  1  0  0  0  0
 14 16  2  0  0  0  0
 17 18  2  0  0  0  0
 17 19  1  0  0  0  0
 19 20  1  0  0  0  0
 19 21  1  0  0  0  0
 21 22  1  0  0  0  0
 21 23  1  0  0  0  0
 21 24  1  0  0  0  0
M  CHG  1  15  -1
M  END
$$$$

  -OEChem-03222214023D

 24 23  0     1  0  0  0  0  0999 V2000
   -2.8111   -3.6997    0.5799 H   0  0  0  0  0  0  0  0  0  0  0  0
   -2.7543   -2.6894    0.1652 C   0  0  0  0  0  0  0  0  0  0  0  0
   -3.3512   -2.0185    0.7882 H   0  0  0  0  0  0  0  0  0  0  0  0
   -3.1674   -2.6993   -0.8465 H   0  0  0  0  0  0  0  0  0  0  0  0
   -1.3119   -2.2161    0.1293 C   0  0  0  0  0  0  0  0  0  0  0  0
   -0.4251   -2.9620    0.5151 O   0  0  0  0  0  0  0  0  0  0  0  0
   -1.0381   -0.9429   -0.3152 N   0  0  0  0  0  0  0  0  0  0  0  0
   -1.8293   -0.3227   -0.4766 H   0  0  0  0  0  0  0  0  0  0  0  0
    0.2708   -0.2808   -0.2780 C   0  0  1  0  0  0  0  0  0  0  0  0
    0.9136   -0.7815    0.4538 H   0  0  0  0  0  0  0  0  0  0  0  0
    0.9808   -0.3720   -1.6415 C   0  0  0  0  0  0  0  0  0  0  0  0
    1.5562   -1.2997   -1.6993 H   0  0  0  0  0  0  0  0  0  0  0  0
    0.2385   -0.3910   -2.4441 H   0  0  0  0  0  0  0  0  0  0  0  0
    1.8969    0.8218   -1.8808 C   0  0  0  0  0  0  0  0  0  0  0  0
    3.0825    0.7077   -1.4865 O   0  5  0  0  0  0  0  0  0  0  0  0
    1.4230    1.8395   -2.4369 O   0  0  0  0  0  0  0  0  0  0  0  0
    0.0674    1.1662    0.2473 C   0  0  0  0  0  0  0  0  0  0  0  0
   -1.0425    1.6935    0.1454 O   0  0  0  0  0  0  0  0  0  0  0  0
    0.9431    1.6592    1.1975 N   0  0  0  0  0  0  0  0  0  0  0  0
    1.8934    1.3042    1.0995 H   0  0  0  0  0  0  0  0  0  0  0  0
    0.7881    2.9915    1.7621 C   0  0  0  0  0  0  0  0  0  0  0  0
   -0.1556    3.0692    2.3112 H   0  0  0  0  0  0  0  0  0  0  0  0
    1.6079    3.2017    2.4550 H   0  0  0  0  0  0  0  0  0  0  0  0
    0.8006    3.7456    0.9683 H   0  0  0  0  0  0  0  0  0  0  0  0
  1  2  1  0  0  0  0
  2  3  1  0  0  0  0
  2  4  1  0  0  0  0
  2  5  1  0  0  0  0
  5  6  2  0  0  0  0
  5  7  1  0  0  0  0
  7  8  1  0  0  0  0
  7  9  1  0  0  0  0
  9 10  1  0  0  0  0
  9 11  1  0  0  0  0
  9 17  1  0  0  0  0
 11 12  1  0  0  0  0
 11 13  1  0  0  0  0
 11 14  1  0  0  0  0
 14 15  1  0  0  0  0
 14 16  2  0  0  0  0
 17 18  2  0  0  0  0
 17 19  1  0  0  0  0
 19 20  1  0  0  0  0
 19 21  1  0  0  0  0
 21 22  1  0  0  0  0
 21 23  1  0  0  0  0
 21 24  1  0  0  0  0
M  CHG  1  15  -1
M  END
$$$$

  -OEChem-03222214023D

 24 23  0     1  0  0  0  0  0999 V2000
   -2.8053   -3.6954    0.5683 H   0  0  0  0  0  0  0  0  0  0  0  0
   -2.7478   -2.6833    0.1579 C   0  0  0  0  0  0  0  0  0  0  0  0
   -3.3487   -2.0157    0.7805 H   0  0  0  0  0  0  0  0  0  0  0  0
   -3.1557   -2.6896   -0.8560 H   0  0  0  0  0  0  0  0  0  0  0  0
   -1.3059   -2.2079    0.1311 C   0  0  0  0  0  0  0  0  0  0  0  0
   -0.4198   -2.9520    0.5223 O   0  0  0  0  0  0  0  0  0  0  0  0
   -1.0314   -0.9332   -0.3089 N   0  0  0  0  0  0  0  0  0  0  0  0
   -1.8222   -0.3126   -0.4717 H   0  0  0  0  0  0  0  0  0  0  0  0
    0.2782   -0.2723   -0.2694 C   0  0  1  0  0  0  0  0  0  0  0  0
    0.9221   -0.7741    0.4603 H   0  0  0  0  0  0  0  0  0  0  0  0
    0.9778   -0.3731   -1.6403 C   0  0  0  0  0  0  0  0  0  0  0  0
    1.5376   -1.3108   -1.6950 H   0  0  0  0  0  0  0  0  0  0  0  0
    0.2263   -0.3929   -2.4338 H   0  0  0  0  0  0  0  0  0  0  0  0
    1.9084    0.8005   -1.9298 C   0  0  0  0  0  0  0  0  0  0  0  0
    3.1392    0.5809   -1.8326 O   0  5  0  0  0  0  0  0  0  0  0  0
    1.4055    1.9005   -2.2566 O   0  0  0  0  0  0  0  0  0  0  0  0
    0.0664    1.1717    0.2623 C   0  0  0  0  0  0  0  0  0  0  0  0
   -1.0491    1.6902    0.1704 O   0  0  0  0  0  0  0  0  0  0  0  0
    0.9373    1.6658    1.2173 N   0  0  0  0  0  0  0  0  0  0  0  0
    1.8857    1.3058    1.1394 H   0  0  0  0  0  0  0  0  0  0  0  0
    0.7748    2.9951    1.7873 C   0  0  0  0  0  0  0  0  0  0  0  0
   -0.1743    3.0688    2.3276 H   0  0  0  0  0  0  0  0  0  0  0  0
    1.5875    3.2036    2.4891 H   0  0  0  0  0  0  0  0  0  0  0  0
    0.7936    3.7528    0.9970 H   0  0  0  0  0  0  0  0  0  0  0  0
  1  2  1  0  0  0  0
  2  3  1  0  0  0  0
  2  4  1  0  0  0  0
  2  5  1  0  0  0  0
  5  6  2  0  0  0  0
  5  7  1  0  0  0  0
  7  8  1  0  0  0  0
  7  9  1  0  0  0  0
  9 10  1  0  0  0  0
  9 11  1  0  0  0  0
  9 17  1  0  0  0  0
 11 12  1  0  0  0  0
 11 13  1  0  0  0  0
 11 14  1  0  0  0  0
 14 15  1  0  0  0  0
 14 16  2  0  0  0  0
 17 18  2  0  0  0  0
 17 19  1  0  0  0  0
 19 20  1  0  0  0  0
 19 21  1  0  0  0  0
 21 22  1  0  0  0  0
 21 23  1  0  0  0  0
 21 24  1  0  0  0  0
M  CHG  1  15  -1
M  END
$$$$

  -OEChem-03222214023D

 24 23  0     1  0  0  0  0  0999 V2000
   -2.7988   -3.6867    0.5583 H   0  0  0  0  0  0  0  0  0  0  0  0
   -2.7408   -2.6721    0.1547 C   0  0  0  0  0  0  0  0  0  0  0  0
   -3.3394   -2.0080    0.7831 H   0  0  0  0  0  0  0  0  0  0  0  0
   -3.1506   -2.6710   -0.8583 H   0  0  0  0  0  0  0  0  0  0  0  0
   -1.2985   -2.1981    0.1283 C   0  0  0  0  0  0  0  0  0  0  0  0
   -0.4127   -2.9436    0.5176 O   0  0  0  0  0  0  0  0  0  0  0  0
   -1.0233   -0.9214   -0.3051 N   0  0  0  0  0  0  0  0  0  0  0  0
   -1.8132   -0.2971   -0.4589 H   0  0  0  0  0  0  0  0  0  0  0  0
    0.2880   -0.2632   -0.2627 C   0  0  1  0  0  0  0  0  0  0  0  0
    0.9326   -0.7662    0.4656 H   0  0  0  0  0  0  0  0  0  0  0  0
    0.9801   -0.3742   -1.6405 C   0  0  0  0  0  0  0  0  0  0  0  0
    1.5227   -1.3225   -1.6880 H   0  0  0  0  0  0  0  0  0  0  0  0
    0.2191   -0.3964   -2.4247 H   0  0  0  0  0  0  0  0  0  0  0  0
    1.9287    0.7728   -1.9881 C   0  0  0  0  0  0  0  0  0  0  0  0
    3.1255    0.4616   -2.1962 O   0  5  0  0  0  0  0  0  0  0  0  0
    1.4754    1.9376   -2.0760 O   0  0  0  0  0  0  0  0  0  0  0  0
    0.0641    1.1761    0.2789 C   0  0  0  0  0  0  0  0  0  0  0  0
   -1.0567    1.6854    0.1916 O   0  0  0  0  0  0  0  0  0  0  0  0
    0.9280    1.6712    1.2402 N   0  0  0  0  0  0  0  0  0  0  0  0
    1.8796    1.3224    1.1612 H   0  0  0  0  0  0  0  0  0  0  0  0
    0.7508    2.9946    1.8197 C   0  0  0  0  0  0  0  0  0  0  0  0
   -0.1979    3.0536    2.3625 H   0  0  0  0  0  0  0  0  0  0  0  0
    1.5625    3.2074    2.5214 H   0  0  0  0  0  0  0  0  0  0  0  0
    0.7592    3.7582    1.0350 H   0  0  0  0  0  0  0  0  0  0  0  0
  1  2  1  0  0  0  0
  2  3  1  0  0  0  0
  2  4  1  0  0  0  0
  2  5  1  0  0  0  0
  5  6  2  0  0  0  0
  5  7  1  0  0  0  0
  7  8  1  0  0  0  0
  7  9  1  0  0  0  0
  9 10  1  0  0  0  0
  9 11  1  0  0  0  0
  9 17  1  0  0  0  0
 11 12  1  0  0  0  0
 11 13  1  0  0  0  0
 11 14  1  0  0  0  0
 14 15  1  0  0  0  0
 14 16  2  0  0  0  0
 17 18  2  0  0  0  0
 17 19  1  0  0  0  0
 19 20  1  0  0  0  0
 19 21  1  0  0  0  0
 21 22  1  0  0  0  0
 21 23  1  0  0  0  0
 21 24  1  0  0  0  0
M  CHG  1  15  -1
M  END
$$$$

  -OEChem-03222214023D

 24 23  0     1  0  0  0  0  0999 V2000
   -2.7913   -3.6730    0.5576 H   0  0  0  0  0  0  0  0  0  0  0  0
   -2.7330   -2.6579    0.1551 C   0  0  0  0  0  0  0  0  0  0  0  0
   -3.3284   -1.9934    0.7861 H   0  0  0  0  0  0  0  0  0  0  0  0
   -3.1465   -2.6552   -0.8565 H   0  0  0  0  0  0  0  0  0  0  0  0
   -1.2898   -2.1869    0.1241 C   0  0  0  0  0  0  0  0  0  0  0  0
   -0.4042   -2.9364    0.5059 O   0  0  0  0  0  0  0  0  0  0  0  0
   -1.0122   -0.9084   -0.3030 N   0  0  0  0  0  0  0  0  0  0  0  0
   -1.8002   -0.2778   -0.4407 H   0  0  0  0  0  0  0  0  0  0  0  0
    0.3028   -0.2566   -0.2568 C   0  0  1  0  0  0  0  0  0  0  0  0
    0.9493   -0.7616    0.4681 H   0  0  0  0  0  0  0  0  0  0  0  0
    0.9816   -0.3732   -1.6454 C   0  0  0  0  0  0  0  0  0  0  0  0
    1.5060   -1.3320   -1.6889 H   0  0  0  0  0  0  0  0  0  0  0  0
    0.2076   -0.3950   -2.4168 H   0  0  0  0  0  0  0  0  0  0  0  0
    1.9499    0.7417   -2.0537 C   0  0  0  0  0  0  0  0  0  0  0  0
    3.0308    0.3622   -2.5640 O   0  5  0  0  0  0  0  0  0  0  0  0
    1.6467    1.9424   -1.8640 O   0  0  0  0  0  0  0  0  0  0  0  0
    0.0626    1.1776    0.2955 C   0  0  0  0  0  0  0  0  0  0  0  0
   -1.0609    1.6812    0.1995 O   0  0  0  0  0  0  0  0  0  0  0  0
    0.9160    1.6743    1.2655 N   0  0  0  0  0  0  0  0  0  0  0  0
    1.8754    1.3550    1.1642 H   0  0  0  0  0  0  0  0  0  0  0  0
    0.7180    2.9902    1.8554 C   0  0  0  0  0  0  0  0  0  0  0  0
   -0.2360    3.0331    2.3905 H   0  0  0  0  0  0  0  0  0  0  0  0
    1.5208    3.2062    2.5663 H   0  0  0  0  0  0  0  0  0  0  0  0
    0.7245    3.7609    1.0776 H   0  0  0  0  0  0  0  0  0  0  0  0
  1  2  1  0  0  0  0
  2  3  1  0  0  0  0
  2  4  1  0  0  0  0
  2  5  1  0  0  0  0
  5  6  2  0  0  0  0
  5  7  1  0  0  0  0
  7  8  1  0  0  0  0
  7  9  1  0  0  0  0
  9 10  1  0  0  0  0
  9 11  1  0  0  0  0
  9 17  1  0  0  0  0
 11 12  1  0  0  0  0
 11 13  1  0  0  0  0
 11 14  1  0  0  0  0
 14 15  1  0  0  0  0
 14 16  2  0  0  0  0
 17 18  2  0  0  0  0
 17 19  1  0  0  0  0
 19 20  1  0  0  0  0
 19 21  1  0  0  0  0
 21 22  1  0  0  0  0
 21 23  1  0  0  0  0
 21 24  1  0  0  0  0
M  CHG  1  15  -1
M  END
$$$$

  -OEChem-03222214023D

 24 23  0     1  0  0  0  0  0999 V2000
   -2.7966   -3.6531    0.5618 H   0  0  0  0  0  0  0  0  0  0  0  0
   -2.7300   -2.6373    0.1621 C   0  0  0  0  0  0  0  0  0  0  0  0
   -3.3169   -1.9692    0.7974 H   0  0  0  0  0  0  0  0  0  0  0  0
   -3.1472   -2.6276   -0.8479 H   0  0  0  0  0  0  0  0  0  0  0  0
   -1.2825   -2.1795    0.1266 C   0  0  0  0  0  0  0  0  0  0  0  0
   -0.4025   -2.9378    0.5038 O   0  0  0  0  0  0  0  0  0  0  0  0
   -0.9947   -0.9028   -0.2988 N   0  0  0  0  0  0  0  0  0  0  0  0
   -1.7775   -0.2635   -0.4278 H   0  0  0  0  0  0  0  0  0  0  0  0
    0.3265   -0.2623   -0.2515 C   0  0  1  0  0  0  0  0  0  0  0  0
    0.9797   -0.7703    0.4655 H   0  0  0  0  0  0  0  0  0  0  0  0
    0.9812   -0.3669   -1.6552 C   0  0  0  0  0  0  0  0  0  0  0  0
    1.4894   -1.3335   -1.7143 H   0  0  0  0  0  0  0  0  0  0  0  0
    0.1897   -0.3738   -2.4089 H   0  0  0  0  0  0  0  0  0  0  0  0
    1.9642    0.7235   -2.1026 C   0  0  0  0  0  0  0  0  0  0  0  0
    2.8572    0.3381   -2.8944 O   0  5  0  0  0  0  0  0  0  0  0  0
    1.9209    1.8732   -1.6055 O   0  0  0  0  0  0  0  0  0  0  0  0
    0.0672    1.1684    0.3058 C   0  0  0  0  0  0  0  0  0  0  0  0
   -1.0553    1.6711    0.1848 O   0  0  0  0  0  0  0  0  0  0  0  0
    0.9061    1.6724    1.2839 N   0  0  0  0  0  0  0  0  0  0  0  0
    1.8762    1.4029    1.1408 H   0  0  0  0  0  0  0  0  0  0  0  0
    0.6770    2.9798    1.8806 C   0  0  0  0  0  0  0  0  0  0  0  0
   -0.2829    3.0001    2.4062 H   0  0  0  0  0  0  0  0  0  0  0  0
    1.4684    3.2058    2.6010 H   0  0  0  0  0  0  0  0  0  0  0  0
    0.6765    3.7560    1.1084 H   0  0  0  0  0  0  0  0  0  0  0  0
  1  2  1  0  0  0  0
  2  3  1  0  0  0  0
  2  4  1  0  0  0  0
  2  5  1  0  0  0  0
  5  6  2  0  0  0  0
  5  7  1  0  0  0  0
  7  8  1  0  0  0  0
  7  9  1  0  0  0  0
  9 10  1  0  0  0  0
  9 11  1  0  0  0  0
  9 17  1  0  0  0  0
 11 12  1  0  0  0  0
 11 13  1  0  0  0  0
 11 14  1  0  0  0  0
 14 15  1  0  0  0  0
 14 16  2  0  0  0  0
 17 18  2  0  0  0  0
 17 19  1  0  0  0  0
 19 20  1  0  0  0  0
 19 21  1  0  0  0  0
 21 22  1  0  0  0  0
 21 23  1  0  0  0  0
 21 24  1  0  0  0  0
M  CHG  1  15  -1
M  END
$$$$

  -OEChem-03222214023D

 24 23  0     1  0  0  0  0  0999 V2000
   -2.8056   -3.6384    0.5742 H   0  0  0  0  0  0  0  0  0  0  0  0
   -2.7321   -2.6250    0.1702 C   0  0  0  0  0  0  0  0  0  0  0  0
   -3.3154   -1.9502    0.8014 H   0  0  0  0  0  0  0  0  0  0  0  0
   -3.1473   -2.6168   -0.8406 H   0  0  0  0  0  0  0  0  0  0  0  0
   -1.2816   -2.1775    0.1355 C   0  0  0  0  0  0  0  0  0  0  0  0
   -0.4071   -2.9409    0.5154 O   0  0  0  0  0  0  0  0  0  0  0  0
   -0.9851   -0.9047   -0.2954 N   0  0  0  0  0  0  0  0  0  0  0  0
   -1.7636   -0.2602   -0.4249 H   0  0  0  0  0  0  0  0  0  0  0  0
    0.3418   -0.2755   -0.2491 C   0  0  1  0  0  0  0  0  0  0  0  0
    1.0006   -0.7851    0.4613 H   0  0  0  0  0  0  0  0  0  0  0  0
    0.9777   -0.3595   -1.6625 C   0  0  0  0  0  0  0  0  0  0  0  0
    1.4775   -1.3280   -1.7500 H   0  0  0  0  0  0  0  0  0  0  0  0
    0.1749   -0.3424   -2.4042 H   0  0  0  0  0  0  0  0  0  0  0  0
    1.9657    0.7291   -2.1015 C   0  0  0  0  0  0  0  0  0  0  0  0
    2.6453    0.4421   -3.1155 O   0  5  0  0  0  0  0  0  0  0  0  0
    2.2062    1.7089   -1.3550 O   0  0  0  0  0  0  0  0  0  0  0  0
    0.0743    1.1570    0.3038 C   0  0  0  0  0  0  0  0  0  0  0  0
   -1.0406    1.6688    0.1517 O   0  0  0  0  0  0  0  0  0  0  0  0
    0.9036    1.6686    1.2850 N   0  0  0  0  0  0  0  0  0  0  0  0
    1.8795    1.4392    1.1011 H   0  0  0  0  0  0  0  0  0  0  0  0
    0.6538    2.9705    1.8856 C   0  0  0  0  0  0  0  0  0  0  0  0
   -0.3137    2.9794    2.3977 H   0  0  0  0  0  0  0  0  0  0  0  0
    1.4329    3.1994    2.6185 H   0  0  0  0  0  0  0  0  0  0  0  0
    0.6572    3.7512    1.1178 H   0  0  0  0  0  0  0  0  0  0  0  0
  1  2  1  0  0  0  0
  2  3  1  0  0  0  0
  2  4  1  0  0  0  0
  2  5  1  0  0  0  0
  5  6  2  0  0  0  0
  5  7  1  0  0  0  0
  7  8  1  0  0  0  0
  7  9  1  0  0  0  0
  9 10  1  0  0  0  0
  9 11  1  0  0  0  0
  9 17  1  0  0  0  0
 11 12  1  0  0  0  0
 11 13  1  0  0  0  0
 11 14  1  0  0  0  0
 14 15  1  0  0  0  0
 14 16  2  0  0  0  0
 17 18  2  0  0  0  0
 17 19  1  0  0  0  0
 19 20  1  0  0  0  0
 19 21  1  0  0  0  0
 21 22  1  0  0  0  0
 21 23  1  0  0  0  0
 21 24  1  0  0  0  0
M  CHG  1  15  -1
M  END
$$$$

  -OEChem-03222214023D

 24 23  0     1  0  0  0  0  0999 V2000
   -2.8301   -3.6542    0.5820 H   0  0  0  0  0  0  0  0  0  0  0  0
   -2.7482   -2.6447    0.1696 C   0  0  0  0  0  0  0  0  0  0  0  0
   -3.3364   -1.9624    0.7881 H   0  0  0  0  0  0  0  0  0  0  0  0
   -3.1521   -2.6445   -0.8458 H   0  0  0  0  0  0  0  0  0  0  0  0
   -1.2958   -2.2022    0.1473 C   0  0  0  0  0  0  0  0  0  0  0  0
   -0.4297   -2.9649    0.5459 O   0  0  0  0  0  0  0  0  0  0  0  0
   -0.9904   -0.9358   -0.2966 N   0  0  0  0  0  0  0  0  0  0  0  0
   -1.7665   -0.2972   -0.4592 H   0  0  0  0  0  0  0  0  0  0  0  0
    0.3351   -0.3057   -0.2418 C   0  0  1  0  0  0  0  0  0  0  0  0
    0.9936   -0.8204    0.4659 H   0  0  0  0  0  0  0  0  0  0  0  0
    0.9737   -0.3486   -1.6463 C   0  0  0  0  0  0  0  0  0  0  0  0
    1.2708   -1.3767   -1.8688 H   0  0  0  0  0  0  0  0  0  0  0  0
    0.2245   -0.0518   -2.3851 H   0  0  0  0  0  0  0  0  0  0  0  0
    2.1899    0.5599   -1.8492 C   0  0  0  0  0  0  0  0  0  0  0  0
    2.7098    0.5310   -2.9894 O   0  5  0  0  0  0  0  0  0  0  0  0
    2.7067    1.1263   -0.8509 O   0  0  0  0  0  0  0  0  0  0  0  0
    0.0908    1.1381    0.2849 C   0  0  0  0  0  0  0  0  0  0  0  0
   -0.9955    1.6848    0.0717 O   0  0  0  0  0  0  0  0  0  0  0  0
    0.9166    1.6585    1.2615 N   0  0  0  0  0  0  0  0  0  0  0  0
    1.8906    1.3948    1.0823 H   0  0  0  0  0  0  0  0  0  0  0  0
    0.6990    2.9837    1.8210 C   0  0  0  0  0  0  0  0  0  0  0  0
   -0.2749    3.0366    2.3178 H   0  0  0  0  0  0  0  0  0  0  0  0
    1.4743    3.2088    2.5589 H   0  0  0  0  0  0  0  0  0  0  0  0
    0.7376    3.7419    1.0323 H   0  0  0  0  0  0  0  0  0  0  0  0
  1  2  1  0  0  0  0
  2  3  1  0  0  0  0
  2  4  1  0  0  0  0
  2  5  1  0  0  0  0
  5  6  2  0  0  0  0
  5  7  1  0  0  0  0
  7  8  1  0  0  0  0
  7  9  1  0  0  0  0
  9 10  1  0  0  0  0
  9 11  1  0  0  0  0
  9 17  1  0  0  0  0
 11 12  1  0  0  0  0
 11 13  1  0  0  0  0
 11 14  1  0  0  0  0
 14 15  1  0  0  0  0
 14 16  2  0  0  0  0
 17 18  2  0  0  0  0
 17 19  1  0  0  0  0
 19 20  1  0  0  0  0
 19 21  1  0  0  0  0
 21 22  1  0  0  0  0
 21 23  1  0  0  0  0
 21 24  1  0  0  0  0
M  CHG  1  15  -1
M  END
$$$$

  -OEChem-03222214023D

 24 23  0     1  0  0  0  0  0999 V2000
   -2.8293   -3.6720    0.5858 H   0  0  0  0  0  0  0  0  0  0  0  0
   -2.7528   -2.6643    0.1679 C   0  0  0  0  0  0  0  0  0  0  0  0
   -3.3468   -1.9820    0.7811 H   0  0  0  0  0  0  0  0  0  0  0  0
   -3.1539   -2.6724   -0.8487 H   0  0  0  0  0  0  0  0  0  0  0  0
   -1.3031   -2.2130    0.1479 C   0  0  0  0  0  0  0  0  0  0  0  0
   -0.4334   -2.9714    0.5471 O   0  0  0  0  0  0  0  0  0  0  0  0
   -1.0045   -0.9457   -0.2981 N   0  0  0  0  0  0  0  0  0  0  0  0
   -1.7847   -0.3143   -0.4683 H   0  0  0  0  0  0  0  0  0  0  0  0
    0.3164   -0.3068   -0.2444 C   0  0  1  0  0  0  0  0  0  0  0  0
    0.9719   -0.8201    0.4673 H   0  0  0  0  0  0  0  0  0  0  0  0
    0.9688   -0.3486   -1.6402 C   0  0  0  0  0  0  0  0  0  0  0  0
    1.2837   -1.3711   -1.8628 H   0  0  0  0  0  0  0  0  0  0  0  0
    0.2267   -0.0569   -2.3882 H   0  0  0  0  0  0  0  0  0  0  0  0
    2.1737    0.5805   -1.8016 C   0  0  0  0  0  0  0  0  0  0  0  0
    2.5559    0.8065   -2.9737 O   0  5  0  0  0  0  0  0  0  0  0  0
    2.7849    0.9601   -0.7677 O   0  0  0  0  0  0  0  0  0  0  0  0
    0.0882    1.1396    0.2767 C   0  0  0  0  0  0  0  0  0  0  0  0
   -0.9926    1.6957    0.0642 O   0  0  0  0  0  0  0  0  0  0  0  0
    0.9253    1.6541    1.2465 N   0  0  0  0  0  0  0  0  0  0  0  0
    1.8937    1.3601    1.0800 H   0  0  0  0  0  0  0  0  0  0  0  0
    0.7363    2.9878    1.7956 C   0  0  0  0  0  0  0  0  0  0  0  0
   -0.2397    3.0679    2.2844 H   0  0  0  0  0  0  0  0  0  0  0  0
    1.5113    3.1983    2.5384 H   0  0  0  0  0  0  0  0  0  0  0  0
    0.7997    3.7398    1.0026 H   0  0  0  0  0  0  0  0  0  0  0  0
  1  2  1  0  0  0  0
  2  3  1  0  0  0  0
  2  4  1  0  0  0  0
  2  5  1  0  0  0  0
  5  6  2  0  0  0  0
  5  7  1  0  0  0  0
  7  8  1  0  0  0  0
  7  9  1  0  0  0  0
  9 10  1  0  0  0  0
  9 11  1  0  0  0  0
  9 17  1  0  0  0  0
 11 12  1  0  0  0  0
 11 13  1  0  0  0  0
 11 14  1  0  0  0  0
 14 15  1  0  0  0  0
 14 16  2  0  0  0  0
 17 18  2  0  0  0  0
 17 19  1  0  0  0  0
 19 20  1  0  0  0  0
 19 21  1  0  0  0  0
 21 22  1  0  0  0  0
 21 23  1  0  0  0  0
 21 24  1  0  0  0  0
M  CHG  1  15  -1
M  END
$$$$

  -OEChem-03222214023D

 24 23  0     1  0  0  0  0  0999 V2000
   -2.8305   -3.6832    0.5976 H   0  0  0  0  0  0  0  0  0  0  0  0
   -2.7573   -2.6789    0.1711 C   0  0  0  0  0  0  0  0  0  0  0  0
   -3.3508   -1.9931    0.7808 H   0  0  0  0  0  0  0  0  0  0  0  0
   -3.1617   -2.6962   -0.8439 H   0  0  0  0  0  0  0  0  0  0  0  0
   -1.3088   -2.2243    0.1420 C   0  0  0  0  0  0  0  0  0  0  0  0
   -0.4347   -2.9815    0.5336 O   0  0  0  0  0  0  0  0  0  0  0  0
   -1.0169   -0.9555   -0.3045 N   0  0  0  0  0  0  0  0  0  0  0  0
   -1.8005   -0.3283   -0.4731 H   0  0  0  0  0  0  0  0  0  0  0  0
    0.2999   -0.3088   -0.2534 C   0  0  1  0  0  0  0  0  0  0  0  0
    0.9522   -0.8219    0.4617 H   0  0  0  0  0  0  0  0  0  0  0  0
    0.9689   -0.3499   -1.6393 C   0  0  0  0  0  0  0  0  0  0  0  0
    1.3028   -1.3668   -1.8589 H   0  0  0  0  0  0  0  0  0  0  0  0
    0.2353   -0.0657   -2.3989 H   0  0  0  0  0  0  0  0  0  0  0  0
    2.1612    0.6005   -1.7551 C   0  0  0  0  0  0  0  0  0  0  0  0
    2.4074    1.0818   -2.8858 O   0  5  0  0  0  0  0  0  0  0  0  0
    2.8476    0.8165   -0.7205 O   0  0  0  0  0  0  0  0  0  0  0  0
    0.0850    1.1386    0.2659 C   0  0  0  0  0  0  0  0  0  0  0  0
   -0.9947    1.6995    0.0630 O   0  0  0  0  0  0  0  0  0  0  0  0
    0.9338    1.6457    1.2290 N   0  0  0  0  0  0  0  0  0  0  0  0
    1.8961    1.3242    1.0758 H   0  0  0  0  0  0  0  0  0  0  0  0
    0.7701    2.9869    1.7675 C   0  0  0  0  0  0  0  0  0  0  0  0
   -0.2026    3.0890    2.2589 H   0  0  0  0  0  0  0  0  0  0  0  0
    1.5512    3.1902    2.5057 H   0  0  0  0  0  0  0  0  0  0  0  0
    0.8440    3.7302    0.9672 H   0  0  0  0  0  0  0  0  0  0  0  0
  1  2  1  0  0  0  0
  2  3  1  0  0  0  0
  2  4  1  0  0  0  0
  2  5  1  0  0  0  0
  5  6  2  0  0  0  0
  5  7  1  0  0  0  0
  7  8  1  0  0  0  0
  7  9  1  0  0  0  0
  9 10  1  0  0  0  0
  9 11  1  0  0  0  0
  9 17  1  0  0  0  0
 11 12  1  0  0  0  0
 11 13  1  0  0  0  0
 11 14  1  0  0  0  0
 14 15  1  0  0  0  0
 14 16  2  0  0  0  0
 17 18  2  0  0  0  0
 17 19  1  0  0  0  0
 19 20  1  0  0  0  0
 19 21  1  0  0  0  0
 21 22  1  0  0  0  0
 21 23  1  0  0  0  0
 21 24  1  0  0  0  0
M  CHG  1  15  -1
M  END
$$$$

  -OEChem-03222214023D

 24 23  0     1  0  0  0  0  0999 V2000
   -2.8261   -3.7020    0.5853 H   0  0  0  0  0  0  0  0  0  0  0  0
   -2.7600   -2.6928    0.1694 C   0  0  0  0  0  0  0  0  0  0  0  0
   -3.3536   -2.0166    0.7896 H   0  0  0  0  0  0  0  0  0  0  0  0
   -3.1698   -2.7010   -0.8437 H   0  0  0  0  0  0  0  0  0  0  0  0
   -1.3137   -2.2309    0.1376 C   0  0  0  0  0  0  0  0  0  0  0  0
   -0.4352   -2.9847    0.5255 O   0  0  0  0  0  0  0  0  0  0  0  0
   -1.0295   -0.9610   -0.3109 N   0  0  0  0  0  0  0  0  0  0  0  0
   -1.8172   -0.3386   -0.4778 H   0  0  0  0  0  0  0  0  0  0  0  0
    0.2830   -0.3058   -0.2643 C   0  0  1  0  0  0  0  0  0  0  0  0
    0.9304   -0.8163    0.4573 H   0  0  0  0  0  0  0  0  0  0  0  0
    0.9703   -0.3567   -1.6393 C   0  0  0  0  0  0  0  0  0  0  0  0
    1.3233   -1.3700   -1.8445 H   0  0  0  0  0  0  0  0  0  0  0  0
    0.2479   -0.0878   -2.4152 H   0  0  0  0  0  0  0  0  0  0  0  0
    2.1484    0.6130   -1.7187 C   0  0  0  0  0  0  0  0  0  0  0  0
    2.2564    1.3195   -2.7480 O   0  5  0  0  0  0  0  0  0  0  0  0
    2.9012    0.6941   -0.7118 O   0  0  0  0  0  0  0  0  0  0  0  0
    0.0829    1.1434    0.2512 C   0  0  0  0  0  0  0  0  0  0  0  0
   -0.9987    1.7061    0.0666 O   0  0  0  0  0  0  0  0  0  0  0  0
    0.9463    1.6419    1.2061 N   0  0  0  0  0  0  0  0  0  0  0  0
    1.9027    1.3008    1.0593 H   0  0  0  0  0  0  0  0  0  0  0  0
    0.8027    2.9855    1.7445 C   0  0  0  0  0  0  0  0  0  0  0  0
   -0.1613    3.0959    2.2512 H   0  0  0  0  0  0  0  0  0  0  0  0
    1.5975    3.1841    2.4694 H   0  0  0  0  0  0  0  0  0  0  0  0
    0.8693    3.7271    0.9419 H   0  0  0  0  0  0  0  0  0  0  0  0
  1  2  1  0  0  0  0
  2  3  1  0  0  0  0
  2  4  1  0  0  0  0
  2  5  1  0  0  0  0
  5  6  2  0  0  0  0
  5  7  1  0  0  0  0
  7  8  1  0  0  0  0
  7  9  1  0  0  0  0
  9 10  1  0  0  0  0
  9 11  1  0  0  0  0
  9 17  1  0  0  0  0
 11 12  1  0  0  0  0
 11 13  1  0  0  0  0
 11 14  1  0  0  0  0
 14 15  1  0  0  0  0
 14 16  2  0  0  0  0
 17 18  2  0  0  0  0
 17 19  1  0  0  0  0
 19 20  1  0  0  0  0
 19 21  1  0  0  0  0
 21 22  1  0  0  0  0
 21 23  1  0  0  0  0
 21 24  1  0  0  0  0
M  CHG  1  15  -1
M  END
$$$$

  -OEChem-03222214023D

 24 23  0     1  0  0  0  0  0999 V2000
   -2.8201   -3.7131    0.5828 H   0  0  0  0  0  0  0  0  0  0  0  0
   -2.7610   -2.7023    0.1697 C   0  0  0  0  0  0  0  0  0  0  0  0
   -3.3520   -2.0301    0.7967 H   0  0  0  0  0  0  0  0  0  0  0  0
   -3.1786   -2.7087   -0.8400 H   0  0  0  0  0  0  0  0  0  0  0  0
   -1.3166   -2.2353    0.1280 C   0  0  0  0  0  0  0  0  0  0  0  0
   -0.4331   -2.9876    0.5073 O   0  0  0  0  0  0  0  0  0  0  0  0
   -1.0404   -0.9639   -0.3210 N   0  0  0  0  0  0  0  0  0  0  0  0
   -1.8321   -0.3451   -0.4817 H   0  0  0  0  0  0  0  0  0  0  0  0
    0.2681   -0.3003   -0.2789 C   0  0  1  0  0  0  0  0  0  0  0  0
    0.9112   -0.8078    0.4488 H   0  0  0  0  0  0  0  0  0  0  0  0
    0.9738   -0.3618   -1.6425 C   0  0  0  0  0  0  0  0  0  0  0  0
    1.3441   -1.3724   -1.8311 H   0  0  0  0  0  0  0  0  0  0  0  0
    0.2640   -0.1081   -2.4348 H   0  0  0  0  0  0  0  0  0  0  0  0
    2.1375    0.6253   -1.6915 C   0  0  0  0  0  0  0  0  0  0  0  0
    2.1085    1.5223   -2.5657 O   0  5  0  0  0  0  0  0  0  0  0  0
    2.9591    0.5824   -0.7385 O   0  0  0  0  0  0  0  0  0  0  0  0
    0.0790    1.1495    0.2354 C   0  0  0  0  0  0  0  0  0  0  0  0
   -1.0082    1.7091    0.0768 O   0  0  0  0  0  0  0  0  0  0  0  0
    0.9565    1.6378    1.1831 N   0  0  0  0  0  0  0  0  0  0  0  0
    1.9078    1.2832    1.0377 H   0  0  0  0  0  0  0  0  0  0  0  0
    0.8296    2.9811    1.7256 C   0  0  0  0  0  0  0  0  0  0  0  0
   -0.1259    3.0966    2.2467 H   0  0  0  0  0  0  0  0  0  0  0  0
    1.6363    3.1730    2.4390 H   0  0  0  0  0  0  0  0  0  0  0  0
    0.8894    3.7232    0.9230 H   0  0  0  0  0  0  0  0  0  0  0  0
  1  2  1  0  0  0  0
  2  3  1  0  0  0  0
  2  4  1  0  0  0  0
  2  5  1  0  0  0  0
  5  6  2  0  0  0  0
  5  7  1  0  0  0  0
  7  8  1  0  0  0  0
  7  9  1  0  0  0  0
  9 10  1  0  0  0  0
  9 11  1  0  0  0  0
  9 17  1  0  0  0  0
 11 12  1  0  0  0  0
 11 13  1  0  0  0  0
 11 14  1  0  0  0  0
 14 15  1  0  0  0  0
 14 16  2  0  0  0  0
 17 18  2  0  0  0  0
 17 19  1  0  0  0  0
 19 20  1  0  0  0  0
 19 21  1  0  0  0  0
 21 22  1  0  0  0  0
 21 23  1  0  0  0  0
 21 24  1  0  0  0  0
M  CHG  1  15  -1
M  END
$$$$

  -OEChem-03222214023D

 24 23  0     1  0  0  0  0  0999 V2000
   -2.8115   -3.7197    0.5803 H   0  0  0  0  0  0  0  0  0  0  0  0
   -2.7592   -2.7083    0.1678 C   0  0  0  0  0  0  0  0  0  0  0  0
   -3.3477   -2.0391    0.8004 H   0  0  0  0  0  0  0  0  0  0  0  0
   -3.1847   -2.7152   -0.8387 H   0  0  0  0  0  0  0  0  0  0  0  0
   -1.3168   -2.2363    0.1160 C   0  0  0  0  0  0  0  0  0  0  0  0
   -0.4282   -2.9882    0.4841 O   0  0  0  0  0  0  0  0  0  0  0  0
   -1.0478   -0.9623   -0.3306 N   0  0  0  0  0  0  0  0  0  0  0  0
   -1.8425   -0.3441   -0.4788 H   0  0  0  0  0  0  0  0  0  0  0  0
    0.2582   -0.2939   -0.2915 C   0  0  1  0  0  0  0  0  0  0  0  0
    0.8991   -0.8008    0.4384 H   0  0  0  0  0  0  0  0  0  0  0  0
    0.9732   -0.3644   -1.6489 C   0  0  0  0  0  0  0  0  0  0  0  0
    1.3529   -1.3737   -1.8258 H   0  0  0  0  0  0  0  0  0  0  0  0
    0.2716   -0.1199   -2.4511 H   0  0  0  0  0  0  0  0  0  0  0  0
    2.1265    0.6329   -1.6804 C   0  0  0  0  0  0  0  0  0  0  0  0
    1.9737    1.6812   -2.3489 O   0  5  0  0  0  0  0  0  0  0  0  0
    3.0355    0.4589   -0.8296 O   0  0  0  0  0  0  0  0  0  0  0  0
    0.0761    1.1551    0.2265 C   0  0  0  0  0  0  0  0  0  0  0  0
   -1.0172    1.7096    0.0926 O   0  0  0  0  0  0  0  0  0  0  0  0
    0.9634    1.6356    1.1700 N   0  0  0  0  0  0  0  0  0  0  0  0
    1.9103    1.2711    1.0309 H   0  0  0  0  0  0  0  0  0  0  0  0
    0.8474    2.9796    1.7136 C   0  0  0  0  0  0  0  0  0  0  0  0
   -0.1022    3.0996    2.2447 H   0  0  0  0  0  0  0  0  0  0  0  0
    1.6625    3.1686    2.4181 H   0  0  0  0  0  0  0  0  0  0  0  0
    0.9019    3.7212    0.9100 H   0  0  0  0  0  0  0  0  0  0  0  0
  1  2  1  0  0  0  0
  2  3  1  0  0  0  0
  2  4  1  0  0  0  0
  2  5  1  0  0  0  0
  5  6  2  0  0  0  0
  5  7  1  0  0  0  0
  7  8  1  0  0  0  0
  7  9  1  0  0  0  0
  9 10  1  0  0  0  0
  9 11  1  0  0  0  0
  9 17  1  0  0  0  0
 11 12  1  0  0  0  0
 11 13  1  0  0  0  0
 11 14  1  0  0  0  0
 14 15  1  0  0  0  0
 14 16  2  0  0  0  0
 17 18  2  0  0  0  0
 17 19  1  0  0  0  0
 19 20  1  0  0  0  0
 19 21  1  0  0  0  0
 21 22  1  0  0  0  0
 21 23  1  0  0  0  0
 21 24  1  0  0  0  0
M  CHG  1  15  -1
M  END
$$$$

  -OEChem-03222214023D

 24 23  0     1  0  0  0  0  0999 V2000
   -2.8101   -3.7127    0.5755 H   0  0  0  0  0  0  0  0  0  0  0  0
   -2.7551   -2.7005    0.1649 C   0  0  0  0  0  0  0  0  0  0  0  0
   -3.3429   -2.0309    0.7976 H   0  0  0  0  0  0  0  0  0  0  0  0
   -3.1793   -2.7043   -0.8422 H   0  0  0  0  0  0  0  0  0  0  0  0
   -1.3116   -2.2316    0.1151 C   0  0  0  0  0  0  0  0  0  0  0  0
   -0.4244   -2.9838    0.4859 O   0  0  0  0  0  0  0  0  0  0  0  0
   -1.0411   -0.9570   -0.3286 N   0  0  0  0  0  0  0  0  0  0  0  0
   -1.8352   -0.3367   -0.4720 H   0  0  0  0  0  0  0  0  0  0  0  0
    0.2660   -0.2903   -0.2918 C   0  0  1  0  0  0  0  0  0  0  0  0
    0.9121   -0.7979    0.4328 H   0  0  0  0  0  0  0  0  0  0  0  0
    0.9674   -0.3650   -1.6568 C   0  0  0  0  0  0  0  0  0  0  0  0
    1.3359   -1.3783   -1.8368 H   0  0  0  0  0  0  0  0  0  0  0  0
    0.2601   -0.1160   -2.4522 H   0  0  0  0  0  0  0  0  0  0  0  0
    2.1257    0.6241   -1.7113 C   0  0  0  0  0  0  0  0  0  0  0  0
    1.8889    1.7814   -2.1294 O   0  5  0  0  0  0  0  0  0  0  0  0
    3.1662    0.2939   -1.0928 O   0  0  0  0  0  0  0  0  0  0  0  0
    0.0761    1.1562    0.2322 C   0  0  0  0  0  0  0  0  0  0  0  0
   -1.0247    1.6997    0.1111 O   0  0  0  0  0  0  0  0  0  0  0  0
    0.9602    1.6407    1.1779 N   0  0  0  0  0  0  0  0  0  0  0  0
    1.9058    1.2726    1.0649 H   0  0  0  0  0  0  0  0  0  0  0  0
    0.8349    2.9838    1.7220 C   0  0  0  0  0  0  0  0  0  0  0  0
   -0.1124    3.0951    2.2590 H   0  0  0  0  0  0  0  0  0  0  0  0
    1.6525    3.1816    2.4213 H   0  0  0  0  0  0  0  0  0  0  0  0
    0.8771    3.7255    0.9176 H   0  0  0  0  0  0  0  0  0  0  0  0
  1  2  1  0  0  0  0
  2  3  1  0  0  0  0
  2  4  1  0  0  0  0
  2  5  1  0  0  0  0
  5  6  2  0  0  0  0
  5  7  1  0  0  0  0
  7  8  1  0  0  0  0
  7  9  1  0  0  0  0
  9 10  1  0  0  0  0
  9 11  1  0  0  0  0
  9 17  1  0  0  0  0
 11 12  1  0  0  0  0
 11 13  1  0  0  0  0
 11 14  1  0  0  0  0
 14 15  1  0  0  0  0
 14 16  2  0  0  0  0
 17 18  2  0  0  0  0
 17 19  1  0  0  0  0
 19 20  1  0  0  0  0
 19 21  1  0  0  0  0
 21 22  1  0  0  0  0
 21 23  1  0  0  0  0
 21 24  1  0  0  0  0
M  CHG  1  15  -1
M  END
$$$$

  -OEChem-03222214023D

 24 23  0     1  0  0  0  0  0999 V2000
   -2.8103   -3.6976    0.5642 H   0  0  0  0  0  0  0  0  0  0  0  0
   -2.7484   -2.6843    0.1579 C   0  0  0  0  0  0  0  0  0  0  0  0
   -3.3416   -2.0153    0.7864 H   0  0  0  0  0  0  0  0  0  0  0  0
   -3.1613   -2.6835   -0.8539 H   0  0  0  0  0  0  0  0  0  0  0  0
   -1.3036   -2.2184    0.1258 C   0  0  0  0  0  0  0  0  0  0  0  0
   -0.4224   -2.9685    0.5147 O   0  0  0  0  0  0  0  0  0  0  0  0
   -1.0246   -0.9450   -0.3152 N   0  0  0  0  0  0  0  0  0  0  0  0
   -1.8141   -0.3208   -0.4683 H   0  0  0  0  0  0  0  0  0  0  0  0
    0.2868   -0.2872   -0.2757 C   0  0  1  0  0  0  0  0  0  0  0  0
    0.9388   -0.7970    0.4418 H   0  0  0  0  0  0  0  0  0  0  0  0
    0.9611   -0.3673   -1.6569 C   0  0  0  0  0  0  0  0  0  0  0  0
    1.2998   -1.3901   -1.8430 H   0  0  0  0  0  0  0  0  0  0  0  0
    0.2370   -0.1080   -2.4337 H   0  0  0  0  0  0  0  0  0  0  0  0
    2.1401    0.5940   -1.7759 C   0  0  0  0  0  0  0  0  0  0  0  0
    1.9018    1.8159   -1.9215 O   0  5  0  0  0  0  0  0  0  0  0  0
    3.2779    0.1166   -1.5551 O   0  0  0  0  0  0  0  0  0  0  0  0
    0.0791    1.1566    0.2539 C   0  0  0  0  0  0  0  0  0  0  0  0
   -1.0265    1.6901    0.1271 O   0  0  0  0  0  0  0  0  0  0  0  0
    0.9480    1.6523    1.2088 N   0  0  0  0  0  0  0  0  0  0  0  0
    1.8980    1.2976    1.1141 H   0  0  0  0  0  0  0  0  0  0  0  0
    0.7955    2.9913    1.7572 C   0  0  0  0  0  0  0  0  0  0  0  0
   -0.1595    3.0854    2.2839 H   0  0  0  0  0  0  0  0  0  0  0  0
    1.6018    3.1989    2.4666 H   0  0  0  0  0  0  0  0  0  0  0  0
    0.8352    3.7371    0.9564 H   0  0  0  0  0  0  0  0  0  0  0  0
  1  2  1  0  0  0  0
  2  3  1  0  0  0  0
  2  4  1  0  0  0  0
  2  5  1  0  0  0  0
  5  6  2  0  0  0  0
  5  7  1  0  0  0  0
  7  8  1  0  0  0  0
  7  9  1  0  0  0  0
  9 10  1  0  0  0  0
  9 11  1  0  0  0  0
  9 17  1  0  0  0  0
 11 12  1  0  0  0  0
 11 13  1  0  0  0  0
 11 14  1  0  0  0  0
 14 15  1  0  0  0  0
 14 16  2  0  0  0  0
 17 18  2  0  0  0  0
 17 19  1  0  0  0  0
 19 20  1  0  0  0  0
 19 21  1  0  0  0  0
 21 22  1  0  0  0  0
 21 23  1  0  0  0  0
 21 24  1  0  0  0  0
M  CHG  1  15  -1
M  END
$$$$

  -OEChem-03222214023D

 24 23  0     1  0  0  0  0  0999 V2000
   -2.8140   -3.6676    0.5809 H   0  0  0  0  0  0  0  0  0  0  0  0
   -2.7447   -2.6597    0.1625 C   0  0  0  0  0  0  0  0  0  0  0  0
   -3.3342   -1.9794    0.7822 H   0  0  0  0  0  0  0  0  0  0  0  0
   -3.1565   -2.6683   -0.8496 H   0  0  0  0  0  0  0  0  0  0  0  0
   -1.2965   -2.2043    0.1265 C   0  0  0  0  0  0  0  0  0  0  0  0
   -0.4199   -2.9594    0.5165 O   0  0  0  0  0  0  0  0  0  0  0  0
   -1.0077   -0.9323   -0.3120 N   0  0  0  0  0  0  0  0  0  0  0  0
   -1.7919   -0.2990   -0.4565 H   0  0  0  0  0  0  0  0  0  0  0  0
    0.3097   -0.2857   -0.2655 C   0  0  1  0  0  0  0  0  0  0  0  0
    0.9609   -0.7967    0.4515 H   0  0  0  0  0  0  0  0  0  0  0  0
    0.9720   -0.3717   -1.6563 C   0  0  0  0  0  0  0  0  0  0  0  0
    1.2805   -1.4043   -1.8432 H   0  0  0  0  0  0  0  0  0  0  0  0
    0.2375   -0.1008   -2.4190 H   0  0  0  0  0  0  0  0  0  0  0  0
    2.1723    0.5589   -1.8350 C   0  0  0  0  0  0  0  0  0  0  0  0
    2.0102    1.7959   -1.7130 O   0  5  0  0  0  0  0  0  0  0  0  0
    3.2836    0.0085   -2.0178 O   0  0  0  0  0  0  0  0  0  0  0  0
    0.0827    1.1555    0.2686 C   0  0  0  0  0  0  0  0  0  0  0  0
   -1.0272    1.6792    0.1322 O   0  0  0  0  0  0  0  0  0  0  0  0
    0.9344    1.6591    1.2354 N   0  0  0  0  0  0  0  0  0  0  0  0
    1.8951    1.3424    1.1243 H   0  0  0  0  0  0  0  0  0  0  0  0
    0.7444    2.9869    1.7991 C   0  0  0  0  0  0  0  0  0  0  0  0
   -0.2127    3.0472    2.3270 H   0  0  0  0  0  0  0  0  0  0  0  0
    1.5447    3.2091    2.5109 H   0  0  0  0  0  0  0  0  0  0  0  0
    0.7622    3.7429    1.0073 H   0  0  0  0  0  0  0  0  0  0  0  0
  1  2  1  0  0  0  0
  2  3  1  0  0  0  0
  2  4  1  0  0  0  0
  2  5  1  0  0  0  0
  5  6  2  0  0  0  0
  5  7  1  0  0  0  0
  7  8  1  0  0  0  0
  7  9  1  0  0  0  0
  9 10  1  0  0  0  0
  9 11  1  0  0  0  0
  9 17  1  0  0  0  0
 11 12  1  0  0  0  0
 11 13  1  0  0  0  0
 11 14  1  0  0  0  0
 14 15  1  0  0  0  0
 14 16  2  0  0  0  0
 17 18  2  0  0  0  0
 17 19  1  0  0  0  0
 19 20  1  0  0  0  0
 19 21  1  0  0  0  0
 21 22  1  0  0  0  0
 21 23  1  0  0  0  0
 21 24  1  0  0  0  0
M  CHG  1  15  -1
M  END
$$$$

  -OEChem-03222214023D

 24 23  0     1  0  0  0  0  0999 V2000
   -2.8147   -3.6549    0.5688 H   0  0  0  0  0  0  0  0  0  0  0  0
   -2.7398   -2.6442    0.1578 C   0  0  0  0  0  0  0  0  0  0  0  0
   -3.3342   -1.9670    0.7762 H   0  0  0  0  0  0  0  0  0  0  0  0
   -3.1420   -2.6459   -0.8583 H   0  0  0  0  0  0  0  0  0  0  0  0
   -1.2906   -2.1911    0.1385 C   0  0  0  0  0  0  0  0  0  0  0  0
   -0.4195   -2.9474    0.5389 O   0  0  0  0  0  0  0  0  0  0  0  0
   -0.9932   -0.9216   -0.3015 N   0  0  0  0  0  0  0  0  0  0  0  0
   -1.7728   -0.2839   -0.4525 H   0  0  0  0  0  0  0  0  0  0  0  0
    0.3294   -0.2853   -0.2520 C   0  0  1  0  0  0  0  0  0  0  0  0
    0.9811   -0.7967    0.4640 H   0  0  0  0  0  0  0  0  0  0  0  0
    0.9776   -0.3774   -1.6517 C   0  0  0  0  0  0  0  0  0  0  0  0
    1.2634   -1.4168   -1.8369 H   0  0  0  0  0  0  0  0  0  0  0  0
    0.2331   -0.0986   -2.4017 H   0  0  0  0  0  0  0  0  0  0  0  0
    2.1934    0.5254   -1.8820 C   0  0  0  0  0  0  0  0  0  0  0  0
    2.1635    1.7226   -1.5105 O   0  5  0  0  0  0  0  0  0  0  0  0
    3.1845   -0.0166   -2.4258 O   0  0  0  0  0  0  0  0  0  0  0  0
    0.0886    1.1564    0.2819 C   0  0  0  0  0  0  0  0  0  0  0  0
   -1.0216    1.6770    0.1312 O   0  0  0  0  0  0  0  0  0  0  0  0
    0.9276    1.6673    1.2558 N   0  0  0  0  0  0  0  0  0  0  0  0
    1.8973    1.3936    1.1105 H   0  0  0  0  0  0  0  0  0  0  0  0
    0.7079    2.9840    1.8358 C   0  0  0  0  0  0  0  0  0  0  0  0
   -0.2593    3.0234    2.3469 H   0  0  0  0  0  0  0  0  0  0  0  0
    1.4916    3.2060    2.5659 H   0  0  0  0  0  0  0  0  0  0  0  0
    0.7297    3.7525    1.0563 H   0  0  0  0  0  0  0  0  0  0  0  0
  1  2  1  0  0  0  0
  2  3  1  0  0  0  0
  2  4  1  0  0  0  0
  2  5  1  0  0  0  0
  5  6  2  0  0  0  0
  5  7  1  0  0  0  0
  7  8  1  0  0  0  0
  7  9  1  0  0  0  0
  9 10  1  0  0  0  0
  9 11  1  0  0  0  0
  9 17  1  0  0  0  0
 11 12  1  0  0  0  0
 11 13  1  0  0  0  0
 11 14  1  0  0  0  0
 14 15  1  0  0  0  0
 14 16  2  0  0  0  0
 17 18  2  0  0  0  0
 17 19  1  0  0  0  0
 19 20  1  0  0  0  0
 19 21  1  0  0  0  0
 21 22  1  0  0  0  0
 21 23  1  0  0  0  0
 21 24  1  0  0  0  0
M  CHG  1  15  -1
M  END
$$$$

  -OEChem-03222214023D

 24 23  0     1  0  0  0  0  0999 V2000
   -2.8257   -3.6368    0.5742 H   0  0  0  0  0  0  0  0  0  0  0  0
   -2.7430   -2.6263    0.1647 C   0  0  0  0  0  0  0  0  0  0  0  0
   -3.3283   -1.9450    0.7872 H   0  0  0  0  0  0  0  0  0  0  0  0
   -3.1495   -2.6221   -0.8496 H   0  0  0  0  0  0  0  0  0  0  0  0
   -1.2897   -2.1863    0.1400 C   0  0  0  0  0  0  0  0  0  0  0  0
   -0.4237   -2.9498    0.5379 O   0  0  0  0  0  0  0  0  0  0  0  0
   -0.9822   -0.9194   -0.3011 N   0  0  0  0  0  0  0  0  0  0  0  0
   -1.7569   -0.2751   -0.4504 H   0  0  0  0  0  0  0  0  0  0  0  0
    0.3453   -0.2926   -0.2466 C   0  0  1  0  0  0  0  0  0  0  0  0
    0.9956   -0.8050    0.4699 H   0  0  0  0  0  0  0  0  0  0  0  0
    0.9892   -0.3770   -1.6501 C   0  0  0  0  0  0  0  0  0  0  0  0
    1.2657   -1.4179   -1.8409 H   0  0  0  0  0  0  0  0  0  0  0  0
    0.2411   -0.0885   -2.3930 H   0  0  0  0  0  0  0  0  0  0  0  0
    2.2152    0.5092   -1.8996 C   0  0  0  0  0  0  0  0  0  0  0  0
    2.3417    1.6036   -1.2992 O   0  5  0  0  0  0  0  0  0  0  0  0
    3.0461    0.0624   -2.7253 O   0  0  0  0  0  0  0  0  0  0  0  0
    0.0946    1.1496    0.2854 C   0  0  0  0  0  0  0  0  0  0  0  0
   -1.0134    1.6707    0.1187 O   0  0  0  0  0  0  0  0  0  0  0  0
    0.9226    1.6648    1.2657 N   0  0  0  0  0  0  0  0  0  0  0  0
    1.8984    1.4303    1.0841 H   0  0  0  0  0  0  0  0  0  0  0  0
    0.6786    2.9733    1.8539 C   0  0  0  0  0  0  0  0  0  0  0  0
   -0.2879    2.9901    2.3675 H   0  0  0  0  0  0  0  0  0  0  0  0
    1.4596    3.2063    2.5834 H   0  0  0  0  0  0  0  0  0  0  0  0
    0.6837    3.7468    1.0791 H   0  0  0  0  0  0  0  0  0  0  0  0
  1  2  1  0  0  0  0
  2  3  1  0  0  0  0
  2  4  1  0  0  0  0
  2  5  1  0  0  0  0
  5  6  2  0  0  0  0
  5  7  1  0  0  0  0
  7  8  1  0  0  0  0
  7  9  1  0  0  0  0
  9 10  1  0  0  0  0
  9 11  1  0  0  0  0
  9 17  1  0  0  0  0
 11 12  1  0  0  0  0
 11 13  1  0  0  0  0
 11 14  1  0  0  0  0
 14 15  1  0  0  0  0
 14 16  2  0  0  0  0
 17 18  2  0  0  0  0
 17 19  1  0  0  0  0
 19 20  1  0  0  0  0
 19 21  1  0  0  0  0
 21 22  1  0  0  0  0
 21 23  1  0  0  0  0
 21 24  1  0  0  0  0
M  CHG  1  15  -1
M  END
$$$$

  -OEChem-03222214023D

 24 23  0     1  0  0  0  0  0999 V2000
   -2.8341   -3.6300    0.5794 H   0  0  0  0  0  0  0  0  0  0  0  0
   -2.7458   -2.6210    0.1672 C   0  0  0  0  0  0  0  0  0  0  0  0
   -3.3302   -1.9352    0.7856 H   0  0  0  0  0  0  0  0  0  0  0  0
   -3.1492   -2.6183   -0.8484 H   0  0  0  0  0  0  0  0  0  0  0  0
   -1.2907   -2.1871    0.1458 C   0  0  0  0  0  0  0  0  0  0  0  0
   -0.4284   -2.9538    0.5457 O   0  0  0  0  0  0  0  0  0  0  0  0
   -0.9775   -0.9227   -0.2976 N   0  0  0  0  0  0  0  0  0  0  0  0
   -1.7494   -0.2758   -0.4502 H   0  0  0  0  0  0  0  0  0  0  0  0
    0.3522   -0.3014   -0.2418 C   0  0  1  0  0  0  0  0  0  0  0  0
    1.0051   -0.8145    0.4719 H   0  0  0  0  0  0  0  0  0  0  0  0
    0.9897   -0.3733   -1.6486 C   0  0  0  0  0  0  0  0  0  0  0  0
    1.2659   -1.4121   -1.8490 H   0  0  0  0  0  0  0  0  0  0  0  0
    0.2382   -0.0779   -2.3854 H   0  0  0  0  0  0  0  0  0  0  0  0
    2.2186    0.5090   -1.8981 C   0  0  0  0  0  0  0  0  0  0  0  0
    2.5052    1.4407   -1.1059 O   0  5  0  0  0  0  0  0  0  0  0  0
    2.8800    0.2333   -2.9269 O   0  0  0  0  0  0  0  0  0  0  0  0
    0.0987    1.1420    0.2869 C   0  0  0  0  0  0  0  0  0  0  0  0
   -1.0031    1.6700    0.1013 O   0  0  0  0  0  0  0  0  0  0  0  0
    0.9212    1.6606    1.2689 N   0  0  0  0  0  0  0  0  0  0  0  0
    1.8987    1.4370    1.0707 H   0  0  0  0  0  0  0  0  0  0  0  0
    0.6730    2.9692    1.8549 C   0  0  0  0  0  0  0  0  0  0  0  0
   -0.3000    2.9888    2.3559 H   0  0  0  0  0  0  0  0  0  0  0  0
    1.4455    3.1995    2.5945 H   0  0  0  0  0  0  0  0  0  0  0  0
    0.6899    3.7429    1.0805 H   0  0  0  0  0  0  0  0  0  0  0  0
  1  2  1  0  0  0  0
  2  3  1  0  0  0  0
  2  4  1  0  0  0  0
  2  5  1  0  0  0  0
  5  6  2  0  0  0  0
  5  7  1  0  0  0  0
  7  8  1  0  0  0  0
  7  9  1  0  0  0  0
  9 10  1  0  0  0  0
  9 11  1  0  0  0  0
  9 17  1  0  0  0  0
 11 12  1  0  0  0  0
 11 13  1  0  0  0  0
 11 14  1  0  0  0  0
 14 15  1  0  0  0  0
 14 16  2  0  0  0  0
 17 18  2  0  0  0  0
 17 19  1  0  0  0  0
 19 20  1  0  0  0  0
 19 21  1  0  0  0  0
 21 22  1  0  0  0  0
 21 23  1  0  0  0  0
 21 24  1  0  0  0  0
M  CHG  1  15  -1
M  END
$$$$

  -OEChem-03222214023D

 24 23  0     1  0  0  0  0  0999 V2000
   -2.8376   -3.6368    0.5851 H   0  0  0  0  0  0  0  0  0  0  0  0
   -2.7506   -2.6282    0.1715 C   0  0  0  0  0  0  0  0  0  0  0  0
   -3.3341   -1.9420    0.7903 H   0  0  0  0  0  0  0  0  0  0  0  0
   -3.1561   -2.6269   -0.8434 H   0  0  0  0  0  0  0  0  0  0  0  0
   -1.2954   -2.1945    0.1470 C   0  0  0  0  0  0  0  0  0  0  0  0
   -0.4329   -2.9630    0.5430 O   0  0  0  0  0  0  0  0  0  0  0  0
   -0.9819   -0.9305   -0.2981 N   0  0  0  0  0  0  0  0  0  0  0  0
   -1.7535   -0.2843   -0.4537 H   0  0  0  0  0  0  0  0  0  0  0  0
    0.3479   -0.3095   -0.2417 C   0  0  1  0  0  0  0  0  0  0  0  0
    1.0022   -0.8248    0.4693 H   0  0  0  0  0  0  0  0  0  0  0  0
    0.9848   -0.3659   -1.6478 C   0  0  0  0  0  0  0  0  0  0  0  0
    1.2698   -1.3997   -1.8590 H   0  0  0  0  0  0  0  0  0  0  0  0
    0.2339   -0.0658   -2.3837 H   0  0  0  0  0  0  0  0  0  0  0  0
    2.2107    0.5256   -1.8729 C   0  0  0  0  0  0  0  0  0  0  0  0
    2.6450    1.2454   -0.9373 O   0  5  0  0  0  0  0  0  0  0  0  0
    2.7168    0.4772   -3.0188 O   0  0  0  0  0  0  0  0  0  0  0  0
    0.1000    1.1356    0.2841 C   0  0  0  0  0  0  0  0  0  0  0  0
   -0.9935    1.6738    0.0827 O   0  0  0  0  0  0  0  0  0  0  0  0
    0.9224    1.6555    1.2645 N   0  0  0  0  0  0  0  0  0  0  0  0
    1.8989    1.4158    1.0708 H   0  0  0  0  0  0  0  0  0  0  0  0
    0.6869    2.9719    1.8381 C   0  0  0  0  0  0  0  0  0  0  0  0
   -0.2877    3.0067    2.3354 H   0  0  0  0  0  0  0  0  0  0  0  0
    1.4593    3.1998    2.5784 H   0  0  0  0  0  0  0  0  0  0  0  0
    0.7151    3.7386    1.0571 H   0  0  0  0  0  0  0  0  0  0  0  0
  1  2  1  0  0  0  0
  2  3  1  0  0  0  0
  2  4  1  0  0  0  0
  2  5  1  0  0  0  0
  5  6  2  0  0  0  0
  5  7  1  0  0  0  0
  7  8  1  0  0  0  0
  7  9  1  0  0  0  0
  9 10  1  0  0  0  0
  9 11  1  0  0  0  0
  9 17  1  0  0  0  0
 11 12  1  0  0  0  0
 11 13  1  0  0  0  0
 11 14  1  0  0  0  0
 14 15  1  0  0  0  0
 14 16  2  0  0  0  0
 17 18  2  0  0  0  0
 17 19  1  0  0  0  0
 19 20  1  0  0  0  0
 19 21  1  0  0  0  0
 21 22  1  0  0  0  0
 21 23  1  0  0  0  0
 21 24  1  0  0  0  0
M  CHG  1  15  -1
M  END
$$$$

  -OEChem-03222214023D

 24 23  0     1  0  0  0  0  0999 V2000
   -2.8349   -3.6580    0.5873 H   0  0  0  0  0  0  0  0  0  0  0  0
   -2.7531   -2.6498    0.1715 C   0  0  0  0  0  0  0  0  0  0  0  0
   -3.3404   -1.9654    0.7887 H   0  0  0  0  0  0  0  0  0  0  0  0
   -3.1581   -2.6529   -0.8434 H   0  0  0  0  0  0  0  0  0  0  0  0
   -1.3007   -2.2074    0.1467 C   0  0  0  0  0  0  0  0  0  0  0  0
   -0.4336   -2.9709    0.5418 O   0  0  0  0  0  0  0  0  0  0  0  0
   -0.9960   -0.9415   -0.2990 N   0  0  0  0  0  0  0  0  0  0  0  0
   -1.7722   -0.3031   -0.4625 H   0  0  0  0  0  0  0  0  0  0  0  0
    0.3292   -0.3116   -0.2444 C   0  0  1  0  0  0  0  0  0  0  0  0
    0.9848   -0.8265    0.4660 H   0  0  0  0  0  0  0  0  0  0  0  0
    0.9732   -0.3566   -1.6451 C   0  0  0  0  0  0  0  0  0  0  0  0
    1.2793   -1.3835   -1.8599 H   0  0  0  0  0  0  0  0  0  0  0  0
    0.2263   -0.0630   -2.3877 H   0  0  0  0  0  0  0  0  0  0  0  0
    2.1875    0.5576   -1.8280 C   0  0  0  0  0  0  0  0  0  0  0  0
    2.7502    1.0401   -0.8099 O   0  5  0  0  0  0  0  0  0  0  0  0
    2.5563    0.7674   -3.0075 O   0  0  0  0  0  0  0  0  0  0  0  0
    0.0947    1.1342    0.2793 C   0  0  0  0  0  0  0  0  0  0  0  0
   -0.9908    1.6843    0.0717 O   0  0  0  0  0  0  0  0  0  0  0  0
    0.9263    1.6502    1.2533 N   0  0  0  0  0  0  0  0  0  0  0  0
    1.8978    1.3739    1.0768 H   0  0  0  0  0  0  0  0  0  0  0  0
    0.7229    2.9801    1.8070 C   0  0  0  0  0  0  0  0  0  0  0  0
   -0.2532    3.0479    2.2978 H   0  0  0  0  0  0  0  0  0  0  0  0
    1.4969    3.1975    2.5487 H   0  0  0  0  0  0  0  0  0  0  0  0
    0.7759    3.7349    1.0158 H   0  0  0  0  0  0  0  0  0  0  0  0
  1  2  1  0  0  0  0
  2  3  1  0  0  0  0
  2  4  1  0  0  0  0
  2  5  1  0  0  0  0
  5  6  2  0  0  0  0
  5  7  1  0  0  0  0
  7  8  1  0  0  0  0
  7  9  1  0  0  0  0
  9 10  1  0  0  0  0
  9 11  1  0  0  0  0
  9 17  1  0  0  0  0
 11 12  1  0  0  0  0
 11 13  1  0  0  0  0
 11 14  1  0  0  0  0
 14 15  1  0  0  0  0
 14 16  2  0  0  0  0
 17 18  2  0  0  0  0
 17 19  1  0  0  0  0
 19 20  1  0  0  0  0
 19 21  1  0  0  0  0
 21 22  1  0  0  0  0
 21 23  1  0  0  0  0
 21 24  1  0  0  0  0
M  CHG  1  15  -1
M  END
$$$$

  -OEChem-03222214023D

 24 23  0     1  0  0  0  0  0999 V2000
   -2.8297   -3.6769    0.6030 H   0  0  0  0  0  0  0  0  0  0  0  0
   -2.7563   -2.6728    0.1762 C   0  0  0  0  0  0  0  0  0  0  0  0
   -3.3449   -1.9854    0.7889 H   0  0  0  0  0  0  0  0  0  0  0  0
   -3.1658   -2.6888   -0.8369 H   0  0  0  0  0  0  0  0  0  0  0  0
   -1.3068   -2.2217    0.1408 C   0  0  0  0  0  0  0  0  0  0  0  0
   -0.4328   -2.9806    0.5292 O   0  0  0  0  0  0  0  0  0  0  0  0
   -1.0143   -0.9533   -0.3061 N   0  0  0  0  0  0  0  0  0  0  0  0
   -1.7973   -0.3240   -0.4700 H   0  0  0  0  0  0  0  0  0  0  0  0
    0.3038   -0.3090   -0.2562 C   0  0  1  0  0  0  0  0  0  0  0  0
    0.9575   -0.8222    0.4575 H   0  0  0  0  0  0  0  0  0  0  0  0
    0.9674   -0.3493   -1.6452 C   0  0  0  0  0  0  0  0  0  0  0  0
    1.3017   -1.3682   -1.8551 H   0  0  0  0  0  0  0  0  0  0  0  0
    0.2318   -0.0685   -2.4042 H   0  0  0  0  0  0  0  0  0  0  0  0
    2.1625    0.5971   -1.7684 C   0  0  0  0  0  0  0  0  0  0  0  0
    2.8369    0.8406   -0.7321 O   0  5  0  0  0  0  0  0  0  0  0  0
    2.4056    1.0708   -2.9030 O   0  0  0  0  0  0  0  0  0  0  0  0
    0.0866    1.1379    0.2640 C   0  0  0  0  0  0  0  0  0  0  0  0
   -0.9957    1.6955    0.0654 O   0  0  0  0  0  0  0  0  0  0  0  0
    0.9343    1.6461    1.2276 N   0  0  0  0  0  0  0  0  0  0  0  0
    1.8984    1.3333    1.0683 H   0  0  0  0  0  0  0  0  0  0  0  0
    0.7623    2.9836    1.7729 C   0  0  0  0  0  0  0  0  0  0  0  0
   -0.2092    3.0743    2.2692 H   0  0  0  0  0  0  0  0  0  0  0  0
    1.5453    3.1902    2.5082 H   0  0  0  0  0  0  0  0  0  0  0  0
    0.8257    3.7318    0.9762 H   0  0  0  0  0  0  0  0  0  0  0  0
  1  2  1  0  0  0  0
  2  3  1  0  0  0  0
  2  4  1  0  0  0  0
  2  5  1  0  0  0  0
  5  6  2  0  0  0  0
  5  7  1  0  0  0  0
  7  8  1  0  0  0  0
  7  9  1  0  0  0  0
  9 10  1  0  0  0  0
  9 11  1  0  0  0  0
  9 17  1  0  0  0  0
 11 12  1  0  0  0  0
 11 13  1  0  0  0  0
 11 14  1  0  0  0  0
 14 15  1  0  0  0  0
 14 16  2  0  0  0  0
 17 18  2  0  0  0  0
 17 19  1  0  0  0  0
 19 20  1  0  0  0  0
 19 21  1  0  0  0  0
 21 22  1  0  0  0  0
 21 23  1  0  0  0  0
 21 24  1  0  0  0  0
M  CHG  1  15  -1
M  END
$$$$

  -OEChem-03222214023D

 24 23  0     1  0  0  0  0  0999 V2000
   -2.8184   -3.7131    0.5814 H   0  0  0  0  0  0  0  0  0  0  0  0
   -2.7574   -2.7029    0.1672 C   0  0  0  0  0  0  0  0  0  0  0  0
   -3.3564   -2.0311    0.7870 H   0  0  0  0  0  0  0  0  0  0  0  0
   -3.1644   -2.7117   -0.8469 H   0  0  0  0  0  0  0  0  0  0  0  0
   -1.3138   -2.2326    0.1396 C   0  0  0  0  0  0  0  0  0  0  0  0
   -0.4322   -2.9809    0.5308 O   0  0  0  0  0  0  0  0  0  0  0  0
   -1.0361   -0.9608   -0.3078 N   0  0  0  0  0  0  0  0  0  0  0  0
   -1.8273   -0.3447   -0.4807 H   0  0  0  0  0  0  0  0  0  0  0  0
    0.2729   -0.2983   -0.2653 C   0  0  1  0  0  0  0  0  0  0  0  0
    0.9224   -0.8079    0.4553 H   0  0  0  0  0  0  0  0  0  0  0  0
    0.9615   -0.3489   -1.6393 C   0  0  0  0  0  0  0  0  0  0  0  0
    1.3280   -1.3602   -1.8310 H   0  0  0  0  0  0  0  0  0  0  0  0
    0.2416   -0.0915   -2.4212 H   0  0  0  0  0  0  0  0  0  0  0  0
    2.1305    0.6316   -1.7084 C   0  0  0  0  0  0  0  0  0  0  0  0
    2.9154    0.6648   -0.7239 O   0  5  0  0  0  0  0  0  0  0  0  0
    2.2371    1.3482   -2.7308 O   0  0  0  0  0  0  0  0  0  0  0  0
    0.0761    1.1499    0.2517 C   0  0  0  0  0  0  0  0  0  0  0  0
   -1.0050    1.7143    0.0716 O   0  0  0  0  0  0  0  0  0  0  0  0
    0.9462    1.6461    1.2018 N   0  0  0  0  0  0  0  0  0  0  0  0
    1.9001    1.2972    1.0583 H   0  0  0  0  0  0  0  0  0  0  0  0
    0.8106    2.9907    1.7396 C   0  0  0  0  0  0  0  0  0  0  0  0
   -0.1523    3.1073    2.2470 H   0  0  0  0  0  0  0  0  0  0  0  0
    1.6069    3.1853    2.4639 H   0  0  0  0  0  0  0  0  0  0  0  0
    0.8809    3.7313    0.9363 H   0  0  0  0  0  0  0  0  0  0  0  0
  1  2  1  0  0  0  0
  2  3  1  0  0  0  0
  2  4  1  0  0  0  0
  2  5  1  0  0  0  0
  5  6  2  0  0  0  0
  5  7  1  0  0  0  0
  7  8  1  0  0  0  0
  7  9  1  0  0  0  0
  9 10  1  0  0  0  0
  9 11  1  0  0  0  0
  9 17  1  0  0  0  0
 11 12  1  0  0  0  0
 11 13  1  0  0  0  0
 11 14  1  0  0  0  0
 14 15  1  0  0  0  0
 14 16  2  0  0  0  0
 17 18  2  0  0  0  0
 17 19  1  0  0  0  0
 19 20  1  0  0  0  0
 19 21  1  0  0  0  0
 21 22  1  0  0  0  0
 21 23  1  0  0  0  0
 21 24  1  0  0  0  0
M  CHG  1  15  -1
M  END
$$$$

  -OEChem-03222214023D

 24 23  0     1  0  0  0  0  0999 V2000
   -2.8052   -3.7340    0.5711 H   0  0  0  0  0  0  0  0  0  0  0  0
   -2.7549   -2.7224    0.1588 C   0  0  0  0  0  0  0  0  0  0  0  0
   -3.3624   -2.0584    0.7786 H   0  0  0  0  0  0  0  0  0  0  0  0
   -3.1601   -2.7343   -0.8560 H   0  0  0  0  0  0  0  0  0  0  0  0
   -1.3167   -2.2363    0.1344 C   0  0  0  0  0  0  0  0  0  0  0  0
   -0.4282   -2.9766    0.5251 O   0  0  0  0  0  0  0  0  0  0  0  0
   -1.0520   -0.9613   -0.3123 N   0  0  0  0  0  0  0  0  0  0  0  0
   -1.8494   -0.3541   -0.4876 H   0  0  0  0  0  0  0  0  0  0  0  0
    0.2510   -0.2872   -0.2743 C   0  0  1  0  0  0  0  0  0  0  0  0
    0.8967   -0.7932    0.4521 H   0  0  0  0  0  0  0  0  0  0  0  0
    0.9584   -0.3519   -1.6360 C   0  0  0  0  0  0  0  0  0  0  0  0
    1.3438   -1.3594   -1.8113 H   0  0  0  0  0  0  0  0  0  0  0  0
    0.2522   -0.1109   -2.4354 H   0  0  0  0  0  0  0  0  0  0  0  0
    2.1071    0.6507   -1.6691 C   0  0  0  0  0  0  0  0  0  0  0  0
    3.0130    0.5037   -0.8094 O   0  5  0  0  0  0  0  0  0  0  0  0
    2.0715    1.5690   -2.5205 O   0  0  0  0  0  0  0  0  0  0  0  0
    0.0678    1.1611    0.2428 C   0  0  0  0  0  0  0  0  0  0  0  0
   -1.0146    1.7279    0.0832 O   0  0  0  0  0  0  0  0  0  0  0  0
    0.9539    1.6466    1.1846 N   0  0  0  0  0  0  0  0  0  0  0  0
    1.8983    1.2693    1.0633 H   0  0  0  0  0  0  0  0  0  0  0  0
    0.8434    2.9950    1.7187 C   0  0  0  0  0  0  0  0  0  0  0  0
   -0.1153    3.1295    2.2294 H   0  0  0  0  0  0  0  0  0  0  0  0
    1.6458    3.1783    2.4393 H   0  0  0  0  0  0  0  0  0  0  0  0
    0.9233    3.7315    0.9126 H   0  0  0  0  0  0  0  0  0  0  0  0
  1  2  1  0  0  0  0
  2  3  1  0  0  0  0
  2  4  1  0  0  0  0
  2  5  1  0  0  0  0
  5  6  2  0  0  0  0
  5  7  1  0  0  0  0
  7  8  1  0  0  0  0
  7  9  1  0  0  0  0
  9 10  1  0  0  0  0
  9 11  1  0  0  0  0
  9 17  1  0  0  0  0
 11 12  1  0  0  0  0
 11 13  1  0  0  0  0
 11 14  1  0  0  0  0
 14 15  1  0  0  0  0
 14 16  2  0  0  0  0
 17 18  2  0  0  0  0
 17 19  1  0  0  0  0
 19 20  1  0  0  0  0
 19 21  1  0  0  0  0
 21 22  1  0  0  0  0
 21 23  1  0  0  0  0
 21 24  1  0  0  0  0
M  CHG  1  15  -1
M  END
$$$$

  -OEChem-03222214023D

 24 23  0     1  0  0  0  0  0999 V2000
   -2.8073   -3.7283    0.5601 H   0  0  0  0  0  0  0  0  0  0  0  0
   -2.7536   -2.7140    0.1550 C   0  0  0  0  0  0  0  0  0  0  0  0
   -3.3581   -2.0524    0.7802 H   0  0  0  0  0  0  0  0  0  0  0  0
   -3.1596   -2.7172   -0.8595 H   0  0  0  0  0  0  0  0  0  0  0  0
   -1.3138   -2.2322    0.1334 C   0  0  0  0  0  0  0  0  0  0  0  0
   -0.4284   -2.9718    0.5326 O   0  0  0  0  0  0  0  0  0  0  0  0
   -1.0448   -0.9587   -0.3144 N   0  0  0  0  0  0  0  0  0  0  0  0
   -1.8398   -0.3496   -0.4939 H   0  0  0  0  0  0  0  0  0  0  0  0
    0.2591   -0.2868   -0.2758 C   0  0  1  0  0  0  0  0  0  0  0  0
    0.9061   -0.7916    0.4499 H   0  0  0  0  0  0  0  0  0  0  0  0
    0.9600   -0.3591   -1.6398 C   0  0  0  0  0  0  0  0  0  0  0  0
    1.3394   -1.3691   -1.8157 H   0  0  0  0  0  0  0  0  0  0  0  0
    0.2533   -0.1166   -2.4383 H   0  0  0  0  0  0  0  0  0  0  0  0
    2.1102    0.6392   -1.6793 C   0  0  0  0  0  0  0  0  0  0  0  0
    3.1450    0.3383   -1.0361 O   0  5  0  0  0  0  0  0  0  0  0  0
    1.9437    1.7128   -2.3031 O   0  0  0  0  0  0  0  0  0  0  0  0
    0.0715    1.1621    0.2398 C   0  0  0  0  0  0  0  0  0  0  0  0
   -1.0185    1.7186    0.0939 O   0  0  0  0  0  0  0  0  0  0  0  0
    0.9541    1.6511    1.1843 N   0  0  0  0  0  0  0  0  0  0  0  0
    1.8958    1.2659    1.0953 H   0  0  0  0  0  0  0  0  0  0  0  0
    0.8345    2.9971    1.7227 C   0  0  0  0  0  0  0  0  0  0  0  0
   -0.1160    3.1171    2.2522 H   0  0  0  0  0  0  0  0  0  0  0  0
    1.6482    3.1911    2.4278 H   0  0  0  0  0  0  0  0  0  0  0  0
    0.8882    3.7360    0.9165 H   0  0  0  0  0  0  0  0  0  0  0  0
  1  2  1  0  0  0  0
  2  3  1  0  0  0  0
  2  4  1  0  0  0  0
  2  5  1  0  0  0  0
  5  6  2  0  0  0  0
  5  7  1  0  0  0  0
  7  8  1  0  0  0  0
  7  9  1  0  0  0  0
  9 10  1  0  0  0  0
  9 11  1  0  0  0  0
  9 17  1  0  0  0  0
 11 12  1  0  0  0  0
 11 13  1  0  0  0  0
 11 14  1  0  0  0  0
 14 15  1  0  0  0  0
 14 16  2  0  0  0  0
 17 18  2  0  0  0  0
 17 19  1  0  0  0  0
 19 20  1  0  0  0  0
 19 21  1  0  0  0  0
 21 22  1  0  0  0  0
 21 23  1  0  0  0  0
 21 24  1  0  0  0  0
M  CHG  1  15  -1
M  END
$$$$

  -OEChem-03222214023D

 24 23  0     1  0  0  0  0  0999 V2000
   -2.8129   -3.7138    0.5624 H   0  0  0  0  0  0  0  0  0  0  0  0
   -2.7513   -2.7025    0.1508 C   0  0  0  0  0  0  0  0  0  0  0  0
   -3.3570   -2.0332    0.7670 H   0  0  0  0  0  0  0  0  0  0  0  0
   -3.1504   -2.7106   -0.8666 H   0  0  0  0  0  0  0  0  0  0  0  0
   -1.3089   -2.2276    0.1352 C   0  0  0  0  0  0  0  0  0  0  0  0
   -0.4277   -2.9714    0.5363 O   0  0  0  0  0  0  0  0  0  0  0  0
   -1.0321   -0.9545   -0.3084 N   0  0  0  0  0  0  0  0  0  0  0  0
   -1.8234   -0.3385   -0.4823 H   0  0  0  0  0  0  0  0  0  0  0  0
    0.2757   -0.2899   -0.2678 C   0  0  1  0  0  0  0  0  0  0  0  0
    0.9275   -0.7982    0.4511 H   0  0  0  0  0  0  0  0  0  0  0  0
    0.9581   -0.3598   -1.6431 C   0  0  0  0  0  0  0  0  0  0  0  0
    1.3175   -1.3753   -1.8300 H   0  0  0  0  0  0  0  0  0  0  0  0
    0.2416   -0.1058   -2.4290 H   0  0  0  0  0  0  0  0  0  0  0  0
    2.1224    0.6209   -1.7170 C   0  0  0  0  0  0  0  0  0  0  0  0
    3.2473    0.1982   -1.3595 O   0  5  0  0  0  0  0  0  0  0  0  0
    1.8869    1.7952   -2.0859 O   0  0  0  0  0  0  0  0  0  0  0  0
    0.0761    1.1567    0.2549 C   0  0  0  0  0  0  0  0  0  0  0  0
   -1.0215    1.7011    0.1148 O   0  0  0  0  0  0  0  0  0  0  0  0
    0.9481    1.6533    1.2064 N   0  0  0  0  0  0  0  0  0  0  0  0
    1.8913    1.2742    1.1346 H   0  0  0  0  0  0  0  0  0  0  0  0
    0.8147    3.0016    1.7370 C   0  0  0  0  0  0  0  0  0  0  0  0
   -0.1455    3.1218    2.2486 H   0  0  0  0  0  0  0  0  0  0  0  0
    1.6147    3.2015    2.4557 H   0  0  0  0  0  0  0  0  0  0  0  0
    0.8809    3.7364    0.9279 H   0  0  0  0  0  0  0  0  0  0  0  0
  1  2  1  0  0  0  0
  2  3  1  0  0  0  0
  2  4  1  0  0  0  0
  2  5  1  0  0  0  0
  5  6  2  0  0  0  0
  5  7  1  0  0  0  0
  7  8  1  0  0  0  0
  7  9  1  0  0  0  0
  9 10  1  0  0  0  0
  9 11  1  0  0  0  0
  9 17  1  0  0  0  0
 11 12  1  0  0  0  0
 11 13  1  0  0  0  0
 11 14  1  0  0  0  0
 14 15  1  0  0  0  0
 14 16  2  0  0  0  0
 17 18  2  0  0  0  0
 17 19  1  0  0  0  0
 19 20  1  0  0  0  0
 19 21  1  0  0  0  0
 21 22  1  0  0  0  0
 21 23  1  0  0  0  0
 21 24  1  0  0  0  0
M  CHG  1  15  -1
M  END
$$$$

  -OEChem-03222214023D

 24 23  0     1  0  0  0  0  0999 V2000
   -2.8100   -3.6947    0.5620 H   0  0  0  0  0  0  0  0  0  0  0  0
   -2.7474   -2.6825    0.1530 C   0  0  0  0  0  0  0  0  0  0  0  0
   -3.3476   -2.0130    0.7743 H   0  0  0  0  0  0  0  0  0  0  0  0
   -3.1521   -2.6865   -0.8620 H   0  0  0  0  0  0  0  0  0  0  0  0
   -1.3031   -2.2140    0.1321 C   0  0  0  0  0  0  0  0  0  0  0  0
   -0.4245   -2.9610    0.5329 O   0  0  0  0  0  0  0  0  0  0  0  0
   -1.0196   -0.9416   -0.3093 N   0  0  0  0  0  0  0  0  0  0  0  0
   -1.8066   -0.3177   -0.4760 H   0  0  0  0  0  0  0  0  0  0  0  0
    0.2932   -0.2867   -0.2624 C   0  0  1  0  0  0  0  0  0  0  0  0
    0.9432   -0.7964    0.4566 H   0  0  0  0  0  0  0  0  0  0  0  0
    0.9655   -0.3675   -1.6450 C   0  0  0  0  0  0  0  0  0  0  0  0
    1.2989   -1.3925   -1.8291 H   0  0  0  0  0  0  0  0  0  0  0  0
    0.2420   -0.1077   -2.4224 H   0  0  0  0  0  0  0  0  0  0  0  0
    2.1496    0.5870   -1.7721 C   0  0  0  0  0  0  0  0  0  0  0  0
    3.2952    0.0808   -1.7220 O   0  5  0  0  0  0  0  0  0  0  0  0
    1.9209    1.8132   -1.8941 O   0  0  0  0  0  0  0  0  0  0  0  0
    0.0800    1.1580    0.2645 C   0  0  0  0  0  0  0  0  0  0  0  0
   -1.0239    1.6917    0.1252 O   0  0  0  0  0  0  0  0  0  0  0  0
    0.9391    1.6594    1.2260 N   0  0  0  0  0  0  0  0  0  0  0  0
    1.8896    1.3038    1.1493 H   0  0  0  0  0  0  0  0  0  0  0  0
    0.7773    2.9991    1.7707 C   0  0  0  0  0  0  0  0  0  0  0  0
   -0.1795    3.0892    2.2948 H   0  0  0  0  0  0  0  0  0  0  0  0
    1.5803    3.2132    2.4820 H   0  0  0  0  0  0  0  0  0  0  0  0
    0.8148    3.7431    0.9681 H   0  0  0  0  0  0  0  0  0  0  0  0
  1  2  1  0  0  0  0
  2  3  1  0  0  0  0
  2  4  1  0  0  0  0
  2  5  1  0  0  0  0
  5  6  2  0  0  0  0
  5  7  1  0  0  0  0
  7  8  1  0  0  0  0
  7  9  1  0  0  0  0
  9 10  1  0  0  0  0
  9 11  1  0  0  0  0
  9 17  1  0  0  0  0
 11 12  1  0  0  0  0
 11 13  1  0  0  0  0
 11 14  1  0  0  0  0
 14 15  1  0  0  0  0
 14 16  2  0  0  0  0
 17 18  2  0  0  0  0
 17 19  1  0  0  0  0
 19 20  1  0  0  0  0
 19 21  1  0  0  0  0
 21 22  1  0  0  0  0
 21 23  1  0  0  0  0
 21 24  1  0  0  0  0
M  CHG  1  15  -1
M  END
$$$$

  -OEChem-03222214023D

 24 23  0     1  0  0  0  0  0999 V2000
   -2.8136   -3.6698    0.5680 H   0  0  0  0  0  0  0  0  0  0  0  0
   -2.7426   -2.6592    0.1563 C   0  0  0  0  0  0  0  0  0  0  0  0
   -3.3373   -1.9833    0.7758 H   0  0  0  0  0  0  0  0  0  0  0  0
   -3.1469   -2.6625   -0.8589 H   0  0  0  0  0  0  0  0  0  0  0  0
   -1.2950   -2.2013    0.1336 C   0  0  0  0  0  0  0  0  0  0  0  0
   -0.4204   -2.9544    0.5321 O   0  0  0  0  0  0  0  0  0  0  0  0
   -1.0043   -0.9301   -0.3060 N   0  0  0  0  0  0  0  0  0  0  0  0
   -1.7876   -0.2978   -0.4597 H   0  0  0  0  0  0  0  0  0  0  0  0
    0.3134   -0.2847   -0.2565 C   0  0  1  0  0  0  0  0  0  0  0  0
    0.9637   -0.7947    0.4619 H   0  0  0  0  0  0  0  0  0  0  0  0
    0.9741   -0.3734   -1.6480 C   0  0  0  0  0  0  0  0  0  0  0  0
    1.2822   -1.4071   -1.8291 H   0  0  0  0  0  0  0  0  0  0  0  0
    0.2407   -0.1098   -2.4143 H   0  0  0  0  0  0  0  0  0  0  0  0
    2.1771    0.5525   -1.8349 C   0  0  0  0  0  0  0  0  0  0  0  0
    3.2705    0.0005   -2.1020 O   0  5  0  0  0  0  0  0  0  0  0  0
    2.0292    1.7884   -1.6858 O   0  0  0  0  0  0  0  0  0  0  0  0
    0.0831    1.1577    0.2751 C   0  0  0  0  0  0  0  0  0  0  0  0
   -1.0267    1.6806    0.1336 O   0  0  0  0  0  0  0  0  0  0  0  0
    0.9302    1.6644    1.2445 N   0  0  0  0  0  0  0  0  0  0  0  0
    1.8922    1.3515    1.1349 H   0  0  0  0  0  0  0  0  0  0  0  0
    0.7348    2.9919    1.8079 C   0  0  0  0  0  0  0  0  0  0  0  0
   -0.2256    3.0515    2.3298 H   0  0  0  0  0  0  0  0  0  0  0  0
    1.5305    3.2139    2.5250 H   0  0  0  0  0  0  0  0  0  0  0  0
    0.7572    3.7484    1.0166 H   0  0  0  0  0  0  0  0  0  0  0  0
  1  2  1  0  0  0  0
  2  3  1  0  0  0  0
  2  4  1  0  0  0  0
  2  5  1  0  0  0  0
  5  6  2  0  0  0  0
  5  7  1  0  0  0  0
  7  8  1  0  0  0  0
  7  9  1  0  0  0  0
  9 10  1  0  0  0  0
  9 11  1  0  0  0  0
  9 17  1  0  0  0  0
 11 12  1  0  0  0  0
 11 13  1  0  0  0  0
 11 14  1  0  0  0  0
 14 15  1  0  0  0  0
 14 16  2  0  0  0  0
 17 18  2  0  0  0  0
 17 19  1  0  0  0  0
 19 20  1  0  0  0  0
 19 21  1  0  0  0  0
 21 22  1  0  0  0  0
 21 23  1  0  0  0  0
 21 24  1  0  0  0  0
M  CHG  1  15  -1
M  END
$$$$

  -OEChem-03222214023D

 24 23  0     1  0  0  0  0  0999 V2000
   -2.8152   -3.6539    0.5673 H   0  0  0  0  0  0  0  0  0  0  0  0
   -2.7393   -2.6422    0.1592 C   0  0  0  0  0  0  0  0  0  0  0  0
   -3.3318   -1.9660    0.7806 H   0  0  0  0  0  0  0  0  0  0  0  0
   -3.1428   -2.6405   -0.8564 H   0  0  0  0  0  0  0  0  0  0  0  0
   -1.2893   -2.1907    0.1392 C   0  0  0  0  0  0  0  0  0  0  0  0
   -0.4191   -2.9481    0.5392 O   0  0  0  0  0  0  0  0  0  0  0  0
   -0.9901   -0.9211   -0.2999 N   0  0  0  0  0  0  0  0  0  0  0  0
   -1.7691   -0.2819   -0.4481 H   0  0  0  0  0  0  0  0  0  0  0  0
    0.3331   -0.2854   -0.2495 C   0  0  1  0  0  0  0  0  0  0  0  0
    0.9861   -0.7963    0.4655 H   0  0  0  0  0  0  0  0  0  0  0  0
    0.9789   -0.3719   -1.6515 C   0  0  0  0  0  0  0  0  0  0  0  0
    1.2674   -1.4113   -1.8329 H   0  0  0  0  0  0  0  0  0  0  0  0
    0.2344   -0.1023   -2.4048 H   0  0  0  0  0  0  0  0  0  0  0  0
    2.1967    0.5274   -1.8922 C   0  0  0  0  0  0  0  0  0  0  0  0
    3.1705   -0.0148   -2.4663 O   0  5  0  0  0  0  0  0  0  0  0  0
    2.2110    1.6988   -1.4446 O   0  0  0  0  0  0  0  0  0  0  0  0
    0.0865    1.1550    0.2854 C   0  0  0  0  0  0  0  0  0  0  0  0
   -1.0233    1.6749    0.1289 O   0  0  0  0  0  0  0  0  0  0  0  0
    0.9218    1.6677    1.2612 N   0  0  0  0  0  0  0  0  0  0  0  0
    1.8932    1.4031    1.1068 H   0  0  0  0  0  0  0  0  0  0  0  0
    0.6971    2.9844    1.8387 C   0  0  0  0  0  0  0  0  0  0  0  0
   -0.2717    3.0231    2.3468 H   0  0  0  0  0  0  0  0  0  0  0  0
    1.4783    3.2091    2.5708 H   0  0  0  0  0  0  0  0  0  0  0  0
    0.7197    3.7514    1.0577 H   0  0  0  0  0  0  0  0  0  0  0  0
  1  2  1  0  0  0  0
  2  3  1  0  0  0  0
  2  4  1  0  0  0  0
  2  5  1  0  0  0  0
  5  6  2  0  0  0  0
  5  7  1  0  0  0  0
  7  8  1  0  0  0  0
  7  9  1  0  0  0  0
  9 10  1  0  0  0  0
  9 11  1  0  0  0  0
  9 17  1  0  0  0  0
 11 12  1  0  0  0  0
 11 13  1  0  0  0  0
 11 14  1  0  0  0  0
 14 15  1  0  0  0  0
 14 16  2  0  0  0  0
 17 18  2  0  0  0  0
 17 19  1  0  0  0  0
 19 20  1  0  0  0  0
 19 21  1  0  0  0  0
 21 22  1  0  0  0  0
 21 23  1  0  0  0  0
 21 24  1  0  0  0  0
M  CHG  1  15  -1
M  END
$$$$

  -OEChem-03222214023D

 24 23  0     1  0  0  0  0  0999 V2000
   -2.8200   -3.6374    0.5784 H   0  0  0  0  0  0  0  0  0  0  0  0
   -2.7388   -2.6270    0.1678 C   0  0  0  0  0  0  0  0  0  0  0  0
   -3.3254   -1.9460    0.7893 H   0  0  0  0  0  0  0  0  0  0  0  0
   -3.1454   -2.6245   -0.8466 H   0  0  0  0  0  0  0  0  0  0  0  0
   -1.2862   -2.1853    0.1427 C   0  0  0  0  0  0  0  0  0  0  0  0
   -0.4197   -2.9482    0.5402 O   0  0  0  0  0  0  0  0  0  0  0  0
   -0.9805   -0.9184   -0.2992 N   0  0  0  0  0  0  0  0  0  0  0  0
   -1.7559   -0.2743   -0.4453 H   0  0  0  0  0  0  0  0  0  0  0  0
    0.3469   -0.2915   -0.2473 C   0  0  1  0  0  0  0  0  0  0  0  0
    1.0030   -0.8036    0.4642 H   0  0  0  0  0  0  0  0  0  0  0  0
    0.9819   -0.3647   -1.6555 C   0  0  0  0  0  0  0  0  0  0  0  0
    1.2611   -1.4044   -1.8486 H   0  0  0  0  0  0  0  0  0  0  0  0
    0.2309   -0.0829   -2.3978 H   0  0  0  0  0  0  0  0  0  0  0  0
    2.2075    0.5213   -1.9138 C   0  0  0  0  0  0  0  0  0  0  0  0
    3.0258    0.0719   -2.7507 O   0  5  0  0  0  0  0  0  0  0  0  0
    2.4250    1.5262   -1.1934 O   0  0  0  0  0  0  0  0  0  0  0  0
    0.0906    1.1494    0.2856 C   0  0  0  0  0  0  0  0  0  0  0  0
   -1.0143    1.6735    0.1070 O   0  0  0  0  0  0  0  0  0  0  0  0
    0.9163    1.6676    1.2654 N   0  0  0  0  0  0  0  0  0  0  0  0
    1.8931    1.4400    1.0733 H   0  0  0  0  0  0  0  0  0  0  0  0
    0.6686    2.9750    1.8542 C   0  0  0  0  0  0  0  0  0  0  0  0
   -0.3024    2.9920    2.3593 H   0  0  0  0  0  0  0  0  0  0  0  0
    1.4436    3.2054    2.5908 H   0  0  0  0  0  0  0  0  0  0  0  0
    0.6812    3.7500    1.0811 H   0  0  0  0  0  0  0  0  0  0  0  0
  1  2  1  0  0  0  0
  2  3  1  0  0  0  0
  2  4  1  0  0  0  0
  2  5  1  0  0  0  0
  5  6  2  0  0  0  0
  5  7  1  0  0  0  0
  7  8  1  0  0  0  0
  7  9  1  0  0  0  0
  9 10  1  0  0  0  0
  9 11  1  0  0  0  0
  9 17  1  0  0  0  0
 11 12  1  0  0  0  0
 11 13  1  0  0  0  0
 11 14  1  0  0  0  0
 14 15  1  0  0  0  0
 14 16  2  0  0  0  0
 17 18  2  0  0  0  0
 17 19  1  0  0  0  0
 19 20  1  0  0  0  0
 19 21  1  0  0  0  0
 21 22  1  0  0  0  0
 21 23  1  0  0  0  0
 21 24  1  0  0  0  0
M  CHG  1  15  -1
M  END
$$$$

  -OEChem-03222214023D

 24 23  0     1  0  0  0  0  0999 V2000
   -2.8269   -3.6385    0.5849 H   0  0  0  0  0  0  0  0  0  0  0  0
   -2.7434   -2.6295    0.1716 C   0  0  0  0  0  0  0  0  0  0  0  0
   -3.3282   -1.9453    0.7914 H   0  0  0  0  0  0  0  0  0  0  0  0
   -3.1497   -2.6290   -0.8428 H   0  0  0  0  0  0  0  0  0  0  0  0
   -1.2899   -2.1911    0.1447 C   0  0  0  0  0  0  0  0  0  0  0  0
   -0.4248   -2.9562    0.5411 O   0  0  0  0  0  0  0  0  0  0  0  0
   -0.9817   -0.9252   -0.2985 N   0  0  0  0  0  0  0  0  0  0  0  0
   -1.7562   -0.2820   -0.4520 H   0  0  0  0  0  0  0  0  0  0  0  0
    0.3461   -0.2992   -0.2444 C   0  0  1  0  0  0  0  0  0  0  0  0
    1.0038   -0.8125    0.4650 H   0  0  0  0  0  0  0  0  0  0  0  0
    0.9802   -0.3549   -1.6527 C   0  0  0  0  0  0  0  0  0  0  0  0
    1.2654   -1.3894   -1.8617 H   0  0  0  0  0  0  0  0  0  0  0  0
    0.2279   -0.0643   -2.3906 H   0  0  0  0  0  0  0  0  0  0  0  0
    2.2039    0.5376   -1.8922 C   0  0  0  0  0  0  0  0  0  0  0  0
    2.8694    0.2706   -2.9206 O   0  5  0  0  0  0  0  0  0  0  0  0
    2.5917    1.3224   -0.9899 O   0  0  0  0  0  0  0  0  0  0  0  0
    0.0915    1.1429    0.2852 C   0  0  0  0  0  0  0  0  0  0  0  0
   -1.0043    1.6773    0.0859 O   0  0  0  0  0  0  0  0  0  0  0  0
    0.9138    1.6638    1.2651 N   0  0  0  0  0  0  0  0  0  0  0  0
    1.8909    1.4305    1.0686 H   0  0  0  0  0  0  0  0  0  0  0  0
    0.6724    2.9762    1.8448 C   0  0  0  0  0  0  0  0  0  0  0  0
   -0.2995    3.0023    2.3477 H   0  0  0  0  0  0  0  0  0  0  0  0
    1.4473    3.2065    2.5816 H   0  0  0  0  0  0  0  0  0  0  0  0
    0.6907    3.7462    1.0668 H   0  0  0  0  0  0  0  0  0  0  0  0
  1  2  1  0  0  0  0
  2  3  1  0  0  0  0
  2  4  1  0  0  0  0
  2  5  1  0  0  0  0
  5  6  2  0  0  0  0
  5  7  1  0  0  0  0
  7  8  1  0  0  0  0
  7  9  1  0  0  0  0
  9 10  1  0  0  0  0
  9 11  1  0  0  0  0
  9 17  1  0  0  0  0
 11 12  1  0  0  0  0
 11 13  1  0  0  0  0
 11 14  1  0  0  0  0
 14 15  1  0  0  0  0
 14 16  2  0  0  0  0
 17 18  2  0  0  0  0
 17 19  1  0  0  0  0
 19 20  1  0  0  0  0
 19 21  1  0  0  0  0
 21 22  1  0  0  0  0
 21 23  1  0  0  0  0
 21 24  1  0  0  0  0
M  CHG  1  15  -1
M  END
$$$$
