
  -OEChem-03222214023D

 24 23  0     1  0  0  0  0  0999 V2000
   -2.5200   -3.4323   -0.2454 H   0  0  0  0  0  0  0  0  0  0  0  0
   -2.4039   -2.4203   -0.6438 C   0  0  0  0  0  0  0  0  0  0  0  0
   -3.0789   -1.7509   -0.1050 H   0  0  0  0  0  0  0  0  0  0  0  0
   -2.6743   -2.4266   -1.7025 H   0  0  0  0  0  0  0  0  0  0  0  0
   -0.9685   -1.9531   -0.4770 C   0  0  0  0  0  0  0  0  0  0  0  0
   -0.1557   -2.7048    0.0285 O   0  0  0  0  0  0  0  0  0  0  0  0
   -0.6194   -0.6998   -0.9342 N   0  0  0  0  0  0  0  0  0  0  0  0
   -1.3423   -0.1647   -1.3999 H   0  0  0  0  0  0  0  0  0  0  0  0
    0.7071   -0.0696   -0.8115 C   0  0  1  0  0  0  0  0  0  0  0  0
    1.4717   -0.6390   -1.3510 H   0  0  0  0  0  0  0  0  0  0  0  0
    0.4463    1.2827   -1.5155 C   0  0  0  0  0  0  0  0  0  0  0  0
    0.1220    1.0882   -2.5417 H   0  0  0  0  0  0  0  0  0  0  0  0
   -0.3653    1.8060   -1.0025 H   0  0  0  0  0  0  0  0  0  0  0  0
    1.6158    2.2570   -1.6027 C   0  0  0  0  0  0  0  0  0  0  0  0
    1.3570    3.3404   -2.1804 O   0  5  0  0  0  0  0  0  0  0  0  0
    2.7431    1.9298   -1.1747 O   0  0  0  0  0  0  0  0  0  0  0  0
    1.1672    0.1021    0.6636 C   0  0  0  0  0  0  0  0  0  0  0  0
    2.2011   -0.4062    1.0836 O   0  0  0  0  0  0  0  0  0  0  0  0
    0.2628    0.5956    1.5919 N   0  0  0  0  0  0  0  0  0  0  0  0
   -0.5455    1.0730    1.2128 H   0  0  0  0  0  0  0  0  0  0  0  0
    0.5842    0.7644    3.0007 C   0  0  0  0  0  0  0  0  0  0  0  0
    1.4443    1.4317    3.1184 H   0  0  0  0  0  0  0  0  0  0  0  0
   -0.2682    1.1988    3.5308 H   0  0  0  0  0  0  0  0  0  0  0  0
    0.8193   -0.2023    3.4575 H   0  0  0  0  0  0  0  0  0  0  0  0
  1  2  1  0  0  0  0
  2  3  1  0  0  0  0
  2  4  1  0  0  0  0
  2  5  1  0  0  0  0
  5  6  2  0  0  0  0
  5  7  1  0  0  0  0
  7  8  1  0  0  0  0
  7  9  1  0  0  0  0
  9 10  1  0  0  0  0
  9 11  1  0  0  0  0
  9 17  1  0  0  0  0
 11 12  1  0  0  0  0
 11 13  1  0  0  0  0
 11 14  1  0  0  0  0
 14 15  1  0  0  0  0
 14 16  2  0  0  0  0
 17 18  2  0  0  0  0
 17 19  1  0  0  0  0
 19 20  1  0  0  0  0
 19 21  1  0  0  0  0
 21 22  1  0  0  0  0
 21 23  1  0  0  0  0
 21 24  1  0  0  0  0
M  CHG  1  15  -1
M  END
$$$$

  -OEChem-03222214023D

 24 23  0     1  0  0  0  0  0999 V2000
   -2.5231   -3.4527   -0.2737 H   0  0  0  0  0  0  0  0  0  0  0  0
   -2.4104   -2.4397   -0.6705 C   0  0  0  0  0  0  0  0  0  0  0  0
   -3.1110   -1.7800   -0.1529 H   0  0  0  0  0  0  0  0  0  0  0  0
   -2.6497   -2.4511   -1.7365 H   0  0  0  0  0  0  0  0  0  0  0  0
   -0.9871   -1.9514   -0.4634 C   0  0  0  0  0  0  0  0  0  0  0  0
   -0.1829   -2.6838    0.0826 O   0  0  0  0  0  0  0  0  0  0  0  0
   -0.6394   -0.6993   -0.9246 N   0  0  0  0  0  0  0  0  0  0  0  0
   -1.3495   -0.1857   -1.4323 H   0  0  0  0  0  0  0  0  0  0  0  0
    0.6885   -0.0706   -0.8106 C   0  0  1  0  0  0  0  0  0  0  0  0
    1.4468   -0.6414   -1.3579 H   0  0  0  0  0  0  0  0  0  0  0  0
    0.4336    1.2883   -1.4997 C   0  0  0  0  0  0  0  0  0  0  0  0
    0.1019    1.1140   -2.5269 H   0  0  0  0  0  0  0  0  0  0  0  0
   -0.3687    1.8142   -0.9740 H   0  0  0  0  0  0  0  0  0  0  0  0
    1.6248    2.2360   -1.5730 C   0  0  0  0  0  0  0  0  0  0  0  0
    1.3441    3.4257   -1.8573 O   0  5  0  0  0  0  0  0  0  0  0  0
    2.7848    1.7803   -1.4716 O   0  0  0  0  0  0  0  0  0  0  0  0
    1.1641    0.1057    0.6582 C   0  0  0  0  0  0  0  0  0  0  0  0
    2.2267   -0.3544    1.0602 O   0  0  0  0  0  0  0  0  0  0  0  0
    0.2722    0.6025    1.5960 N   0  0  0  0  0  0  0  0  0  0  0  0
   -0.5657    1.0367    1.2288 H   0  0  0  0  0  0  0  0  0  0  0  0
    0.6105    0.7902    2.9985 C   0  0  0  0  0  0  0  0  0  0  0  0
    1.4646    1.4678    3.0980 H   0  0  0  0  0  0  0  0  0  0  0  0
   -0.2394    1.2209    3.5355 H   0  0  0  0  0  0  0  0  0  0  0  0
    0.8623   -0.1689    3.4623 H   0  0  0  0  0  0  0  0  0  0  0  0
  1  2  1  0  0  0  0
  2  3  1  0  0  0  0
  2  4  1  0  0  0  0
  2  5  1  0  0  0  0
  5  6  2  0  0  0  0
  5  7  1  0  0  0  0
  7  8  1  0  0  0  0
  7  9  1  0  0  0  0
  9 10  1  0  0  0  0
  9 11  1  0  0  0  0
  9 17  1  0  0  0  0
 11 12  1  0  0  0  0
 11 13  1  0  0  0  0
 11 14  1  0  0  0  0
 14 15  1  0  0  0  0
 14 16  2  0  0  0  0
 17 18  2  0  0  0  0
 17 19  1  0  0  0  0
 19 20  1  0  0  0  0
 19 21  1  0  0  0  0
 21 22  1  0  0  0  0
 21 23  1  0  0  0  0
 21 24  1  0  0  0  0
M  CHG  1  15  -1
M  END
$$$$

  -OEChem-03222214023D

 24 23  0     1  0  0  0  0  0999 V2000
   -2.5249   -3.4738   -0.3018 H   0  0  0  0  0  0  0  0  0  0  0  0
   -2.4168   -2.4588   -0.6947 C   0  0  0  0  0  0  0  0  0  0  0  0
   -3.1306   -1.8067   -0.1856 H   0  0  0  0  0  0  0  0  0  0  0  0
   -2.6414   -2.4704   -1.7641 H   0  0  0  0  0  0  0  0  0  0  0  0
   -1.0017   -1.9570   -0.4665 C   0  0  0  0  0  0  0  0  0  0  0  0
   -0.1998   -2.6784    0.0978 O   0  0  0  0  0  0  0  0  0  0  0  0
   -0.6588   -0.7021   -0.9235 N   0  0  0  0  0  0  0  0  0  0  0  0
   -1.3623   -0.1993   -1.4509 H   0  0  0  0  0  0  0  0  0  0  0  0
    0.6682   -0.0728   -0.8096 C   0  0  1  0  0  0  0  0  0  0  0  0
    1.4234   -0.6427   -1.3625 H   0  0  0  0  0  0  0  0  0  0  0  0
    0.4221    1.2919   -1.4849 C   0  0  0  0  0  0  0  0  0  0  0  0
    0.0929    1.1361   -2.5156 H   0  0  0  0  0  0  0  0  0  0  0  0
   -0.3765    1.8199   -0.9554 H   0  0  0  0  0  0  0  0  0  0  0  0
    1.6360    2.2104   -1.5345 C   0  0  0  0  0  0  0  0  0  0  0  0
    1.3905    3.4411   -1.5089 O   0  5  0  0  0  0  0  0  0  0  0  0
    2.7628    1.7078   -1.7441 O   0  0  0  0  0  0  0  0  0  0  0  0
    1.1528    0.1000    0.6559 C   0  0  0  0  0  0  0  0  0  0  0  0
    2.2422   -0.3128    1.0360 O   0  0  0  0  0  0  0  0  0  0  0  0
    0.2690    0.5922    1.6032 N   0  0  0  0  0  0  0  0  0  0  0  0
   -0.5791    1.0132    1.2436 H   0  0  0  0  0  0  0  0  0  0  0  0
    0.6370    0.8217    2.9920 C   0  0  0  0  0  0  0  0  0  0  0  0
    1.4723    1.5268    3.0543 H   0  0  0  0  0  0  0  0  0  0  0  0
   -0.2117    1.2393    3.5412 H   0  0  0  0  0  0  0  0  0  0  0  0
    0.9294   -0.1188    3.4700 H   0  0  0  0  0  0  0  0  0  0  0  0
  1  2  1  0  0  0  0
  2  3  1  0  0  0  0
  2  4  1  0  0  0  0
  2  5  1  0  0  0  0
  5  6  2  0  0  0  0
  5  7  1  0  0  0  0
  7  8  1  0  0  0  0
  7  9  1  0  0  0  0
  9 10  1  0  0  0  0
  9 11  1  0  0  0  0
  9 17  1  0  0  0  0
 11 12  1  0  0  0  0
 11 13  1  0  0  0  0
 11 14  1  0  0  0  0
 14 15  1  0  0  0  0
 14 16  2  0  0  0  0
 17 18  2  0  0  0  0
 17 19  1  0  0  0  0
 19 20  1  0  0  0  0
 19 21  1  0  0  0  0
 21 22  1  0  0  0  0
 21 23  1  0  0  0  0
 21 24  1  0  0  0  0
M  CHG  1  15  -1
M  END
$$$$

  -OEChem-03222214023D

 24 23  0     1  0  0  0  0  0999 V2000
   -2.5234   -3.4892   -0.3161 H   0  0  0  0  0  0  0  0  0  0  0  0
   -2.4205   -2.4721   -0.7054 C   0  0  0  0  0  0  0  0  0  0  0  0
   -3.1352   -1.8246   -0.1915 H   0  0  0  0  0  0  0  0  0  0  0  0
   -2.6482   -2.4804   -1.7741 H   0  0  0  0  0  0  0  0  0  0  0  0
   -1.0069   -1.9655   -0.4798 C   0  0  0  0  0  0  0  0  0  0  0  0
   -0.1995   -2.6858    0.0778 O   0  0  0  0  0  0  0  0  0  0  0  0
   -0.6709   -0.7064   -0.9298 N   0  0  0  0  0  0  0  0  0  0  0  0
   -1.3779   -0.2020   -1.4507 H   0  0  0  0  0  0  0  0  0  0  0  0
    0.6529   -0.0731   -0.8103 C   0  0  1  0  0  0  0  0  0  0  0  0
    1.4088   -0.6408   -1.3648 H   0  0  0  0  0  0  0  0  0  0  0  0
    0.4144    1.2937   -1.4789 C   0  0  0  0  0  0  0  0  0  0  0  0
    0.0953    1.1473   -2.5141 H   0  0  0  0  0  0  0  0  0  0  0  0
   -0.3861    1.8240   -0.9548 H   0  0  0  0  0  0  0  0  0  0  0  0
    1.6448    2.1890   -1.5034 C   0  0  0  0  0  0  0  0  0  0  0  0
    1.4668    3.3885   -1.1797 O   0  5  0  0  0  0  0  0  0  0  0  0
    2.7048    1.7205   -1.9781 O   0  0  0  0  0  0  0  0  0  0  0  0
    1.1401    0.0952    0.6541 C   0  0  0  0  0  0  0  0  0  0  0  0
    2.2459   -0.2880    1.0171 O   0  0  0  0  0  0  0  0  0  0  0  0
    0.2598    0.5790    1.6084 N   0  0  0  0  0  0  0  0  0  0  0  0
   -0.5856    1.0073    1.2508 H   0  0  0  0  0  0  0  0  0  0  0  0
    0.6533    0.8460    2.9834 C   0  0  0  0  0  0  0  0  0  0  0  0
    1.4706    1.5740    3.0120 H   0  0  0  0  0  0  0  0  0  0  0  0
   -0.1934    1.2516    3.5444 H   0  0  0  0  0  0  0  0  0  0  0  0
    0.9822   -0.0764    3.4726 H   0  0  0  0  0  0  0  0  0  0  0  0
  1  2  1  0  0  0  0
  2  3  1  0  0  0  0
  2  4  1  0  0  0  0
  2  5  1  0  0  0  0
  5  6  2  0  0  0  0
  5  7  1  0  0  0  0
  7  8  1  0  0  0  0
  7  9  1  0  0  0  0
  9 10  1  0  0  0  0
  9 11  1  0  0  0  0
  9 17  1  0  0  0  0
 11 12  1  0  0  0  0
 11 13  1  0  0  0  0
 11 14  1  0  0  0  0
 14 15  1  0  0  0  0
 14 16  2  0  0  0  0
 17 18  2  0  0  0  0
 17 19  1  0  0  0  0
 19 20  1  0  0  0  0
 19 21  1  0  0  0  0
 21 22  1  0  0  0  0
 21 23  1  0  0  0  0
 21 24  1  0  0  0  0
M  CHG  1  15  -1
M  END
$$$$

  -OEChem-03222214023D

 24 23  0     1  0  0  0  0  0999 V2000
   -2.5245   -3.4977   -0.3267 H   0  0  0  0  0  0  0  0  0  0  0  0
   -2.4236   -2.4792   -0.7123 C   0  0  0  0  0  0  0  0  0  0  0  0
   -3.1367   -1.8345   -0.1929 H   0  0  0  0  0  0  0  0  0  0  0  0
   -2.6553   -2.4831   -1.7801 H   0  0  0  0  0  0  0  0  0  0  0  0
   -1.0097   -1.9721   -0.4901 C   0  0  0  0  0  0  0  0  0  0  0  0
   -0.1981   -2.6937    0.0599 O   0  0  0  0  0  0  0  0  0  0  0  0
   -0.6778   -0.7100   -0.9344 N   0  0  0  0  0  0  0  0  0  0  0  0
   -1.3908   -0.2000   -1.4415 H   0  0  0  0  0  0  0  0  0  0  0  0
    0.6426   -0.0715   -0.8085 C   0  0  1  0  0  0  0  0  0  0  0  0
    1.4004   -0.6379   -1.3614 H   0  0  0  0  0  0  0  0  0  0  0  0
    0.4085    1.2918   -1.4822 C   0  0  0  0  0  0  0  0  0  0  0  0
    0.1014    1.1428   -2.5207 H   0  0  0  0  0  0  0  0  0  0  0  0
   -0.3969    1.8263   -0.9697 H   0  0  0  0  0  0  0  0  0  0  0  0
    1.6472    2.1740   -1.4895 C   0  0  0  0  0  0  0  0  0  0  0  0
    1.5542    3.2789   -0.9018 O   0  5  0  0  0  0  0  0  0  0  0  0
    2.6233    1.8029   -2.1820 O   0  0  0  0  0  0  0  0  0  0  0  0
    1.1326    0.0976    0.6542 C   0  0  0  0  0  0  0  0  0  0  0  0
    2.2444   -0.2797    1.0057 O   0  0  0  0  0  0  0  0  0  0  0  0
    0.2549    0.5762    1.6132 N   0  0  0  0  0  0  0  0  0  0  0  0
   -0.5747    1.0327    1.2533 H   0  0  0  0  0  0  0  0  0  0  0  0
    0.6642    0.8577    2.9807 C   0  0  0  0  0  0  0  0  0  0  0  0
    1.4516    1.6184    2.9942 H   0  0  0  0  0  0  0  0  0  0  0  0
   -0.1878    1.2273    3.5585 H   0  0  0  0  0  0  0  0  0  0  0  0
    1.0395   -0.0509    3.4625 H   0  0  0  0  0  0  0  0  0  0  0  0
  1  2  1  0  0  0  0
  2  3  1  0  0  0  0
  2  4  1  0  0  0  0
  2  5  1  0  0  0  0
  5  6  2  0  0  0  0
  5  7  1  0  0  0  0
  7  8  1  0  0  0  0
  7  9  1  0  0  0  0
  9 10  1  0  0  0  0
  9 11  1  0  0  0  0
  9 17  1  0  0  0  0
 11 12  1  0  0  0  0
 11 13  1  0  0  0  0
 11 14  1  0  0  0  0
 14 15  1  0  0  0  0
 14 16  2  0  0  0  0
 17 18  2  0  0  0  0
 17 19  1  0  0  0  0
 19 20  1  0  0  0  0
 19 21  1  0  0  0  0
 21 22  1  0  0  0  0
 21 23  1  0  0  0  0
 21 24  1  0  0  0  0
M  CHG  1  15  -1
M  END
$$$$

  -OEChem-03222214023D

 24 23  0     1  0  0  0  0  0999 V2000
   -2.5194   -3.5023   -0.3307 H   0  0  0  0  0  0  0  0  0  0  0  0
   -2.4230   -2.4808   -0.7094 C   0  0  0  0  0  0  0  0  0  0  0  0
   -3.1291   -1.8400   -0.1756 H   0  0  0  0  0  0  0  0  0  0  0  0
   -2.6686   -2.4757   -1.7742 H   0  0  0  0  0  0  0  0  0  0  0  0
   -1.0060   -1.9761   -0.5016 C   0  0  0  0  0  0  0  0  0  0  0  0
   -0.1870   -2.7029    0.0307 O   0  0  0  0  0  0  0  0  0  0  0  0
   -0.6789   -0.7111   -0.9407 N   0  0  0  0  0  0  0  0  0  0  0  0
   -1.3995   -0.1933   -1.4289 H   0  0  0  0  0  0  0  0  0  0  0  0
    0.6381   -0.0679   -0.8068 C   0  0  1  0  0  0  0  0  0  0  0  0
    1.3986   -0.6352   -1.3553 H   0  0  0  0  0  0  0  0  0  0  0  0
    0.4076    1.2896   -1.4918 C   0  0  0  0  0  0  0  0  0  0  0  0
    0.1081    1.1331   -2.5319 H   0  0  0  0  0  0  0  0  0  0  0  0
   -0.4011    1.8291   -0.9901 H   0  0  0  0  0  0  0  0  0  0  0  0
    1.6472    2.1696   -1.4888 C   0  0  0  0  0  0  0  0  0  0  0  0
    1.6556    3.1295   -0.6808 O   0  5  0  0  0  0  0  0  0  0  0  0
    2.5199    1.9486   -2.3611 O   0  0  0  0  0  0  0  0  0  0  0  0
    1.1258    0.1007    0.6567 C   0  0  0  0  0  0  0  0  0  0  0  0
    2.2338   -0.2912    1.0053 O   0  0  0  0  0  0  0  0  0  0  0  0
    0.2469    0.5739    1.6172 N   0  0  0  0  0  0  0  0  0  0  0  0
   -0.5649    1.0583    1.2534 H   0  0  0  0  0  0  0  0  0  0  0  0
    0.6657    0.8600    2.9807 C   0  0  0  0  0  0  0  0  0  0  0  0
    1.4416    1.6326    2.9867 H   0  0  0  0  0  0  0  0  0  0  0  0
   -0.1858    1.2161    3.5676 H   0  0  0  0  0  0  0  0  0  0  0  0
    1.0599   -0.0430    3.4581 H   0  0  0  0  0  0  0  0  0  0  0  0
  1  2  1  0  0  0  0
  2  3  1  0  0  0  0
  2  4  1  0  0  0  0
  2  5  1  0  0  0  0
  5  6  2  0  0  0  0
  5  7  1  0  0  0  0
  7  8  1  0  0  0  0
  7  9  1  0  0  0  0
  9 10  1  0  0  0  0
  9 11  1  0  0  0  0
  9 17  1  0  0  0  0
 11 12  1  0  0  0  0
 11 13  1  0  0  0  0
 11 14  1  0  0  0  0
 14 15  1  0  0  0  0
 14 16  2  0  0  0  0
 17 18  2  0  0  0  0
 17 19  1  0  0  0  0
 19 20  1  0  0  0  0
 19 21  1  0  0  0  0
 21 22  1  0  0  0  0
 21 23  1  0  0  0  0
 21 24  1  0  0  0  0
M  CHG  1  15  -1
M  END
$$$$

  -OEChem-03222214023D

 24 23  0     1  0  0  0  0  0999 V2000
   -2.5120   -3.5019   -0.3240 H   0  0  0  0  0  0  0  0  0  0  0  0
   -2.4197   -2.4783   -0.6984 C   0  0  0  0  0  0  0  0  0  0  0  0
   -3.1150   -1.8391   -0.1486 H   0  0  0  0  0  0  0  0  0  0  0  0
   -2.6836   -2.4666   -1.7587 H   0  0  0  0  0  0  0  0  0  0  0  0
   -0.9977   -1.9783   -0.5119 C   0  0  0  0  0  0  0  0  0  0  0  0
   -0.1699   -2.7144   -0.0066 O   0  0  0  0  0  0  0  0  0  0  0  0
   -0.6736   -0.7111   -0.9472 N   0  0  0  0  0  0  0  0  0  0  0  0
   -1.4055   -0.1801   -1.4030 H   0  0  0  0  0  0  0  0  0  0  0  0
    0.6402   -0.0630   -0.8040 C   0  0  1  0  0  0  0  0  0  0  0  0
    1.4047   -0.6334   -1.3436 H   0  0  0  0  0  0  0  0  0  0  0  0
    0.4116    1.2863   -1.5082 C   0  0  0  0  0  0  0  0  0  0  0  0
    0.1207    1.1126   -2.5481 H   0  0  0  0  0  0  0  0  0  0  0  0
   -0.4028    1.8295   -1.0204 H   0  0  0  0  0  0  0  0  0  0  0  0
    1.6427    2.1784   -1.5046 C   0  0  0  0  0  0  0  0  0  0  0  0
    1.7698    2.9613   -0.5329 O   0  5  0  0  0  0  0  0  0  0  0  0
    2.3890    2.1458   -2.5116 O   0  0  0  0  0  0  0  0  0  0  0  0
    1.1225    0.1075    0.6612 C   0  0  0  0  0  0  0  0  0  0  0  0
    2.2167   -0.3178    1.0164 O   0  0  0  0  0  0  0  0  0  0  0  0
    0.2394    0.5777    1.6192 N   0  0  0  0  0  0  0  0  0  0  0  0
   -0.5439    1.1025    1.2492 H   0  0  0  0  0  0  0  0  0  0  0  0
    0.6577    0.8486    2.9860 C   0  0  0  0  0  0  0  0  0  0  0  0
    1.4348    1.6198    3.0005 H   0  0  0  0  0  0  0  0  0  0  0  0
   -0.1938    1.1998    3.5758 H   0  0  0  0  0  0  0  0  0  0  0  0
    1.0502   -0.0597    3.4545 H   0  0  0  0  0  0  0  0  0  0  0  0
  1  2  1  0  0  0  0
  2  3  1  0  0  0  0
  2  4  1  0  0  0  0
  2  5  1  0  0  0  0
  5  6  2  0  0  0  0
  5  7  1  0  0  0  0
  7  8  1  0  0  0  0
  7  9  1  0  0  0  0
  9 10  1  0  0  0  0
  9 11  1  0  0  0  0
  9 17  1  0  0  0  0
 11 12  1  0  0  0  0
 11 13  1  0  0  0  0
 11 14  1  0  0  0  0
 14 15  1  0  0  0  0
 14 16  2  0  0  0  0
 17 18  2  0  0  0  0
 17 19  1  0  0  0  0
 19 20  1  0  0  0  0
 19 21  1  0  0  0  0
 21 22  1  0  0  0  0
 21 23  1  0  0  0  0
 21 24  1  0  0  0  0
M  CHG  1  15  -1
M  END
$$$$

  -OEChem-03222214023D

 24 23  0     1  0  0  0  0  0999 V2000
   -2.5034   -3.4854   -0.3002 H   0  0  0  0  0  0  0  0  0  0  0  0
   -2.4094   -2.4618   -0.6741 C   0  0  0  0  0  0  0  0  0  0  0  0
   -3.0853   -1.8168   -0.1073 H   0  0  0  0  0  0  0  0  0  0  0  0
   -2.6969   -2.4446   -1.7283 H   0  0  0  0  0  0  0  0  0  0  0  0
   -0.9789   -1.9767   -0.5178 C   0  0  0  0  0  0  0  0  0  0  0  0
   -0.1451   -2.7257   -0.0423 O   0  0  0  0  0  0  0  0  0  0  0  0
   -0.6553   -0.7088   -0.9515 N   0  0  0  0  0  0  0  0  0  0  0  0
   -1.3985   -0.1631   -1.3699 H   0  0  0  0  0  0  0  0  0  0  0  0
    0.6563   -0.0574   -0.8026 C   0  0  1  0  0  0  0  0  0  0  0  0
    1.4250   -0.6298   -1.3334 H   0  0  0  0  0  0  0  0  0  0  0  0
    0.4224    1.2814   -1.5302 C   0  0  0  0  0  0  0  0  0  0  0  0
    0.1315    1.0843   -2.5663 H   0  0  0  0  0  0  0  0  0  0  0  0
   -0.3974    1.8236   -1.0510 H   0  0  0  0  0  0  0  0  0  0  0  0
    1.6339    2.2019   -1.5442 C   0  0  0  0  0  0  0  0  0  0  0  0
    1.9116    2.7985   -0.4777 O   0  5  0  0  0  0  0  0  0  0  0  0
    2.2139    2.3776   -2.6423 O   0  0  0  0  0  0  0  0  0  0  0  0
    1.1260    0.1120    0.6676 C   0  0  0  0  0  0  0  0  0  0  0  0
    2.1996   -0.3520    1.0386 O   0  0  0  0  0  0  0  0  0  0  0  0
    0.2319    0.5792    1.6177 N   0  0  0  0  0  0  0  0  0  0  0  0
   -0.5270    1.1341    1.2410 H   0  0  0  0  0  0  0  0  0  0  0  0
    0.6305    0.8177    2.9966 C   0  0  0  0  0  0  0  0  0  0  0  0
    1.4253    1.5696    3.0385 H   0  0  0  0  0  0  0  0  0  0  0  0
   -0.2231    1.1795    3.5767 H   0  0  0  0  0  0  0  0  0  0  0  0
    0.9923   -0.1073    3.4569 H   0  0  0  0  0  0  0  0  0  0  0  0
  1  2  1  0  0  0  0
  2  3  1  0  0  0  0
  2  4  1  0  0  0  0
  2  5  1  0  0  0  0
  5  6  2  0  0  0  0
  5  7  1  0  0  0  0
  7  8  1  0  0  0  0
  7  9  1  0  0  0  0
  9 10  1  0  0  0  0
  9 11  1  0  0  0  0
  9 17  1  0  0  0  0
 11 12  1  0  0  0  0
 11 13  1  0  0  0  0
 11 14  1  0  0  0  0
 14 15  1  0  0  0  0
 14 16  2  0  0  0  0
 17 18  2  0  0  0  0
 17 19  1  0  0  0  0
 19 20  1  0  0  0  0
 19 21  1  0  0  0  0
 21 22  1  0  0  0  0
 21 23  1  0  0  0  0
 21 24  1  0  0  0  0
M  CHG  1  15  -1
M  END
$$$$

  -OEChem-03222214023D

 24 23  0     1  0  0  0  0  0999 V2000
   -2.4982   -3.4643   -0.2719 H   0  0  0  0  0  0  0  0  0  0  0  0
   -2.3996   -2.4431   -0.6508 C   0  0  0  0  0  0  0  0  0  0  0  0
   -3.0611   -1.7900   -0.0766 H   0  0  0  0  0  0  0  0  0  0  0  0
   -2.7020   -2.4262   -1.7008 H   0  0  0  0  0  0  0  0  0  0  0  0
   -0.9625   -1.9709   -0.5169 C   0  0  0  0  0  0  0  0  0  0  0  0
   -0.1268   -2.7299   -0.0612 O   0  0  0  0  0  0  0  0  0  0  0  0
   -0.6359   -0.7040   -0.9511 N   0  0  0  0  0  0  0  0  0  0  0  0
   -1.3823   -0.1512   -1.3539 H   0  0  0  0  0  0  0  0  0  0  0  0
    0.6763   -0.0533   -0.8009 C   0  0  1  0  0  0  0  0  0  0  0  0
    1.4485   -0.6271   -1.3247 H   0  0  0  0  0  0  0  0  0  0  0  0
    0.4360    1.2789   -1.5453 C   0  0  0  0  0  0  0  0  0  0  0  0
    0.1413    1.0616   -2.5765 H   0  0  0  0  0  0  0  0  0  0  0  0
   -0.3872    1.8181   -1.0691 H   0  0  0  0  0  0  0  0  0  0  0  0
    1.6254    2.2305   -1.5864 C   0  0  0  0  0  0  0  0  0  0  0  0
    2.0897    2.6405   -0.4984 O   0  5  0  0  0  0  0  0  0  0  0  0
    2.0010    2.6172   -2.7192 O   0  0  0  0  0  0  0  0  0  0  0  0
    1.1329    0.1118    0.6743 C   0  0  0  0  0  0  0  0  0  0  0  0
    2.1849   -0.3863    1.0634 O   0  0  0  0  0  0  0  0  0  0  0  0
    0.2285    0.5784    1.6151 N   0  0  0  0  0  0  0  0  0  0  0  0
   -0.5206    1.1438    1.2350 H   0  0  0  0  0  0  0  0  0  0  0  0
    0.6016    0.7841    3.0061 C   0  0  0  0  0  0  0  0  0  0  0  0
    1.4203    1.5076    3.0774 H   0  0  0  0  0  0  0  0  0  0  0  0
   -0.2530    1.1668    3.5712 H   0  0  0  0  0  0  0  0  0  0  0  0
    0.9208   -0.1594    3.4604 H   0  0  0  0  0  0  0  0  0  0  0  0
  1  2  1  0  0  0  0
  2  3  1  0  0  0  0
  2  4  1  0  0  0  0
  2  5  1  0  0  0  0
  5  6  2  0  0  0  0
  5  7  1  0  0  0  0
  7  8  1  0  0  0  0
  7  9  1  0  0  0  0
  9 10  1  0  0  0  0
  9 11  1  0  0  0  0
  9 17  1  0  0  0  0
 11 12  1  0  0  0  0
 11 13  1  0  0  0  0
 11 14  1  0  0  0  0
 14 15  1  0  0  0  0
 14 16  2  0  0  0  0
 17 18  2  0  0  0  0
 17 19  1  0  0  0  0
 19 20  1  0  0  0  0
 19 21  1  0  0  0  0
 21 22  1  0  0  0  0
 21 23  1  0  0  0  0
 21 24  1  0  0  0  0
M  CHG  1  15  -1
M  END
$$$$

  -OEChem-03222214023D

 24 23  0     1  0  0  0  0  0999 V2000
   -2.4941   -3.4427   -0.2370 H   0  0  0  0  0  0  0  0  0  0  0  0
   -2.3914   -2.4267   -0.6285 C   0  0  0  0  0  0  0  0  0  0  0  0
   -3.0405   -1.7616   -0.0538 H   0  0  0  0  0  0  0  0  0  0  0  0
   -2.7060   -2.4191   -1.6748 H   0  0  0  0  0  0  0  0  0  0  0  0
   -0.9489   -1.9661   -0.5174 C   0  0  0  0  0  0  0  0  0  0  0  0
   -0.1114   -2.7341   -0.0807 O   0  0  0  0  0  0  0  0  0  0  0  0
   -0.6195   -0.7007   -0.9539 N   0  0  0  0  0  0  0  0  0  0  0  0
   -1.3696   -0.1394   -1.3381 H   0  0  0  0  0  0  0  0  0  0  0  0
    0.6954   -0.0538   -0.8045 C   0  0  1  0  0  0  0  0  0  0  0  0
    1.4687   -0.6282   -1.3258 H   0  0  0  0  0  0  0  0  0  0  0  0
    0.4504    1.2793   -1.5507 C   0  0  0  0  0  0  0  0  0  0  0  0
    0.1502    1.0539   -2.5787 H   0  0  0  0  0  0  0  0  0  0  0  0
   -0.3734    1.8125   -1.0693 H   0  0  0  0  0  0  0  0  0  0  0  0
    1.6217    2.2547   -1.6148 C   0  0  0  0  0  0  0  0  0  0  0  0
    2.2875    2.4752   -0.5793 O   0  5  0  0  0  0  0  0  0  0  0  0
    1.7799    2.8514   -2.7072 O   0  0  0  0  0  0  0  0  0  0  0  0
    1.1403    0.1060    0.6757 C   0  0  0  0  0  0  0  0  0  0  0  0
    2.1734   -0.4172    1.0823 O   0  0  0  0  0  0  0  0  0  0  0  0
    0.2266    0.5742    1.6075 N   0  0  0  0  0  0  0  0  0  0  0  0
   -0.5265    1.1312    1.2234 H   0  0  0  0  0  0  0  0  0  0  0  0
    0.5750    0.7597    3.0080 C   0  0  0  0  0  0  0  0  0  0  0  0
    1.4220    1.4473    3.1019 H   0  0  0  0  0  0  0  0  0  0  0  0
   -0.2754    1.1777    3.5543 H   0  0  0  0  0  0  0  0  0  0  0  0
    0.8427   -0.1979    3.4662 H   0  0  0  0  0  0  0  0  0  0  0  0
  1  2  1  0  0  0  0
  2  3  1  0  0  0  0
  2  4  1  0  0  0  0
  2  5  1  0  0  0  0
  5  6  2  0  0  0  0
  5  7  1  0  0  0  0
  7  8  1  0  0  0  0
  7  9  1  0  0  0  0
  9 10  1  0  0  0  0
  9 11  1  0  0  0  0
  9 17  1  0  0  0  0
 11 12  1  0  0  0  0
 11 13  1  0  0  0  0
 11 14  1  0  0  0  0
 14 15  1  0  0  0  0
 14 16  2  0  0  0  0
 17 18  2  0  0  0  0
 17 19  1  0  0  0  0
 19 20  1  0  0  0  0
 19 21  1  0  0  0  0
 21 22  1  0  0  0  0
 21 23  1  0  0  0  0
 21 24  1  0  0  0  0
M  CHG  1  15  -1
M  END
$$$$

  -OEChem-03222214023D

 24 23  0     1  0  0  0  0  0999 V2000
   -2.5004   -3.4291   -0.2273 H   0  0  0  0  0  0  0  0  0  0  0  0
   -2.3912   -2.4147   -0.6214 C   0  0  0  0  0  0  0  0  0  0  0  0
   -3.0392   -1.7450   -0.0509 H   0  0  0  0  0  0  0  0  0  0  0  0
   -2.7019   -2.4085   -1.6690 H   0  0  0  0  0  0  0  0  0  0  0  0
   -0.9469   -1.9605   -0.5058 C   0  0  0  0  0  0  0  0  0  0  0  0
   -0.1158   -2.7310   -0.0613 O   0  0  0  0  0  0  0  0  0  0  0  0
   -0.6094   -0.6993   -0.9490 N   0  0  0  0  0  0  0  0  0  0  0  0
   -1.3545   -0.1392   -1.3445 H   0  0  0  0  0  0  0  0  0  0  0  0
    0.7097   -0.0580   -0.8073 C   0  0  1  0  0  0  0  0  0  0  0  0
    1.4818   -0.6316   -1.3313 H   0  0  0  0  0  0  0  0  0  0  0  0
    0.4563    1.2782   -1.5472 C   0  0  0  0  0  0  0  0  0  0  0  0
    0.1488    1.0527   -2.5729 H   0  0  0  0  0  0  0  0  0  0  0  0
   -0.3657    1.8065   -1.0571 H   0  0  0  0  0  0  0  0  0  0  0  0
    1.6167    2.2660   -1.6306 C   0  0  0  0  0  0  0  0  0  0  0  0
    2.4735    2.3016   -0.7215 O   0  5  0  0  0  0  0  0  0  0  0  0
    1.5770    3.0560   -2.6048 O   0  0  0  0  0  0  0  0  0  0  0  0
    1.1528    0.1034    0.6740 C   0  0  0  0  0  0  0  0  0  0  0  0
    2.1735   -0.4338    1.0930 O   0  0  0  0  0  0  0  0  0  0  0  0
    0.2366    0.5794    1.5997 N   0  0  0  0  0  0  0  0  0  0  0  0
   -0.5263    1.1211    1.2133 H   0  0  0  0  0  0  0  0  0  0  0  0
    0.5635    0.7472    3.0073 C   0  0  0  0  0  0  0  0  0  0  0  0
    1.4205    1.4188    3.1226 H   0  0  0  0  0  0  0  0  0  0  0  0
   -0.2893    1.1754    3.5417 H   0  0  0  0  0  0  0  0  0  0  0  0
    0.8062   -0.2191    3.4611 H   0  0  0  0  0  0  0  0  0  0  0  0
  1  2  1  0  0  0  0
  2  3  1  0  0  0  0
  2  4  1  0  0  0  0
  2  5  1  0  0  0  0
  5  6  2  0  0  0  0
  5  7  1  0  0  0  0
  7  8  1  0  0  0  0
  7  9  1  0  0  0  0
  9 10  1  0  0  0  0
  9 11  1  0  0  0  0
  9 17  1  0  0  0  0
 11 12  1  0  0  0  0
 11 13  1  0  0  0  0
 11 14  1  0  0  0  0
 14 15  1  0  0  0  0
 14 16  2  0  0  0  0
 17 18  2  0  0  0  0
 17 19  1  0  0  0  0
 19 20  1  0  0  0  0
 19 21  1  0  0  0  0
 21 22  1  0  0  0  0
 21 23  1  0  0  0  0
 21 24  1  0  0  0  0
M  CHG  1  15  -1
M  END
$$$$

  -OEChem-03222214023D

 24 23  0     1  0  0  0  0  0999 V2000
   -2.5024   -3.4213   -0.2137 H   0  0  0  0  0  0  0  0  0  0  0  0
   -2.3909   -2.4093   -0.6137 C   0  0  0  0  0  0  0  0  0  0  0  0
   -3.0410   -1.7354   -0.0505 H   0  0  0  0  0  0  0  0  0  0  0  0
   -2.6973   -2.4096   -1.6626 H   0  0  0  0  0  0  0  0  0  0  0  0
   -0.9466   -1.9557   -0.4947 C   0  0  0  0  0  0  0  0  0  0  0  0
   -0.1193   -2.7233   -0.0386 O   0  0  0  0  0  0  0  0  0  0  0  0
   -0.6049   -0.6988   -0.9468 N   0  0  0  0  0  0  0  0  0  0  0  0
   -1.3465   -0.1418   -1.3532 H   0  0  0  0  0  0  0  0  0  0  0  0
    0.7173   -0.0615   -0.8141 C   0  0  1  0  0  0  0  0  0  0  0  0
    1.4881   -0.6320   -1.3431 H   0  0  0  0  0  0  0  0  0  0  0  0
    0.4558    1.2797   -1.5413 C   0  0  0  0  0  0  0  0  0  0  0  0
    0.1422    1.0619   -2.5664 H   0  0  0  0  0  0  0  0  0  0  0  0
   -0.3631    1.8030   -1.0402 H   0  0  0  0  0  0  0  0  0  0  0  0
    1.6131    2.2693   -1.6333 C   0  0  0  0  0  0  0  0  0  0  0  0
    2.6237    2.1305   -0.9122 O   0  5  0  0  0  0  0  0  0  0  0  0
    1.4266    3.2251   -2.4247 O   0  0  0  0  0  0  0  0  0  0  0  0
    1.1630    0.1060    0.6660 C   0  0  0  0  0  0  0  0  0  0  0  0
    2.1800   -0.4309    1.0934 O   0  0  0  0  0  0  0  0  0  0  0  0
    0.2476    0.5905    1.5882 N   0  0  0  0  0  0  0  0  0  0  0  0
   -0.5288    1.1126    1.2015 H   0  0  0  0  0  0  0  0  0  0  0  0
    0.5568    0.7395    3.0021 C   0  0  0  0  0  0  0  0  0  0  0  0
    1.4326    1.3829    3.1356 H   0  0  0  0  0  0  0  0  0  0  0  0
   -0.2901    1.1915    3.5263 H   0  0  0  0  0  0  0  0  0  0  0  0
    0.7613   -0.2371    3.4529 H   0  0  0  0  0  0  0  0  0  0  0  0
  1  2  1  0  0  0  0
  2  3  1  0  0  0  0
  2  4  1  0  0  0  0
  2  5  1  0  0  0  0
  5  6  2  0  0  0  0
  5  7  1  0  0  0  0
  7  8  1  0  0  0  0
  7  9  1  0  0  0  0
  9 10  1  0  0  0  0
  9 11  1  0  0  0  0
  9 17  1  0  0  0  0
 11 12  1  0  0  0  0
 11 13  1  0  0  0  0
 11 14  1  0  0  0  0
 14 15  1  0  0  0  0
 14 16  2  0  0  0  0
 17 18  2  0  0  0  0
 17 19  1  0  0  0  0
 19 20  1  0  0  0  0
 19 21  1  0  0  0  0
 21 22  1  0  0  0  0
 21 23  1  0  0  0  0
 21 24  1  0  0  0  0
M  CHG  1  15  -1
M  END
$$$$

  -OEChem-03222214023D

 24 23  0     1  0  0  0  0  0999 V2000
   -2.5136   -3.4272   -0.2271 H   0  0  0  0  0  0  0  0  0  0  0  0
   -2.3994   -2.4154   -0.6267 C   0  0  0  0  0  0  0  0  0  0  0  0
   -3.0590   -1.7427   -0.0732 H   0  0  0  0  0  0  0  0  0  0  0  0
   -2.6912   -2.4182   -1.6798 H   0  0  0  0  0  0  0  0  0  0  0  0
   -0.9581   -1.9575   -0.4884 C   0  0  0  0  0  0  0  0  0  0  0  0
   -0.1370   -2.7188   -0.0112 O   0  0  0  0  0  0  0  0  0  0  0  0
   -0.6131   -0.7026   -0.9439 N   0  0  0  0  0  0  0  0  0  0  0  0
   -1.3484   -0.1533   -1.3719 H   0  0  0  0  0  0  0  0  0  0  0  0
    0.7113   -0.0685   -0.8177 C   0  0  1  0  0  0  0  0  0  0  0  0
    1.4786   -0.6368   -1.3545 H   0  0  0  0  0  0  0  0  0  0  0  0
    0.4479    1.2816   -1.5255 C   0  0  0  0  0  0  0  0  0  0  0  0
    0.1295    1.0805   -2.5523 H   0  0  0  0  0  0  0  0  0  0  0  0
   -0.3667    1.8021   -1.0139 H   0  0  0  0  0  0  0  0  0  0  0  0
    1.6139    2.2606   -1.6114 C   0  0  0  0  0  0  0  0  0  0  0  0
    2.7263    1.9646   -1.1255 O   0  5  0  0  0  0  0  0  0  0  0  0
    1.3436    3.3530   -2.1667 O   0  0  0  0  0  0  0  0  0  0  0  0
    1.1665    0.1024    0.6592 C   0  0  0  0  0  0  0  0  0  0  0  0
    2.1946   -0.4146    1.0835 O   0  0  0  0  0  0  0  0  0  0  0  0
    0.2570    0.5922    1.5844 N   0  0  0  0  0  0  0  0  0  0  0  0
   -0.5398    1.0856    1.2012 H   0  0  0  0  0  0  0  0  0  0  0  0
    0.5741    0.7586    2.9946 C   0  0  0  0  0  0  0  0  0  0  0  0
    1.4370    1.4215    3.1163 H   0  0  0  0  0  0  0  0  0  0  0  0
   -0.2784    1.1966    3.5217 H   0  0  0  0  0  0  0  0  0  0  0  0
    0.8028   -0.2096    3.4515 H   0  0  0  0  0  0  0  0  0  0  0  0
  1  2  1  0  0  0  0
  2  3  1  0  0  0  0
  2  4  1  0  0  0  0
  2  5  1  0  0  0  0
  5  6  2  0  0  0  0
  5  7  1  0  0  0  0
  7  8  1  0  0  0  0
  7  9  1  0  0  0  0
  9 10  1  0  0  0  0
  9 11  1  0  0  0  0
  9 17  1  0  0  0  0
 11 12  1  0  0  0  0
 11 13  1  0  0  0  0
 11 14  1  0  0  0  0
 14 15  1  0  0  0  0
 14 16  2  0  0  0  0
 17 18  2  0  0  0  0
 17 19  1  0  0  0  0
 19 20  1  0  0  0  0
 19 21  1  0  0  0  0
 21 22  1  0  0  0  0
 21 23  1  0  0  0  0
 21 24  1  0  0  0  0
M  CHG  1  15  -1
M  END
$$$$

  -OEChem-03222214023D

 24 23  0     1  0  0  0  0  0999 V2000
   -2.5189   -3.4404   -0.2451 H   0  0  0  0  0  0  0  0  0  0  0  0
   -2.4059   -2.4282   -0.6441 C   0  0  0  0  0  0  0  0  0  0  0  0
   -3.0804   -1.7601   -0.1031 H   0  0  0  0  0  0  0  0  0  0  0  0
   -2.6793   -2.4344   -1.7021 H   0  0  0  0  0  0  0  0  0  0  0  0
   -0.9710   -1.9584   -0.4816 C   0  0  0  0  0  0  0  0  0  0  0  0
   -0.1551   -2.7071    0.0235 O   0  0  0  0  0  0  0  0  0  0  0  0
   -0.6269   -0.7041   -0.9395 N   0  0  0  0  0  0  0  0  0  0  0  0
   -1.3541   -0.1687   -1.3980 H   0  0  0  0  0  0  0  0  0  0  0  0
    0.6981   -0.0707   -0.8197 C   0  0  1  0  0  0  0  0  0  0  0  0
    1.4615   -0.6370   -1.3647 H   0  0  0  0  0  0  0  0  0  0  0  0
    0.4353    1.2865   -1.5106 C   0  0  0  0  0  0  0  0  0  0  0  0
    0.1154    1.1010   -2.5396 H   0  0  0  0  0  0  0  0  0  0  0  0
   -0.3754    1.8054   -0.9910 H   0  0  0  0  0  0  0  0  0  0  0  0
    1.6161    2.2472   -1.5844 C   0  0  0  0  0  0  0  0  0  0  0  0
    2.7747    1.8316   -1.3664 O   0  5  0  0  0  0  0  0  0  0  0  0
    1.3218    3.4318   -1.8765 O   0  0  0  0  0  0  0  0  0  0  0  0
    1.1655    0.1037    0.6523 C   0  0  0  0  0  0  0  0  0  0  0  0
    2.2137   -0.3803    1.0648 O   0  0  0  0  0  0  0  0  0  0  0  0
    0.2648    0.5954    1.5846 N   0  0  0  0  0  0  0  0  0  0  0  0
   -0.5515    1.0623    1.2087 H   0  0  0  0  0  0  0  0  0  0  0  0
    0.5957    0.7777    2.9896 C   0  0  0  0  0  0  0  0  0  0  0  0
    1.4516    1.4519    3.0961 H   0  0  0  0  0  0  0  0  0  0  0  0
   -0.2561    1.2101    3.5225 H   0  0  0  0  0  0  0  0  0  0  0  0
    0.8411   -0.1839    3.4518 H   0  0  0  0  0  0  0  0  0  0  0  0
  1  2  1  0  0  0  0
  2  3  1  0  0  0  0
  2  4  1  0  0  0  0
  2  5  1  0  0  0  0
  5  6  2  0  0  0  0
  5  7  1  0  0  0  0
  7  8  1  0  0  0  0
  7  9  1  0  0  0  0
  9 10  1  0  0  0  0
  9 11  1  0  0  0  0
  9 17  1  0  0  0  0
 11 12  1  0  0  0  0
 11 13  1  0  0  0  0
 11 14  1  0  0  0  0
 14 15  1  0  0  0  0
 14 16  2  0  0  0  0
 17 18  2  0  0  0  0
 17 19  1  0  0  0  0
 19 20  1  0  0  0  0
 19 21  1  0  0  0  0
 21 22  1  0  0  0  0
 21 23  1  0  0  0  0
 21 24  1  0  0  0  0
M  CHG  1  15  -1
M  END
$$$$

  -OEChem-03222214023D

 24 23  0     1  0  0  0  0  0999 V2000
   -2.5203   -3.4610   -0.2717 H   0  0  0  0  0  0  0  0  0  0  0  0
   -2.4119   -2.4471   -0.6672 C   0  0  0  0  0  0  0  0  0  0  0  0
   -3.1025   -1.7872   -0.1366 H   0  0  0  0  0  0  0  0  0  0  0  0
   -2.6679   -2.4549   -1.7296 H   0  0  0  0  0  0  0  0  0  0  0  0
   -0.9850   -1.9615   -0.4805 C   0  0  0  0  0  0  0  0  0  0  0  0
   -0.1716   -2.6978    0.0464 O   0  0  0  0  0  0  0  0  0  0  0  0
   -0.6453   -0.7052   -0.9361 N   0  0  0  0  0  0  0  0  0  0  0  0
   -1.3668   -0.1817   -1.4168 H   0  0  0  0  0  0  0  0  0  0  0  0
    0.6791   -0.0706   -0.8193 C   0  0  1  0  0  0  0  0  0  0  0  0
    1.4388   -0.6358   -1.3706 H   0  0  0  0  0  0  0  0  0  0  0  0
    0.4224    1.2930   -1.4959 C   0  0  0  0  0  0  0  0  0  0  0  0
    0.1038    1.1231   -2.5277 H   0  0  0  0  0  0  0  0  0  0  0  0
   -0.3856    1.8131   -0.9731 H   0  0  0  0  0  0  0  0  0  0  0  0
    1.6236    2.2288   -1.5505 C   0  0  0  0  0  0  0  0  0  0  0  0
    2.7750    1.7441   -1.6147 O   0  5  0  0  0  0  0  0  0  0  0  0
    1.3574    3.4552   -1.5636 O   0  0  0  0  0  0  0  0  0  0  0  0
    1.1573    0.1022    0.6486 C   0  0  0  0  0  0  0  0  0  0  0  0
    2.2303   -0.3406    1.0421 O   0  0  0  0  0  0  0  0  0  0  0  0
    0.2653    0.5905    1.5906 N   0  0  0  0  0  0  0  0  0  0  0  0
   -0.5649    1.0393    1.2228 H   0  0  0  0  0  0  0  0  0  0  0  0
    0.6207    0.8031    2.9853 C   0  0  0  0  0  0  0  0  0  0  0  0
    1.4637    1.4971    3.0626 H   0  0  0  0  0  0  0  0  0  0  0  0
   -0.2289    1.2261    3.5288 H   0  0  0  0  0  0  0  0  0  0  0  0
    0.8964   -0.1449    3.4581 H   0  0  0  0  0  0  0  0  0  0  0  0
  1  2  1  0  0  0  0
  2  3  1  0  0  0  0
  2  4  1  0  0  0  0
  2  5  1  0  0  0  0
  5  6  2  0  0  0  0
  5  7  1  0  0  0  0
  7  8  1  0  0  0  0
  7  9  1  0  0  0  0
  9 10  1  0  0  0  0
  9 11  1  0  0  0  0
  9 17  1  0  0  0  0
 11 12  1  0  0  0  0
 11 13  1  0  0  0  0
 11 14  1  0  0  0  0
 14 15  1  0  0  0  0
 14 16  2  0  0  0  0
 17 18  2  0  0  0  0
 17 19  1  0  0  0  0
 19 20  1  0  0  0  0
 19 21  1  0  0  0  0
 21 22  1  0  0  0  0
 21 23  1  0  0  0  0
 21 24  1  0  0  0  0
M  CHG  1  15  -1
M  END
$$$$

  -OEChem-03222214023D

 24 23  0     1  0  0  0  0  0999 V2000
   -2.5215   -3.4780   -0.2973 H   0  0  0  0  0  0  0  0  0  0  0  0
   -2.4170   -2.4630   -0.6909 C   0  0  0  0  0  0  0  0  0  0  0  0
   -3.1240   -1.8105   -0.1729 H   0  0  0  0  0  0  0  0  0  0  0  0
   -2.6540   -2.4732   -1.7576 H   0  0  0  0  0  0  0  0  0  0  0  0
   -0.9988   -1.9629   -0.4800 C   0  0  0  0  0  0  0  0  0  0  0  0
   -0.1871   -2.6889    0.0638 O   0  0  0  0  0  0  0  0  0  0  0  0
   -0.6639   -0.7041   -0.9317 N   0  0  0  0  0  0  0  0  0  0  0  0
   -1.3796   -0.1914   -1.4322 H   0  0  0  0  0  0  0  0  0  0  0  0
    0.6594   -0.0682   -0.8155 C   0  0  1  0  0  0  0  0  0  0  0  0
    1.4164   -0.6340   -1.3702 H   0  0  0  0  0  0  0  0  0  0  0  0
    0.4122    1.2974   -1.4862 C   0  0  0  0  0  0  0  0  0  0  0  0
    0.0996    1.1373   -2.5212 H   0  0  0  0  0  0  0  0  0  0  0  0
   -0.3943    1.8230   -0.9661 H   0  0  0  0  0  0  0  0  0  0  0  0
    1.6326    2.2070   -1.5219 C   0  0  0  0  0  0  0  0  0  0  0  0
    2.7335    1.7182   -1.8627 O   0  5  0  0  0  0  0  0  0  0  0  0
    1.4292    3.4182   -1.2636 O   0  0  0  0  0  0  0  0  0  0  0  0
    1.1461    0.1015    0.6491 C   0  0  0  0  0  0  0  0  0  0  0  0
    2.2412   -0.3043    1.0204 O   0  0  0  0  0  0  0  0  0  0  0  0
    0.2632    0.5849    1.6016 N   0  0  0  0  0  0  0  0  0  0  0  0
   -0.5741    1.0272    1.2421 H   0  0  0  0  0  0  0  0  0  0  0  0
    0.6444    0.8243    2.9852 C   0  0  0  0  0  0  0  0  0  0  0  0
    1.4576    1.5557    3.0359 H   0  0  0  0  0  0  0  0  0  0  0  0
   -0.2091    1.2133    3.5479 H   0  0  0  0  0  0  0  0  0  0  0  0
    0.9741   -0.1068    3.4575 H   0  0  0  0  0  0  0  0  0  0  0  0
  1  2  1  0  0  0  0
  2  3  1  0  0  0  0
  2  4  1  0  0  0  0
  2  5  1  0  0  0  0
  5  6  2  0  0  0  0
  5  7  1  0  0  0  0
  7  8  1  0  0  0  0
  7  9  1  0  0  0  0
  9 10  1  0  0  0  0
  9 11  1  0  0  0  0
  9 17  1  0  0  0  0
 11 12  1  0  0  0  0
 11 13  1  0  0  0  0
 11 14  1  0  0  0  0
 14 15  1  0  0  0  0
 14 16  2  0  0  0  0
 17 18  2  0  0  0  0
 17 19  1  0  0  0  0
 19 20  1  0  0  0  0
 19 21  1  0  0  0  0
 21 22  1  0  0  0  0
 21 23  1  0  0  0  0
 21 24  1  0  0  0  0
M  CHG  1  15  -1
M  END
$$$$

  -OEChem-03222214023D

 24 23  0     1  0  0  0  0  0999 V2000
   -2.5240   -3.4938   -0.3241 H   0  0  0  0  0  0  0  0  0  0  0  0
   -2.4228   -2.4750   -0.7088 C   0  0  0  0  0  0  0  0  0  0  0  0
   -3.1293   -1.8285   -0.1827 H   0  0  0  0  0  0  0  0  0  0  0  0
   -2.6632   -2.4762   -1.7747 H   0  0  0  0  0  0  0  0  0  0  0  0
   -1.0055   -1.9729   -0.4964 C   0  0  0  0  0  0  0  0  0  0  0  0
   -0.1916   -2.6992    0.0440 O   0  0  0  0  0  0  0  0  0  0  0  0
   -0.6745   -0.7095   -0.9375 N   0  0  0  0  0  0  0  0  0  0  0  0
   -1.3895   -0.1967   -1.4390 H   0  0  0  0  0  0  0  0  0  0  0  0
    0.6461   -0.0712   -0.8114 C   0  0  1  0  0  0  0  0  0  0  0  0
    1.4048   -0.6330   -1.3681 H   0  0  0  0  0  0  0  0  0  0  0  0
    0.4056    1.2968   -1.4750 C   0  0  0  0  0  0  0  0  0  0  0  0
    0.0997    1.1477   -2.5140 H   0  0  0  0  0  0  0  0  0  0  0  0
   -0.4015    1.8248   -0.9585 H   0  0  0  0  0  0  0  0  0  0  0  0
    1.6389    2.1875   -1.4851 C   0  0  0  0  0  0  0  0  0  0  0  0
    2.6599    1.7708   -2.0793 O   0  5  0  0  0  0  0  0  0  0  0  0
    1.5158    3.3234   -0.9658 O   0  0  0  0  0  0  0  0  0  0  0  0
    1.1344    0.0922    0.6527 C   0  0  0  0  0  0  0  0  0  0  0  0
    2.2436   -0.2890    1.0076 O   0  0  0  0  0  0  0  0  0  0  0  0
    0.2546    0.5672    1.6118 N   0  0  0  0  0  0  0  0  0  0  0  0
   -0.5801    1.0154    1.2533 H   0  0  0  0  0  0  0  0  0  0  0  0
    0.6642    0.8527    2.9783 C   0  0  0  0  0  0  0  0  0  0  0  0
    1.4599    1.6048    2.9886 H   0  0  0  0  0  0  0  0  0  0  0  0
   -0.1846    1.2361    3.5515 H   0  0  0  0  0  0  0  0  0  0  0  0
    1.0286   -0.0566    3.4670 H   0  0  0  0  0  0  0  0  0  0  0  0
  1  2  1  0  0  0  0
  2  3  1  0  0  0  0
  2  4  1  0  0  0  0
  2  5  1  0  0  0  0
  5  6  2  0  0  0  0
  5  7  1  0  0  0  0
  7  8  1  0  0  0  0
  7  9  1  0  0  0  0
  9 10  1  0  0  0  0
  9 11  1  0  0  0  0
  9 17  1  0  0  0  0
 11 12  1  0  0  0  0
 11 13  1  0  0  0  0
 11 14  1  0  0  0  0
 14 15  1  0  0  0  0
 14 16  2  0  0  0  0
 17 18  2  0  0  0  0
 17 19  1  0  0  0  0
 19 20  1  0  0  0  0
 19 21  1  0  0  0  0
 21 22  1  0  0  0  0
 21 23  1  0  0  0  0
 21 24  1  0  0  0  0
M  CHG  1  15  -1
M  END
$$$$

  -OEChem-03222214023D

 24 23  0     1  0  0  0  0  0999 V2000
   -2.5190   -3.5025   -0.3352 H   0  0  0  0  0  0  0  0  0  0  0  0
   -2.4228   -2.4812   -0.7145 C   0  0  0  0  0  0  0  0  0  0  0  0
   -3.1355   -1.8420   -0.1879 H   0  0  0  0  0  0  0  0  0  0  0  0
   -2.6588   -2.4787   -1.7815 H   0  0  0  0  0  0  0  0  0  0  0  0
   -1.0094   -1.9712   -0.4945 C   0  0  0  0  0  0  0  0  0  0  0  0
   -0.1932   -2.6950    0.0461 O   0  0  0  0  0  0  0  0  0  0  0  0
   -0.6817   -0.7065   -0.9348 N   0  0  0  0  0  0  0  0  0  0  0  0
   -1.3995   -0.1927   -1.4310 H   0  0  0  0  0  0  0  0  0  0  0  0
    0.6371   -0.0653   -0.8068 C   0  0  1  0  0  0  0  0  0  0  0  0
    1.3950   -0.6319   -1.3597 H   0  0  0  0  0  0  0  0  0  0  0  0
    0.4048    1.2959   -1.4845 C   0  0  0  0  0  0  0  0  0  0  0  0
    0.1032    1.1416   -2.5242 H   0  0  0  0  0  0  0  0  0  0  0  0
   -0.4018    1.8340   -0.9781 H   0  0  0  0  0  0  0  0  0  0  0  0
    1.6461    2.1739   -1.4859 C   0  0  0  0  0  0  0  0  0  0  0  0
    2.5622    1.8861   -2.2913 O   0  5  0  0  0  0  0  0  0  0  0  0
    1.6178    3.1919   -0.7530 O   0  0  0  0  0  0  0  0  0  0  0  0
    1.1294    0.1013    0.6557 C   0  0  0  0  0  0  0  0  0  0  0  0
    2.2392   -0.2870    1.0023 O   0  0  0  0  0  0  0  0  0  0  0  0
    0.2533    0.5752    1.6184 N   0  0  0  0  0  0  0  0  0  0  0  0
   -0.5629    1.0549    1.2583 H   0  0  0  0  0  0  0  0  0  0  0  0
    0.6686    0.8491    2.9856 C   0  0  0  0  0  0  0  0  0  0  0  0
    1.4440    1.6219    3.0007 H   0  0  0  0  0  0  0  0  0  0  0  0
   -0.1847    1.1989    3.5738 H   0  0  0  0  0  0  0  0  0  0  0  0
    1.0617   -0.0581    3.4558 H   0  0  0  0  0  0  0  0  0  0  0  0
  1  2  1  0  0  0  0
  2  3  1  0  0  0  0
  2  4  1  0  0  0  0
  2  5  1  0  0  0  0
  5  6  2  0  0  0  0
  5  7  1  0  0  0  0
  7  8  1  0  0  0  0
  7  9  1  0  0  0  0
  9 10  1  0  0  0  0
  9 11  1  0  0  0  0
  9 17  1  0  0  0  0
 11 12  1  0  0  0  0
 11 13  1  0  0  0  0
 11 14  1  0  0  0  0
 14 15  1  0  0  0  0
 14 16  2  0  0  0  0
 17 18  2  0  0  0  0
 17 19  1  0  0  0  0
 19 20  1  0  0  0  0
 19 21  1  0  0  0  0
 21 22  1  0  0  0  0
 21 23  1  0  0  0  0
 21 24  1  0  0  0  0
M  CHG  1  15  -1
M  END
$$$$

  -OEChem-03222214023D

 24 23  0     1  0  0  0  0  0999 V2000
   -2.5203   -3.5005   -0.3358 H   0  0  0  0  0  0  0  0  0  0  0  0
   -2.4236   -2.4768   -0.7087 C   0  0  0  0  0  0  0  0  0  0  0  0
   -3.1229   -1.8372   -0.1647 H   0  0  0  0  0  0  0  0  0  0  0  0
   -2.6788   -2.4639   -1.7711 H   0  0  0  0  0  0  0  0  0  0  0  0
   -1.0029   -1.9783   -0.5101 C   0  0  0  0  0  0  0  0  0  0  0  0
   -0.1798   -2.7132    0.0045 O   0  0  0  0  0  0  0  0  0  0  0  0
   -0.6756   -0.7113   -0.9433 N   0  0  0  0  0  0  0  0  0  0  0  0
   -1.4021   -0.1832   -1.4110 H   0  0  0  0  0  0  0  0  0  0  0  0
    0.6398   -0.0665   -0.8026 C   0  0  1  0  0  0  0  0  0  0  0  0
    1.4023   -0.6337   -1.3482 H   0  0  0  0  0  0  0  0  0  0  0  0
    0.4107    1.2881   -1.4938 C   0  0  0  0  0  0  0  0  0  0  0  0
    0.1174    1.1239   -2.5348 H   0  0  0  0  0  0  0  0  0  0  0  0
   -0.4017    1.8289   -0.9998 H   0  0  0  0  0  0  0  0  0  0  0  0
    1.6474    2.1721   -1.4864 C   0  0  0  0  0  0  0  0  0  0  0  0
    2.4407    2.0695   -2.4516 O   0  5  0  0  0  0  0  0  0  0  0  0
    1.7113    3.0423   -0.5852 O   0  0  0  0  0  0  0  0  0  0  0  0
    1.1251    0.0993    0.6620 C   0  0  0  0  0  0  0  0  0  0  0  0
    2.2286   -0.3064    1.0103 O   0  0  0  0  0  0  0  0  0  0  0  0
    0.2452    0.5687    1.6232 N   0  0  0  0  0  0  0  0  0  0  0  0
   -0.5521    1.0754    1.2575 H   0  0  0  0  0  0  0  0  0  0  0  0
    0.6667    0.8475    2.9875 C   0  0  0  0  0  0  0  0  0  0  0  0
    1.4412    1.6213    2.9960 H   0  0  0  0  0  0  0  0  0  0  0  0
   -0.1843    1.1988    3.5779 H   0  0  0  0  0  0  0  0  0  0  0  0
    1.0639   -0.0570    3.4596 H   0  0  0  0  0  0  0  0  0  0  0  0
  1  2  1  0  0  0  0
  2  3  1  0  0  0  0
  2  4  1  0  0  0  0
  2  5  1  0  0  0  0
  5  6  2  0  0  0  0
  5  7  1  0  0  0  0
  7  8  1  0  0  0  0
  7  9  1  0  0  0  0
  9 10  1  0  0  0  0
  9 11  1  0  0  0  0
  9 17  1  0  0  0  0
 11 12  1  0  0  0  0
 11 13  1  0  0  0  0
 11 14  1  0  0  0  0
 14 15  1  0  0  0  0
 14 16  2  0  0  0  0
 17 18  2  0  0  0  0
 17 19  1  0  0  0  0
 19 20  1  0  0  0  0
 19 21  1  0  0  0  0
 21 22  1  0  0  0  0
 21 23  1  0  0  0  0
 21 24  1  0  0  0  0
M  CHG  1  15  -1
M  END
$$$$

  -OEChem-03222214023D

 24 23  0     1  0  0  0  0  0999 V2000
   -2.5143   -3.4905   -0.3131 H   0  0  0  0  0  0  0  0  0  0  0  0
   -2.4194   -2.4667   -0.6860 C   0  0  0  0  0  0  0  0  0  0  0  0
   -3.0988   -1.8229   -0.1220 H   0  0  0  0  0  0  0  0  0  0  0  0
   -2.7022   -2.4492   -1.7413 H   0  0  0  0  0  0  0  0  0  0  0  0
   -0.9901   -1.9802   -0.5231 C   0  0  0  0  0  0  0  0  0  0  0  0
   -0.1581   -2.7269   -0.0406 O   0  0  0  0  0  0  0  0  0  0  0  0
   -0.6643   -0.7117   -0.9533 N   0  0  0  0  0  0  0  0  0  0  0  0
   -1.4026   -0.1673   -1.3820 H   0  0  0  0  0  0  0  0  0  0  0  0
    0.6493   -0.0655   -0.8030 C   0  0  1  0  0  0  0  0  0  0  0  0
    1.4150   -0.6364   -1.3398 H   0  0  0  0  0  0  0  0  0  0  0  0
    0.4244    1.2830   -1.5111 C   0  0  0  0  0  0  0  0  0  0  0  0
    0.1362    1.1042   -2.5512 H   0  0  0  0  0  0  0  0  0  0  0  0
   -0.3926    1.8277   -1.0294 H   0  0  0  0  0  0  0  0  0  0  0  0
    1.6520    2.1811   -1.5062 C   0  0  0  0  0  0  0  0  0  0  0  0
    2.2943    2.2881   -2.5780 O   0  5  0  0  0  0  0  0  0  0  0  0
    1.8247    2.8911   -0.4871 O   0  0  0  0  0  0  0  0  0  0  0  0
    1.1240    0.0987    0.6653 C   0  0  0  0  0  0  0  0  0  0  0  0
    2.2109   -0.3413    1.0251 O   0  0  0  0  0  0  0  0  0  0  0  0
    0.2360    0.5661    1.6203 N   0  0  0  0  0  0  0  0  0  0  0  0
   -0.5357    1.1058    1.2472 H   0  0  0  0  0  0  0  0  0  0  0  0
    0.6489    0.8275    2.9904 C   0  0  0  0  0  0  0  0  0  0  0  0
    1.4338    1.5906    3.0123 H   0  0  0  0  0  0  0  0  0  0  0  0
   -0.2023    1.1850    3.5766 H   0  0  0  0  0  0  0  0  0  0  0  0
    1.0294   -0.0864    3.4578 H   0  0  0  0  0  0  0  0  0  0  0  0
  1  2  1  0  0  0  0
  2  3  1  0  0  0  0
  2  4  1  0  0  0  0
  2  5  1  0  0  0  0
  5  6  2  0  0  0  0
  5  7  1  0  0  0  0
  7  8  1  0  0  0  0
  7  9  1  0  0  0  0
  9 10  1  0  0  0  0
  9 11  1  0  0  0  0
  9 17  1  0  0  0  0
 11 12  1  0  0  0  0
 11 13  1  0  0  0  0
 11 14  1  0  0  0  0
 14 15  1  0  0  0  0
 14 16  2  0  0  0  0
 17 18  2  0  0  0  0
 17 19  1  0  0  0  0
 19 20  1  0  0  0  0
 19 21  1  0  0  0  0
 21 22  1  0  0  0  0
 21 23  1  0  0  0  0
 21 24  1  0  0  0  0
M  CHG  1  15  -1
M  END
$$$$

  -OEChem-03222214023D

 24 23  0     1  0  0  0  0  0999 V2000
   -2.5085   -3.4721   -0.2835 H   0  0  0  0  0  0  0  0  0  0  0  0
   -2.4115   -2.4501   -0.6608 C   0  0  0  0  0  0  0  0  0  0  0  0
   -3.0740   -1.7992   -0.0851 H   0  0  0  0  0  0  0  0  0  0  0  0
   -2.7146   -2.4321   -1.7106 H   0  0  0  0  0  0  0  0  0  0  0  0
   -0.9748   -1.9764   -0.5266 C   0  0  0  0  0  0  0  0  0  0  0  0
   -0.1383   -2.7343   -0.0702 O   0  0  0  0  0  0  0  0  0  0  0  0
   -0.6478   -0.7084   -0.9576 N   0  0  0  0  0  0  0  0  0  0  0  0
   -1.3939   -0.1518   -1.3561 H   0  0  0  0  0  0  0  0  0  0  0  0
    0.6655   -0.0619   -0.8029 C   0  0  1  0  0  0  0  0  0  0  0  0
    1.4344   -0.6377   -1.3297 H   0  0  0  0  0  0  0  0  0  0  0  0
    0.4397    1.2772   -1.5336 C   0  0  0  0  0  0  0  0  0  0  0  0
    0.1547    1.0749   -2.5706 H   0  0  0  0  0  0  0  0  0  0  0  0
   -0.3836    1.8230   -1.0648 H   0  0  0  0  0  0  0  0  0  0  0  0
    1.6502    2.2003   -1.5476 C   0  0  0  0  0  0  0  0  0  0  0  0
    2.1092    2.5205   -2.6702 O   0  5  0  0  0  0  0  0  0  0  0  0
    1.9608    2.7465   -0.4634 O   0  0  0  0  0  0  0  0  0  0  0  0
    1.1286    0.1016    0.6697 C   0  0  0  0  0  0  0  0  0  0  0  0
    2.1947   -0.3760    1.0450 O   0  0  0  0  0  0  0  0  0  0  0  0
    0.2321    0.5695    1.6170 N   0  0  0  0  0  0  0  0  0  0  0  0
   -0.5175    1.1365    1.2398 H   0  0  0  0  0  0  0  0  0  0  0  0
    0.6242    0.7933    3.0000 C   0  0  0  0  0  0  0  0  0  0  0  0
    1.4359    1.5265    3.0516 H   0  0  0  0  0  0  0  0  0  0  0  0
   -0.2259    1.1725    3.5745 H   0  0  0  0  0  0  0  0  0  0  0  0
    0.9605   -0.1420    3.4590 H   0  0  0  0  0  0  0  0  0  0  0  0
  1  2  1  0  0  0  0
  2  3  1  0  0  0  0
  2  4  1  0  0  0  0
  2  5  1  0  0  0  0
  5  6  2  0  0  0  0
  5  7  1  0  0  0  0
  7  8  1  0  0  0  0
  7  9  1  0  0  0  0
  9 10  1  0  0  0  0
  9 11  1  0  0  0  0
  9 17  1  0  0  0  0
 11 12  1  0  0  0  0
 11 13  1  0  0  0  0
 11 14  1  0  0  0  0
 14 15  1  0  0  0  0
 14 16  2  0  0  0  0
 17 18  2  0  0  0  0
 17 19  1  0  0  0  0
 19 20  1  0  0  0  0
 19 21  1  0  0  0  0
 21 22  1  0  0  0  0
 21 23  1  0  0  0  0
 21 24  1  0  0  0  0
M  CHG  1  15  -1
M  END
$$$$

  -OEChem-03222214023D

 24 23  0     1  0  0  0  0  0999 V2000
   -2.5102   -3.4495   -0.2634 H   0  0  0  0  0  0  0  0  0  0  0  0
   -2.4055   -2.4290   -0.6425 C   0  0  0  0  0  0  0  0  0  0  0  0
   -3.0548   -1.7702   -0.0607 H   0  0  0  0  0  0  0  0  0  0  0  0
   -2.7183   -2.4086   -1.6893 H   0  0  0  0  0  0  0  0  0  0  0  0
   -0.9627   -1.9708   -0.5231 C   0  0  0  0  0  0  0  0  0  0  0  0
   -0.1284   -2.7405   -0.0832 O   0  0  0  0  0  0  0  0  0  0  0  0
   -0.6287   -0.7053   -0.9556 N   0  0  0  0  0  0  0  0  0  0  0  0
   -1.3762   -0.1406   -1.3399 H   0  0  0  0  0  0  0  0  0  0  0  0
    0.6871   -0.0624   -0.8016 C   0  0  1  0  0  0  0  0  0  0  0  0
    1.4575   -0.6407   -1.3233 H   0  0  0  0  0  0  0  0  0  0  0  0
    0.4540    1.2708   -1.5476 C   0  0  0  0  0  0  0  0  0  0  0  0
    0.1654    1.0480   -2.5795 H   0  0  0  0  0  0  0  0  0  0  0  0
   -0.3737    1.8131   -1.0828 H   0  0  0  0  0  0  0  0  0  0  0  0
    1.6415    2.2255   -1.5932 C   0  0  0  0  0  0  0  0  0  0  0  0
    1.8842    2.7550   -2.7044 O   0  5  0  0  0  0  0  0  0  0  0  0
    2.1477    2.5858   -0.5067 O   0  0  0  0  0  0  0  0  0  0  0  0
    1.1390    0.0977    0.6758 C   0  0  0  0  0  0  0  0  0  0  0  0
    2.1838   -0.4125    1.0687 O   0  0  0  0  0  0  0  0  0  0  0  0
    0.2333    0.5682    1.6138 N   0  0  0  0  0  0  0  0  0  0  0  0
   -0.5096    1.1403    1.2315 H   0  0  0  0  0  0  0  0  0  0  0  0
    0.5998    0.7666    3.0078 C   0  0  0  0  0  0  0  0  0  0  0  0
    1.4239    1.4833    3.0864 H   0  0  0  0  0  0  0  0  0  0  0  0
   -0.2555    1.1549    3.5681 H   0  0  0  0  0  0  0  0  0  0  0  0
    0.9078   -0.1804    3.4625 H   0  0  0  0  0  0  0  0  0  0  0  0
  1  2  1  0  0  0  0
  2  3  1  0  0  0  0
  2  4  1  0  0  0  0
  2  5  1  0  0  0  0
  5  6  2  0  0  0  0
  5  7  1  0  0  0  0
  7  8  1  0  0  0  0
  7  9  1  0  0  0  0
  9 10  1  0  0  0  0
  9 11  1  0  0  0  0
  9 17  1  0  0  0  0
 11 12  1  0  0  0  0
 11 13  1  0  0  0  0
 11 14  1  0  0  0  0
 14 15  1  0  0  0  0
 14 16  2  0  0  0  0
 17 18  2  0  0  0  0
 17 19  1  0  0  0  0
 19 20  1  0  0  0  0
 19 21  1  0  0  0  0
 21 22  1  0  0  0  0
 21 23  1  0  0  0  0
 21 24  1  0  0  0  0
M  CHG  1  15  -1
M  END
$$$$

  -OEChem-03222214023D

 24 23  0     1  0  0  0  0  0999 V2000
   -2.5081   -3.4279   -0.2290 H   0  0  0  0  0  0  0  0  0  0  0  0
   -2.3983   -2.4132   -0.6220 C   0  0  0  0  0  0  0  0  0  0  0  0
   -3.0390   -1.7421   -0.0449 H   0  0  0  0  0  0  0  0  0  0  0  0
   -2.7176   -2.4039   -1.6670 H   0  0  0  0  0  0  0  0  0  0  0  0
   -0.9513   -1.9649   -0.5173 C   0  0  0  0  0  0  0  0  0  0  0  0
   -0.1184   -2.7410   -0.0860 O   0  0  0  0  0  0  0  0  0  0  0  0
   -0.6130   -0.7023   -0.9556 N   0  0  0  0  0  0  0  0  0  0  0  0
   -1.3610   -0.1344   -1.3341 H   0  0  0  0  0  0  0  0  0  0  0  0
    0.7061   -0.0633   -0.8071 C   0  0  1  0  0  0  0  0  0  0  0  0
    1.4778   -0.6393   -1.3289 H   0  0  0  0  0  0  0  0  0  0  0  0
    0.4626    1.2730   -1.5490 C   0  0  0  0  0  0  0  0  0  0  0  0
    0.1670    1.0451   -2.5777 H   0  0  0  0  0  0  0  0  0  0  0  0
   -0.3657    1.8072   -1.0759 H   0  0  0  0  0  0  0  0  0  0  0  0
    1.6292    2.2536   -1.6221 C   0  0  0  0  0  0  0  0  0  0  0  0
    1.6509    2.9884   -2.6390 O   0  5  0  0  0  0  0  0  0  0  0  0
    2.3880    2.3819   -0.6370 O   0  0  0  0  0  0  0  0  0  0  0  0
    1.1480    0.0942    0.6746 C   0  0  0  0  0  0  0  0  0  0  0  0
    2.1731   -0.4398    1.0874 O   0  0  0  0  0  0  0  0  0  0  0  0
    0.2336    0.5689    1.6027 N   0  0  0  0  0  0  0  0  0  0  0  0
   -0.5181    1.1263    1.2166 H   0  0  0  0  0  0  0  0  0  0  0  0
    0.5745    0.7473    3.0058 C   0  0  0  0  0  0  0  0  0  0  0  0
    1.4250    1.4295    3.1075 H   0  0  0  0  0  0  0  0  0  0  0  0
   -0.2770    1.1681    3.5481 H   0  0  0  0  0  0  0  0  0  0  0  0
    0.8336   -0.2137    3.4616 H   0  0  0  0  0  0  0  0  0  0  0  0
  1  2  1  0  0  0  0
  2  3  1  0  0  0  0
  2  4  1  0  0  0  0
  2  5  1  0  0  0  0
  5  6  2  0  0  0  0
  5  7  1  0  0  0  0
  7  8  1  0  0  0  0
  7  9  1  0  0  0  0
  9 10  1  0  0  0  0
  9 11  1  0  0  0  0
  9 17  1  0  0  0  0
 11 12  1  0  0  0  0
 11 13  1  0  0  0  0
 11 14  1  0  0  0  0
 14 15  1  0  0  0  0
 14 16  2  0  0  0  0
 17 18  2  0  0  0  0
 17 19  1  0  0  0  0
 19 20  1  0  0  0  0
 19 21  1  0  0  0  0
 21 22  1  0  0  0  0
 21 23  1  0  0  0  0
 21 24  1  0  0  0  0
M  CHG  1  15  -1
M  END
$$$$

  -OEChem-03222214023D

 24 23  0     1  0  0  0  0  0999 V2000
   -2.5131   -3.4228   -0.2272 H   0  0  0  0  0  0  0  0  0  0  0  0
   -2.3987   -2.4100   -0.6242 C   0  0  0  0  0  0  0  0  0  0  0  0
   -3.0507   -1.7369   -0.0622 H   0  0  0  0  0  0  0  0  0  0  0  0
   -2.7002   -2.4073   -1.6744 H   0  0  0  0  0  0  0  0  0  0  0  0
   -0.9545   -1.9578   -0.4980 C   0  0  0  0  0  0  0  0  0  0  0  0
   -0.1305   -2.7269   -0.0387 O   0  0  0  0  0  0  0  0  0  0  0  0
   -0.6094   -0.7003   -0.9461 N   0  0  0  0  0  0  0  0  0  0  0  0
   -1.3472   -0.1440   -1.3604 H   0  0  0  0  0  0  0  0  0  0  0  0
    0.7141   -0.0663   -0.8105 C   0  0  1  0  0  0  0  0  0  0  0  0
    1.4834   -0.6383   -1.3402 H   0  0  0  0  0  0  0  0  0  0  0  0
    0.4584    1.2775   -1.5353 C   0  0  0  0  0  0  0  0  0  0  0  0
    0.1483    1.0610   -2.5619 H   0  0  0  0  0  0  0  0  0  0  0  0
   -0.3639    1.8038   -1.0434 H   0  0  0  0  0  0  0  0  0  0  0  0
    1.6175    2.2656   -1.6246 C   0  0  0  0  0  0  0  0  0  0  0  0
    1.4594    3.1906   -2.4577 O   0  5  0  0  0  0  0  0  0  0  0  0
    2.6097    2.1460   -0.8751 O   0  0  0  0  0  0  0  0  0  0  0  0
    1.1604    0.0965    0.6698 C   0  0  0  0  0  0  0  0  0  0  0  0
    2.1789   -0.4404    1.0937 O   0  0  0  0  0  0  0  0  0  0  0  0
    0.2473    0.5808    1.5945 N   0  0  0  0  0  0  0  0  0  0  0  0
   -0.5287    1.1039    1.2087 H   0  0  0  0  0  0  0  0  0  0  0  0
    0.5694    0.7476    3.0036 C   0  0  0  0  0  0  0  0  0  0  0  0
    1.4282    1.4162    3.1218 H   0  0  0  0  0  0  0  0  0  0  0  0
   -0.2835    1.1791    3.5353 H   0  0  0  0  0  0  0  0  0  0  0  0
    0.8068   -0.2195    3.4584 H   0  0  0  0  0  0  0  0  0  0  0  0
  1  2  1  0  0  0  0
  2  3  1  0  0  0  0
  2  4  1  0  0  0  0
  2  5  1  0  0  0  0
  5  6  2  0  0  0  0
  5  7  1  0  0  0  0
  7  8  1  0  0  0  0
  7  9  1  0  0  0  0
  9 10  1  0  0  0  0
  9 11  1  0  0  0  0
  9 17  1  0  0  0  0
 11 12  1  0  0  0  0
 11 13  1  0  0  0  0
 11 14  1  0  0  0  0
 14 15  1  0  0  0  0
 14 16  2  0  0  0  0
 17 18  2  0  0  0  0
 17 19  1  0  0  0  0
 19 20  1  0  0  0  0
 19 21  1  0  0  0  0
 21 22  1  0  0  0  0
 21 23  1  0  0  0  0
 21 24  1  0  0  0  0
M  CHG  1  15  -1
M  END
$$$$

  -OEChem-03222214023D

 24 23  0     1  0  0  0  0  0999 V2000
   -2.5185   -3.4583   -0.2657 H   0  0  0  0  0  0  0  0  0  0  0  0
   -2.4039   -2.4587   -0.6948 C   0  0  0  0  0  0  0  0  0  0  0  0
   -3.1530   -1.7981   -0.2517 H   0  0  0  0  0  0  0  0  0  0  0  0
   -2.5706   -2.5184   -1.7733 H   0  0  0  0  0  0  0  0  0  0  0  0
   -1.0100   -1.9246   -0.4141 C   0  0  0  0  0  0  0  0  0  0  0  0
   -0.2283   -2.6109    0.2176 O   0  0  0  0  0  0  0  0  0  0  0  0
   -0.6679   -0.6773   -0.8926 N   0  0  0  0  0  0  0  0  0  0  0  0
   -1.3472   -0.2198   -1.4889 H   0  0  0  0  0  0  0  0  0  0  0  0
    0.6639   -0.0517   -0.8046 C   0  0  1  0  0  0  0  0  0  0  0  0
    1.4014   -0.6452   -1.3569 H   0  0  0  0  0  0  0  0  0  0  0  0
    0.4268    1.3062   -1.5051 C   0  0  0  0  0  0  0  0  0  0  0  0
   -0.1386    1.1432   -2.4271 H   0  0  0  0  0  0  0  0  0  0  0  0
   -0.1726    1.9528   -0.8587 H   0  0  0  0  0  0  0  0  0  0  0  0
    1.6789    2.0751   -1.9115 C   0  0  0  0  0  0  0  0  0  0  0  0
    1.4638    3.1749   -2.4769 O   0  5  0  0  0  0  0  0  0  0  0  0
    2.8063    1.5501   -1.7789 O   0  0  0  0  0  0  0  0  0  0  0  0
    1.1716    0.1399    0.6511 C   0  0  0  0  0  0  0  0  0  0  0  0
    2.2617   -0.2720    1.0302 O   0  0  0  0  0  0  0  0  0  0  0  0
    0.3003    0.6488    1.6015 N   0  0  0  0  0  0  0  0  0  0  0  0
   -0.6086    0.9474    1.2699 H   0  0  0  0  0  0  0  0  0  0  0  0
    0.6275    0.7774    3.0129 C   0  0  0  0  0  0  0  0  0  0  0  0
    1.5195    1.3987    3.1436 H   0  0  0  0  0  0  0  0  0  0  0  0
   -0.2025    1.2456    3.5497 H   0  0  0  0  0  0  0  0  0  0  0  0
    0.8136   -0.2079    3.4518 H   0  0  0  0  0  0  0  0  0  0  0  0
  1  2  1  0  0  0  0
  2  3  1  0  0  0  0
  2  4  1  0  0  0  0
  2  5  1  0  0  0  0
  5  6  2  0  0  0  0
  5  7  1  0  0  0  0
  7  8  1  0  0  0  0
  7  9  1  0  0  0  0
  9 10  1  0  0  0  0
  9 11  1  0  0  0  0
  9 17  1  0  0  0  0
 11 12  1  0  0  0  0
 11 13  1  0  0  0  0
 11 14  1  0  0  0  0
 14 15  1  0  0  0  0
 14 16  2  0  0  0  0
 17 18  2  0  0  0  0
 17 19  1  0  0  0  0
 19 20  1  0  0  0  0
 19 21  1  0  0  0  0
 21 22  1  0  0  0  0
 21 23  1  0  0  0  0
 21 24  1  0  0  0  0
M  CHG  1  15  -1
M  END
$$$$

  -OEChem-03222214023D

 24 23  0     1  0  0  0  0  0999 V2000
   -2.5232   -3.4741   -0.2826 H   0  0  0  0  0  0  0  0  0  0  0  0
   -2.4110   -2.4761   -0.7161 C   0  0  0  0  0  0  0  0  0  0  0  0
   -3.1723   -1.8192   -0.2883 H   0  0  0  0  0  0  0  0  0  0  0  0
   -2.5614   -2.5434   -1.7965 H   0  0  0  0  0  0  0  0  0  0  0  0
   -1.0260   -1.9286   -0.4189 C   0  0  0  0  0  0  0  0  0  0  0  0
   -0.2483   -2.6033    0.2300 O   0  0  0  0  0  0  0  0  0  0  0  0
   -0.6887   -0.6783   -0.8924 N   0  0  0  0  0  0  0  0  0  0  0  0
   -1.3578   -0.2343   -1.5099 H   0  0  0  0  0  0  0  0  0  0  0  0
    0.6435   -0.0548   -0.8031 C   0  0  1  0  0  0  0  0  0  0  0  0
    1.3749   -0.6523   -1.3592 H   0  0  0  0  0  0  0  0  0  0  0  0
    0.4223    1.3112   -1.4897 C   0  0  0  0  0  0  0  0  0  0  0  0
   -0.1418    1.1692   -2.4154 H   0  0  0  0  0  0  0  0  0  0  0  0
   -0.1706    1.9573   -0.8365 H   0  0  0  0  0  0  0  0  0  0  0  0
    1.6926    2.0585   -1.8793 C   0  0  0  0  0  0  0  0  0  0  0  0
    1.5353    3.2720   -2.1587 O   0  5  0  0  0  0  0  0  0  0  0  0
    2.7548    1.4181   -2.0496 O   0  0  0  0  0  0  0  0  0  0  0  0
    1.1588    0.1297    0.6497 C   0  0  0  0  0  0  0  0  0  0  0  0
    2.2749   -0.2304    1.0043 O   0  0  0  0  0  0  0  0  0  0  0  0
    0.2959    0.6340    1.6096 N   0  0  0  0  0  0  0  0  0  0  0  0
   -0.6237    0.9137    1.2908 H   0  0  0  0  0  0  0  0  0  0  0  0
    0.6529    0.8037    3.0094 C   0  0  0  0  0  0  0  0  0  0  0  0
    1.5291    1.4532    3.1045 H   0  0  0  0  0  0  0  0  0  0  0  0
   -0.1774    1.2604    3.5554 H   0  0  0  0  0  0  0  0  0  0  0  0
    0.8779   -0.1657    3.4656 H   0  0  0  0  0  0  0  0  0  0  0  0
  1  2  1  0  0  0  0
  2  3  1  0  0  0  0
  2  4  1  0  0  0  0
  2  5  1  0  0  0  0
  5  6  2  0  0  0  0
  5  7  1  0  0  0  0
  7  8  1  0  0  0  0
  7  9  1  0  0  0  0
  9 10  1  0  0  0  0
  9 11  1  0  0  0  0
  9 17  1  0  0  0  0
 11 12  1  0  0  0  0
 11 13  1  0  0  0  0
 11 14  1  0  0  0  0
 14 15  1  0  0  0  0
 14 16  2  0  0  0  0
 17 18  2  0  0  0  0
 17 19  1  0  0  0  0
 19 20  1  0  0  0  0
 19 21  1  0  0  0  0
 21 22  1  0  0  0  0
 21 23  1  0  0  0  0
 21 24  1  0  0  0  0
M  CHG  1  15  -1
M  END
$$$$

  -OEChem-03222214023D

 24 23  0     1  0  0  0  0  0999 V2000
   -2.5288   -3.4940   -0.3199 H   0  0  0  0  0  0  0  0  0  0  0  0
   -2.4184   -2.4940   -0.7490 C   0  0  0  0  0  0  0  0  0  0  0  0
   -3.1945   -1.8459   -0.3349 H   0  0  0  0  0  0  0  0  0  0  0  0
   -2.5474   -2.5600   -1.8322 H   0  0  0  0  0  0  0  0  0  0  0  0
   -1.0452   -1.9331   -0.4233 C   0  0  0  0  0  0  0  0  0  0  0  0
   -0.2742   -2.5996    0.2423 O   0  0  0  0  0  0  0  0  0  0  0  0
   -0.7104   -0.6793   -0.8893 N   0  0  0  0  0  0  0  0  0  0  0  0
   -1.3695   -0.2454   -1.5246 H   0  0  0  0  0  0  0  0  0  0  0  0
    0.6215   -0.0569   -0.7965 C   0  0  1  0  0  0  0  0  0  0  0  0
    1.3497   -0.6553   -1.3560 H   0  0  0  0  0  0  0  0  0  0  0  0
    0.4112    1.3118   -1.4770 C   0  0  0  0  0  0  0  0  0  0  0  0
   -0.1473    1.1820   -2.4077 H   0  0  0  0  0  0  0  0  0  0  0  0
   -0.1799    1.9600   -0.8238 H   0  0  0  0  0  0  0  0  0  0  0  0
    1.7005    2.0334   -1.8482 C   0  0  0  0  0  0  0  0  0  0  0  0
    1.6481    3.2875   -1.8407 O   0  5  0  0  0  0  0  0  0  0  0  0
    2.6573    1.3585   -2.2944 O   0  0  0  0  0  0  0  0  0  0  0  0
    1.1461    0.1215    0.6528 C   0  0  0  0  0  0  0  0  0  0  0  0
    2.2812   -0.2010    0.9819 O   0  0  0  0  0  0  0  0  0  0  0  0
    0.2939    0.6207    1.6242 N   0  0  0  0  0  0  0  0  0  0  0  0
   -0.6302    0.8993    1.3175 H   0  0  0  0  0  0  0  0  0  0  0  0
    0.6862    0.8357    3.0084 C   0  0  0  0  0  0  0  0  0  0  0  0
    1.5303    1.5308    3.0623 H   0  0  0  0  0  0  0  0  0  0  0  0
   -0.1483    1.2597    3.5743 H   0  0  0  0  0  0  0  0  0  0  0  0
    0.9759   -0.1120    3.4738 H   0  0  0  0  0  0  0  0  0  0  0  0
  1  2  1  0  0  0  0
  2  3  1  0  0  0  0
  2  4  1  0  0  0  0
  2  5  1  0  0  0  0
  5  6  2  0  0  0  0
  5  7  1  0  0  0  0
  7  8  1  0  0  0  0
  7  9  1  0  0  0  0
  9 10  1  0  0  0  0
  9 11  1  0  0  0  0
  9 17  1  0  0  0  0
 11 12  1  0  0  0  0
 11 13  1  0  0  0  0
 11 14  1  0  0  0  0
 14 15  1  0  0  0  0
 14 16  2  0  0  0  0
 17 18  2  0  0  0  0
 17 19  1  0  0  0  0
 19 20  1  0  0  0  0
 19 21  1  0  0  0  0
 21 22  1  0  0  0  0
 21 23  1  0  0  0  0
 21 24  1  0  0  0  0
M  CHG  1  15  -1
M  END
$$$$

  -OEChem-03222214023D

 24 23  0     1  0  0  0  0  0999 V2000
   -2.5240   -3.5081   -0.3385 H   0  0  0  0  0  0  0  0  0  0  0  0
   -2.4205   -2.5018   -0.7545 C   0  0  0  0  0  0  0  0  0  0  0  0
   -3.1929   -1.8613   -0.3221 H   0  0  0  0  0  0  0  0  0  0  0  0
   -2.5617   -2.5531   -1.8369 H   0  0  0  0  0  0  0  0  0  0  0  0
   -1.0451   -1.9420   -0.4366 C   0  0  0  0  0  0  0  0  0  0  0  0
   -0.2672   -2.6118    0.2179 O   0  0  0  0  0  0  0  0  0  0  0  0
   -0.7169   -0.6838   -0.8950 N   0  0  0  0  0  0  0  0  0  0  0  0
   -1.3800   -0.2462   -1.5235 H   0  0  0  0  0  0  0  0  0  0  0  0
    0.6115   -0.0560   -0.7970 C   0  0  1  0  0  0  0  0  0  0  0  0
    1.3422   -0.6490   -1.3591 H   0  0  0  0  0  0  0  0  0  0  0  0
    0.4018    1.3122   -1.4745 C   0  0  0  0  0  0  0  0  0  0  0  0
   -0.1482    1.1857   -2.4106 H   0  0  0  0  0  0  0  0  0  0  0  0
   -0.1935    1.9609   -0.8253 H   0  0  0  0  0  0  0  0  0  0  0  0
    1.7036    2.0173   -1.8280 C   0  0  0  0  0  0  0  0  0  0  0  0
    1.7747    3.2381   -1.5469 O   0  5  0  0  0  0  0  0  0  0  0  0
    2.5443    1.3853   -2.5103 O   0  0  0  0  0  0  0  0  0  0  0  0
    1.1385    0.1186    0.6513 C   0  0  0  0  0  0  0  0  0  0  0  0
    2.2784   -0.1984    0.9696 O   0  0  0  0  0  0  0  0  0  0  0  0
    0.2881    0.6091    1.6282 N   0  0  0  0  0  0  0  0  0  0  0  0
   -0.6249    0.9189    1.3181 H   0  0  0  0  0  0  0  0  0  0  0  0
    0.6964    0.8508    3.0032 C   0  0  0  0  0  0  0  0  0  0  0  0
    1.5276    1.5627    3.0358 H   0  0  0  0  0  0  0  0  0  0  0  0
   -0.1385    1.2656    3.5753 H   0  0  0  0  0  0  0  0  0  0  0  0
    1.0110   -0.0843    3.4775 H   0  0  0  0  0  0  0  0  0  0  0  0
  1  2  1  0  0  0  0
  2  3  1  0  0  0  0
  2  4  1  0  0  0  0
  2  5  1  0  0  0  0
  5  6  2  0  0  0  0
  5  7  1  0  0  0  0
  7  8  1  0  0  0  0
  7  9  1  0  0  0  0
  9 10  1  0  0  0  0
  9 11  1  0  0  0  0
  9 17  1  0  0  0  0
 11 12  1  0  0  0  0
 11 13  1  0  0  0  0
 11 14  1  0  0  0  0
 14 15  1  0  0  0  0
 14 16  2  0  0  0  0
 17 18  2  0  0  0  0
 17 19  1  0  0  0  0
 19 20  1  0  0  0  0
 19 21  1  0  0  0  0
 21 22  1  0  0  0  0
 21 23  1  0  0  0  0
 21 24  1  0  0  0  0
M  CHG  1  15  -1
M  END
$$$$

  -OEChem-03222214023D

 24 23  0     1  0  0  0  0  0999 V2000
   -2.5258   -3.5221   -0.3637 H   0  0  0  0  0  0  0  0  0  0  0  0
   -2.4249   -2.5133   -0.7742 C   0  0  0  0  0  0  0  0  0  0  0  0
   -3.2008   -1.8777   -0.3407 H   0  0  0  0  0  0  0  0  0  0  0  0
   -2.5626   -2.5597   -1.8573 H   0  0  0  0  0  0  0  0  0  0  0  0
   -1.0526   -1.9501   -0.4497 C   0  0  0  0  0  0  0  0  0  0  0  0
   -0.2716   -2.6241    0.1967 O   0  0  0  0  0  0  0  0  0  0  0  0
   -0.7279   -0.6876   -0.8986 N   0  0  0  0  0  0  0  0  0  0  0  0
   -1.3916   -0.2470   -1.5243 H   0  0  0  0  0  0  0  0  0  0  0  0
    0.5984   -0.0573   -0.7927 C   0  0  1  0  0  0  0  0  0  0  0  0
    1.3316   -0.6444   -1.3583 H   0  0  0  0  0  0  0  0  0  0  0  0
    0.3887    1.3101   -1.4674 C   0  0  0  0  0  0  0  0  0  0  0  0
   -0.1558    1.1871   -2.4076 H   0  0  0  0  0  0  0  0  0  0  0  0
   -0.2086    1.9600   -0.8214 H   0  0  0  0  0  0  0  0  0  0  0  0
    1.7005    2.0018   -1.8038 C   0  0  0  0  0  0  0  0  0  0  0  0
    1.9074    3.1208   -1.2760 O   0  5  0  0  0  0  0  0  0  0  0  0
    2.4241    1.4702   -2.6794 O   0  0  0  0  0  0  0  0  0  0  0  0
    1.1286    0.1118    0.6547 C   0  0  0  0  0  0  0  0  0  0  0  0
    2.2677   -0.2170    0.9645 O   0  0  0  0  0  0  0  0  0  0  0  0
    0.2820    0.5954    1.6385 N   0  0  0  0  0  0  0  0  0  0  0  0
   -0.6126    0.9502    1.3233 H   0  0  0  0  0  0  0  0  0  0  0  0
    0.7186    0.8764    2.9972 C   0  0  0  0  0  0  0  0  0  0  0  0
    1.5229    1.6193    2.9935 H   0  0  0  0  0  0  0  0  0  0  0  0
   -0.1151    1.2696    3.5861 H   0  0  0  0  0  0  0  0  0  0  0  0
    1.0813   -0.0377    3.4781 H   0  0  0  0  0  0  0  0  0  0  0  0
  1  2  1  0  0  0  0
  2  3  1  0  0  0  0
  2  4  1  0  0  0  0
  2  5  1  0  0  0  0
  5  6  2  0  0  0  0
  5  7  1  0  0  0  0
  7  8  1  0  0  0  0
  7  9  1  0  0  0  0
  9 10  1  0  0  0  0
  9 11  1  0  0  0  0
  9 17  1  0  0  0  0
 11 12  1  0  0  0  0
 11 13  1  0  0  0  0
 11 14  1  0  0  0  0
 14 15  1  0  0  0  0
 14 16  2  0  0  0  0
 17 18  2  0  0  0  0
 17 19  1  0  0  0  0
 19 20  1  0  0  0  0
 19 21  1  0  0  0  0
 21 22  1  0  0  0  0
 21 23  1  0  0  0  0
 21 24  1  0  0  0  0
M  CHG  1  15  -1
M  END
$$$$

  -OEChem-03222214023D

 24 23  0     1  0  0  0  0  0999 V2000
   -2.5207   -3.5257   -0.3700 H   0  0  0  0  0  0  0  0  0  0  0  0
   -2.4238   -2.5128   -0.7714 C   0  0  0  0  0  0  0  0  0  0  0  0
   -3.1940   -1.8809   -0.3222 H   0  0  0  0  0  0  0  0  0  0  0  0
   -2.5748   -2.5478   -1.8533 H   0  0  0  0  0  0  0  0  0  0  0  0
   -1.0468   -1.9546   -0.4581 C   0  0  0  0  0  0  0  0  0  0  0  0
   -0.2573   -2.6363    0.1696 O   0  0  0  0  0  0  0  0  0  0  0  0
   -0.7250   -0.6899   -0.9026 N   0  0  0  0  0  0  0  0  0  0  0  0
   -1.3982   -0.2389   -1.5103 H   0  0  0  0  0  0  0  0  0  0  0  0
    0.5980   -0.0540   -0.7918 C   0  0  1  0  0  0  0  0  0  0  0  0
    1.3350   -0.6378   -1.3553 H   0  0  0  0  0  0  0  0  0  0  0  0
    0.3828    1.3076   -1.4754 C   0  0  0  0  0  0  0  0  0  0  0  0
   -0.1582    1.1756   -2.4167 H   0  0  0  0  0  0  0  0  0  0  0  0
   -0.2186    1.9602   -0.8364 H   0  0  0  0  0  0  0  0  0  0  0  0
    1.6947    2.0002   -1.8057 C   0  0  0  0  0  0  0  0  0  0  0  0
    2.0328    2.9658   -1.0810 O   0  5  0  0  0  0  0  0  0  0  0  0
    2.2998    1.6216   -2.8372 O   0  0  0  0  0  0  0  0  0  0  0  0
    1.1267    0.1159    0.6562 C   0  0  0  0  0  0  0  0  0  0  0  0
    2.2556   -0.2436    0.9702 O   0  0  0  0  0  0  0  0  0  0  0  0
    0.2778    0.5950    1.6402 N   0  0  0  0  0  0  0  0  0  0  0  0
   -0.5982    0.9865    1.3167 H   0  0  0  0  0  0  0  0  0  0  0  0
    0.7188    0.8776    2.9972 C   0  0  0  0  0  0  0  0  0  0  0  0
    1.5154    1.6287    2.9908 H   0  0  0  0  0  0  0  0  0  0  0  0
   -0.1160    1.2609    3.5909 H   0  0  0  0  0  0  0  0  0  0  0  0
    1.0935   -0.0333    3.4747 H   0  0  0  0  0  0  0  0  0  0  0  0
  1  2  1  0  0  0  0
  2  3  1  0  0  0  0
  2  4  1  0  0  0  0
  2  5  1  0  0  0  0
  5  6  2  0  0  0  0
  5  7  1  0  0  0  0
  7  8  1  0  0  0  0
  7  9  1  0  0  0  0
  9 10  1  0  0  0  0
  9 11  1  0  0  0  0
  9 17  1  0  0  0  0
 11 12  1  0  0  0  0
 11 13  1  0  0  0  0
 11 14  1  0  0  0  0
 14 15  1  0  0  0  0
 14 16  2  0  0  0  0
 17 18  2  0  0  0  0
 17 19  1  0  0  0  0
 19 20  1  0  0  0  0
 19 21  1  0  0  0  0
 21 22  1  0  0  0  0
 21 23  1  0  0  0  0
 21 24  1  0  0  0  0
M  CHG  1  15  -1
M  END
$$$$

  -OEChem-03222214023D

 24 23  0     1  0  0  0  0  0999 V2000
   -2.5023   -3.5302   -0.3788 H   0  0  0  0  0  0  0  0  0  0  0  0
   -2.4162   -2.5069   -0.7554 C   0  0  0  0  0  0  0  0  0  0  0  0
   -3.1770   -1.8885   -0.2730 H   0  0  0  0  0  0  0  0  0  0  0  0
   -2.5913   -2.5147   -1.8340 H   0  0  0  0  0  0  0  0  0  0  0  0
   -1.0338   -1.9532   -0.4580 C   0  0  0  0  0  0  0  0  0  0  0  0
   -0.2371   -2.6409    0.1537 O   0  0  0  0  0  0  0  0  0  0  0  0
   -0.7143   -0.6885   -0.9044 N   0  0  0  0  0  0  0  0  0  0  0  0
   -1.3975   -0.2302   -1.4952 H   0  0  0  0  0  0  0  0  0  0  0  0
    0.6056   -0.0459   -0.7920 C   0  0  1  0  0  0  0  0  0  0  0  0
    1.3468   -0.6307   -1.3488 H   0  0  0  0  0  0  0  0  0  0  0  0
    0.3825    1.3053   -1.4953 C   0  0  0  0  0  0  0  0  0  0  0  0
   -0.1578    1.1549   -2.4347 H   0  0  0  0  0  0  0  0  0  0  0  0
   -0.2240    1.9625   -0.8662 H   0  0  0  0  0  0  0  0  0  0  0  0
    1.6874    2.0090   -1.8303 C   0  0  0  0  0  0  0  0  0  0  0  0
    2.1597    2.7877   -0.9698 O   0  5  0  0  0  0  0  0  0  0  0  0
    2.1614    1.8232   -2.9770 O   0  0  0  0  0  0  0  0  0  0  0  0
    1.1298    0.1309    0.6572 C   0  0  0  0  0  0  0  0  0  0  0  0
    2.2428   -0.2666    0.9836 O   0  0  0  0  0  0  0  0  0  0  0  0
    0.2760    0.6092    1.6376 N   0  0  0  0  0  0  0  0  0  0  0  0
   -0.5867    1.0250    1.3090 H   0  0  0  0  0  0  0  0  0  0  0  0
    0.7042    0.8590    3.0051 C   0  0  0  0  0  0  0  0  0  0  0  0
    1.5284    1.5797    3.0212 H   0  0  0  0  0  0  0  0  0  0  0  0
   -0.1254    1.2663    3.5899 H   0  0  0  0  0  0  0  0  0  0  0  0
    1.0363   -0.0712    3.4772 H   0  0  0  0  0  0  0  0  0  0  0  0
  1  2  1  0  0  0  0
  2  3  1  0  0  0  0
  2  4  1  0  0  0  0
  2  5  1  0  0  0  0
  5  6  2  0  0  0  0
  5  7  1  0  0  0  0
  7  8  1  0  0  0  0
  7  9  1  0  0  0  0
  9 10  1  0  0  0  0
  9 11  1  0  0  0  0
  9 17  1  0  0  0  0
 11 12  1  0  0  0  0
 11 13  1  0  0  0  0
 11 14  1  0  0  0  0
 14 15  1  0  0  0  0
 14 16  2  0  0  0  0
 17 18  2  0  0  0  0
 17 19  1  0  0  0  0
 19 20  1  0  0  0  0
 19 21  1  0  0  0  0
 21 22  1  0  0  0  0
 21 23  1  0  0  0  0
 21 24  1  0  0  0  0
M  CHG  1  15  -1
M  END
$$$$

  -OEChem-03222214023D

 24 23  0     1  0  0  0  0  0999 V2000
   -2.4983   -3.5102   -0.3389 H   0  0  0  0  0  0  0  0  0  0  0  0
   -2.4091   -2.4893   -0.7213 C   0  0  0  0  0  0  0  0  0  0  0  0
   -3.1462   -1.8590   -0.2178 H   0  0  0  0  0  0  0  0  0  0  0  0
   -2.6166   -2.4964   -1.7942 H   0  0  0  0  0  0  0  0  0  0  0  0
   -1.0103   -1.9555   -0.4672 C   0  0  0  0  0  0  0  0  0  0  0  0
   -0.2023   -2.6583    0.1115 O   0  0  0  0  0  0  0  0  0  0  0  0
   -0.6899   -0.6912   -0.9141 N   0  0  0  0  0  0  0  0  0  0  0  0
   -1.3911   -0.2112   -1.4652 H   0  0  0  0  0  0  0  0  0  0  0  0
    0.6272   -0.0435   -0.7975 C   0  0  1  0  0  0  0  0  0  0  0  0
    1.3749   -0.6261   -1.3474 H   0  0  0  0  0  0  0  0  0  0  0  0
    0.3920    1.3012   -1.5139 C   0  0  0  0  0  0  0  0  0  0  0  0
   -0.1500    1.1333   -2.4498 H   0  0  0  0  0  0  0  0  0  0  0  0
   -0.2207    1.9561   -0.8887 H   0  0  0  0  0  0  0  0  0  0  0  0
    1.6812    2.0304   -1.8591 C   0  0  0  0  0  0  0  0  0  0  0  0
    2.2952    2.5967   -0.9265 O   0  5  0  0  0  0  0  0  0  0  0  0
    2.0042    2.0782   -3.0707 O   0  0  0  0  0  0  0  0  0  0  0  0
    1.1372    0.1351    0.6571 C   0  0  0  0  0  0  0  0  0  0  0  0
    2.2277   -0.3038    1.0067 O   0  0  0  0  0  0  0  0  0  0  0  0
    0.2697    0.6115    1.6266 N   0  0  0  0  0  0  0  0  0  0  0  0
   -0.5740    1.0545    1.2846 H   0  0  0  0  0  0  0  0  0  0  0  0
    0.6721    0.8309    3.0072 C   0  0  0  0  0  0  0  0  0  0  0  0
    1.5099    1.5343    3.0533 H   0  0  0  0  0  0  0  0  0  0  0  0
   -0.1620    1.2456    3.5802 H   0  0  0  0  0  0  0  0  0  0  0  0
    0.9753   -0.1135    3.4707 H   0  0  0  0  0  0  0  0  0  0  0  0
  1  2  1  0  0  0  0
  2  3  1  0  0  0  0
  2  4  1  0  0  0  0
  2  5  1  0  0  0  0
  5  6  2  0  0  0  0
  5  7  1  0  0  0  0
  7  8  1  0  0  0  0
  7  9  1  0  0  0  0
  9 10  1  0  0  0  0
  9 11  1  0  0  0  0
  9 17  1  0  0  0  0
 11 12  1  0  0  0  0
 11 13  1  0  0  0  0
 11 14  1  0  0  0  0
 14 15  1  0  0  0  0
 14 16  2  0  0  0  0
 17 18  2  0  0  0  0
 17 19  1  0  0  0  0
 19 20  1  0  0  0  0
 19 21  1  0  0  0  0
 21 22  1  0  0  0  0
 21 23  1  0  0  0  0
 21 24  1  0  0  0  0
M  CHG  1  15  -1
M  END
$$$$

  -OEChem-03222214023D

 24 23  0     1  0  0  0  0  0999 V2000
   -2.5005   -3.4981   -0.3311 H   0  0  0  0  0  0  0  0  0  0  0  0
   -2.4061   -2.4772   -0.7117 C   0  0  0  0  0  0  0  0  0  0  0  0
   -3.1363   -1.8432   -0.2032 H   0  0  0  0  0  0  0  0  0  0  0  0
   -2.6192   -2.4809   -1.7835 H   0  0  0  0  0  0  0  0  0  0  0  0
   -1.0026   -1.9530   -0.4635 C   0  0  0  0  0  0  0  0  0  0  0  0
   -0.1950   -2.6654    0.1039 O   0  0  0  0  0  0  0  0  0  0  0  0
   -0.6757   -0.6911   -0.9127 N   0  0  0  0  0  0  0  0  0  0  0  0
   -1.3783   -0.2049   -1.4567 H   0  0  0  0  0  0  0  0  0  0  0  0
    0.6433   -0.0460   -0.7958 C   0  0  1  0  0  0  0  0  0  0  0  0
    1.3932   -0.6289   -1.3417 H   0  0  0  0  0  0  0  0  0  0  0  0
    0.4007    1.2955   -1.5209 C   0  0  0  0  0  0  0  0  0  0  0  0
   -0.1470    1.1153   -2.4512 H   0  0  0  0  0  0  0  0  0  0  0  0
   -0.2131    1.9475   -0.8942 H   0  0  0  0  0  0  0  0  0  0  0  0
    1.6735    2.0485   -1.8841 C   0  0  0  0  0  0  0  0  0  0  0  0
    2.4439    2.3912   -0.9601 O   0  5  0  0  0  0  0  0  0  0  0  0
    1.8290    2.3389   -3.0953 O   0  0  0  0  0  0  0  0  0  0  0  0
    1.1447    0.1326    0.6628 C   0  0  0  0  0  0  0  0  0  0  0  0
    2.2162   -0.3374    1.0309 O   0  0  0  0  0  0  0  0  0  0  0  0
    0.2698    0.6130    1.6246 N   0  0  0  0  0  0  0  0  0  0  0  0
   -0.5634    1.0695    1.2752 H   0  0  0  0  0  0  0  0  0  0  0  0
    0.6561    0.8165    3.0125 C   0  0  0  0  0  0  0  0  0  0  0  0
    1.4958    1.5162    3.0757 H   0  0  0  0  0  0  0  0  0  0  0  0
   -0.1836    1.2279    3.5801 H   0  0  0  0  0  0  0  0  0  0  0  0
    0.9505   -0.1334    3.4703 H   0  0  0  0  0  0  0  0  0  0  0  0
  1  2  1  0  0  0  0
  2  3  1  0  0  0  0
  2  4  1  0  0  0  0
  2  5  1  0  0  0  0
  5  6  2  0  0  0  0
  5  7  1  0  0  0  0
  7  8  1  0  0  0  0
  7  9  1  0  0  0  0
  9 10  1  0  0  0  0
  9 11  1  0  0  0  0
  9 17  1  0  0  0  0
 11 12  1  0  0  0  0
 11 13  1  0  0  0  0
 11 14  1  0  0  0  0
 14 15  1  0  0  0  0
 14 16  2  0  0  0  0
 17 18  2  0  0  0  0
 17 19  1  0  0  0  0
 19 20  1  0  0  0  0
 19 21  1  0  0  0  0
 21 22  1  0  0  0  0
 21 23  1  0  0  0  0
 21 24  1  0  0  0  0
M  CHG  1  15  -1
M  END
$$$$

  -OEChem-03222214023D

 24 23  0     1  0  0  0  0  0999 V2000
   -2.4969   -3.4782   -0.2976 H   0  0  0  0  0  0  0  0  0  0  0  0
   -2.3988   -2.4599   -0.6847 C   0  0  0  0  0  0  0  0  0  0  0  0
   -3.1196   -1.8179   -0.1725 H   0  0  0  0  0  0  0  0  0  0  0  0
   -2.6221   -2.4674   -1.7544 H   0  0  0  0  0  0  0  0  0  0  0  0
   -0.9890   -1.9452   -0.4530 C   0  0  0  0  0  0  0  0  0  0  0  0
   -0.1809   -2.6625    0.1070 O   0  0  0  0  0  0  0  0  0  0  0  0
   -0.6574   -0.6878   -0.9114 N   0  0  0  0  0  0  0  0  0  0  0  0
   -1.3657   -0.1944   -1.4411 H   0  0  0  0  0  0  0  0  0  0  0  0
    0.6641   -0.0454   -0.8020 C   0  0  1  0  0  0  0  0  0  0  0  0
    1.4154   -0.6291   -1.3453 H   0  0  0  0  0  0  0  0  0  0  0  0
    0.4141    1.2949   -1.5317 C   0  0  0  0  0  0  0  0  0  0  0  0
   -0.1405    1.1054   -2.4562 H   0  0  0  0  0  0  0  0  0  0  0  0
   -0.1983    1.9451   -0.9021 H   0  0  0  0  0  0  0  0  0  0  0  0
    1.6701    2.0671   -1.9174 C   0  0  0  0  0  0  0  0  0  0  0  0
    2.5902    2.1870   -1.0797 O   0  5  0  0  0  0  0  0  0  0  0  0
    1.6628    2.5972   -3.0553 O   0  0  0  0  0  0  0  0  0  0  0  0
    1.1578    0.1370    0.6598 C   0  0  0  0  0  0  0  0  0  0  0  0
    2.2139   -0.3522    1.0470 O   0  0  0  0  0  0  0  0  0  0  0  0
    0.2752    0.6242    1.6114 N   0  0  0  0  0  0  0  0  0  0  0  0
   -0.5624    1.0683    1.2567 H   0  0  0  0  0  0  0  0  0  0  0  0
    0.6247    0.7852    3.0145 C   0  0  0  0  0  0  0  0  0  0  0  0
    1.4860    1.4531    3.1187 H   0  0  0  0  0  0  0  0  0  0  0  0
   -0.2170    1.2149    3.5651 H   0  0  0  0  0  0  0  0  0  0  0  0
    0.8708   -0.1841    3.4601 H   0  0  0  0  0  0  0  0  0  0  0  0
  1  2  1  0  0  0  0
  2  3  1  0  0  0  0
  2  4  1  0  0  0  0
  2  5  1  0  0  0  0
  5  6  2  0  0  0  0
  5  7  1  0  0  0  0
  7  8  1  0  0  0  0
  7  9  1  0  0  0  0
  9 10  1  0  0  0  0
  9 11  1  0  0  0  0
  9 17  1  0  0  0  0
 11 12  1  0  0  0  0
 11 13  1  0  0  0  0
 11 14  1  0  0  0  0
 14 15  1  0  0  0  0
 14 16  2  0  0  0  0
 17 18  2  0  0  0  0
 17 19  1  0  0  0  0
 19 20  1  0  0  0  0
 19 21  1  0  0  0  0
 21 22  1  0  0  0  0
 21 23  1  0  0  0  0
 21 24  1  0  0  0  0
M  CHG  1  15  -1
M  END
$$$$

  -OEChem-03222214023D

 24 23  0     1  0  0  0  0  0999 V2000
   -2.5099   -3.4598   -0.2749 H   0  0  0  0  0  0  0  0  0  0  0  0
   -2.4005   -2.4493   -0.6790 C   0  0  0  0  0  0  0  0  0  0  0  0
   -3.1192   -1.7923   -0.1833 H   0  0  0  0  0  0  0  0  0  0  0  0
   -2.6160   -2.4738   -1.7500 H   0  0  0  0  0  0  0  0  0  0  0  0
   -0.9885   -1.9416   -0.4461 C   0  0  0  0  0  0  0  0  0  0  0  0
   -0.1869   -2.6586    0.1235 O   0  0  0  0  0  0  0  0  0  0  0  0
   -0.6500   -0.6881   -0.9098 N   0  0  0  0  0  0  0  0  0  0  0  0
   -1.3529   -0.1979   -1.4500 H   0  0  0  0  0  0  0  0  0  0  0  0
    0.6749   -0.0512   -0.8047 C   0  0  1  0  0  0  0  0  0  0  0  0
    1.4251   -0.6351   -1.3492 H   0  0  0  0  0  0  0  0  0  0  0  0
    0.4217    1.2936   -1.5266 C   0  0  0  0  0  0  0  0  0  0  0  0
   -0.1353    1.1049   -2.4496 H   0  0  0  0  0  0  0  0  0  0  0  0
   -0.1900    1.9388   -0.8911 H   0  0  0  0  0  0  0  0  0  0  0  0
    1.6661    2.0786   -1.9254 C   0  0  0  0  0  0  0  0  0  0  0  0
    2.7073    1.9814   -1.2413 O   0  5  0  0  0  0  0  0  0  0  0  0
    1.5313    2.8318   -2.9204 O   0  0  0  0  0  0  0  0  0  0  0  0
    1.1665    0.1326    0.6580 C   0  0  0  0  0  0  0  0  0  0  0  0
    2.2208   -0.3532    1.0535 O   0  0  0  0  0  0  0  0  0  0  0  0
    0.2824    0.6265    1.6048 N   0  0  0  0  0  0  0  0  0  0  0  0
   -0.5730    1.0359    1.2508 H   0  0  0  0  0  0  0  0  0  0  0  0
    0.6174    0.7779    3.0124 C   0  0  0  0  0  0  0  0  0  0  0  0
    1.4837    1.4372    3.1294 H   0  0  0  0  0  0  0  0  0  0  0  0
   -0.2268    1.2134    3.5546 H   0  0  0  0  0  0  0  0  0  0  0  0
    0.8493   -0.1955    3.4566 H   0  0  0  0  0  0  0  0  0  0  0  0
  1  2  1  0  0  0  0
  2  3  1  0  0  0  0
  2  4  1  0  0  0  0
  2  5  1  0  0  0  0
  5  6  2  0  0  0  0
  5  7  1  0  0  0  0
  7  8  1  0  0  0  0
  7  9  1  0  0  0  0
  9 10  1  0  0  0  0
  9 11  1  0  0  0  0
  9 17  1  0  0  0  0
 11 12  1  0  0  0  0
 11 13  1  0  0  0  0
 11 14  1  0  0  0  0
 14 15  1  0  0  0  0
 14 16  2  0  0  0  0
 17 18  2  0  0  0  0
 17 19  1  0  0  0  0
 19 20  1  0  0  0  0
 19 21  1  0  0  0  0
 21 22  1  0  0  0  0
 21 23  1  0  0  0  0
 21 24  1  0  0  0  0
M  CHG  1  15  -1
M  END
$$$$

  -OEChem-03222214023D

 24 23  0     1  0  0  0  0  0999 V2000
   -2.5177   -3.4519   -0.2573 H   0  0  0  0  0  0  0  0  0  0  0  0
   -2.4030   -2.4492   -0.6790 C   0  0  0  0  0  0  0  0  0  0  0  0
   -3.1287   -1.7836   -0.2055 H   0  0  0  0  0  0  0  0  0  0  0  0
   -2.6048   -2.4942   -1.7521 H   0  0  0  0  0  0  0  0  0  0  0  0
   -0.9938   -1.9369   -0.4372 C   0  0  0  0  0  0  0  0  0  0  0  0
   -0.1973   -2.6470    0.1478 O   0  0  0  0  0  0  0  0  0  0  0  0
   -0.6526   -0.6860   -0.9064 N   0  0  0  0  0  0  0  0  0  0  0  0
   -1.3518   -0.2003   -1.4555 H   0  0  0  0  0  0  0  0  0  0  0  0
    0.6755   -0.0536   -0.8081 C   0  0  1  0  0  0  0  0  0  0  0  0
    1.4219   -0.6387   -1.3567 H   0  0  0  0  0  0  0  0  0  0  0  0
    0.4251    1.2973   -1.5192 C   0  0  0  0  0  0  0  0  0  0  0  0
   -0.1343    1.1167   -2.4420 H   0  0  0  0  0  0  0  0  0  0  0  0
   -0.1828    1.9396   -0.8771 H   0  0  0  0  0  0  0  0  0  0  0  0
    1.6672    2.0827   -1.9243 C   0  0  0  0  0  0  0  0  0  0  0  0
    2.7828    1.7854   -1.4462 O   0  5  0  0  0  0  0  0  0  0  0  0
    1.4604    3.0259   -2.7263 O   0  0  0  0  0  0  0  0  0  0  0  0
    1.1716    0.1323    0.6528 C   0  0  0  0  0  0  0  0  0  0  0  0
    2.2352   -0.3323    1.0476 O   0  0  0  0  0  0  0  0  0  0  0  0
    0.2902    0.6321    1.5992 N   0  0  0  0  0  0  0  0  0  0  0  0
   -0.5842    1.0043    1.2504 H   0  0  0  0  0  0  0  0  0  0  0  0
    0.6179    0.7746    3.0094 C   0  0  0  0  0  0  0  0  0  0  0  0
    1.4961    1.4164    3.1338 H   0  0  0  0  0  0  0  0  0  0  0  0
   -0.2210    1.2263    3.5468 H   0  0  0  0  0  0  0  0  0  0  0  0
    0.8275   -0.2042    3.4525 H   0  0  0  0  0  0  0  0  0  0  0  0
  1  2  1  0  0  0  0
  2  3  1  0  0  0  0
  2  4  1  0  0  0  0
  2  5  1  0  0  0  0
  5  6  2  0  0  0  0
  5  7  1  0  0  0  0
  7  8  1  0  0  0  0
  7  9  1  0  0  0  0
  9 10  1  0  0  0  0
  9 11  1  0  0  0  0
  9 17  1  0  0  0  0
 11 12  1  0  0  0  0
 11 13  1  0  0  0  0
 11 14  1  0  0  0  0
 14 15  1  0  0  0  0
 14 16  2  0  0  0  0
 17 18  2  0  0  0  0
 17 19  1  0  0  0  0
 19 20  1  0  0  0  0
 19 21  1  0  0  0  0
 21 22  1  0  0  0  0
 21 23  1  0  0  0  0
 21 24  1  0  0  0  0
M  CHG  1  15  -1
M  END
$$$$

  -OEChem-03222214023D

 24 23  0     1  0  0  0  0  0999 V2000
   -2.5191   -3.4542   -0.2569 H   0  0  0  0  0  0  0  0  0  0  0  0
   -2.4052   -2.4530   -0.6819 C   0  0  0  0  0  0  0  0  0  0  0  0
   -3.1383   -1.7887   -0.2181 H   0  0  0  0  0  0  0  0  0  0  0  0
   -2.5966   -2.5036   -1.7566 H   0  0  0  0  0  0  0  0  0  0  0  0
   -1.0010   -1.9329   -0.4290 C   0  0  0  0  0  0  0  0  0  0  0  0
   -0.2089   -2.6328    0.1742 O   0  0  0  0  0  0  0  0  0  0  0  0
   -0.6610   -0.6834   -0.9029 N   0  0  0  0  0  0  0  0  0  0  0  0
   -1.3533   -0.2101   -1.4710 H   0  0  0  0  0  0  0  0  0  0  0  0
    0.6683   -0.0531   -0.8104 C   0  0  1  0  0  0  0  0  0  0  0  0
    1.4103   -0.6414   -1.3621 H   0  0  0  0  0  0  0  0  0  0  0  0
    0.4242    1.3031   -1.5126 C   0  0  0  0  0  0  0  0  0  0  0  0
   -0.1345    1.1312   -2.4371 H   0  0  0  0  0  0  0  0  0  0  0  0
   -0.1811    1.9451   -0.8671 H   0  0  0  0  0  0  0  0  0  0  0  0
    1.6716    2.0806   -1.9169 C   0  0  0  0  0  0  0  0  0  0  0  0
    2.8078    1.6160   -1.6791 O   0  5  0  0  0  0  0  0  0  0  0  0
    1.4508    3.1727   -2.4947 O   0  0  0  0  0  0  0  0  0  0  0  0
    1.1711    0.1361    0.6474 C   0  0  0  0  0  0  0  0  0  0  0  0
    2.2510   -0.2970    1.0329 O   0  0  0  0  0  0  0  0  0  0  0  0
    0.2958    0.6395    1.5974 N   0  0  0  0  0  0  0  0  0  0  0  0
   -0.5978    0.9739    1.2586 H   0  0  0  0  0  0  0  0  0  0  0  0
    0.6245    0.7743    3.0082 C   0  0  0  0  0  0  0  0  0  0  0  0
    1.5102    1.4053    3.1354 H   0  0  0  0  0  0  0  0  0  0  0  0
   -0.2091    1.2346    3.5463 H   0  0  0  0  0  0  0  0  0  0  0  0
    0.8220   -0.2081    3.4488 H   0  0  0  0  0  0  0  0  0  0  0  0
  1  2  1  0  0  0  0
  2  3  1  0  0  0  0
  2  4  1  0  0  0  0
  2  5  1  0  0  0  0
  5  6  2  0  0  0  0
  5  7  1  0  0  0  0
  7  8  1  0  0  0  0
  7  9  1  0  0  0  0
  9 10  1  0  0  0  0
  9 11  1  0  0  0  0
  9 17  1  0  0  0  0
 11 12  1  0  0  0  0
 11 13  1  0  0  0  0
 11 14  1  0  0  0  0
 14 15  1  0  0  0  0
 14 16  2  0  0  0  0
 17 18  2  0  0  0  0
 17 19  1  0  0  0  0
 19 20  1  0  0  0  0
 19 21  1  0  0  0  0
 21 22  1  0  0  0  0
 21 23  1  0  0  0  0
 21 24  1  0  0  0  0
M  CHG  1  15  -1
M  END
$$$$

  -OEChem-03222214023D

 24 23  0     1  0  0  0  0  0999 V2000
   -2.5260   -3.4685   -0.2842 H   0  0  0  0  0  0  0  0  0  0  0  0
   -2.4122   -2.4682   -0.7116 C   0  0  0  0  0  0  0  0  0  0  0  0
   -3.1666   -1.8105   -0.2730 H   0  0  0  0  0  0  0  0  0  0  0  0
   -2.5720   -2.5274   -1.7910 H   0  0  0  0  0  0  0  0  0  0  0  0
   -1.0219   -1.9300   -0.4224 C   0  0  0  0  0  0  0  0  0  0  0  0
   -0.2407   -2.6148    0.2115 O   0  0  0  0  0  0  0  0  0  0  0  0
   -0.6823   -0.6796   -0.8942 N   0  0  0  0  0  0  0  0  0  0  0  0
   -1.3603   -0.2228   -1.4924 H   0  0  0  0  0  0  0  0  0  0  0  0
    0.6496   -0.0550   -0.8052 C   0  0  1  0  0  0  0  0  0  0  0  0
    1.3836   -0.6480   -1.3626 H   0  0  0  0  0  0  0  0  0  0  0  0
    0.4172    1.3082   -1.4952 C   0  0  0  0  0  0  0  0  0  0  0  0
   -0.1417    1.1505   -2.4217 H   0  0  0  0  0  0  0  0  0  0  0  0
   -0.1826    1.9506   -0.8445 H   0  0  0  0  0  0  0  0  0  0  0  0
    1.6771    2.0687   -1.8928 C   0  0  0  0  0  0  0  0  0  0  0  0
    2.7796    1.4776   -1.9198 O   0  5  0  0  0  0  0  0  0  0  0  0
    1.4964    3.2651   -2.2264 O   0  0  0  0  0  0  0  0  0  0  0  0
    1.1642    0.1288    0.6485 C   0  0  0  0  0  0  0  0  0  0  0  0
    2.2676   -0.2611    1.0120 O   0  0  0  0  0  0  0  0  0  0  0  0
    0.2995    0.6322    1.6074 N   0  0  0  0  0  0  0  0  0  0  0  0
   -0.6084    0.9408    1.2821 H   0  0  0  0  0  0  0  0  0  0  0  0
    0.6538    0.7957    3.0086 C   0  0  0  0  0  0  0  0  0  0  0  0
    1.5238    1.4529    3.1078 H   0  0  0  0  0  0  0  0  0  0  0  0
   -0.1812    1.2401    3.5579 H   0  0  0  0  0  0  0  0  0  0  0  0
    0.8882   -0.1745    3.4583 H   0  0  0  0  0  0  0  0  0  0  0  0
  1  2  1  0  0  0  0
  2  3  1  0  0  0  0
  2  4  1  0  0  0  0
  2  5  1  0  0  0  0
  5  6  2  0  0  0  0
  5  7  1  0  0  0  0
  7  8  1  0  0  0  0
  7  9  1  0  0  0  0
  9 10  1  0  0  0  0
  9 11  1  0  0  0  0
  9 17  1  0  0  0  0
 11 12  1  0  0  0  0
 11 13  1  0  0  0  0
 11 14  1  0  0  0  0
 14 15  1  0  0  0  0
 14 16  2  0  0  0  0
 17 18  2  0  0  0  0
 17 19  1  0  0  0  0
 19 20  1  0  0  0  0
 19 21  1  0  0  0  0
 21 22  1  0  0  0  0
 21 23  1  0  0  0  0
 21 24  1  0  0  0  0
M  CHG  1  15  -1
M  END
$$$$

  -OEChem-03222214023D

 24 23  0     1  0  0  0  0  0999 V2000
   -2.5236   -3.4855   -0.3100 H   0  0  0  0  0  0  0  0  0  0  0  0
   -2.4156   -2.4811   -0.7295 C   0  0  0  0  0  0  0  0  0  0  0  0
   -3.1793   -1.8330   -0.2930 H   0  0  0  0  0  0  0  0  0  0  0  0
   -2.5655   -2.5338   -1.8108 H   0  0  0  0  0  0  0  0  0  0  0  0
   -1.0333   -1.9315   -0.4243 C   0  0  0  0  0  0  0  0  0  0  0  0
   -0.2545   -2.6076    0.2220 O   0  0  0  0  0  0  0  0  0  0  0  0
   -0.6992   -0.6782   -0.8921 N   0  0  0  0  0  0  0  0  0  0  0  0
   -1.3696   -0.2337   -1.5079 H   0  0  0  0  0  0  0  0  0  0  0  0
    0.6319   -0.0533   -0.8028 C   0  0  1  0  0  0  0  0  0  0  0  0
    1.3616   -0.6493   -1.3629 H   0  0  0  0  0  0  0  0  0  0  0  0
    0.4102    1.3139   -1.4848 C   0  0  0  0  0  0  0  0  0  0  0  0
   -0.1447    1.1675   -2.4153 H   0  0  0  0  0  0  0  0  0  0  0  0
   -0.1874    1.9579   -0.8336 H   0  0  0  0  0  0  0  0  0  0  0  0
    1.6864    2.0533   -1.8681 C   0  0  0  0  0  0  0  0  0  0  0  0
    2.7098    1.3940   -2.1621 O   0  5  0  0  0  0  0  0  0  0  0  0
    1.5891    3.3021   -1.9461 O   0  0  0  0  0  0  0  0  0  0  0  0
    1.1545    0.1263    0.6478 C   0  0  0  0  0  0  0  0  0  0  0  0
    2.2772   -0.2252    0.9899 O   0  0  0  0  0  0  0  0  0  0  0  0
    0.2978    0.6249    1.6159 N   0  0  0  0  0  0  0  0  0  0  0  0
   -0.6183    0.9206    1.3019 H   0  0  0  0  0  0  0  0  0  0  0  0
    0.6736    0.8122    3.0086 C   0  0  0  0  0  0  0  0  0  0  0  0
    1.5299    1.4901    3.0854 H   0  0  0  0  0  0  0  0  0  0  0  0
   -0.1612    1.2438    3.5682 H   0  0  0  0  0  0  0  0  0  0  0  0
    0.9378   -0.1475    3.4641 H   0  0  0  0  0  0  0  0  0  0  0  0
  1  2  1  0  0  0  0
  2  3  1  0  0  0  0
  2  4  1  0  0  0  0
  2  5  1  0  0  0  0
  5  6  2  0  0  0  0
  5  7  1  0  0  0  0
  7  8  1  0  0  0  0
  7  9  1  0  0  0  0
  9 10  1  0  0  0  0
  9 11  1  0  0  0  0
  9 17  1  0  0  0  0
 11 12  1  0  0  0  0
 11 13  1  0  0  0  0
 11 14  1  0  0  0  0
 14 15  1  0  0  0  0
 14 16  2  0  0  0  0
 17 18  2  0  0  0  0
 17 19  1  0  0  0  0
 19 20  1  0  0  0  0
 19 21  1  0  0  0  0
 21 22  1  0  0  0  0
 21 23  1  0  0  0  0
 21 24  1  0  0  0  0
M  CHG  1  15  -1
M  END
$$$$

  -OEChem-03222214023D

 24 23  0     1  0  0  0  0  0999 V2000
   -2.5273   -3.5027   -0.3357 H   0  0  0  0  0  0  0  0  0  0  0  0
   -2.4216   -2.4985   -0.7557 C   0  0  0  0  0  0  0  0  0  0  0  0
   -3.1947   -1.8555   -0.3283 H   0  0  0  0  0  0  0  0  0  0  0  0
   -2.5597   -2.5546   -1.8383 H   0  0  0  0  0  0  0  0  0  0  0  0
   -1.0464   -1.9390   -0.4365 C   0  0  0  0  0  0  0  0  0  0  0  0
   -0.2688   -2.6113    0.2155 O   0  0  0  0  0  0  0  0  0  0  0  0
   -0.7172   -0.6804   -0.8936 N   0  0  0  0  0  0  0  0  0  0  0  0
   -1.3828   -0.2394   -1.5169 H   0  0  0  0  0  0  0  0  0  0  0  0
    0.6130   -0.0546   -0.7985 C   0  0  1  0  0  0  0  0  0  0  0  0
    1.3415   -0.6471   -1.3639 H   0  0  0  0  0  0  0  0  0  0  0  0
    0.4007    1.3180   -1.4687 C   0  0  0  0  0  0  0  0  0  0  0  0
   -0.1491    1.1861   -2.4043 H   0  0  0  0  0  0  0  0  0  0  0  0
   -0.1954    1.9626   -0.8165 H   0  0  0  0  0  0  0  0  0  0  0  0
    1.6956    2.0334   -1.8301 C   0  0  0  0  0  0  0  0  0  0  0  0
    2.6054    1.3735   -2.3847 O   0  5  0  0  0  0  0  0  0  0  0  0
    1.7164    3.2744   -1.6446 O   0  0  0  0  0  0  0  0  0  0  0  0
    1.1417    0.1151    0.6500 C   0  0  0  0  0  0  0  0  0  0  0  0
    2.2788   -0.2089    0.9710 O   0  0  0  0  0  0  0  0  0  0  0  0
    0.2917    0.6047    1.6281 N   0  0  0  0  0  0  0  0  0  0  0  0
   -0.6221    0.9133    1.3193 H   0  0  0  0  0  0  0  0  0  0  0  0
    0.6999    0.8413    3.0039 C   0  0  0  0  0  0  0  0  0  0  0  0
    1.5326    1.5512    3.0382 H   0  0  0  0  0  0  0  0  0  0  0  0
   -0.1341    1.2561    3.5772 H   0  0  0  0  0  0  0  0  0  0  0  0
    1.0125   -0.0959    3.4752 H   0  0  0  0  0  0  0  0  0  0  0  0
  1  2  1  0  0  0  0
  2  3  1  0  0  0  0
  2  4  1  0  0  0  0
  2  5  1  0  0  0  0
  5  6  2  0  0  0  0
  5  7  1  0  0  0  0
  7  8  1  0  0  0  0
  7  9  1  0  0  0  0
  9 10  1  0  0  0  0
  9 11  1  0  0  0  0
  9 17  1  0  0  0  0
 11 12  1  0  0  0  0
 11 13  1  0  0  0  0
 11 14  1  0  0  0  0
 14 15  1  0  0  0  0
 14 16  2  0  0  0  0
 17 18  2  0  0  0  0
 17 19  1  0  0  0  0
 19 20  1  0  0  0  0
 19 21  1  0  0  0  0
 21 22  1  0  0  0  0
 21 23  1  0  0  0  0
 21 24  1  0  0  0  0
M  CHG  1  15  -1
M  END
$$$$

  -OEChem-03222214023D

 24 23  0     1  0  0  0  0  0999 V2000
   -2.5244   -3.5185   -0.3666 H   0  0  0  0  0  0  0  0  0  0  0  0
   -2.4239   -2.5087   -0.7746 C   0  0  0  0  0  0  0  0  0  0  0  0
   -3.2026   -1.8756   -0.3427 H   0  0  0  0  0  0  0  0  0  0  0  0
   -2.5577   -2.5531   -1.8583 H   0  0  0  0  0  0  0  0  0  0  0  0
   -1.0538   -1.9435   -0.4438 C   0  0  0  0  0  0  0  0  0  0  0  0
   -0.2761   -2.6149    0.2092 O   0  0  0  0  0  0  0  0  0  0  0  0
   -0.7281   -0.6814   -0.8938 N   0  0  0  0  0  0  0  0  0  0  0  0
   -1.3905   -0.2428   -1.5222 H   0  0  0  0  0  0  0  0  0  0  0  0
    0.6003   -0.0536   -0.7925 C   0  0  1  0  0  0  0  0  0  0  0  0
    1.3300   -0.6428   -1.3602 H   0  0  0  0  0  0  0  0  0  0  0  0
    0.3915    1.3170   -1.4632 C   0  0  0  0  0  0  0  0  0  0  0  0
   -0.1523    1.1902   -2.4031 H   0  0  0  0  0  0  0  0  0  0  0  0
   -0.2055    1.9652   -0.8154 H   0  0  0  0  0  0  0  0  0  0  0  0
    1.7004    2.0125   -1.8069 C   0  0  0  0  0  0  0  0  0  0  0  0
    2.4808    1.4254   -2.5935 O   0  5  0  0  0  0  0  0  0  0  0  0
    1.8479    3.1842   -1.3835 O   0  0  0  0  0  0  0  0  0  0  0  0
    1.1330    0.1127    0.6544 C   0  0  0  0  0  0  0  0  0  0  0  0
    2.2737   -0.2115    0.9632 O   0  0  0  0  0  0  0  0  0  0  0  0
    0.2881    0.5970    1.6392 N   0  0  0  0  0  0  0  0  0  0  0  0
   -0.6151    0.9346    1.3296 H   0  0  0  0  0  0  0  0  0  0  0  0
    0.7175    0.8593    3.0041 C   0  0  0  0  0  0  0  0  0  0  0  0
    1.5311    1.5919    3.0142 H   0  0  0  0  0  0  0  0  0  0  0  0
   -0.1159    1.2569    3.5904 H   0  0  0  0  0  0  0  0  0  0  0  0
    1.0650   -0.0641    3.4785 H   0  0  0  0  0  0  0  0  0  0  0  0
  1  2  1  0  0  0  0
  2  3  1  0  0  0  0
  2  4  1  0  0  0  0
  2  5  1  0  0  0  0
  5  6  2  0  0  0  0
  5  7  1  0  0  0  0
  7  8  1  0  0  0  0
  7  9  1  0  0  0  0
  9 10  1  0  0  0  0
  9 11  1  0  0  0  0
  9 17  1  0  0  0  0
 11 12  1  0  0  0  0
 11 13  1  0  0  0  0
 11 14  1  0  0  0  0
 14 15  1  0  0  0  0
 14 16  2  0  0  0  0
 17 18  2  0  0  0  0
 17 19  1  0  0  0  0
 19 20  1  0  0  0  0
 19 21  1  0  0  0  0
 21 22  1  0  0  0  0
 21 23  1  0  0  0  0
 21 24  1  0  0  0  0
M  CHG  1  15  -1
M  END
$$$$

  -OEChem-03222214023D

 24 23  0     1  0  0  0  0  0999 V2000
   -2.5218   -3.5248   -0.3807 H   0  0  0  0  0  0  0  0  0  0  0  0
   -2.4248   -2.5100   -0.7773 C   0  0  0  0  0  0  0  0  0  0  0  0
   -3.1986   -1.8814   -0.3299 H   0  0  0  0  0  0  0  0  0  0  0  0
   -2.5697   -2.5410   -1.8601 H   0  0  0  0  0  0  0  0  0  0  0  0
   -1.0508   -1.9499   -0.4541 C   0  0  0  0  0  0  0  0  0  0  0  0
   -0.2659   -2.6290    0.1821 O   0  0  0  0  0  0  0  0  0  0  0  0
   -0.7271   -0.6857   -0.8984 N   0  0  0  0  0  0  0  0  0  0  0  0
   -1.3970   -0.2370   -1.5116 H   0  0  0  0  0  0  0  0  0  0  0  0
    0.5980   -0.0538   -0.7895 C   0  0  1  0  0  0  0  0  0  0  0  0
    1.3319   -0.6395   -1.3552 H   0  0  0  0  0  0  0  0  0  0  0  0
    0.3877    1.3115   -1.4671 C   0  0  0  0  0  0  0  0  0  0  0  0
   -0.1519    1.1820   -2.4095 H   0  0  0  0  0  0  0  0  0  0  0  0
   -0.2125    1.9634   -0.8262 H   0  0  0  0  0  0  0  0  0  0  0  0
    1.7023    1.9993   -1.7980 C   0  0  0  0  0  0  0  0  0  0  0  0
    2.3496    1.5563   -2.7768 O   0  5  0  0  0  0  0  0  0  0  0  0
    1.9747    3.0472   -1.1653 O   0  0  0  0  0  0  0  0  0  0  0  0
    1.1288    0.1126    0.6581 C   0  0  0  0  0  0  0  0  0  0  0  0
    2.2638   -0.2314    0.9670 O   0  0  0  0  0  0  0  0  0  0  0  0
    0.2828    0.5926    1.6441 N   0  0  0  0  0  0  0  0  0  0  0  0
   -0.6017    0.9695    1.3262 H   0  0  0  0  0  0  0  0  0  0  0  0
    0.7210    0.8661    3.0040 C   0  0  0  0  0  0  0  0  0  0  0  0
    1.5253    1.6091    3.0040 H   0  0  0  0  0  0  0  0  0  0  0  0
   -0.1123    1.2556    3.5957 H   0  0  0  0  0  0  0  0  0  0  0  0
    1.0842   -0.0505    3.4797 H   0  0  0  0  0  0  0  0  0  0  0  0
  1  2  1  0  0  0  0
  2  3  1  0  0  0  0
  2  4  1  0  0  0  0
  2  5  1  0  0  0  0
  5  6  2  0  0  0  0
  5  7  1  0  0  0  0
  7  8  1  0  0  0  0
  7  9  1  0  0  0  0
  9 10  1  0  0  0  0
  9 11  1  0  0  0  0
  9 17  1  0  0  0  0
 11 12  1  0  0  0  0
 11 13  1  0  0  0  0
 11 14  1  0  0  0  0
 14 15  1  0  0  0  0
 14 16  2  0  0  0  0
 17 18  2  0  0  0  0
 17 19  1  0  0  0  0
 19 20  1  0  0  0  0
 19 21  1  0  0  0  0
 21 22  1  0  0  0  0
 21 23  1  0  0  0  0
 21 24  1  0  0  0  0
M  CHG  1  15  -1
M  END
$$$$

  -OEChem-03222214023D

 24 23  0     1  0  0  0  0  0999 V2000
   -2.5109   -3.5314   -0.3954 H   0  0  0  0  0  0  0  0  0  0  0  0
   -2.4227   -2.5075   -0.7699 C   0  0  0  0  0  0  0  0  0  0  0  0
   -3.1904   -1.8916   -0.2952 H   0  0  0  0  0  0  0  0  0  0  0  0
   -2.5859   -2.5138   -1.8504 H   0  0  0  0  0  0  0  0  0  0  0  0
   -1.0444   -1.9517   -0.4571 C   0  0  0  0  0  0  0  0  0  0  0  0
   -0.2537   -2.6375    0.1646 O   0  0  0  0  0  0  0  0  0  0  0  0
   -0.7207   -0.6871   -0.9008 N   0  0  0  0  0  0  0  0  0  0  0  0
   -1.3982   -0.2293   -1.4987 H   0  0  0  0  0  0  0  0  0  0  0  0
    0.6019   -0.0510   -0.7869 C   0  0  1  0  0  0  0  0  0  0  0  0
    1.3390   -0.6385   -1.3463 H   0  0  0  0  0  0  0  0  0  0  0  0
    0.3890    1.3045   -1.4824 C   0  0  0  0  0  0  0  0  0  0  0  0
   -0.1484    1.1620   -2.4245 H   0  0  0  0  0  0  0  0  0  0  0  0
   -0.2156    1.9626   -0.8523 H   0  0  0  0  0  0  0  0  0  0  0  0
    1.7017    1.9961   -1.8113 C   0  0  0  0  0  0  0  0  0  0  0  0
    2.2136    1.7473   -2.9294 O   0  5  0  0  0  0  0  0  0  0  0  0
    2.0954    2.8828   -1.0176 O   0  0  0  0  0  0  0  0  0  0  0  0
    1.1293    0.1206    0.6613 C   0  0  0  0  0  0  0  0  0  0  0  0
    2.2514   -0.2576    0.9783 O   0  0  0  0  0  0  0  0  0  0  0  0
    0.2806    0.6006    1.6451 N   0  0  0  0  0  0  0  0  0  0  0  0
   -0.5883    1.0073    1.3209 H   0  0  0  0  0  0  0  0  0  0  0  0
    0.7159    0.8588    3.0090 C   0  0  0  0  0  0  0  0  0  0  0  0
    1.5343    1.5861    3.0173 H   0  0  0  0  0  0  0  0  0  0  0  0
   -0.1133    1.2615    3.5977 H   0  0  0  0  0  0  0  0  0  0  0  0
    1.0585   -0.0672    3.4822 H   0  0  0  0  0  0  0  0  0  0  0  0
  1  2  1  0  0  0  0
  2  3  1  0  0  0  0
  2  4  1  0  0  0  0
  2  5  1  0  0  0  0
  5  6  2  0  0  0  0
  5  7  1  0  0  0  0
  7  8  1  0  0  0  0
  7  9  1  0  0  0  0
  9 10  1  0  0  0  0
  9 11  1  0  0  0  0
  9 17  1  0  0  0  0
 11 12  1  0  0  0  0
 11 13  1  0  0  0  0
 11 14  1  0  0  0  0
 14 15  1  0  0  0  0
 14 16  2  0  0  0  0
 17 18  2  0  0  0  0
 17 19  1  0  0  0  0
 19 20  1  0  0  0  0
 19 21  1  0  0  0  0
 21 22  1  0  0  0  0
 21 23  1  0  0  0  0
 21 24  1  0  0  0  0
M  CHG  1  15  -1
M  END
$$$$

  -OEChem-03222214023D

 24 23  0     1  0  0  0  0  0999 V2000
   -2.5097   -3.5149   -0.3571 H   0  0  0  0  0  0  0  0  0  0  0  0
   -2.4193   -2.4921   -0.7339 C   0  0  0  0  0  0  0  0  0  0  0  0
   -3.1591   -1.8651   -0.2303 H   0  0  0  0  0  0  0  0  0  0  0  0
   -2.6224   -2.4938   -1.8077 H   0  0  0  0  0  0  0  0  0  0  0  0
   -1.0217   -1.9588   -0.4713 C   0  0  0  0  0  0  0  0  0  0  0  0
   -0.2160   -2.6632    0.1089 O   0  0  0  0  0  0  0  0  0  0  0  0
   -0.6980   -0.6940   -0.9140 N   0  0  0  0  0  0  0  0  0  0  0  0
   -1.3944   -0.2141   -1.4714 H   0  0  0  0  0  0  0  0  0  0  0  0
    0.6209   -0.0507   -0.7936 C   0  0  1  0  0  0  0  0  0  0  0  0
    1.3658   -0.6357   -1.3448 H   0  0  0  0  0  0  0  0  0  0  0  0
    0.3989    1.2981   -1.5028 C   0  0  0  0  0  0  0  0  0  0  0  0
   -0.1371    1.1398   -2.4436 H   0  0  0  0  0  0  0  0  0  0  0  0
   -0.2136    1.9562   -0.8807 H   0  0  0  0  0  0  0  0  0  0  0  0
    1.7008    2.0101   -1.8349 C   0  0  0  0  0  0  0  0  0  0  0  0
    2.0695    1.9951   -3.0343 O   0  5  0  0  0  0  0  0  0  0  0  0
    2.2202    2.7038   -0.9303 O   0  0  0  0  0  0  0  0  0  0  0  0
    1.1346    0.1243    0.6597 C   0  0  0  0  0  0  0  0  0  0  0  0
    2.2365   -0.2939    0.9981 O   0  0  0  0  0  0  0  0  0  0  0  0
    0.2724    0.6012    1.6336 N   0  0  0  0  0  0  0  0  0  0  0  0
   -0.5746    1.0408    1.2952 H   0  0  0  0  0  0  0  0  0  0  0  0
    0.6872    0.8358    3.0080 C   0  0  0  0  0  0  0  0  0  0  0  0
    1.5208    1.5450    3.0390 H   0  0  0  0  0  0  0  0  0  0  0  0
   -0.1439    1.2503    3.5858 H   0  0  0  0  0  0  0  0  0  0  0  0
    1.0009   -0.1024    3.4772 H   0  0  0  0  0  0  0  0  0  0  0  0
  1  2  1  0  0  0  0
  2  3  1  0  0  0  0
  2  4  1  0  0  0  0
  2  5  1  0  0  0  0
  5  6  2  0  0  0  0
  5  7  1  0  0  0  0
  7  8  1  0  0  0  0
  7  9  1  0  0  0  0
  9 10  1  0  0  0  0
  9 11  1  0  0  0  0
  9 17  1  0  0  0  0
 11 12  1  0  0  0  0
 11 13  1  0  0  0  0
 11 14  1  0  0  0  0
 14 15  1  0  0  0  0
 14 16  2  0  0  0  0
 17 18  2  0  0  0  0
 17 19  1  0  0  0  0
 19 20  1  0  0  0  0
 19 21  1  0  0  0  0
 21 22  1  0  0  0  0
 21 23  1  0  0  0  0
 21 24  1  0  0  0  0
M  CHG  1  15  -1
M  END
$$$$

  -OEChem-03222214023D

 24 23  0     1  0  0  0  0  0999 V2000
   -2.5120   -3.4997   -0.3346 H   0  0  0  0  0  0  0  0  0  0  0  0
   -2.4163   -2.4782   -0.7138 C   0  0  0  0  0  0  0  0  0  0  0  0
   -3.1392   -1.8422   -0.1972 H   0  0  0  0  0  0  0  0  0  0  0  0
   -2.6387   -2.4782   -1.7837 H   0  0  0  0  0  0  0  0  0  0  0  0
   -1.0085   -1.9605   -0.4764 C   0  0  0  0  0  0  0  0  0  0  0  0
   -0.1976   -2.6780    0.0797 O   0  0  0  0  0  0  0  0  0  0  0  0
   -0.6806   -0.6971   -0.9201 N   0  0  0  0  0  0  0  0  0  0  0  0
   -1.3863   -0.2016   -1.4515 H   0  0  0  0  0  0  0  0  0  0  0  0
    0.6384   -0.0543   -0.7959 C   0  0  1  0  0  0  0  0  0  0  0  0
    1.3878   -0.6389   -1.3412 H   0  0  0  0  0  0  0  0  0  0  0  0
    0.4081    1.2906   -1.5156 C   0  0  0  0  0  0  0  0  0  0  0  0
   -0.1289    1.1168   -2.4532 H   0  0  0  0  0  0  0  0  0  0  0  0
   -0.2111    1.9471   -0.8989 H   0  0  0  0  0  0  0  0  0  0  0  0
    1.6942    2.0271   -1.8608 C   0  0  0  0  0  0  0  0  0  0  0  0
    1.9037    2.2597   -3.0762 O   0  5  0  0  0  0  0  0  0  0  0  0
    2.3622    2.5014   -0.9145 O   0  0  0  0  0  0  0  0  0  0  0  0
    1.1403    0.1207    0.6623 C   0  0  0  0  0  0  0  0  0  0  0  0
    2.2196   -0.3378    1.0218 O   0  0  0  0  0  0  0  0  0  0  0  0
    0.2683    0.5997    1.6269 N   0  0  0  0  0  0  0  0  0  0  0  0
   -0.5613    1.0632    1.2778 H   0  0  0  0  0  0  0  0  0  0  0  0
    0.6680    0.8208    3.0080 C   0  0  0  0  0  0  0  0  0  0  0  0
    1.5047    1.5255    3.0542 H   0  0  0  0  0  0  0  0  0  0  0  0
   -0.1676    1.2345    3.5796 H   0  0  0  0  0  0  0  0  0  0  0  0
    0.9720   -0.1224    3.4733 H   0  0  0  0  0  0  0  0  0  0  0  0
  1  2  1  0  0  0  0
  2  3  1  0  0  0  0
  2  4  1  0  0  0  0
  2  5  1  0  0  0  0
  5  6  2  0  0  0  0
  5  7  1  0  0  0  0
  7  8  1  0  0  0  0
  7  9  1  0  0  0  0
  9 10  1  0  0  0  0
  9 11  1  0  0  0  0
  9 17  1  0  0  0  0
 11 12  1  0  0  0  0
 11 13  1  0  0  0  0
 11 14  1  0  0  0  0
 14 15  1  0  0  0  0
 14 16  2  0  0  0  0
 17 18  2  0  0  0  0
 17 19  1  0  0  0  0
 19 20  1  0  0  0  0
 19 21  1  0  0  0  0
 21 22  1  0  0  0  0
 21 23  1  0  0  0  0
 21 24  1  0  0  0  0
M  CHG  1  15  -1
M  END
$$$$

  -OEChem-03222214023D

 24 23  0     1  0  0  0  0  0999 V2000
   -2.5125   -3.4830   -0.3125 H   0  0  0  0  0  0  0  0  0  0  0  0
   -2.4117   -2.4637   -0.6962 C   0  0  0  0  0  0  0  0  0  0  0  0
   -3.1279   -1.8209   -0.1788 H   0  0  0  0  0  0  0  0  0  0  0  0
   -2.6394   -2.4663   -1.7650 H   0  0  0  0  0  0  0  0  0  0  0  0
   -0.9991   -1.9549   -0.4678 C   0  0  0  0  0  0  0  0  0  0  0  0
   -0.1899   -2.6781    0.0834 O   0  0  0  0  0  0  0  0  0  0  0  0
   -0.6649   -0.6952   -0.9183 N   0  0  0  0  0  0  0  0  0  0  0  0
   -1.3723   -0.1956   -1.4437 H   0  0  0  0  0  0  0  0  0  0  0  0
    0.6571   -0.0557   -0.7989 C   0  0  1  0  0  0  0  0  0  0  0  0
    1.4078   -0.6410   -1.3413 H   0  0  0  0  0  0  0  0  0  0  0  0
    0.4181    1.2876   -1.5247 C   0  0  0  0  0  0  0  0  0  0  0  0
   -0.1240    1.1007   -2.4570 H   0  0  0  0  0  0  0  0  0  0  0  0
   -0.2036    1.9413   -0.9077 H   0  0  0  0  0  0  0  0  0  0  0  0
    1.6842    2.0500   -1.8942 C   0  0  0  0  0  0  0  0  0  0  0  0
    1.7247    2.5290   -3.0536 O   0  5  0  0  0  0  0  0  0  0  0  0
    2.5281    2.2745   -0.9993 O   0  0  0  0  0  0  0  0  0  0  0  0
    1.1505    0.1210    0.6629 C   0  0  0  0  0  0  0  0  0  0  0  0
    2.2104   -0.3659    1.0425 O   0  0  0  0  0  0  0  0  0  0  0  0
    0.2708    0.6063    1.6180 N   0  0  0  0  0  0  0  0  0  0  0  0
   -0.5538    1.0731    1.2620 H   0  0  0  0  0  0  0  0  0  0  0  0
    0.6452    0.7998    3.0105 C   0  0  0  0  0  0  0  0  0  0  0  0
    1.4908    1.4914    3.0851 H   0  0  0  0  0  0  0  0  0  0  0  0
   -0.1960    1.2167    3.5717 H   0  0  0  0  0  0  0  0  0  0  0  0
    0.9263   -0.1548    3.4670 H   0  0  0  0  0  0  0  0  0  0  0  0
  1  2  1  0  0  0  0
  2  3  1  0  0  0  0
  2  4  1  0  0  0  0
  2  5  1  0  0  0  0
  5  6  2  0  0  0  0
  5  7  1  0  0  0  0
  7  8  1  0  0  0  0
  7  9  1  0  0  0  0
  9 10  1  0  0  0  0
  9 11  1  0  0  0  0
  9 17  1  0  0  0  0
 11 12  1  0  0  0  0
 11 13  1  0  0  0  0
 11 14  1  0  0  0  0
 14 15  1  0  0  0  0
 14 16  2  0  0  0  0
 17 18  2  0  0  0  0
 17 19  1  0  0  0  0
 19 20  1  0  0  0  0
 19 21  1  0  0  0  0
 21 22  1  0  0  0  0
 21 23  1  0  0  0  0
 21 24  1  0  0  0  0
M  CHG  1  15  -1
M  END
$$$$

  -OEChem-03222214023D

 24 23  0     1  0  0  0  0  0999 V2000
   -2.5067   -3.4642   -0.2854 H   0  0  0  0  0  0  0  0  0  0  0  0
   -2.4018   -2.4486   -0.6779 C   0  0  0  0  0  0  0  0  0  0  0  0
   -3.1223   -1.8005   -0.1735 H   0  0  0  0  0  0  0  0  0  0  0  0
   -2.6197   -2.4617   -1.7487 H   0  0  0  0  0  0  0  0  0  0  0  0
   -0.9913   -1.9381   -0.4413 C   0  0  0  0  0  0  0  0  0  0  0  0
   -0.1911   -2.6534    0.1321 O   0  0  0  0  0  0  0  0  0  0  0  0
   -0.6517   -0.6854   -0.9070 N   0  0  0  0  0  0  0  0  0  0  0  0
   -1.3530   -0.1967   -1.4504 H   0  0  0  0  0  0  0  0  0  0  0  0
    0.6745   -0.0506   -0.8041 C   0  0  1  0  0  0  0  0  0  0  0  0
    1.4233   -0.6366   -1.3485 H   0  0  0  0  0  0  0  0  0  0  0  0
    0.4253    1.2930   -1.5292 C   0  0  0  0  0  0  0  0  0  0  0  0
   -0.1280    1.1002   -2.4536 H   0  0  0  0  0  0  0  0  0  0  0  0
   -0.1919    1.9439   -0.9049 H   0  0  0  0  0  0  0  0  0  0  0  0
    1.6728    2.0728   -1.9293 C   0  0  0  0  0  0  0  0  0  0  0  0
    1.5588    2.7852   -2.9566 O   0  5  0  0  0  0  0  0  0  0  0  0
    2.6965    2.0104   -1.2154 O   0  0  0  0  0  0  0  0  0  0  0  0
    1.1678    0.1341    0.6579 C   0  0  0  0  0  0  0  0  0  0  0  0
    2.2202   -0.3565    1.0529 O   0  0  0  0  0  0  0  0  0  0  0  0
    0.2855    0.6307    1.6051 N   0  0  0  0  0  0  0  0  0  0  0  0
   -0.5681    1.0444    1.2520 H   0  0  0  0  0  0  0  0  0  0  0  0
    0.6169    0.7702    3.0147 C   0  0  0  0  0  0  0  0  0  0  0  0
    1.4885    1.4209    3.1393 H   0  0  0  0  0  0  0  0  0  0  0  0
   -0.2252    1.2097    3.5569 H   0  0  0  0  0  0  0  0  0  0  0  0
    0.8385   -0.2081    3.4532 H   0  0  0  0  0  0  0  0  0  0  0  0
  1  2  1  0  0  0  0
  2  3  1  0  0  0  0
  2  4  1  0  0  0  0
  2  5  1  0  0  0  0
  5  6  2  0  0  0  0
  5  7  1  0  0  0  0
  7  8  1  0  0  0  0
  7  9  1  0  0  0  0
  9 10  1  0  0  0  0
  9 11  1  0  0  0  0
  9 17  1  0  0  0  0
 11 12  1  0  0  0  0
 11 13  1  0  0  0  0
 11 14  1  0  0  0  0
 14 15  1  0  0  0  0
 14 16  2  0  0  0  0
 17 18  2  0  0  0  0
 17 19  1  0  0  0  0
 19 20  1  0  0  0  0
 19 21  1  0  0  0  0
 21 22  1  0  0  0  0
 21 23  1  0  0  0  0
 21 24  1  0  0  0  0
M  CHG  1  15  -1
M  END
$$$$

  -OEChem-03222214023D

 24 23  0     1  0  0  0  0  0999 V2000
   -2.5147   -3.4502   -0.2595 H   0  0  0  0  0  0  0  0  0  0  0  0
   -2.4006   -2.4467   -0.6792 C   0  0  0  0  0  0  0  0  0  0  0  0
   -3.1331   -1.7846   -0.2113 H   0  0  0  0  0  0  0  0  0  0  0  0
   -2.5930   -2.4918   -1.7540 H   0  0  0  0  0  0  0  0  0  0  0  0
   -0.9960   -1.9284   -0.4242 C   0  0  0  0  0  0  0  0  0  0  0  0
   -0.2062   -2.6295    0.1804 O   0  0  0  0  0  0  0  0  0  0  0  0
   -0.6531   -0.6803   -0.8994 N   0  0  0  0  0  0  0  0  0  0  0  0
   -1.3420   -0.2096   -1.4739 H   0  0  0  0  0  0  0  0  0  0  0  0
    0.6764   -0.0504   -0.8057 C   0  0  1  0  0  0  0  0  0  0  0  0
    1.4210   -0.6386   -1.3539 H   0  0  0  0  0  0  0  0  0  0  0  0
    0.4274    1.2996   -1.5190 C   0  0  0  0  0  0  0  0  0  0  0  0
   -0.1325    1.1173   -2.4412 H   0  0  0  0  0  0  0  0  0  0  0  0
   -0.1833    1.9461   -0.8837 H   0  0  0  0  0  0  0  0  0  0  0  0
    1.6696    2.0825   -1.9293 C   0  0  0  0  0  0  0  0  0  0  0  0
    1.4656    3.0094   -2.7509 O   0  5  0  0  0  0  0  0  0  0  0  0
    2.7921    1.7566   -1.4873 O   0  0  0  0  0  0  0  0  0  0  0  0
    1.1753    0.1411    0.6537 C   0  0  0  0  0  0  0  0  0  0  0  0
    2.2407   -0.3194    1.0483 O   0  0  0  0  0  0  0  0  0  0  0  0
    0.2968    0.6468    1.5996 N   0  0  0  0  0  0  0  0  0  0  0  0
   -0.5898    0.9937    1.2556 H   0  0  0  0  0  0  0  0  0  0  0  0
    0.6137    0.7643    3.0146 C   0  0  0  0  0  0  0  0  0  0  0  0
    1.5036    1.3863    3.1563 H   0  0  0  0  0  0  0  0  0  0  0  0
   -0.2209    1.2258    3.5501 H   0  0  0  0  0  0  0  0  0  0  0  0
    0.7989   -0.2244    3.4467 H   0  0  0  0  0  0  0  0  0  0  0  0
  1  2  1  0  0  0  0
  2  3  1  0  0  0  0
  2  4  1  0  0  0  0
  2  5  1  0  0  0  0
  5  6  2  0  0  0  0
  5  7  1  0  0  0  0
  7  8  1  0  0  0  0
  7  9  1  0  0  0  0
  9 10  1  0  0  0  0
  9 11  1  0  0  0  0
  9 17  1  0  0  0  0
 11 12  1  0  0  0  0
 11 13  1  0  0  0  0
 11 14  1  0  0  0  0
 14 15  1  0  0  0  0
 14 16  2  0  0  0  0
 17 18  2  0  0  0  0
 17 19  1  0  0  0  0
 19 20  1  0  0  0  0
 19 21  1  0  0  0  0
 21 22  1  0  0  0  0
 21 23  1  0  0  0  0
 21 24  1  0  0  0  0
M  CHG  1  15  -1
M  END
$$$$

  -OEChem-03222214023D

 24 23  0     1  0  0  0  0  0999 V2000
   -2.5048   -3.4956   -0.3068 H   0  0  0  0  0  0  0  0  0  0  0  0
   -2.4048   -2.4939   -0.7344 C   0  0  0  0  0  0  0  0  0  0  0  0
   -3.2017   -1.8604   -0.3373 H   0  0  0  0  0  0  0  0  0  0  0  0
   -2.5103   -2.5639   -1.8199 H   0  0  0  0  0  0  0  0  0  0  0  0
   -1.0495   -1.9061   -0.3819 C   0  0  0  0  0  0  0  0  0  0  0  0
   -0.2953   -2.5398    0.3332 O   0  0  0  0  0  0  0  0  0  0  0  0
   -0.7186   -0.6588   -0.8682 N   0  0  0  0  0  0  0  0  0  0  0  0
   -1.3595   -0.2635   -1.5464 H   0  0  0  0  0  0  0  0  0  0  0  0
    0.6176   -0.0396   -0.7973 C   0  0  1  0  0  0  0  0  0  0  0  0
    1.3293   -0.6644   -1.3489 H   0  0  0  0  0  0  0  0  0  0  0  0
    0.4273    1.3284   -1.4995 C   0  0  0  0  0  0  0  0  0  0  0  0
   -0.3429    1.2436   -2.2711 H   0  0  0  0  0  0  0  0  0  0  0  0
    0.0814    2.0714   -0.7761 H   0  0  0  0  0  0  0  0  0  0  0  0
    1.6567    1.8858   -2.2112 C   0  0  0  0  0  0  0  0  0  0  0  0
    1.4827    2.9951   -2.7725 O   0  5  0  0  0  0  0  0  0  0  0  0
    2.6900    1.1871   -2.3204 O   0  0  0  0  0  0  0  0  0  0  0  0
    1.1539    0.1526    0.6464 C   0  0  0  0  0  0  0  0  0  0  0  0
    2.2935   -0.1544    0.9753 O   0  0  0  0  0  0  0  0  0  0  0  0
    0.3053    0.6652    1.6144 N   0  0  0  0  0  0  0  0  0  0  0  0
   -0.6529    0.8282    1.3299 H   0  0  0  0  0  0  0  0  0  0  0  0
    0.6676    0.7967    3.0170 C   0  0  0  0  0  0  0  0  0  0  0  0
    1.5593    1.4227    3.1247 H   0  0  0  0  0  0  0  0  0  0  0  0
   -0.1504    1.2627    3.5737 H   0  0  0  0  0  0  0  0  0  0  0  0
    0.8697   -0.1874    3.4519 H   0  0  0  0  0  0  0  0  0  0  0  0
  1  2  1  0  0  0  0
  2  3  1  0  0  0  0
  2  4  1  0  0  0  0
  2  5  1  0  0  0  0
  5  6  2  0  0  0  0
  5  7  1  0  0  0  0
  7  8  1  0  0  0  0
  7  9  1  0  0  0  0
  9 10  1  0  0  0  0
  9 11  1  0  0  0  0
  9 17  1  0  0  0  0
 11 12  1  0  0  0  0
 11 13  1  0  0  0  0
 11 14  1  0  0  0  0
 14 15  1  0  0  0  0
 14 16  2  0  0  0  0
 17 18  2  0  0  0  0
 17 19  1  0  0  0  0
 19 20  1  0  0  0  0
 19 21  1  0  0  0  0
 21 22  1  0  0  0  0
 21 23  1  0  0  0  0
 21 24  1  0  0  0  0
M  CHG  1  15  -1
M  END
$$$$

  -OEChem-03222214023D

 24 23  0     1  0  0  0  0  0999 V2000
   -2.5054   -3.5089   -0.3273 H   0  0  0  0  0  0  0  0  0  0  0  0
   -2.4083   -2.5073   -0.7556 C   0  0  0  0  0  0  0  0  0  0  0  0
   -3.2162   -1.8798   -0.3716 H   0  0  0  0  0  0  0  0  0  0  0  0
   -2.4969   -2.5804   -1.8424 H   0  0  0  0  0  0  0  0  0  0  0  0
   -1.0638   -1.9074   -0.3839 C   0  0  0  0  0  0  0  0  0  0  0  0
   -0.3160   -2.5324    0.3457 O   0  0  0  0  0  0  0  0  0  0  0  0
   -0.7364   -0.6573   -0.8653 N   0  0  0  0  0  0  0  0  0  0  0  0
   -1.3682   -0.2710   -1.5570 H   0  0  0  0  0  0  0  0  0  0  0  0
    0.6005   -0.0410   -0.7929 C   0  0  1  0  0  0  0  0  0  0  0  0
    1.3071   -0.6704   -1.3454 H   0  0  0  0  0  0  0  0  0  0  0  0
    0.4233    1.3308   -1.4891 C   0  0  0  0  0  0  0  0  0  0  0  0
   -0.3446    1.2609   -2.2640 H   0  0  0  0  0  0  0  0  0  0  0  0
    0.0828    2.0724   -0.7611 H   0  0  0  0  0  0  0  0  0  0  0  0
    1.6661    1.8707   -2.1907 C   0  0  0  0  0  0  0  0  0  0  0  0
    1.6218    3.0877   -2.4948 O   0  5  0  0  0  0  0  0  0  0  0  0
    2.5570    1.0739   -2.5673 O   0  0  0  0  0  0  0  0  0  0  0  0
    1.1442    0.1446    0.6478 C   0  0  0  0  0  0  0  0  0  0  0  0
    2.2992   -0.1263    0.9539 O   0  0  0  0  0  0  0  0  0  0  0  0
    0.3032    0.6539    1.6234 N   0  0  0  0  0  0  0  0  0  0  0  0
   -0.6614    0.8023    1.3520 H   0  0  0  0  0  0  0  0  0  0  0  0
    0.6893    0.8168    3.0162 C   0  0  0  0  0  0  0  0  0  0  0  0
    1.5702    1.4621    3.0955 H   0  0  0  0  0  0  0  0  0  0  0  0
   -0.1271    1.2762    3.5809 H   0  0  0  0  0  0  0  0  0  0  0  0
    0.9197   -0.1552    3.4638 H   0  0  0  0  0  0  0  0  0  0  0  0
  1  2  1  0  0  0  0
  2  3  1  0  0  0  0
  2  4  1  0  0  0  0
  2  5  1  0  0  0  0
  5  6  2  0  0  0  0
  5  7  1  0  0  0  0
  7  8  1  0  0  0  0
  7  9  1  0  0  0  0
  9 10  1  0  0  0  0
  9 11  1  0  0  0  0
  9 17  1  0  0  0  0
 11 12  1  0  0  0  0
 11 13  1  0  0  0  0
 11 14  1  0  0  0  0
 14 15  1  0  0  0  0
 14 16  2  0  0  0  0
 17 18  2  0  0  0  0
 17 19  1  0  0  0  0
 19 20  1  0  0  0  0
 19 21  1  0  0  0  0
 21 22  1  0  0  0  0
 21 23  1  0  0  0  0
 21 24  1  0  0  0  0
M  CHG  1  15  -1
M  END
$$$$

  -OEChem-03222214023D

 24 23  0     1  0  0  0  0  0999 V2000
   -2.5116   -3.5180   -0.3435 H   0  0  0  0  0  0  0  0  0  0  0  0
   -2.4102   -2.5198   -0.7791 C   0  0  0  0  0  0  0  0  0  0  0  0
   -3.2279   -1.8925   -0.4159 H   0  0  0  0  0  0  0  0  0  0  0  0
   -2.4784   -2.6029   -1.8667 H   0  0  0  0  0  0  0  0  0  0  0  0
   -1.0754   -1.9099   -0.3884 C   0  0  0  0  0  0  0  0  0  0  0  0
   -0.3313   -2.5297    0.3496 O   0  0  0  0  0  0  0  0  0  0  0  0
   -0.7520   -0.6564   -0.8634 N   0  0  0  0  0  0  0  0  0  0  0  0
   -1.3765   -0.2782   -1.5660 H   0  0  0  0  0  0  0  0  0  0  0  0
    0.5839   -0.0392   -0.7884 C   0  0  1  0  0  0  0  0  0  0  0  0
    1.2902   -0.6663   -1.3442 H   0  0  0  0  0  0  0  0  0  0  0  0
    0.4102    1.3331   -1.4809 C   0  0  0  0  0  0  0  0  0  0  0  0
   -0.3533    1.2706   -2.2606 H   0  0  0  0  0  0  0  0  0  0  0  0
    0.0712    2.0753   -0.7526 H   0  0  0  0  0  0  0  0  0  0  0  0
    1.6675    1.8510   -2.1703 C   0  0  0  0  0  0  0  0  0  0  0  0
    1.7923    3.0986   -2.2226 O   0  5  0  0  0  0  0  0  0  0  0  0
    2.3897    1.0331   -2.7890 O   0  0  0  0  0  0  0  0  0  0  0  0
    1.1371    0.1424    0.6487 C   0  0  0  0  0  0  0  0  0  0  0  0
    2.3001   -0.1144    0.9363 O   0  0  0  0  0  0  0  0  0  0  0  0
    0.3057    0.6468    1.6348 N   0  0  0  0  0  0  0  0  0  0  0  0
   -0.6605    0.8021    1.3733 H   0  0  0  0  0  0  0  0  0  0  0  0
    0.7137    0.8353    3.0181 C   0  0  0  0  0  0  0  0  0  0  0  0
    1.5807    1.5015    3.0740 H   0  0  0  0  0  0  0  0  0  0  0  0
   -0.1028    1.2825    3.5922 H   0  0  0  0  0  0  0  0  0  0  0  0
    0.9746   -0.1256    3.4729 H   0  0  0  0  0  0  0  0  0  0  0  0
  1  2  1  0  0  0  0
  2  3  1  0  0  0  0
  2  4  1  0  0  0  0
  2  5  1  0  0  0  0
  5  6  2  0  0  0  0
  5  7  1  0  0  0  0
  7  8  1  0  0  0  0
  7  9  1  0  0  0  0
  9 10  1  0  0  0  0
  9 11  1  0  0  0  0
  9 17  1  0  0  0  0
 11 12  1  0  0  0  0
 11 13  1  0  0  0  0
 11 14  1  0  0  0  0
 14 15  1  0  0  0  0
 14 16  2  0  0  0  0
 17 18  2  0  0  0  0
 17 19  1  0  0  0  0
 19 20  1  0  0  0  0
 19 21  1  0  0  0  0
 21 22  1  0  0  0  0
 21 23  1  0  0  0  0
 21 24  1  0  0  0  0
M  CHG  1  15  -1
M  END
$$$$

  -OEChem-03222214023D

 24 23  0     1  0  0  0  0  0999 V2000
   -2.4913   -3.5306   -0.3582 H   0  0  0  0  0  0  0  0  0  0  0  0
   -2.4045   -2.5250   -0.7792 C   0  0  0  0  0  0  0  0  0  0  0  0
   -3.2261   -1.9121   -0.4006 H   0  0  0  0  0  0  0  0  0  0  0  0
   -2.4795   -2.5927   -1.8674 H   0  0  0  0  0  0  0  0  0  0  0  0
   -1.0737   -1.9067   -0.3890 C   0  0  0  0  0  0  0  0  0  0  0  0
   -0.3243   -2.5234    0.3462 O   0  0  0  0  0  0  0  0  0  0  0  0
   -0.7586   -0.6507   -0.8630 N   0  0  0  0  0  0  0  0  0  0  0  0
   -1.3834   -0.2783   -1.5687 H   0  0  0  0  0  0  0  0  0  0  0  0
    0.5746   -0.0281   -0.7898 C   0  0  1  0  0  0  0  0  0  0  0  0
    1.2832   -0.6505   -1.3488 H   0  0  0  0  0  0  0  0  0  0  0  0
    0.3975    1.3391   -1.4865 C   0  0  0  0  0  0  0  0  0  0  0  0
   -0.3616    1.2747   -2.2703 H   0  0  0  0  0  0  0  0  0  0  0  0
    0.0576    2.0868   -0.7642 H   0  0  0  0  0  0  0  0  0  0  0  0
    1.6677    1.8319   -2.1665 C   0  0  0  0  0  0  0  0  0  0  0  0
    1.9762    3.0350   -1.9904 O   0  5  0  0  0  0  0  0  0  0  0  0
    2.2266    1.0579   -2.9810 O   0  0  0  0  0  0  0  0  0  0  0  0
    1.1325    0.1545    0.6450 C   0  0  0  0  0  0  0  0  0  0  0  0
    2.2954   -0.1099    0.9261 O   0  0  0  0  0  0  0  0  0  0  0  0
    0.3044    0.6543    1.6360 N   0  0  0  0  0  0  0  0  0  0  0  0
   -0.6601    0.8223    1.3760 H   0  0  0  0  0  0  0  0  0  0  0  0
    0.7167    0.8328    3.0193 C   0  0  0  0  0  0  0  0  0  0  0  0
    1.5889    1.4922    3.0760 H   0  0  0  0  0  0  0  0  0  0  0  0
   -0.0948    1.2833    3.5980 H   0  0  0  0  0  0  0  0  0  0  0  0
    0.9711   -0.1325    3.4684 H   0  0  0  0  0  0  0  0  0  0  0  0
  1  2  1  0  0  0  0
  2  3  1  0  0  0  0
  2  4  1  0  0  0  0
  2  5  1  0  0  0  0
  5  6  2  0  0  0  0
  5  7  1  0  0  0  0
  7  8  1  0  0  0  0
  7  9  1  0  0  0  0
  9 10  1  0  0  0  0
  9 11  1  0  0  0  0
  9 17  1  0  0  0  0
 11 12  1  0  0  0  0
 11 13  1  0  0  0  0
 11 14  1  0  0  0  0
 14 15  1  0  0  0  0
 14 16  2  0  0  0  0
 17 18  2  0  0  0  0
 17 19  1  0  0  0  0
 19 20  1  0  0  0  0
 19 21  1  0  0  0  0
 21 22  1  0  0  0  0
 21 23  1  0  0  0  0
 21 24  1  0  0  0  0
M  CHG  1  15  -1
M  END
$$$$

  -OEChem-03222214023D

 24 23  0     1  0  0  0  0  0999 V2000
   -2.4916   -3.5310   -0.3568 H   0  0  0  0  0  0  0  0  0  0  0  0
   -2.4027   -2.5283   -0.7849 C   0  0  0  0  0  0  0  0  0  0  0  0
   -3.2245   -1.9120   -0.4124 H   0  0  0  0  0  0  0  0  0  0  0  0
   -2.4754   -2.6034   -1.8728 H   0  0  0  0  0  0  0  0  0  0  0  0
   -1.0720   -1.9085   -0.3964 C   0  0  0  0  0  0  0  0  0  0  0  0
   -0.3188   -2.5265    0.3337 O   0  0  0  0  0  0  0  0  0  0  0  0
   -0.7621   -0.6497   -0.8661 N   0  0  0  0  0  0  0  0  0  0  0  0
   -1.3877   -0.2785   -1.5715 H   0  0  0  0  0  0  0  0  0  0  0  0
    0.5682   -0.0219   -0.7906 C   0  0  1  0  0  0  0  0  0  0  0  0
    1.2801   -0.6364   -1.3545 H   0  0  0  0  0  0  0  0  0  0  0  0
    0.3829    1.3419   -1.4880 C   0  0  0  0  0  0  0  0  0  0  0  0
   -0.3740    1.2746   -2.2741 H   0  0  0  0  0  0  0  0  0  0  0  0
    0.0409    2.0919   -0.7693 H   0  0  0  0  0  0  0  0  0  0  0  0
    1.6598    1.8232   -2.1595 C   0  0  0  0  0  0  0  0  0  0  0  0
    2.1416    2.9155   -1.7762 O   0  5  0  0  0  0  0  0  0  0  0  0
    2.0770    1.1518   -3.1344 O   0  0  0  0  0  0  0  0  0  0  0  0
    1.1294    0.1602    0.6428 C   0  0  0  0  0  0  0  0  0  0  0  0
    2.2874   -0.1268    0.9225 O   0  0  0  0  0  0  0  0  0  0  0  0
    0.3044    0.6544    1.6391 N   0  0  0  0  0  0  0  0  0  0  0  0
   -0.6556    0.8451    1.3789 H   0  0  0  0  0  0  0  0  0  0  0  0
    0.7256    0.8368    3.0191 C   0  0  0  0  0  0  0  0  0  0  0  0
    1.5972    1.4975    3.0682 H   0  0  0  0  0  0  0  0  0  0  0  0
   -0.0827    1.2877    3.6020 H   0  0  0  0  0  0  0  0  0  0  0  0
    0.9844   -0.1272    3.4686 H   0  0  0  0  0  0  0  0  0  0  0  0
  1  2  1  0  0  0  0
  2  3  1  0  0  0  0
  2  4  1  0  0  0  0
  2  5  1  0  0  0  0
  5  6  2  0  0  0  0
  5  7  1  0  0  0  0
  7  8  1  0  0  0  0
  7  9  1  0  0  0  0
  9 10  1  0  0  0  0
  9 11  1  0  0  0  0
  9 17  1  0  0  0  0
 11 12  1  0  0  0  0
 11 13  1  0  0  0  0
 11 14  1  0  0  0  0
 14 15  1  0  0  0  0
 14 16  2  0  0  0  0
 17 18  2  0  0  0  0
 17 19  1  0  0  0  0
 19 20  1  0  0  0  0
 19 21  1  0  0  0  0
 21 22  1  0  0  0  0
 21 23  1  0  0  0  0
 21 24  1  0  0  0  0
M  CHG  1  15  -1
M  END
$$$$

  -OEChem-03222214023D

 24 23  0     1  0  0  0  0  0999 V2000
   -2.4884   -3.5253   -0.3417 H   0  0  0  0  0  0  0  0  0  0  0  0
   -2.4001   -2.5234   -0.7713 C   0  0  0  0  0  0  0  0  0  0  0  0
   -3.2121   -1.9022   -0.3856 H   0  0  0  0  0  0  0  0  0  0  0  0
   -2.4911   -2.5981   -1.8577 H   0  0  0  0  0  0  0  0  0  0  0  0
   -1.0594   -1.9116   -0.4044 C   0  0  0  0  0  0  0  0  0  0  0  0
   -0.2938   -2.5388    0.3047 O   0  0  0  0  0  0  0  0  0  0  0  0
   -0.7533   -0.6508   -0.8715 N   0  0  0  0  0  0  0  0  0  0  0  0
   -1.3889   -0.2713   -1.5634 H   0  0  0  0  0  0  0  0  0  0  0  0
    0.5734   -0.0154   -0.7946 C   0  0  1  0  0  0  0  0  0  0  0  0
    1.2903   -0.6225   -1.3598 H   0  0  0  0  0  0  0  0  0  0  0  0
    0.3752    1.3435   -1.4971 C   0  0  0  0  0  0  0  0  0  0  0  0
   -0.3824    1.2678   -2.2822 H   0  0  0  0  0  0  0  0  0  0  0  0
    0.0298    2.0955   -0.7823 H   0  0  0  0  0  0  0  0  0  0  0  0
    1.6517    1.8262   -2.1662 C   0  0  0  0  0  0  0  0  0  0  0  0
    2.2881    2.7547   -1.6156 O   0  5  0  0  0  0  0  0  0  0  0  0
    1.9404    1.3071   -3.2720 O   0  0  0  0  0  0  0  0  0  0  0  0
    1.1328    0.1685    0.6394 C   0  0  0  0  0  0  0  0  0  0  0  0
    2.2796   -0.1524    0.9291 O   0  0  0  0  0  0  0  0  0  0  0  0
    0.3036    0.6576    1.6350 N   0  0  0  0  0  0  0  0  0  0  0  0
   -0.6468    0.8793    1.3646 H   0  0  0  0  0  0  0  0  0  0  0  0
    0.7167    0.8274    3.0191 C   0  0  0  0  0  0  0  0  0  0  0  0
    1.5944    1.4792    3.0790 H   0  0  0  0  0  0  0  0  0  0  0  0
   -0.0915    1.2827    3.5985 H   0  0  0  0  0  0  0  0  0  0  0  0
    0.9624   -0.1417    3.4649 H   0  0  0  0  0  0  0  0  0  0  0  0
  1  2  1  0  0  0  0
  2  3  1  0  0  0  0
  2  4  1  0  0  0  0
  2  5  1  0  0  0  0
  5  6  2  0  0  0  0
  5  7  1  0  0  0  0
  7  8  1  0  0  0  0
  7  9  1  0  0  0  0
  9 10  1  0  0  0  0
  9 11  1  0  0  0  0
  9 17  1  0  0  0  0
 11 12  1  0  0  0  0
 11 13  1  0  0  0  0
 11 14  1  0  0  0  0
 14 15  1  0  0  0  0
 14 16  2  0  0  0  0
 17 18  2  0  0  0  0
 17 19  1  0  0  0  0
 19 20  1  0  0  0  0
 19 21  1  0  0  0  0
 21 22  1  0  0  0  0
 21 23  1  0  0  0  0
 21 24  1  0  0  0  0
M  CHG  1  15  -1
M  END
$$$$

  -OEChem-03222214023D

 24 23  0     1  0  0  0  0  0999 V2000
   -2.4865   -3.5190   -0.3328 H   0  0  0  0  0  0  0  0  0  0  0  0
   -2.3962   -2.5177   -0.7636 C   0  0  0  0  0  0  0  0  0  0  0  0
   -3.2032   -1.8927   -0.3737 H   0  0  0  0  0  0  0  0  0  0  0  0
   -2.4936   -2.5925   -1.8495 H   0  0  0  0  0  0  0  0  0  0  0  0
   -1.0509   -1.9117   -0.4048 C   0  0  0  0  0  0  0  0  0  0  0  0
   -0.2796   -2.5468    0.2907 O   0  0  0  0  0  0  0  0  0  0  0  0
   -0.7442   -0.6514   -0.8726 N   0  0  0  0  0  0  0  0  0  0  0  0
   -1.3878   -0.2641   -1.5528 H   0  0  0  0  0  0  0  0  0  0  0  0
    0.5812   -0.0130   -0.7956 C   0  0  1  0  0  0  0  0  0  0  0  0
    1.3010   -0.6173   -1.3600 H   0  0  0  0  0  0  0  0  0  0  0  0
    0.3718    1.3413   -1.5047 C   0  0  0  0  0  0  0  0  0  0  0  0
   -0.3905    1.2565   -2.2847 H   0  0  0  0  0  0  0  0  0  0  0  0
    0.0259    2.0951   -0.7921 H   0  0  0  0  0  0  0  0  0  0  0  0
    1.6420    1.8336   -2.1785 C   0  0  0  0  0  0  0  0  0  0  0  0
    2.4197    2.5552   -1.5133 O   0  5  0  0  0  0  0  0  0  0  0  0
    1.7999    1.5183   -3.3833 O   0  0  0  0  0  0  0  0  0  0  0  0
    1.1378    0.1738    0.6399 C   0  0  0  0  0  0  0  0  0  0  0  0
    2.2695   -0.1861    0.9434 O   0  0  0  0  0  0  0  0  0  0  0  0
    0.3050    0.6632    1.6327 N   0  0  0  0  0  0  0  0  0  0  0  0
   -0.6344    0.9168    1.3527 H   0  0  0  0  0  0  0  0  0  0  0  0
    0.7088    0.8185    3.0213 C   0  0  0  0  0  0  0  0  0  0  0  0
    1.5912    1.4628    3.0928 H   0  0  0  0  0  0  0  0  0  0  0  0
   -0.1003    1.2745    3.5991 H   0  0  0  0  0  0  0  0  0  0  0  0
    0.9438   -0.1561    3.4608 H   0  0  0  0  0  0  0  0  0  0  0  0
  1  2  1  0  0  0  0
  2  3  1  0  0  0  0
  2  4  1  0  0  0  0
  2  5  1  0  0  0  0
  5  6  2  0  0  0  0
  5  7  1  0  0  0  0
  7  8  1  0  0  0  0
  7  9  1  0  0  0  0
  9 10  1  0  0  0  0
  9 11  1  0  0  0  0
  9 17  1  0  0  0  0
 11 12  1  0  0  0  0
 11 13  1  0  0  0  0
 11 14  1  0  0  0  0
 14 15  1  0  0  0  0
 14 16  2  0  0  0  0
 17 18  2  0  0  0  0
 17 19  1  0  0  0  0
 19 20  1  0  0  0  0
 19 21  1  0  0  0  0
 21 22  1  0  0  0  0
 21 23  1  0  0  0  0
 21 24  1  0  0  0  0
M  CHG  1  15  -1
M  END
$$$$

  -OEChem-03222214023D

 24 23  0     1  0  0  0  0  0999 V2000
   -2.4739   -3.5140   -0.3264 H   0  0  0  0  0  0  0  0  0  0  0  0
   -2.3897   -2.5072   -0.7454 C   0  0  0  0  0  0  0  0  0  0  0  0
   -3.1927   -1.8880   -0.3381 H   0  0  0  0  0  0  0  0  0  0  0  0
   -2.5002   -2.5688   -1.8308 H   0  0  0  0  0  0  0  0  0  0  0  0
   -1.0404   -1.9046   -0.3952 C   0  0  0  0  0  0  0  0  0  0  0  0
   -0.2674   -2.5419    0.2960 O   0  0  0  0  0  0  0  0  0  0  0  0
   -0.7304   -0.6478   -0.8704 N   0  0  0  0  0  0  0  0  0  0  0  0
   -1.3790   -0.2574   -1.5439 H   0  0  0  0  0  0  0  0  0  0  0  0
    0.5953   -0.0082   -0.7973 C   0  0  1  0  0  0  0  0  0  0  0  0
    1.3183   -0.6132   -1.3564 H   0  0  0  0  0  0  0  0  0  0  0  0
    0.3757    1.3396   -1.5186 C   0  0  0  0  0  0  0  0  0  0  0  0
   -0.3936    1.2428   -2.2908 H   0  0  0  0  0  0  0  0  0  0  0  0
    0.0311    2.0962   -0.8088 H   0  0  0  0  0  0  0  0  0  0  0  0
    1.6361    1.8436   -2.2043 C   0  0  0  0  0  0  0  0  0  0  0  0
    2.5428    2.3310   -1.4930 O   0  5  0  0  0  0  0  0  0  0  0  0
    1.6632    1.7682   -3.4573 O   0  0  0  0  0  0  0  0  0  0  0  0
    1.1473    0.1867    0.6395 C   0  0  0  0  0  0  0  0  0  0  0  0
    2.2626   -0.2072    0.9614 O   0  0  0  0  0  0  0  0  0  0  0  0
    0.3089    0.6820    1.6248 N   0  0  0  0  0  0  0  0  0  0  0  0
   -0.6284    0.9352    1.3376 H   0  0  0  0  0  0  0  0  0  0  0  0
    0.6887    0.7964    3.0241 C   0  0  0  0  0  0  0  0  0  0  0  0
    1.5842    1.4178    3.1274 H   0  0  0  0  0  0  0  0  0  0  0  0
   -0.1207    1.2583    3.5965 H   0  0  0  0  0  0  0  0  0  0  0  0
    0.8925   -0.1933    3.4452 H   0  0  0  0  0  0  0  0  0  0  0  0
  1  2  1  0  0  0  0
  2  3  1  0  0  0  0
  2  4  1  0  0  0  0
  2  5  1  0  0  0  0
  5  6  2  0  0  0  0
  5  7  1  0  0  0  0
  7  8  1  0  0  0  0
  7  9  1  0  0  0  0
  9 10  1  0  0  0  0
  9 11  1  0  0  0  0
  9 17  1  0  0  0  0
 11 12  1  0  0  0  0
 11 13  1  0  0  0  0
 11 14  1  0  0  0  0
 14 15  1  0  0  0  0
 14 16  2  0  0  0  0
 17 18  2  0  0  0  0
 17 19  1  0  0  0  0
 19 20  1  0  0  0  0
 19 21  1  0  0  0  0
 21 22  1  0  0  0  0
 21 23  1  0  0  0  0
 21 24  1  0  0  0  0
M  CHG  1  15  -1
M  END
$$$$

  -OEChem-03222214023D

 24 23  0     1  0  0  0  0  0999 V2000
   -2.4668   -3.5020   -0.3054 H   0  0  0  0  0  0  0  0  0  0  0  0
   -2.3846   -2.4916   -0.7164 C   0  0  0  0  0  0  0  0  0  0  0  0
   -3.1742   -1.8708   -0.2862 H   0  0  0  0  0  0  0  0  0  0  0  0
   -2.5184   -2.5419   -1.8000 H   0  0  0  0  0  0  0  0  0  0  0  0
   -1.0244   -1.9013   -0.3883 C   0  0  0  0  0  0  0  0  0  0  0  0
   -0.2470   -2.5454    0.2914 O   0  0  0  0  0  0  0  0  0  0  0  0
   -0.7106   -0.6483   -0.8712 N   0  0  0  0  0  0  0  0  0  0  0  0
   -1.3685   -0.2493   -1.5307 H   0  0  0  0  0  0  0  0  0  0  0  0
    0.6152   -0.0077   -0.8026 C   0  0  1  0  0  0  0  0  0  0  0  0
    1.3417   -0.6123   -1.3575 H   0  0  0  0  0  0  0  0  0  0  0  0
    0.3868    1.3369   -1.5314 C   0  0  0  0  0  0  0  0  0  0  0  0
   -0.3880    1.2292   -2.2965 H   0  0  0  0  0  0  0  0  0  0  0  0
    0.0426    2.0938   -0.8223 H   0  0  0  0  0  0  0  0  0  0  0  0
    1.6334    1.8591   -2.2316 C   0  0  0  0  0  0  0  0  0  0  0  0
    2.6507    2.0971   -1.5446 O   0  5  0  0  0  0  0  0  0  0  0  0
    1.5399    2.0503   -3.4691 O   0  0  0  0  0  0  0  0  0  0  0  0
    1.1583    0.1933    0.6377 C   0  0  0  0  0  0  0  0  0  0  0  0
    2.2590   -0.2237    0.9807 O   0  0  0  0  0  0  0  0  0  0  0  0
    0.3103    0.6934    1.6130 N   0  0  0  0  0  0  0  0  0  0  0  0
   -0.6239    0.9438    1.3141 H   0  0  0  0  0  0  0  0  0  0  0  0
    0.6587    0.7705    3.0231 C   0  0  0  0  0  0  0  0  0  0  0  0
    1.5630    1.3722    3.1608 H   0  0  0  0  0  0  0  0  0  0  0  0
   -0.1556    1.2358    3.5859 H   0  0  0  0  0  0  0  0  0  0  0  0
    0.8336   -0.2317    3.4275 H   0  0  0  0  0  0  0  0  0  0  0  0
  1  2  1  0  0  0  0
  2  3  1  0  0  0  0
  2  4  1  0  0  0  0
  2  5  1  0  0  0  0
  5  6  2  0  0  0  0
  5  7  1  0  0  0  0
  7  8  1  0  0  0  0
  7  9  1  0  0  0  0
  9 10  1  0  0  0  0
  9 11  1  0  0  0  0
  9 17  1  0  0  0  0
 11 12  1  0  0  0  0
 11 13  1  0  0  0  0
 11 14  1  0  0  0  0
 14 15  1  0  0  0  0
 14 16  2  0  0  0  0
 17 18  2  0  0  0  0
 17 19  1  0  0  0  0
 19 20  1  0  0  0  0
 19 21  1  0  0  0  0
 21 22  1  0  0  0  0
 21 23  1  0  0  0  0
 21 24  1  0  0  0  0
M  CHG  1  15  -1
M  END
$$$$

  -OEChem-03222214023D

 24 23  0     1  0  0  0  0  0999 V2000
   -2.4755   -3.4849   -0.2743 H   0  0  0  0  0  0  0  0  0  0  0  0
   -2.3852   -2.4793   -0.6950 C   0  0  0  0  0  0  0  0  0  0  0  0
   -3.1604   -1.8445   -0.2589 H   0  0  0  0  0  0  0  0  0  0  0  0
   -2.5351   -2.5363   -1.7760 H   0  0  0  0  0  0  0  0  0  0  0  0
   -1.0126   -1.9050   -0.3908 C   0  0  0  0  0  0  0  0  0  0  0  0
   -0.2304   -2.5590    0.2737 O   0  0  0  0  0  0  0  0  0  0  0  0
   -0.6942   -0.6543   -0.8764 N   0  0  0  0  0  0  0  0  0  0  0  0
   -1.3609   -0.2425   -1.5190 H   0  0  0  0  0  0  0  0  0  0  0  0
    0.6323   -0.0141   -0.8080 C   0  0  1  0  0  0  0  0  0  0  0  0
    1.3623   -0.6163   -1.3609 H   0  0  0  0  0  0  0  0  0  0  0  0
    0.3996    1.3335   -1.5339 C   0  0  0  0  0  0  0  0  0  0  0  0
   -0.3778    1.2218   -2.2959 H   0  0  0  0  0  0  0  0  0  0  0  0
    0.0541    2.0857   -0.8206 H   0  0  0  0  0  0  0  0  0  0  0  0
    1.6334    1.8767   -2.2436 C   0  0  0  0  0  0  0  0  0  0  0  0
    2.7336    1.8620   -1.6503 O   0  5  0  0  0  0  0  0  0  0  0  0
    1.4453    2.3402   -3.3954 O   0  0  0  0  0  0  0  0  0  0  0  0
    1.1650    0.1876    0.6368 C   0  0  0  0  0  0  0  0  0  0  0  0
    2.2597   -0.2314    0.9955 O   0  0  0  0  0  0  0  0  0  0  0  0
    0.3071    0.6896    1.6027 N   0  0  0  0  0  0  0  0  0  0  0  0
   -0.6278    0.9277    1.2957 H   0  0  0  0  0  0  0  0  0  0  0  0
    0.6374    0.7588    3.0178 C   0  0  0  0  0  0  0  0  0  0  0  0
    1.5484    1.3467    3.1693 H   0  0  0  0  0  0  0  0  0  0  0  0
   -0.1771    1.2354    3.5708 H   0  0  0  0  0  0  0  0  0  0  0  0
    0.7921   -0.2466    3.4224 H   0  0  0  0  0  0  0  0  0  0  0  0
  1  2  1  0  0  0  0
  2  3  1  0  0  0  0
  2  4  1  0  0  0  0
  2  5  1  0  0  0  0
  5  6  2  0  0  0  0
  5  7  1  0  0  0  0
  7  8  1  0  0  0  0
  7  9  1  0  0  0  0
  9 10  1  0  0  0  0
  9 11  1  0  0  0  0
  9 17  1  0  0  0  0
 11 12  1  0  0  0  0
 11 13  1  0  0  0  0
 11 14  1  0  0  0  0
 14 15  1  0  0  0  0
 14 16  2  0  0  0  0
 17 18  2  0  0  0  0
 17 19  1  0  0  0  0
 19 20  1  0  0  0  0
 19 21  1  0  0  0  0
 21 22  1  0  0  0  0
 21 23  1  0  0  0  0
 21 24  1  0  0  0  0
M  CHG  1  15  -1
M  END
$$$$

  -OEChem-03222214023D

 24 23  0     1  0  0  0  0  0999 V2000
   -2.4841   -3.4807   -0.2693 H   0  0  0  0  0  0  0  0  0  0  0  0
   -2.3894   -2.4782   -0.6964 C   0  0  0  0  0  0  0  0  0  0  0  0
   -3.1661   -1.8389   -0.2700 H   0  0  0  0  0  0  0  0  0  0  0  0
   -2.5324   -2.5430   -1.7779 H   0  0  0  0  0  0  0  0  0  0  0  0
   -1.0174   -1.9048   -0.3878 C   0  0  0  0  0  0  0  0  0  0  0  0
   -0.2381   -2.5593    0.2794 O   0  0  0  0  0  0  0  0  0  0  0  0
   -0.6944   -0.6557   -0.8749 N   0  0  0  0  0  0  0  0  0  0  0  0
   -1.3622   -0.2387   -1.5128 H   0  0  0  0  0  0  0  0  0  0  0  0
    0.6350   -0.0208   -0.8082 C   0  0  1  0  0  0  0  0  0  0  0  0
    1.3616   -0.6266   -1.3616 H   0  0  0  0  0  0  0  0  0  0  0  0
    0.4094    1.3324   -1.5283 C   0  0  0  0  0  0  0  0  0  0  0  0
   -0.3681    1.2240   -2.2906 H   0  0  0  0  0  0  0  0  0  0  0  0
    0.0654    2.0812   -0.8107 H   0  0  0  0  0  0  0  0  0  0  0  0
    1.6361    1.8859   -2.2445 C   0  0  0  0  0  0  0  0  0  0  0  0
    2.7787    1.6293   -1.8070 O   0  5  0  0  0  0  0  0  0  0  0  0
    1.3980    2.5955   -3.2527 O   0  0  0  0  0  0  0  0  0  0  0  0
    1.1660    0.1782    0.6379 C   0  0  0  0  0  0  0  0  0  0  0  0
    2.2671   -0.2220    0.9980 O   0  0  0  0  0  0  0  0  0  0  0  0
    0.3066    0.6832    1.6011 N   0  0  0  0  0  0  0  0  0  0  0  0
   -0.6338    0.9007    1.2954 H   0  0  0  0  0  0  0  0  0  0  0  0
    0.6367    0.7612    3.0158 C   0  0  0  0  0  0  0  0  0  0  0  0
    1.5479    1.3499    3.1639 H   0  0  0  0  0  0  0  0  0  0  0  0
   -0.1779    1.2413    3.5655 H   0  0  0  0  0  0  0  0  0  0  0  0
    0.7915   -0.2415    3.4268 H   0  0  0  0  0  0  0  0  0  0  0  0
  1  2  1  0  0  0  0
  2  3  1  0  0  0  0
  2  4  1  0  0  0  0
  2  5  1  0  0  0  0
  5  6  2  0  0  0  0
  5  7  1  0  0  0  0
  7  8  1  0  0  0  0
  7  9  1  0  0  0  0
  9 10  1  0  0  0  0
  9 11  1  0  0  0  0
  9 17  1  0  0  0  0
 11 12  1  0  0  0  0
 11 13  1  0  0  0  0
 11 14  1  0  0  0  0
 14 15  1  0  0  0  0
 14 16  2  0  0  0  0
 17 18  2  0  0  0  0
 17 19  1  0  0  0  0
 19 20  1  0  0  0  0
 19 21  1  0  0  0  0
 21 22  1  0  0  0  0
 21 23  1  0  0  0  0
 21 24  1  0  0  0  0
M  CHG  1  15  -1
M  END
$$$$

  -OEChem-03222214023D

 24 23  0     1  0  0  0  0  0999 V2000
   -2.4910   -3.4825   -0.2785 H   0  0  0  0  0  0  0  0  0  0  0  0
   -2.3956   -2.4776   -0.6997 C   0  0  0  0  0  0  0  0  0  0  0  0
   -3.1735   -1.8408   -0.2714 H   0  0  0  0  0  0  0  0  0  0  0  0
   -2.5359   -2.5364   -1.7818 H   0  0  0  0  0  0  0  0  0  0  0  0
   -1.0249   -1.9048   -0.3846 C   0  0  0  0  0  0  0  0  0  0  0  0
   -0.2527   -2.5548    0.2954 O   0  0  0  0  0  0  0  0  0  0  0  0
   -0.6979   -0.6577   -0.8739 N   0  0  0  0  0  0  0  0  0  0  0  0
   -1.3598   -0.2450   -1.5208 H   0  0  0  0  0  0  0  0  0  0  0  0
    0.6342   -0.0282   -0.8081 C   0  0  1  0  0  0  0  0  0  0  0  0
    1.3558   -0.6403   -1.3613 H   0  0  0  0  0  0  0  0  0  0  0  0
    0.4189    1.3309   -1.5211 C   0  0  0  0  0  0  0  0  0  0  0  0
   -0.3558    1.2270   -2.2863 H   0  0  0  0  0  0  0  0  0  0  0  0
    0.0737    2.0762   -0.8000 H   0  0  0  0  0  0  0  0  0  0  0  0
    1.6412    1.8920   -2.2405 C   0  0  0  0  0  0  0  0  0  0  0  0
    2.7780    1.4263   -2.0061 O   0  5  0  0  0  0  0  0  0  0  0  0
    1.3999    2.8111   -3.0611 O   0  0  0  0  0  0  0  0  0  0  0  0
    1.1649    0.1696    0.6383 C   0  0  0  0  0  0  0  0  0  0  0  0
    2.2782   -0.1998    0.9927 O   0  0  0  0  0  0  0  0  0  0  0  0
    0.3069    0.6786    1.6007 N   0  0  0  0  0  0  0  0  0  0  0  0
   -0.6402    0.8729    1.2994 H   0  0  0  0  0  0  0  0  0  0  0  0
    0.6403    0.7656    3.0143 C   0  0  0  0  0  0  0  0  0  0  0  0
    1.5452    1.3650    3.1576 H   0  0  0  0  0  0  0  0  0  0  0  0
   -0.1778    1.2388    3.5649 H   0  0  0  0  0  0  0  0  0  0  0  0
    0.8069   -0.2340    3.4283 H   0  0  0  0  0  0  0  0  0  0  0  0
  1  2  1  0  0  0  0
  2  3  1  0  0  0  0
  2  4  1  0  0  0  0
  2  5  1  0  0  0  0
  5  6  2  0  0  0  0
  5  7  1  0  0  0  0
  7  8  1  0  0  0  0
  7  9  1  0  0  0  0
  9 10  1  0  0  0  0
  9 11  1  0  0  0  0
  9 17  1  0  0  0  0
 11 12  1  0  0  0  0
 11 13  1  0  0  0  0
 11 14  1  0  0  0  0
 14 15  1  0  0  0  0
 14 16  2  0  0  0  0
 17 18  2  0  0  0  0
 17 19  1  0  0  0  0
 19 20  1  0  0  0  0
 19 21  1  0  0  0  0
 21 22  1  0  0  0  0
 21 23  1  0  0  0  0
 21 24  1  0  0  0  0
M  CHG  1  15  -1
M  END
$$$$

  -OEChem-03222214023D

 24 23  0     1  0  0  0  0  0999 V2000
   -2.5020   -3.4895   -0.2944 H   0  0  0  0  0  0  0  0  0  0  0  0
   -2.4041   -2.4862   -0.7190 C   0  0  0  0  0  0  0  0  0  0  0  0
   -3.1909   -1.8504   -0.3057 H   0  0  0  0  0  0  0  0  0  0  0  0
   -2.5279   -2.5504   -1.8028 H   0  0  0  0  0  0  0  0  0  0  0  0
   -1.0404   -1.9069   -0.3864 C   0  0  0  0  0  0  0  0  0  0  0  0
   -0.2761   -2.5501    0.3089 O   0  0  0  0  0  0  0  0  0  0  0  0
   -0.7117   -0.6588   -0.8722 N   0  0  0  0  0  0  0  0  0  0  0  0
   -1.3637   -0.2533   -1.5334 H   0  0  0  0  0  0  0  0  0  0  0  0
    0.6229   -0.0355   -0.8038 C   0  0  1  0  0  0  0  0  0  0  0  0
    1.3373   -0.6548   -1.3579 H   0  0  0  0  0  0  0  0  0  0  0  0
    0.4224    1.3304   -1.5077 C   0  0  0  0  0  0  0  0  0  0  0  0
   -0.3475    1.2357   -2.2786 H   0  0  0  0  0  0  0  0  0  0  0  0
    0.0756    2.0719   -0.7832 H   0  0  0  0  0  0  0  0  0  0  0  0
    1.6474    1.8920   -2.2231 C   0  0  0  0  0  0  0  0  0  0  0  0
    2.7268    1.2585   -2.2194 O   0  5  0  0  0  0  0  0  0  0  0  0
    1.4564    2.9755   -2.8277 O   0  0  0  0  0  0  0  0  0  0  0  0
    1.1586    0.1567    0.6409 C   0  0  0  0  0  0  0  0  0  0  0  0
    2.2895   -0.1728    0.9779 O   0  0  0  0  0  0  0  0  0  0  0  0
    0.3071    0.6662    1.6083 N   0  0  0  0  0  0  0  0  0  0  0  0
   -0.6463    0.8454    1.3176 H   0  0  0  0  0  0  0  0  0  0  0  0
    0.6601    0.7825    3.0149 C   0  0  0  0  0  0  0  0  0  0  0  0
    1.5558    1.4005    3.1346 H   0  0  0  0  0  0  0  0  0  0  0  0
   -0.1582    1.2503    3.5699 H   0  0  0  0  0  0  0  0  0  0  0  0
    0.8513   -0.2068    3.4430 H   0  0  0  0  0  0  0  0  0  0  0  0
  1  2  1  0  0  0  0
  2  3  1  0  0  0  0
  2  4  1  0  0  0  0
  2  5  1  0  0  0  0
  5  6  2  0  0  0  0
  5  7  1  0  0  0  0
  7  8  1  0  0  0  0
  7  9  1  0  0  0  0
  9 10  1  0  0  0  0
  9 11  1  0  0  0  0
  9 17  1  0  0  0  0
 11 12  1  0  0  0  0
 11 13  1  0  0  0  0
 11 14  1  0  0  0  0
 14 15  1  0  0  0  0
 14 16  2  0  0  0  0
 17 18  2  0  0  0  0
 17 19  1  0  0  0  0
 19 20  1  0  0  0  0
 19 21  1  0  0  0  0
 21 22  1  0  0  0  0
 21 23  1  0  0  0  0
 21 24  1  0  0  0  0
M  CHG  1  15  -1
M  END
$$$$

  -OEChem-03222214023D

 24 23  0     1  0  0  0  0  0999 V2000
   -2.5070   -3.5019   -0.3213 H   0  0  0  0  0  0  0  0  0  0  0  0
   -2.4096   -2.4981   -0.7446 C   0  0  0  0  0  0  0  0  0  0  0  0
   -3.2103   -1.8693   -0.3477 H   0  0  0  0  0  0  0  0  0  0  0  0
   -2.5110   -2.5642   -1.8308 H   0  0  0  0  0  0  0  0  0  0  0  0
   -1.0581   -1.9062   -0.3851 C   0  0  0  0  0  0  0  0  0  0  0  0
   -0.3047   -2.5380    0.3325 O   0  0  0  0  0  0  0  0  0  0  0  0
   -0.7299   -0.6566   -0.8673 N   0  0  0  0  0  0  0  0  0  0  0  0
   -1.3704   -0.2621   -1.5462 H   0  0  0  0  0  0  0  0  0  0  0  0
    0.6066   -0.0379   -0.7977 C   0  0  1  0  0  0  0  0  0  0  0  0
    1.3147   -0.6639   -1.3521 H   0  0  0  0  0  0  0  0  0  0  0  0
    0.4201    1.3328   -1.4954 C   0  0  0  0  0  0  0  0  0  0  0  0
   -0.3455    1.2478   -2.2709 H   0  0  0  0  0  0  0  0  0  0  0  0
    0.0742    2.0732   -0.7689 H   0  0  0  0  0  0  0  0  0  0  0  0
    1.6541    1.8839   -2.2042 C   0  0  0  0  0  0  0  0  0  0  0  0
    2.6274    1.1322   -2.4424 O   0  5  0  0  0  0  0  0  0  0  0  0
    1.5625    3.0770   -2.5830 O   0  0  0  0  0  0  0  0  0  0  0  0
    1.1506    0.1495    0.6436 C   0  0  0  0  0  0  0  0  0  0  0  0
    2.2975   -0.1446    0.9587 O   0  0  0  0  0  0  0  0  0  0  0  0
    0.3087    0.6584    1.6192 N   0  0  0  0  0  0  0  0  0  0  0  0
   -0.6526    0.8189    1.3434 H   0  0  0  0  0  0  0  0  0  0  0  0
    0.6855    0.8000    3.0171 C   0  0  0  0  0  0  0  0  0  0  0  0
    1.5694    1.4390    3.1127 H   0  0  0  0  0  0  0  0  0  0  0  0
   -0.1326    1.2563    3.5816 H   0  0  0  0  0  0  0  0  0  0  0  0
    0.9063   -0.1796    3.4533 H   0  0  0  0  0  0  0  0  0  0  0  0
  1  2  1  0  0  0  0
  2  3  1  0  0  0  0
  2  4  1  0  0  0  0
  2  5  1  0  0  0  0
  5  6  2  0  0  0  0
  5  7  1  0  0  0  0
  7  8  1  0  0  0  0
  7  9  1  0  0  0  0
  9 10  1  0  0  0  0
  9 11  1  0  0  0  0
  9 17  1  0  0  0  0
 11 12  1  0  0  0  0
 11 13  1  0  0  0  0
 11 14  1  0  0  0  0
 14 15  1  0  0  0  0
 14 16  2  0  0  0  0
 17 18  2  0  0  0  0
 17 19  1  0  0  0  0
 19 20  1  0  0  0  0
 19 21  1  0  0  0  0
 21 22  1  0  0  0  0
 21 23  1  0  0  0  0
 21 24  1  0  0  0  0
M  CHG  1  15  -1
M  END
$$$$

  -OEChem-03222214023D

 24 23  0     1  0  0  0  0  0999 V2000
   -2.4945   -3.5176   -0.3493 H   0  0  0  0  0  0  0  0  0  0  0  0
   -2.4086   -2.5069   -0.7584 C   0  0  0  0  0  0  0  0  0  0  0  0
   -3.2203   -1.8944   -0.3583 H   0  0  0  0  0  0  0  0  0  0  0  0
   -2.5024   -2.5602   -1.8460 H   0  0  0  0  0  0  0  0  0  0  0  0
   -1.0675   -1.9019   -0.3825 C   0  0  0  0  0  0  0  0  0  0  0  0
   -0.3186   -2.5247    0.3478 O   0  0  0  0  0  0  0  0  0  0  0  0
   -0.7435   -0.6507   -0.8631 N   0  0  0  0  0  0  0  0  0  0  0  0
   -1.3753   -0.2680   -1.5569 H   0  0  0  0  0  0  0  0  0  0  0  0
    0.5929   -0.0329   -0.7940 C   0  0  1  0  0  0  0  0  0  0  0  0
    1.2981   -0.6625   -1.3482 H   0  0  0  0  0  0  0  0  0  0  0  0
    0.4150    1.3380   -1.4908 C   0  0  0  0  0  0  0  0  0  0  0  0
   -0.3470    1.2588   -2.2706 H   0  0  0  0  0  0  0  0  0  0  0  0
    0.0704    2.0807   -0.7659 H   0  0  0  0  0  0  0  0  0  0  0  0
    1.6615    1.8690   -2.1918 C   0  0  0  0  0  0  0  0  0  0  0  0
    2.4892    1.0562   -2.6671 O   0  5  0  0  0  0  0  0  0  0  0  0
    1.7108    3.1136   -2.3455 O   0  0  0  0  0  0  0  0  0  0  0  0
    1.1435    0.1520    0.6444 C   0  0  0  0  0  0  0  0  0  0  0  0
    2.3002   -0.1204    0.9427 O   0  0  0  0  0  0  0  0  0  0  0  0
    0.3085    0.6592    1.6265 N   0  0  0  0  0  0  0  0  0  0  0  0
   -0.6570    0.8109    1.3606 H   0  0  0  0  0  0  0  0  0  0  0  0
    0.6989    0.8062    3.0201 C   0  0  0  0  0  0  0  0  0  0  0  0
    1.5801    1.4505    3.1048 H   0  0  0  0  0  0  0  0  0  0  0  0
   -0.1160    1.2584    3.5929 H   0  0  0  0  0  0  0  0  0  0  0  0
    0.9304   -0.1711    3.4556 H   0  0  0  0  0  0  0  0  0  0  0  0
  1  2  1  0  0  0  0
  2  3  1  0  0  0  0
  2  4  1  0  0  0  0
  2  5  1  0  0  0  0
  5  6  2  0  0  0  0
  5  7  1  0  0  0  0
  7  8  1  0  0  0  0
  7  9  1  0  0  0  0
  9 10  1  0  0  0  0
  9 11  1  0  0  0  0
  9 17  1  0  0  0  0
 11 12  1  0  0  0  0
 11 13  1  0  0  0  0
 11 14  1  0  0  0  0
 14 15  1  0  0  0  0
 14 16  2  0  0  0  0
 17 18  2  0  0  0  0
 17 19  1  0  0  0  0
 19 20  1  0  0  0  0
 19 21  1  0  0  0  0
 21 22  1  0  0  0  0
 21 23  1  0  0  0  0
 21 24  1  0  0  0  0
M  CHG  1  15  -1
M  END
$$$$

  -OEChem-03222214023D

 24 23  0     1  0  0  0  0  0999 V2000
   -2.5058   -3.5190   -0.3514 H   0  0  0  0  0  0  0  0  0  0  0  0
   -2.4104   -2.5164   -0.7778 C   0  0  0  0  0  0  0  0  0  0  0  0
   -3.2257   -1.8942   -0.4008 H   0  0  0  0  0  0  0  0  0  0  0  0
   -2.4887   -2.5889   -1.8654 H   0  0  0  0  0  0  0  0  0  0  0  0
   -1.0730   -1.9079   -0.3939 C   0  0  0  0  0  0  0  0  0  0  0  0
   -0.3233   -2.5311    0.3357 O   0  0  0  0  0  0  0  0  0  0  0  0
   -0.7543   -0.6516   -0.8645 N   0  0  0  0  0  0  0  0  0  0  0  0
   -1.3822   -0.2720   -1.5635 H   0  0  0  0  0  0  0  0  0  0  0  0
    0.5804   -0.0313   -0.7906 C   0  0  1  0  0  0  0  0  0  0  0  0
    1.2873   -0.6540   -1.3506 H   0  0  0  0  0  0  0  0  0  0  0  0
    0.4037    1.3422   -1.4791 C   0  0  0  0  0  0  0  0  0  0  0  0
   -0.3534    1.2712   -2.2643 H   0  0  0  0  0  0  0  0  0  0  0  0
    0.0587    2.0842   -0.7532 H   0  0  0  0  0  0  0  0  0  0  0  0
    1.6651    1.8531   -2.1648 C   0  0  0  0  0  0  0  0  0  0  0  0
    2.3233    1.0493   -2.8682 O   0  5  0  0  0  0  0  0  0  0  0  0
    1.8812    3.0870   -2.0921 O   0  0  0  0  0  0  0  0  0  0  0  0
    1.1366    0.1455    0.6457 C   0  0  0  0  0  0  0  0  0  0  0  0
    2.2993   -0.1174    0.9293 O   0  0  0  0  0  0  0  0  0  0  0  0
    0.3068    0.6436    1.6363 N   0  0  0  0  0  0  0  0  0  0  0  0
   -0.6579    0.8093    1.3756 H   0  0  0  0  0  0  0  0  0  0  0  0
    0.7176    0.8225    3.0202 C   0  0  0  0  0  0  0  0  0  0  0  0
    1.5890    1.4827    3.0781 H   0  0  0  0  0  0  0  0  0  0  0  0
   -0.0949    1.2727    3.5977 H   0  0  0  0  0  0  0  0  0  0  0  0
    0.9722   -0.1424    3.4702 H   0  0  0  0  0  0  0  0  0  0  0  0
  1  2  1  0  0  0  0
  2  3  1  0  0  0  0
  2  4  1  0  0  0  0
  2  5  1  0  0  0  0
  5  6  2  0  0  0  0
  5  7  1  0  0  0  0
  7  8  1  0  0  0  0
  7  9  1  0  0  0  0
  9 10  1  0  0  0  0
  9 11  1  0  0  0  0
  9 17  1  0  0  0  0
 11 12  1  0  0  0  0
 11 13  1  0  0  0  0
 11 14  1  0  0  0  0
 14 15  1  0  0  0  0
 14 16  2  0  0  0  0
 17 18  2  0  0  0  0
 17 19  1  0  0  0  0
 19 20  1  0  0  0  0
 19 21  1  0  0  0  0
 21 22  1  0  0  0  0
 21 23  1  0  0  0  0
 21 24  1  0  0  0  0
M  CHG  1  15  -1
M  END
$$$$

  -OEChem-03222214023D

 24 23  0     1  0  0  0  0  0999 V2000
   -2.4980   -3.5278   -0.3688 H   0  0  0  0  0  0  0  0  0  0  0  0
   -2.4067   -2.5239   -0.7934 C   0  0  0  0  0  0  0  0  0  0  0  0
   -3.2306   -1.9087   -0.4236 H   0  0  0  0  0  0  0  0  0  0  0  0
   -2.4740   -2.5959   -1.8819 H   0  0  0  0  0  0  0  0  0  0  0  0
   -1.0777   -1.9054   -0.3961 C   0  0  0  0  0  0  0  0  0  0  0  0
   -0.3292   -2.5249    0.3377 O   0  0  0  0  0  0  0  0  0  0  0  0
   -0.7639   -0.6465   -0.8628 N   0  0  0  0  0  0  0  0  0  0  0  0
   -1.3867   -0.2737   -1.5700 H   0  0  0  0  0  0  0  0  0  0  0  0
    0.5688   -0.0236   -0.7865 C   0  0  1  0  0  0  0  0  0  0  0  0
    1.2774   -0.6416   -1.3505 H   0  0  0  0  0  0  0  0  0  0  0  0
    0.3910    1.3452   -1.4782 C   0  0  0  0  0  0  0  0  0  0  0  0
   -0.3623    1.2765   -2.2675 H   0  0  0  0  0  0  0  0  0  0  0  0
    0.0472    2.0931   -0.7579 H   0  0  0  0  0  0  0  0  0  0  0  0
    1.6671    1.8293   -2.1509 C   0  0  0  0  0  0  0  0  0  0  0  0
    2.1496    1.1023   -3.0530 O   0  5  0  0  0  0  0  0  0  0  0  0
    2.0605    2.9870   -1.8714 O   0  0  0  0  0  0  0  0  0  0  0  0
    1.1305    0.1523    0.6474 C   0  0  0  0  0  0  0  0  0  0  0  0
    2.2925   -0.1220    0.9229 O   0  0  0  0  0  0  0  0  0  0  0  0
    0.3070    0.6465    1.6450 N   0  0  0  0  0  0  0  0  0  0  0  0
   -0.6564    0.8263    1.3890 H   0  0  0  0  0  0  0  0  0  0  0  0
    0.7309    0.8297    3.0242 C   0  0  0  0  0  0  0  0  0  0  0  0
    1.6009    1.4926    3.0720 H   0  0  0  0  0  0  0  0  0  0  0  0
   -0.0776    1.2777    3.6089 H   0  0  0  0  0  0  0  0  0  0  0  0
    0.9936   -0.1334    3.4732 H   0  0  0  0  0  0  0  0  0  0  0  0
  1  2  1  0  0  0  0
  2  3  1  0  0  0  0
  2  4  1  0  0  0  0
  2  5  1  0  0  0  0
  5  6  2  0  0  0  0
  5  7  1  0  0  0  0
  7  8  1  0  0  0  0
  7  9  1  0  0  0  0
  9 10  1  0  0  0  0
  9 11  1  0  0  0  0
  9 17  1  0  0  0  0
 11 12  1  0  0  0  0
 11 13  1  0  0  0  0
 11 14  1  0  0  0  0
 14 15  1  0  0  0  0
 14 16  2  0  0  0  0
 17 18  2  0  0  0  0
 17 19  1  0  0  0  0
 19 20  1  0  0  0  0
 19 21  1  0  0  0  0
 21 22  1  0  0  0  0
 21 23  1  0  0  0  0
 21 24  1  0  0  0  0
M  CHG  1  15  -1
M  END
$$$$

  -OEChem-03222214023D

 24 23  0     1  0  0  0  0  0999 V2000
   -2.5038   -3.5195   -0.3489 H   0  0  0  0  0  0  0  0  0  0  0  0
   -2.4068   -2.5223   -0.7877 C   0  0  0  0  0  0  0  0  0  0  0  0
   -3.2236   -1.8957   -0.4214 H   0  0  0  0  0  0  0  0  0  0  0  0
   -2.4808   -2.6086   -1.8746 H   0  0  0  0  0  0  0  0  0  0  0  0
   -1.0709   -1.9093   -0.4058 C   0  0  0  0  0  0  0  0  0  0  0  0
   -0.3124   -2.5363    0.3113 O   0  0  0  0  0  0  0  0  0  0  0  0
   -0.7600   -0.6481   -0.8686 N   0  0  0  0  0  0  0  0  0  0  0  0
   -1.3889   -0.2684   -1.5667 H   0  0  0  0  0  0  0  0  0  0  0  0
    0.5699   -0.0200   -0.7878 C   0  0  1  0  0  0  0  0  0  0  0  0
    1.2830   -0.6311   -1.3538 H   0  0  0  0  0  0  0  0  0  0  0  0
    0.3853    1.3433   -1.4844 C   0  0  0  0  0  0  0  0  0  0  0  0
   -0.3676    1.2728   -2.2745 H   0  0  0  0  0  0  0  0  0  0  0  0
    0.0404    2.0945   -0.7684 H   0  0  0  0  0  0  0  0  0  0  0  0
    1.6684    1.8176   -2.1477 C   0  0  0  0  0  0  0  0  0  0  0  0
    1.9931    1.2459   -3.2171 O   0  5  0  0  0  0  0  0  0  0  0  0
    2.2234    2.8392   -1.6787 O   0  0  0  0  0  0  0  0  0  0  0  0
    1.1301    0.1564    0.6466 C   0  0  0  0  0  0  0  0  0  0  0  0
    2.2839   -0.1462    0.9275 O   0  0  0  0  0  0  0  0  0  0  0  0
    0.3051    0.6462    1.6451 N   0  0  0  0  0  0  0  0  0  0  0  0
   -0.6491    0.8595    1.3811 H   0  0  0  0  0  0  0  0  0  0  0  0
    0.7282    0.8276    3.0248 C   0  0  0  0  0  0  0  0  0  0  0  0
    1.5908    1.5000    3.0744 H   0  0  0  0  0  0  0  0  0  0  0  0
   -0.0843    1.2632    3.6133 H   0  0  0  0  0  0  0  0  0  0  0  0
    1.0021   -0.1349    3.4685 H   0  0  0  0  0  0  0  0  0  0  0  0
  1  2  1  0  0  0  0
  2  3  1  0  0  0  0
  2  4  1  0  0  0  0
  2  5  1  0  0  0  0
  5  6  2  0  0  0  0
  5  7  1  0  0  0  0
  7  8  1  0  0  0  0
  7  9  1  0  0  0  0
  9 10  1  0  0  0  0
  9 11  1  0  0  0  0
  9 17  1  0  0  0  0
 11 12  1  0  0  0  0
 11 13  1  0  0  0  0
 11 14  1  0  0  0  0
 14 15  1  0  0  0  0
 14 16  2  0  0  0  0
 17 18  2  0  0  0  0
 17 19  1  0  0  0  0
 19 20  1  0  0  0  0
 19 21  1  0  0  0  0
 21 22  1  0  0  0  0
 21 23  1  0  0  0  0
 21 24  1  0  0  0  0
M  CHG  1  15  -1
M  END
$$$$

  -OEChem-03222214023D

 24 23  0     1  0  0  0  0  0999 V2000
   -2.4942   -3.5193   -0.3443 H   0  0  0  0  0  0  0  0  0  0  0  0
   -2.4039   -2.5153   -0.7689 C   0  0  0  0  0  0  0  0  0  0  0  0
   -3.2101   -1.8924   -0.3741 H   0  0  0  0  0  0  0  0  0  0  0  0
   -2.5027   -2.5835   -1.8552 H   0  0  0  0  0  0  0  0  0  0  0  0
   -1.0576   -1.9125   -0.4079 C   0  0  0  0  0  0  0  0  0  0  0  0
   -0.2903   -2.5484    0.2912 O   0  0  0  0  0  0  0  0  0  0  0  0
   -0.7463   -0.6522   -0.8729 N   0  0  0  0  0  0  0  0  0  0  0  0
   -1.3860   -0.2617   -1.5550 H   0  0  0  0  0  0  0  0  0  0  0  0
    0.5813   -0.0194   -0.7915 C   0  0  1  0  0  0  0  0  0  0  0  0
    1.2987   -0.6275   -1.3550 H   0  0  0  0  0  0  0  0  0  0  0  0
    0.3848    1.3374   -1.4973 C   0  0  0  0  0  0  0  0  0  0  0  0
   -0.3720    1.2579   -2.2831 H   0  0  0  0  0  0  0  0  0  0  0  0
    0.0381    2.0919   -0.7858 H   0  0  0  0  0  0  0  0  0  0  0  0
    1.6636    1.8186   -2.1630 C   0  0  0  0  0  0  0  0  0  0  0  0
    1.8459    1.4617   -3.3526 O   0  5  0  0  0  0  0  0  0  0  0  0
    2.3655    2.6521   -1.5451 O   0  0  0  0  0  0  0  0  0  0  0  0
    1.1363    0.1626    0.6445 C   0  0  0  0  0  0  0  0  0  0  0  0
    2.2745   -0.1812    0.9415 O   0  0  0  0  0  0  0  0  0  0  0  0
    0.3049    0.6530    1.6374 N   0  0  0  0  0  0  0  0  0  0  0  0
   -0.6364    0.9020    1.3591 H   0  0  0  0  0  0  0  0  0  0  0  0
    0.7127    0.8162    3.0237 C   0  0  0  0  0  0  0  0  0  0  0  0
    1.5888    1.4694    3.0903 H   0  0  0  0  0  0  0  0  0  0  0  0
   -0.0989    1.2660    3.6028 H   0  0  0  0  0  0  0  0  0  0  0  0
    0.9590   -0.1549    3.4650 H   0  0  0  0  0  0  0  0  0  0  0  0
  1  2  1  0  0  0  0
  2  3  1  0  0  0  0
  2  4  1  0  0  0  0
  2  5  1  0  0  0  0
  5  6  2  0  0  0  0
  5  7  1  0  0  0  0
  7  8  1  0  0  0  0
  7  9  1  0  0  0  0
  9 10  1  0  0  0  0
  9 11  1  0  0  0  0
  9 17  1  0  0  0  0
 11 12  1  0  0  0  0
 11 13  1  0  0  0  0
 11 14  1  0  0  0  0
 14 15  1  0  0  0  0
 14 16  2  0  0  0  0
 17 18  2  0  0  0  0
 17 19  1  0  0  0  0
 19 20  1  0  0  0  0
 19 21  1  0  0  0  0
 21 22  1  0  0  0  0
 21 23  1  0  0  0  0
 21 24  1  0  0  0  0
M  CHG  1  15  -1
M  END
$$$$

  -OEChem-03222214023D

 24 23  0     1  0  0  0  0  0999 V2000
   -2.4886   -3.5148   -0.3379 H   0  0  0  0  0  0  0  0  0  0  0  0
   -2.3998   -2.5073   -0.7543 C   0  0  0  0  0  0  0  0  0  0  0  0
   -3.1996   -1.8854   -0.3449 H   0  0  0  0  0  0  0  0  0  0  0  0
   -2.5109   -2.5649   -1.8400 H   0  0  0  0  0  0  0  0  0  0  0  0
   -1.0477   -1.9118   -0.4027 C   0  0  0  0  0  0  0  0  0  0  0  0
   -0.2753   -2.5553    0.2837 O   0  0  0  0  0  0  0  0  0  0  0  0
   -0.7333   -0.6543   -0.8729 N   0  0  0  0  0  0  0  0  0  0  0  0
   -1.3820   -0.2559   -1.5418 H   0  0  0  0  0  0  0  0  0  0  0  0
    0.5937   -0.0191   -0.7936 C   0  0  1  0  0  0  0  0  0  0  0  0
    1.3148   -0.6268   -1.3525 H   0  0  0  0  0  0  0  0  0  0  0  0
    0.3855    1.3312   -1.5115 C   0  0  0  0  0  0  0  0  0  0  0  0
   -0.3777    1.2396   -2.2901 H   0  0  0  0  0  0  0  0  0  0  0  0
    0.0380    2.0899   -0.8052 H   0  0  0  0  0  0  0  0  0  0  0  0
    1.6546    1.8255   -2.1874 C   0  0  0  0  0  0  0  0  0  0  0  0
    1.7041    1.7173   -3.4372 O   0  5  0  0  0  0  0  0  0  0  0  0
    2.4979    2.4258   -1.4837 O   0  0  0  0  0  0  0  0  0  0  0  0
    1.1442    0.1705    0.6440 C   0  0  0  0  0  0  0  0  0  0  0  0
    2.2642   -0.2147    0.9600 O   0  0  0  0  0  0  0  0  0  0  0  0
    0.3076    0.6654    1.6310 N   0  0  0  0  0  0  0  0  0  0  0  0
   -0.6238    0.9376    1.3420 H   0  0  0  0  0  0  0  0  0  0  0  0
    0.6980    0.8030    3.0253 C   0  0  0  0  0  0  0  0  0  0  0  0
    1.5837    1.4404    3.1132 H   0  0  0  0  0  0  0  0  0  0  0  0
   -0.1140    1.2579    3.5998 H   0  0  0  0  0  0  0  0  0  0  0  0
    0.9222   -0.1779    3.4564 H   0  0  0  0  0  0  0  0  0  0  0  0
  1  2  1  0  0  0  0
  2  3  1  0  0  0  0
  2  4  1  0  0  0  0
  2  5  1  0  0  0  0
  5  6  2  0  0  0  0
  5  7  1  0  0  0  0
  7  8  1  0  0  0  0
  7  9  1  0  0  0  0
  9 10  1  0  0  0  0
  9 11  1  0  0  0  0
  9 17  1  0  0  0  0
 11 12  1  0  0  0  0
 11 13  1  0  0  0  0
 11 14  1  0  0  0  0
 14 15  1  0  0  0  0
 14 16  2  0  0  0  0
 17 18  2  0  0  0  0
 17 19  1  0  0  0  0
 19 20  1  0  0  0  0
 19 21  1  0  0  0  0
 21 22  1  0  0  0  0
 21 23  1  0  0  0  0
 21 24  1  0  0  0  0
M  CHG  1  15  -1
M  END
$$$$

  -OEChem-03222214023D

 24 23  0     1  0  0  0  0  0999 V2000
   -2.4955   -3.4938   -0.2933 H   0  0  0  0  0  0  0  0  0  0  0  0
   -2.3976   -2.4940   -0.7258 C   0  0  0  0  0  0  0  0  0  0  0  0
   -3.1786   -1.8527   -0.3102 H   0  0  0  0  0  0  0  0  0  0  0  0
   -2.5309   -2.5652   -1.8081 H   0  0  0  0  0  0  0  0  0  0  0  0
   -1.0290   -1.9171   -0.4086 C   0  0  0  0  0  0  0  0  0  0  0  0
   -0.2460   -2.5750    0.2513 O   0  0  0  0  0  0  0  0  0  0  0  0
   -0.7121   -0.6607   -0.8803 N   0  0  0  0  0  0  0  0  0  0  0  0
   -1.3758   -0.2451   -1.5236 H   0  0  0  0  0  0  0  0  0  0  0  0
    0.6134   -0.0212   -0.8010 C   0  0  1  0  0  0  0  0  0  0  0  0
    1.3410   -0.6235   -1.3570 H   0  0  0  0  0  0  0  0  0  0  0  0
    0.3925    1.3280   -1.5216 C   0  0  0  0  0  0  0  0  0  0  0  0
   -0.3745    1.2241   -2.2952 H   0  0  0  0  0  0  0  0  0  0  0  0
    0.0390    2.0834   -0.8154 H   0  0  0  0  0  0  0  0  0  0  0  0
    1.6468    1.8481   -2.2086 C   0  0  0  0  0  0  0  0  0  0  0  0
    1.5763    2.0149   -3.4511 O   0  5  0  0  0  0  0  0  0  0  0  0
    2.6209    2.1755   -1.4959 O   0  0  0  0  0  0  0  0  0  0  0  0
    1.1529    0.1701    0.6415 C   0  0  0  0  0  0  0  0  0  0  0  0
    2.2577   -0.2397    0.9794 O   0  0  0  0  0  0  0  0  0  0  0  0
    0.3042    0.6638    1.6191 N   0  0  0  0  0  0  0  0  0  0  0  0
   -0.6211    0.9432    1.3178 H   0  0  0  0  0  0  0  0  0  0  0  0
    0.6725    0.7869    3.0208 C   0  0  0  0  0  0  0  0  0  0  0  0
    1.5710    1.4035    3.1267 H   0  0  0  0  0  0  0  0  0  0  0  0
   -0.1387    1.2590    3.5822 H   0  0  0  0  0  0  0  0  0  0  0  0
    0.8662   -0.2005    3.4520 H   0  0  0  0  0  0  0  0  0  0  0  0
  1  2  1  0  0  0  0
  2  3  1  0  0  0  0
  2  4  1  0  0  0  0
  2  5  1  0  0  0  0
  5  6  2  0  0  0  0
  5  7  1  0  0  0  0
  7  8  1  0  0  0  0
  7  9  1  0  0  0  0
  9 10  1  0  0  0  0
  9 11  1  0  0  0  0
  9 17  1  0  0  0  0
 11 12  1  0  0  0  0
 11 13  1  0  0  0  0
 11 14  1  0  0  0  0
 14 15  1  0  0  0  0
 14 16  2  0  0  0  0
 17 18  2  0  0  0  0
 17 19  1  0  0  0  0
 19 20  1  0  0  0  0
 19 21  1  0  0  0  0
 21 22  1  0  0  0  0
 21 23  1  0  0  0  0
 21 24  1  0  0  0  0
M  CHG  1  15  -1
M  END
$$$$

  -OEChem-03222214023D

 24 23  0     1  0  0  0  0  0999 V2000
   -2.4808   -3.4839   -0.2759 H   0  0  0  0  0  0  0  0  0  0  0  0
   -2.3891   -2.4778   -0.6948 C   0  0  0  0  0  0  0  0  0  0  0  0
   -3.1619   -1.8419   -0.2562 H   0  0  0  0  0  0  0  0  0  0  0  0
   -2.5411   -2.5326   -1.7756 H   0  0  0  0  0  0  0  0  0  0  0  0
   -1.0146   -1.9072   -0.3924 C   0  0  0  0  0  0  0  0  0  0  0  0
   -0.2309   -2.5658    0.2657 O   0  0  0  0  0  0  0  0  0  0  0  0
   -0.6939   -0.6564   -0.8766 N   0  0  0  0  0  0  0  0  0  0  0  0
   -1.3642   -0.2373   -1.5106 H   0  0  0  0  0  0  0  0  0  0  0  0
    0.6332   -0.0175   -0.8075 C   0  0  1  0  0  0  0  0  0  0  0  0
    1.3622   -0.6209   -1.3600 H   0  0  0  0  0  0  0  0  0  0  0  0
    0.4048    1.3302   -1.5331 C   0  0  0  0  0  0  0  0  0  0  0  0
   -0.3676    1.2146   -2.2997 H   0  0  0  0  0  0  0  0  0  0  0  0
    0.0507    2.0860   -0.8276 H   0  0  0  0  0  0  0  0  0  0  0  0
    1.6413    1.8696   -2.2408 C   0  0  0  0  0  0  0  0  0  0  0  0
    1.4636    2.3071   -3.4045 O   0  5  0  0  0  0  0  0  0  0  0  0
    2.7312    1.8895   -1.6289 O   0  0  0  0  0  0  0  0  0  0  0  0
    1.1657    0.1824    0.6374 C   0  0  0  0  0  0  0  0  0  0  0  0
    2.2604   -0.2370    0.9957 O   0  0  0  0  0  0  0  0  0  0  0  0
    0.3071    0.6844    1.6028 N   0  0  0  0  0  0  0  0  0  0  0  0
   -0.6263    0.9270    1.2947 H   0  0  0  0  0  0  0  0  0  0  0  0
    0.6377    0.7586    3.0173 C   0  0  0  0  0  0  0  0  0  0  0  0
    1.5482    1.3480    3.1662 H   0  0  0  0  0  0  0  0  0  0  0  0
   -0.1770    1.2362    3.5688 H   0  0  0  0  0  0  0  0  0  0  0  0
    0.7937   -0.2452    3.4253 H   0  0  0  0  0  0  0  0  0  0  0  0
  1  2  1  0  0  0  0
  2  3  1  0  0  0  0
  2  4  1  0  0  0  0
  2  5  1  0  0  0  0
  5  6  2  0  0  0  0
  5  7  1  0  0  0  0
  7  8  1  0  0  0  0
  7  9  1  0  0  0  0
  9 10  1  0  0  0  0
  9 11  1  0  0  0  0
  9 17  1  0  0  0  0
 11 12  1  0  0  0  0
 11 13  1  0  0  0  0
 11 14  1  0  0  0  0
 14 15  1  0  0  0  0
 14 16  2  0  0  0  0
 17 18  2  0  0  0  0
 17 19  1  0  0  0  0
 19 20  1  0  0  0  0
 19 21  1  0  0  0  0
 21 22  1  0  0  0  0
 21 23  1  0  0  0  0
 21 24  1  0  0  0  0
M  CHG  1  15  -1
M  END
$$$$

  -OEChem-03222214023D

 24 23  0     1  0  0  0  0  0999 V2000
   -2.4870   -3.4787   -0.2726 H   0  0  0  0  0  0  0  0  0  0  0  0
   -2.3896   -2.4751   -0.6965 C   0  0  0  0  0  0  0  0  0  0  0  0
   -3.1665   -1.8359   -0.2702 H   0  0  0  0  0  0  0  0  0  0  0  0
   -2.5296   -2.5361   -1.7787 H   0  0  0  0  0  0  0  0  0  0  0  0
   -1.0179   -1.9039   -0.3829 C   0  0  0  0  0  0  0  0  0  0  0  0
   -0.2433   -2.5571    0.2912 O   0  0  0  0  0  0  0  0  0  0  0  0
   -0.6918   -0.6567   -0.8725 N   0  0  0  0  0  0  0  0  0  0  0  0
   -1.3555   -0.2435   -1.5172 H   0  0  0  0  0  0  0  0  0  0  0  0
    0.6387   -0.0241   -0.8065 C   0  0  1  0  0  0  0  0  0  0  0  0
    1.3648   -0.6310   -1.3596 H   0  0  0  0  0  0  0  0  0  0  0  0
    0.4140    1.3298   -1.5248 C   0  0  0  0  0  0  0  0  0  0  0  0
   -0.3603    1.2168   -2.2897 H   0  0  0  0  0  0  0  0  0  0  0  0
    0.0600    2.0805   -0.8138 H   0  0  0  0  0  0  0  0  0  0  0  0
    1.6382    1.8862   -2.2435 C   0  0  0  0  0  0  0  0  0  0  0  0
    1.3966    2.5881   -3.2563 O   0  5  0  0  0  0  0  0  0  0  0  0
    2.7832    1.6064   -1.8270 O   0  0  0  0  0  0  0  0  0  0  0  0
    1.1688    0.1769    0.6394 C   0  0  0  0  0  0  0  0  0  0  0  0
    2.2692   -0.2233    1.0016 O   0  0  0  0  0  0  0  0  0  0  0  0
    0.3087    0.6857    1.5998 N   0  0  0  0  0  0  0  0  0  0  0  0
   -0.6293    0.9087    1.2904 H   0  0  0  0  0  0  0  0  0  0  0  0
    0.6330    0.7584    3.0160 C   0  0  0  0  0  0  0  0  0  0  0  0
    1.5459    1.3429    3.1696 H   0  0  0  0  0  0  0  0  0  0  0  0
   -0.1821    1.2404    3.5634 H   0  0  0  0  0  0  0  0  0  0  0  0
    0.7817   -0.2462    3.4248 H   0  0  0  0  0  0  0  0  0  0  0  0
  1  2  1  0  0  0  0
  2  3  1  0  0  0  0
  2  4  1  0  0  0  0
  2  5  1  0  0  0  0
  5  6  2  0  0  0  0
  5  7  1  0  0  0  0
  7  8  1  0  0  0  0
  7  9  1  0  0  0  0
  9 10  1  0  0  0  0
  9 11  1  0  0  0  0
  9 17  1  0  0  0  0
 11 12  1  0  0  0  0
 11 13  1  0  0  0  0
 11 14  1  0  0  0  0
 14 15  1  0  0  0  0
 14 16  2  0  0  0  0
 17 18  2  0  0  0  0
 17 19  1  0  0  0  0
 19 20  1  0  0  0  0
 19 21  1  0  0  0  0
 21 22  1  0  0  0  0
 21 23  1  0  0  0  0
 21 24  1  0  0  0  0
M  CHG  1  15  -1
M  END
$$$$

  -OEChem-03222214023D

 24 23  0     1  0  0  0  0  0999 V2000
   -2.4943   -3.4850   -0.2853 H   0  0  0  0  0  0  0  0  0  0  0  0
   -2.3966   -2.4813   -0.7093 C   0  0  0  0  0  0  0  0  0  0  0  0
   -3.1810   -1.8451   -0.2924 H   0  0  0  0  0  0  0  0  0  0  0  0
   -2.5246   -2.5444   -1.7928 H   0  0  0  0  0  0  0  0  0  0  0  0
   -1.0310   -1.9036   -0.3805 C   0  0  0  0  0  0  0  0  0  0  0  0
   -0.2669   -2.5470    0.3149 O   0  0  0  0  0  0  0  0  0  0  0  0
   -0.7012   -0.6575   -0.8707 N   0  0  0  0  0  0  0  0  0  0  0  0
   -1.3547   -0.2522   -1.5308 H   0  0  0  0  0  0  0  0  0  0  0  0
    0.6325   -0.0315   -0.8034 C   0  0  1  0  0  0  0  0  0  0  0  0
    1.3517   -0.6470   -1.3558 H   0  0  0  0  0  0  0  0  0  0  0  0
    0.4241    1.3298   -1.5139 C   0  0  0  0  0  0  0  0  0  0  0  0
   -0.3487    1.2286   -2.2813 H   0  0  0  0  0  0  0  0  0  0  0  0
    0.0735    2.0765   -0.7970 H   0  0  0  0  0  0  0  0  0  0  0  0
    1.6474    1.8912   -2.2322 C   0  0  0  0  0  0  0  0  0  0  0  0
    1.4071    2.8234   -3.0382 O   0  5  0  0  0  0  0  0  0  0  0  0
    2.7705    1.3658   -2.0661 O   0  0  0  0  0  0  0  0  0  0  0  0
    1.1633    0.1670    0.6423 C   0  0  0  0  0  0  0  0  0  0  0  0
    2.2828   -0.1874    0.9928 O   0  0  0  0  0  0  0  0  0  0  0  0
    0.3064    0.6793    1.6038 N   0  0  0  0  0  0  0  0  0  0  0  0
   -0.6440    0.8622    1.3056 H   0  0  0  0  0  0  0  0  0  0  0  0
    0.6436    0.7725    3.0158 C   0  0  0  0  0  0  0  0  0  0  0  0
    1.5483    1.3732    3.1542 H   0  0  0  0  0  0  0  0  0  0  0  0
   -0.1735    1.2475    3.5663 H   0  0  0  0  0  0  0  0  0  0  0  0
    0.8122   -0.2253    3.4334 H   0  0  0  0  0  0  0  0  0  0  0  0
  1  2  1  0  0  0  0
  2  3  1  0  0  0  0
  2  4  1  0  0  0  0
  2  5  1  0  0  0  0
  5  6  2  0  0  0  0
  5  7  1  0  0  0  0
  7  8  1  0  0  0  0
  7  9  1  0  0  0  0
  9 10  1  0  0  0  0
  9 11  1  0  0  0  0
  9 17  1  0  0  0  0
 11 12  1  0  0  0  0
 11 13  1  0  0  0  0
 11 14  1  0  0  0  0
 14 15  1  0  0  0  0
 14 16  2  0  0  0  0
 17 18  2  0  0  0  0
 17 19  1  0  0  0  0
 19 20  1  0  0  0  0
 19 21  1  0  0  0  0
 21 22  1  0  0  0  0
 21 23  1  0  0  0  0
 21 24  1  0  0  0  0
M  CHG  1  15  -1
M  END
$$$$

  -OEChem-03222214023D

 24 23  0     1  0  0  0  0  0999 V2000
   -2.5218   -3.4999   -0.2972 H   0  0  0  0  0  0  0  0  0  0  0  0
   -2.4062   -2.5197   -0.7689 C   0  0  0  0  0  0  0  0  0  0  0  0
   -3.2333   -1.8781   -0.4550 H   0  0  0  0  0  0  0  0  0  0  0  0
   -2.4426   -2.6461   -1.8540 H   0  0  0  0  0  0  0  0  0  0  0  0
   -1.0819   -1.8958   -0.3647 C   0  0  0  0  0  0  0  0  0  0  0  0
   -0.3505   -2.4967    0.4014 O   0  0  0  0  0  0  0  0  0  0  0  0
   -0.7573   -0.6475   -0.8528 N   0  0  0  0  0  0  0  0  0  0  0  0
   -1.3692   -0.2919   -1.5788 H   0  0  0  0  0  0  0  0  0  0  0  0
    0.5842   -0.0383   -0.7928 C   0  0  1  0  0  0  0  0  0  0  0  0
    1.2798   -0.6861   -1.3372 H   0  0  0  0  0  0  0  0  0  0  0  0
    0.4316    1.3406   -1.4928 C   0  0  0  0  0  0  0  0  0  0  0  0
   -0.5058    1.3783   -2.0540 H   0  0  0  0  0  0  0  0  0  0  0  0
    0.3819    2.1324   -0.7403 H   0  0  0  0  0  0  0  0  0  0  0  0
    1.5292    1.7103   -2.4885 C   0  0  0  0  0  0  0  0  0  0  0  0
    1.3841    2.8288   -3.0395 O   0  5  0  0  0  0  0  0  0  0  0  0
    2.3991    0.8677   -2.8109 O   0  0  0  0  0  0  0  0  0  0  0  0
    1.1373    0.1442    0.6451 C   0  0  0  0  0  0  0  0  0  0  0  0
    2.3058   -0.0870    0.9331 O   0  0  0  0  0  0  0  0  0  0  0  0
    0.3045    0.6578    1.6256 N   0  0  0  0  0  0  0  0  0  0  0  0
   -0.6717    0.7557    1.3725 H   0  0  0  0  0  0  0  0  0  0  0  0
    0.7007    0.8152    3.0165 C   0  0  0  0  0  0  0  0  0  0  0  0
    1.5681    1.4787    3.0943 H   0  0  0  0  0  0  0  0  0  0  0  0
   -0.1202    1.2512    3.5932 H   0  0  0  0  0  0  0  0  0  0  0  0
    0.9561   -0.1560    3.4527 H   0  0  0  0  0  0  0  0  0  0  0  0
  1  2  1  0  0  0  0
  2  3  1  0  0  0  0
  2  4  1  0  0  0  0
  2  5  1  0  0  0  0
  5  6  2  0  0  0  0
  5  7  1  0  0  0  0
  7  8  1  0  0  0  0
  7  9  1  0  0  0  0
  9 10  1  0  0  0  0
  9 11  1  0  0  0  0
  9 17  1  0  0  0  0
 11 12  1  0  0  0  0
 11 13  1  0  0  0  0
 11 14  1  0  0  0  0
 14 15  1  0  0  0  0
 14 16  2  0  0  0  0
 17 18  2  0  0  0  0
 17 19  1  0  0  0  0
 19 20  1  0  0  0  0
 19 21  1  0  0  0  0
 21 22  1  0  0  0  0
 21 23  1  0  0  0  0
 21 24  1  0  0  0  0
M  CHG  1  15  -1
M  END
$$$$

  -OEChem-03222214023D

 24 23  0     1  0  0  0  0  0999 V2000
   -2.4929   -3.5317   -0.3548 H   0  0  0  0  0  0  0  0  0  0  0  0
   -2.4041   -2.5289   -0.7822 C   0  0  0  0  0  0  0  0  0  0  0  0
   -3.2424   -1.9213   -0.4331 H   0  0  0  0  0  0  0  0  0  0  0  0
   -2.4479   -2.6071   -1.8714 H   0  0  0  0  0  0  0  0  0  0  0  0
   -1.0909   -1.8930   -0.3612 C   0  0  0  0  0  0  0  0  0  0  0  0
   -0.3688   -2.4817    0.4232 O   0  0  0  0  0  0  0  0  0  0  0  0
   -0.7692   -0.6441   -0.8494 N   0  0  0  0  0  0  0  0  0  0  0  0
   -1.3674   -0.3057   -1.5947 H   0  0  0  0  0  0  0  0  0  0  0  0
    0.5723   -0.0360   -0.7885 C   0  0  1  0  0  0  0  0  0  0  0  0
    1.2675   -0.6859   -1.3307 H   0  0  0  0  0  0  0  0  0  0  0  0
    0.4272    1.3427   -1.4889 C   0  0  0  0  0  0  0  0  0  0  0  0
   -0.5060    1.3883   -2.0562 H   0  0  0  0  0  0  0  0  0  0  0  0
    0.3792    2.1348   -0.7364 H   0  0  0  0  0  0  0  0  0  0  0  0
    1.5357    1.6939   -2.4782 C   0  0  0  0  0  0  0  0  0  0  0  0
    1.5887    2.9006   -2.8188 O   0  5  0  0  0  0  0  0  0  0  0  0
    2.1904    0.7722   -3.0214 O   0  0  0  0  0  0  0  0  0  0  0  0
    1.1309    0.1474    0.6464 C   0  0  0  0  0  0  0  0  0  0  0  0
    2.3061   -0.0685    0.9193 O   0  0  0  0  0  0  0  0  0  0  0  0
    0.3045    0.6616    1.6317 N   0  0  0  0  0  0  0  0  0  0  0  0
   -0.6760    0.7433    1.3895 H   0  0  0  0  0  0  0  0  0  0  0  0
    0.7126    0.8265    3.0181 C   0  0  0  0  0  0  0  0  0  0  0  0
    1.5907    1.4769    3.0841 H   0  0  0  0  0  0  0  0  0  0  0  0
   -0.0971    1.2816    3.5957 H   0  0  0  0  0  0  0  0  0  0  0  0
    0.9554   -0.1442    3.4621 H   0  0  0  0  0  0  0  0  0  0  0  0
  1  2  1  0  0  0  0
  2  3  1  0  0  0  0
  2  4  1  0  0  0  0
  2  5  1  0  0  0  0
  5  6  2  0  0  0  0
  5  7  1  0  0  0  0
  7  8  1  0  0  0  0
  7  9  1  0  0  0  0
  9 10  1  0  0  0  0
  9 11  1  0  0  0  0
  9 17  1  0  0  0  0
 11 12  1  0  0  0  0
 11 13  1  0  0  0  0
 11 14  1  0  0  0  0
 14 15  1  0  0  0  0
 14 16  2  0  0  0  0
 17 18  2  0  0  0  0
 17 19  1  0  0  0  0
 19 20  1  0  0  0  0
 19 21  1  0  0  0  0
 21 22  1  0  0  0  0
 21 23  1  0  0  0  0
 21 24  1  0  0  0  0
M  CHG  1  15  -1
M  END
$$$$

  -OEChem-03222214023D

 24 23  0     1  0  0  0  0  0999 V2000
   -2.4831   -3.5409   -0.3753 H   0  0  0  0  0  0  0  0  0  0  0  0
   -2.3982   -2.5376   -0.8024 C   0  0  0  0  0  0  0  0  0  0  0  0
   -3.2493   -1.9388   -0.4696 H   0  0  0  0  0  0  0  0  0  0  0  0
   -2.4211   -2.6183   -1.8920 H   0  0  0  0  0  0  0  0  0  0  0  0
   -1.1002   -1.8864   -0.3584 C   0  0  0  0  0  0  0  0  0  0  0  0
   -0.3842   -2.4675    0.4372 O   0  0  0  0  0  0  0  0  0  0  0  0
   -0.7837   -0.6351   -0.8435 N   0  0  0  0  0  0  0  0  0  0  0  0
   -1.3726   -0.3083   -1.6013 H   0  0  0  0  0  0  0  0  0  0  0  0
    0.5577   -0.0280   -0.7842 C   0  0  1  0  0  0  0  0  0  0  0  0
    1.2523   -0.6743   -1.3323 H   0  0  0  0  0  0  0  0  0  0  0  0
    0.4121    1.3484   -1.4842 C   0  0  0  0  0  0  0  0  0  0  0  0
   -0.5182    1.3993   -2.0552 H   0  0  0  0  0  0  0  0  0  0  0  0
    0.3676    2.1428   -0.7338 H   0  0  0  0  0  0  0  0  0  0  0  0
    1.5325    1.6695   -2.4674 C   0  0  0  0  0  0  0  0  0  0  0  0
    1.8153    2.8833   -2.6118 O   0  5  0  0  0  0  0  0  0  0  0  0
    1.9614    0.7441   -3.1990 O   0  0  0  0  0  0  0  0  0  0  0  0
    1.1255    0.1518    0.6471 C   0  0  0  0  0  0  0  0  0  0  0  0
    2.3032   -0.0667    0.9073 O   0  0  0  0  0  0  0  0  0  0  0  0
    0.3079    0.6635    1.6409 N   0  0  0  0  0  0  0  0  0  0  0  0
   -0.6737    0.7534    1.4061 H   0  0  0  0  0  0  0  0  0  0  0  0
    0.7303    0.8334    3.0225 C   0  0  0  0  0  0  0  0  0  0  0  0
    1.6060    1.4882    3.0769 H   0  0  0  0  0  0  0  0  0  0  0  0
   -0.0751    1.2858    3.6085 H   0  0  0  0  0  0  0  0  0  0  0  0
    0.9825   -0.1352    3.4660 H   0  0  0  0  0  0  0  0  0  0  0  0
  1  2  1  0  0  0  0
  2  3  1  0  0  0  0
  2  4  1  0  0  0  0
  2  5  1  0  0  0  0
  5  6  2  0  0  0  0
  5  7  1  0  0  0  0
  7  8  1  0  0  0  0
  7  9  1  0  0  0  0
  9 10  1  0  0  0  0
  9 11  1  0  0  0  0
  9 17  1  0  0  0  0
 11 12  1  0  0  0  0
 11 13  1  0  0  0  0
 11 14  1  0  0  0  0
 14 15  1  0  0  0  0
 14 16  2  0  0  0  0
 17 18  2  0  0  0  0
 17 19  1  0  0  0  0
 19 20  1  0  0  0  0
 19 21  1  0  0  0  0
 21 22  1  0  0  0  0
 21 23  1  0  0  0  0
 21 24  1  0  0  0  0
M  CHG  1  15  -1
M  END
$$$$

  -OEChem-03222214023D

 24 23  0     1  0  0  0  0  0999 V2000
   -2.4803   -3.5364   -0.3542 H   0  0  0  0  0  0  0  0  0  0  0  0
   -2.3936   -2.5407   -0.7984 C   0  0  0  0  0  0  0  0  0  0  0  0
   -3.2459   -1.9365   -0.4783 H   0  0  0  0  0  0  0  0  0  0  0  0
   -2.4131   -2.6397   -1.8867 H   0  0  0  0  0  0  0  0  0  0  0  0
   -1.0968   -1.8824   -0.3614 C   0  0  0  0  0  0  0  0  0  0  0  0
   -0.3746   -2.4601    0.4312 O   0  0  0  0  0  0  0  0  0  0  0  0
   -0.7890   -0.6281   -0.8453 N   0  0  0  0  0  0  0  0  0  0  0  0
   -1.3781   -0.3072   -1.6056 H   0  0  0  0  0  0  0  0  0  0  0  0
    0.5495   -0.0143   -0.7876 C   0  0  1  0  0  0  0  0  0  0  0  0
    1.2466   -0.6529   -1.3422 H   0  0  0  0  0  0  0  0  0  0  0  0
    0.3978    1.3589   -1.4883 C   0  0  0  0  0  0  0  0  0  0  0  0
   -0.5289    1.4066   -2.0655 H   0  0  0  0  0  0  0  0  0  0  0  0
    0.3511    2.1579   -0.7426 H   0  0  0  0  0  0  0  0  0  0  0  0
    1.5293    1.6546   -2.4637 C   0  0  0  0  0  0  0  0  0  0  0  0
    2.0373    2.8007   -2.4271 O   0  5  0  0  0  0  0  0  0  0  0  0
    1.7703    0.7894   -3.3412 O   0  0  0  0  0  0  0  0  0  0  0  0
    1.1227    0.1670    0.6409 C   0  0  0  0  0  0  0  0  0  0  0  0
    2.2978   -0.0678    0.8982 O   0  0  0  0  0  0  0  0  0  0  0  0
    0.3082    0.6735    1.6395 N   0  0  0  0  0  0  0  0  0  0  0  0
   -0.6725    0.7749    1.4056 H   0  0  0  0  0  0  0  0  0  0  0  0
    0.7326    0.8231    3.0224 C   0  0  0  0  0  0  0  0  0  0  0  0
    1.6073    1.4785    3.0848 H   0  0  0  0  0  0  0  0  0  0  0  0
   -0.0726    1.2646    3.6167 H   0  0  0  0  0  0  0  0  0  0  0  0
    0.9876   -0.1519    3.4499 H   0  0  0  0  0  0  0  0  0  0  0  0
  1  2  1  0  0  0  0
  2  3  1  0  0  0  0
  2  4  1  0  0  0  0
  2  5  1  0  0  0  0
  5  6  2  0  0  0  0
  5  7  1  0  0  0  0
  7  8  1  0  0  0  0
  7  9  1  0  0  0  0
  9 10  1  0  0  0  0
  9 11  1  0  0  0  0
  9 17  1  0  0  0  0
 11 12  1  0  0  0  0
 11 13  1  0  0  0  0
 11 14  1  0  0  0  0
 14 15  1  0  0  0  0
 14 16  2  0  0  0  0
 17 18  2  0  0  0  0
 17 19  1  0  0  0  0
 19 20  1  0  0  0  0
 19 21  1  0  0  0  0
 21 22  1  0  0  0  0
 21 23  1  0  0  0  0
 21 24  1  0  0  0  0
M  CHG  1  15  -1
M  END
$$$$

  -OEChem-03222214023D

 24 23  0     1  0  0  0  0  0999 V2000
   -2.4686   -3.5375   -0.3609 H   0  0  0  0  0  0  0  0  0  0  0  0
   -2.3874   -2.5386   -0.7993 C   0  0  0  0  0  0  0  0  0  0  0  0
   -3.2420   -1.9399   -0.4749 H   0  0  0  0  0  0  0  0  0  0  0  0
   -2.4078   -2.6310   -1.8881 H   0  0  0  0  0  0  0  0  0  0  0  0
   -1.0927   -1.8771   -0.3609 C   0  0  0  0  0  0  0  0  0  0  0  0
   -0.3657   -2.4570    0.4257 O   0  0  0  0  0  0  0  0  0  0  0  0
   -0.7895   -0.6214   -0.8435 N   0  0  0  0  0  0  0  0  0  0  0  0
   -1.3815   -0.3006   -1.6016 H   0  0  0  0  0  0  0  0  0  0  0  0
    0.5469   -0.0035   -0.7893 C   0  0  1  0  0  0  0  0  0  0  0  0
    1.2455   -0.6346   -1.3514 H   0  0  0  0  0  0  0  0  0  0  0  0
    0.3826    1.3651   -1.4918 C   0  0  0  0  0  0  0  0  0  0  0  0
   -0.5453    1.4084   -2.0679 H   0  0  0  0  0  0  0  0  0  0  0  0
    0.3373    2.1692   -0.7514 H   0  0  0  0  0  0  0  0  0  0  0  0
    1.5176    1.6426   -2.4652 C   0  0  0  0  0  0  0  0  0  0  0  0
    2.2288    2.6566   -2.2721 O   0  5  0  0  0  0  0  0  0  0  0  0
    1.5974    0.8838   -3.4629 O   0  0  0  0  0  0  0  0  0  0  0  0
    1.1240    0.1774    0.6376 C   0  0  0  0  0  0  0  0  0  0  0  0
    2.2940   -0.0795    0.8969 O   0  0  0  0  0  0  0  0  0  0  0  0
    0.3106    0.6802    1.6389 N   0  0  0  0  0  0  0  0  0  0  0  0
   -0.6682    0.7927    1.4028 H   0  0  0  0  0  0  0  0  0  0  0  0
    0.7330    0.8173    3.0238 C   0  0  0  0  0  0  0  0  0  0  0  0
    1.6146    1.4628    3.0921 H   0  0  0  0  0  0  0  0  0  0  0  0
   -0.0688    1.2647    3.6181 H   0  0  0  0  0  0  0  0  0  0  0  0
    0.9763   -0.1627    3.4469 H   0  0  0  0  0  0  0  0  0  0  0  0
  1  2  1  0  0  0  0
  2  3  1  0  0  0  0
  2  4  1  0  0  0  0
  2  5  1  0  0  0  0
  5  6  2  0  0  0  0
  5  7  1  0  0  0  0
  7  8  1  0  0  0  0
  7  9  1  0  0  0  0
  9 10  1  0  0  0  0
  9 11  1  0  0  0  0
  9 17  1  0  0  0  0
 11 12  1  0  0  0  0
 11 13  1  0  0  0  0
 11 14  1  0  0  0  0
 14 15  1  0  0  0  0
 14 16  2  0  0  0  0
 17 18  2  0  0  0  0
 17 19  1  0  0  0  0
 19 20  1  0  0  0  0
 19 21  1  0  0  0  0
 21 22  1  0  0  0  0
 21 23  1  0  0  0  0
 21 24  1  0  0  0  0
M  CHG  1  15  -1
M  END
$$$$

  -OEChem-03222214023D

 24 23  0     1  0  0  0  0  0999 V2000
   -2.4521   -3.5393   -0.3726 H   0  0  0  0  0  0  0  0  0  0  0  0
   -2.3836   -2.5289   -0.7855 C   0  0  0  0  0  0  0  0  0  0  0  0
   -3.2285   -1.9400   -0.4201 H   0  0  0  0  0  0  0  0  0  0  0  0
   -2.4353   -2.5913   -1.8754 H   0  0  0  0  0  0  0  0  0  0  0  0
   -1.0777   -1.8778   -0.3652 C   0  0  0  0  0  0  0  0  0  0  0  0
   -0.3420   -2.4642    0.4081 O   0  0  0  0  0  0  0  0  0  0  0  0
   -0.7762   -0.6220   -0.8480 N   0  0  0  0  0  0  0  0  0  0  0  0
   -1.3754   -0.2968   -1.5988 H   0  0  0  0  0  0  0  0  0  0  0  0
    0.5564    0.0035   -0.7938 C   0  0  1  0  0  0  0  0  0  0  0  0
    1.2612   -0.6200   -1.3570 H   0  0  0  0  0  0  0  0  0  0  0  0
    0.3744    1.3668   -1.5007 C   0  0  0  0  0  0  0  0  0  0  0  0
   -0.5566    1.4006   -2.0735 H   0  0  0  0  0  0  0  0  0  0  0  0
    0.3271    2.1751   -0.7655 H   0  0  0  0  0  0  0  0  0  0  0  0
    1.5077    1.6443   -2.4741 C   0  0  0  0  0  0  0  0  0  0  0  0
    2.3843    2.4791   -2.1520 O   0  5  0  0  0  0  0  0  0  0  0  0
    1.4519    1.0417   -3.5745 O   0  0  0  0  0  0  0  0  0  0  0  0
    1.1293    0.1893    0.6346 C   0  0  0  0  0  0  0  0  0  0  0  0
    2.2909   -0.0918    0.9059 O   0  0  0  0  0  0  0  0  0  0  0  0
    0.3102    0.6891    1.6332 N   0  0  0  0  0  0  0  0  0  0  0  0
   -0.6672    0.8018    1.3915 H   0  0  0  0  0  0  0  0  0  0  0  0
    0.7198    0.8067    3.0239 C   0  0  0  0  0  0  0  0  0  0  0  0
    1.6196    1.4249    3.1076 H   0  0  0  0  0  0  0  0  0  0  0  0
   -0.0756    1.2749    3.6107 H   0  0  0  0  0  0  0  0  0  0  0  0
    0.9282   -0.1822    3.4444 H   0  0  0  0  0  0  0  0  0  0  0  0
  1  2  1  0  0  0  0
  2  3  1  0  0  0  0
  2  4  1  0  0  0  0
  2  5  1  0  0  0  0
  5  6  2  0  0  0  0
  5  7  1  0  0  0  0
  7  8  1  0  0  0  0
  7  9  1  0  0  0  0
  9 10  1  0  0  0  0
  9 11  1  0  0  0  0
  9 17  1  0  0  0  0
 11 12  1  0  0  0  0
 11 13  1  0  0  0  0
 11 14  1  0  0  0  0
 14 15  1  0  0  0  0
 14 16  2  0  0  0  0
 17 18  2  0  0  0  0
 17 19  1  0  0  0  0
 19 20  1  0  0  0  0
 19 21  1  0  0  0  0
 21 22  1  0  0  0  0
 21 23  1  0  0  0  0
 21 24  1  0  0  0  0
M  CHG  1  15  -1
M  END
$$$$

  -OEChem-03222214023D

 24 23  0     1  0  0  0  0  0999 V2000
   -2.4515   -3.5325   -0.3572 H   0  0  0  0  0  0  0  0  0  0  0  0
   -2.3812   -2.5244   -0.7756 C   0  0  0  0  0  0  0  0  0  0  0  0
   -3.2218   -1.9308   -0.4083 H   0  0  0  0  0  0  0  0  0  0  0  0
   -2.4397   -2.5920   -1.8648 H   0  0  0  0  0  0  0  0  0  0  0  0
   -1.0703   -1.8764   -0.3659 C   0  0  0  0  0  0  0  0  0  0  0  0
   -0.3272   -2.4685    0.3956 O   0  0  0  0  0  0  0  0  0  0  0  0
   -0.7689   -0.6209   -0.8500 N   0  0  0  0  0  0  0  0  0  0  0  0
   -1.3762   -0.2886   -1.5912 H   0  0  0  0  0  0  0  0  0  0  0  0
    0.5631    0.0073   -0.7969 C   0  0  1  0  0  0  0  0  0  0  0  0
    1.2702   -0.6121   -1.3610 H   0  0  0  0  0  0  0  0  0  0  0  0
    0.3718    1.3683   -1.5059 C   0  0  0  0  0  0  0  0  0  0  0  0
   -0.5636    1.3981   -2.0716 H   0  0  0  0  0  0  0  0  0  0  0  0
    0.3265    2.1781   -0.7726 H   0  0  0  0  0  0  0  0  0  0  0  0
    1.5012    1.6504   -2.4826 C   0  0  0  0  0  0  0  0  0  0  0  0
    2.5147    2.2591   -2.0713 O   0  5  0  0  0  0  0  0  0  0  0  0
    1.3229    1.2567   -3.6618 O   0  0  0  0  0  0  0  0  0  0  0  0
    1.1340    0.1954    0.6327 C   0  0  0  0  0  0  0  0  0  0  0  0
    2.2861   -0.1122    0.9159 O   0  0  0  0  0  0  0  0  0  0  0  0
    0.3118    0.6950    1.6291 N   0  0  0  0  0  0  0  0  0  0  0  0
   -0.6606    0.8282    1.3788 H   0  0  0  0  0  0  0  0  0  0  0  0
    0.7111    0.7964    3.0241 C   0  0  0  0  0  0  0  0  0  0  0  0
    1.6154    1.4061    3.1196 H   0  0  0  0  0  0  0  0  0  0  0  0
   -0.0845    1.2663    3.6094 H   0  0  0  0  0  0  0  0  0  0  0  0
    0.9080   -0.1981    3.4374 H   0  0  0  0  0  0  0  0  0  0  0  0
  1  2  1  0  0  0  0
  2  3  1  0  0  0  0
  2  4  1  0  0  0  0
  2  5  1  0  0  0  0
  5  6  2  0  0  0  0
  5  7  1  0  0  0  0
  7  8  1  0  0  0  0
  7  9  1  0  0  0  0
  9 10  1  0  0  0  0
  9 11  1  0  0  0  0
  9 17  1  0  0  0  0
 11 12  1  0  0  0  0
 11 13  1  0  0  0  0
 11 14  1  0  0  0  0
 14 15  1  0  0  0  0
 14 16  2  0  0  0  0
 17 18  2  0  0  0  0
 17 19  1  0  0  0  0
 19 20  1  0  0  0  0
 19 21  1  0  0  0  0
 21 22  1  0  0  0  0
 21 23  1  0  0  0  0
 21 24  1  0  0  0  0
M  CHG  1  15  -1
M  END
$$$$

  -OEChem-03222214023D

 24 23  0     1  0  0  0  0  0999 V2000
   -2.4504   -3.5224   -0.3375 H   0  0  0  0  0  0  0  0  0  0  0  0
   -2.3792   -2.5139   -0.7547 C   0  0  0  0  0  0  0  0  0  0  0  0
   -3.2088   -1.9144   -0.3721 H   0  0  0  0  0  0  0  0  0  0  0  0
   -2.4564   -2.5787   -1.8430 H   0  0  0  0  0  0  0  0  0  0  0  0
   -1.0561   -1.8783   -0.3656 C   0  0  0  0  0  0  0  0  0  0  0  0
   -0.3044   -2.4804    0.3791 O   0  0  0  0  0  0  0  0  0  0  0  0
   -0.7523   -0.6247   -0.8533 N   0  0  0  0  0  0  0  0  0  0  0  0
   -1.3725   -0.2797   -1.5778 H   0  0  0  0  0  0  0  0  0  0  0  0
    0.5784    0.0072   -0.8019 C   0  0  1  0  0  0  0  0  0  0  0  0
    1.2911   -0.6084   -1.3634 H   0  0  0  0  0  0  0  0  0  0  0  0
    0.3763    1.3664   -1.5135 C   0  0  0  0  0  0  0  0  0  0  0  0
   -0.5657    1.3905   -2.0692 H   0  0  0  0  0  0  0  0  0  0  0  0
    0.3339    2.1766   -0.7806 H   0  0  0  0  0  0  0  0  0  0  0  0
    1.4975    1.6620   -2.4968 C   0  0  0  0  0  0  0  0  0  0  0  0
    2.6112    2.0175   -2.0513 O   0  5  0  0  0  0  0  0  0  0  0  0
    1.2172    1.5249   -3.7133 O   0  0  0  0  0  0  0  0  0  0  0  0
    1.1414    0.1997    0.6307 C   0  0  0  0  0  0  0  0  0  0  0  0
    2.2823   -0.1309    0.9323 O   0  0  0  0  0  0  0  0  0  0  0  0
    0.3106    0.7003    1.6197 N   0  0  0  0  0  0  0  0  0  0  0  0
   -0.6574    0.8429    1.3578 H   0  0  0  0  0  0  0  0  0  0  0  0
    0.6913    0.7819    3.0213 C   0  0  0  0  0  0  0  0  0  0  0  0
    1.6002    1.3814    3.1362 H   0  0  0  0  0  0  0  0  0  0  0  0
   -0.1076    1.2530    3.6010 H   0  0  0  0  0  0  0  0  0  0  0  0
    0.8724   -0.2193    3.4255 H   0  0  0  0  0  0  0  0  0  0  0  0
  1  2  1  0  0  0  0
  2  3  1  0  0  0  0
  2  4  1  0  0  0  0
  2  5  1  0  0  0  0
  5  6  2  0  0  0  0
  5  7  1  0  0  0  0
  7  8  1  0  0  0  0
  7  9  1  0  0  0  0
  9 10  1  0  0  0  0
  9 11  1  0  0  0  0
  9 17  1  0  0  0  0
 11 12  1  0  0  0  0
 11 13  1  0  0  0  0
 11 14  1  0  0  0  0
 14 15  1  0  0  0  0
 14 16  2  0  0  0  0
 17 18  2  0  0  0  0
 17 19  1  0  0  0  0
 19 20  1  0  0  0  0
 19 21  1  0  0  0  0
 21 22  1  0  0  0  0
 21 23  1  0  0  0  0
 21 24  1  0  0  0  0
M  CHG  1  15  -1
M  END
$$$$

  -OEChem-03222214023D

 24 23  0     1  0  0  0  0  0999 V2000
   -2.4633   -3.5082   -0.3071 H   0  0  0  0  0  0  0  0  0  0  0  0
   -2.3810   -2.5063   -0.7381 C   0  0  0  0  0  0  0  0  0  0  0  0
   -3.1995   -1.8906   -0.3576 H   0  0  0  0  0  0  0  0  0  0  0  0
   -2.4667   -2.5841   -1.8248 H   0  0  0  0  0  0  0  0  0  0  0  0
   -1.0470   -1.8829   -0.3665 C   0  0  0  0  0  0  0  0  0  0  0  0
   -0.2897   -2.4933    0.3655 O   0  0  0  0  0  0  0  0  0  0  0  0
   -0.7396   -0.6310   -0.8564 N   0  0  0  0  0  0  0  0  0  0  0  0
   -1.3705   -0.2739   -1.5655 H   0  0  0  0  0  0  0  0  0  0  0  0
    0.5917    0.0013   -0.8068 C   0  0  1  0  0  0  0  0  0  0  0  0
    1.3070   -0.6123   -1.3671 H   0  0  0  0  0  0  0  0  0  0  0  0
    0.3863    1.3631   -1.5161 C   0  0  0  0  0  0  0  0  0  0  0  0
   -0.5607    1.3854   -2.0635 H   0  0  0  0  0  0  0  0  0  0  0  0
    0.3482    2.1696   -0.7791 H   0  0  0  0  0  0  0  0  0  0  0  0
    1.4979    1.6771   -2.5072 C   0  0  0  0  0  0  0  0  0  0  0  0
    2.6743    1.7608   -2.0910 O   0  5  0  0  0  0  0  0  0  0  0  0
    1.1447    1.8330   -3.7023 O   0  0  0  0  0  0  0  0  0  0  0  0
    1.1476    0.1941    0.6295 C   0  0  0  0  0  0  0  0  0  0  0  0
    2.2837   -0.1406    0.9443 O   0  0  0  0  0  0  0  0  0  0  0  0
    0.3085    0.6956    1.6115 N   0  0  0  0  0  0  0  0  0  0  0  0
   -0.6579    0.8339    1.3419 H   0  0  0  0  0  0  0  0  0  0  0  0
    0.6753    0.7747    3.0170 C   0  0  0  0  0  0  0  0  0  0  0  0
    1.5831    1.3739    3.1422 H   0  0  0  0  0  0  0  0  0  0  0  0
   -0.1296    1.2449    3.5894 H   0  0  0  0  0  0  0  0  0  0  0  0
    0.8528   -0.2271    3.4213 H   0  0  0  0  0  0  0  0  0  0  0  0
  1  2  1  0  0  0  0
  2  3  1  0  0  0  0
  2  4  1  0  0  0  0
  2  5  1  0  0  0  0
  5  6  2  0  0  0  0
  5  7  1  0  0  0  0
  7  8  1  0  0  0  0
  7  9  1  0  0  0  0
  9 10  1  0  0  0  0
  9 11  1  0  0  0  0
  9 17  1  0  0  0  0
 11 12  1  0  0  0  0
 11 13  1  0  0  0  0
 11 14  1  0  0  0  0
 14 15  1  0  0  0  0
 14 16  2  0  0  0  0
 17 18  2  0  0  0  0
 17 19  1  0  0  0  0
 19 20  1  0  0  0  0
 19 21  1  0  0  0  0
 21 22  1  0  0  0  0
 21 23  1  0  0  0  0
 21 24  1  0  0  0  0
M  CHG  1  15  -1
M  END
$$$$

  -OEChem-03222214023D

 24 23  0     1  0  0  0  0  0999 V2000
   -2.4633   -3.5068   -0.3031 H   0  0  0  0  0  0  0  0  0  0  0  0
   -2.3848   -2.5001   -0.7234 C   0  0  0  0  0  0  0  0  0  0  0  0
   -3.1929   -1.8855   -0.3193 H   0  0  0  0  0  0  0  0  0  0  0  0
   -2.4919   -2.5638   -1.8091 H   0  0  0  0  0  0  0  0  0  0  0  0
   -1.0407   -1.8883   -0.3698 C   0  0  0  0  0  0  0  0  0  0  0  0
   -0.2790   -2.5062    0.3511 O   0  0  0  0  0  0  0  0  0  0  0  0
   -0.7295   -0.6378   -0.8609 N   0  0  0  0  0  0  0  0  0  0  0  0
   -1.3682   -0.2690   -1.5568 H   0  0  0  0  0  0  0  0  0  0  0  0
    0.6023   -0.0062   -0.8096 C   0  0  1  0  0  0  0  0  0  0  0  0
    1.3187   -0.6220   -1.3662 H   0  0  0  0  0  0  0  0  0  0  0  0
    0.3987    1.3576   -1.5189 C   0  0  0  0  0  0  0  0  0  0  0  0
   -0.5496    1.3767   -2.0643 H   0  0  0  0  0  0  0  0  0  0  0  0
    0.3588    2.1611   -0.7789 H   0  0  0  0  0  0  0  0  0  0  0  0
    1.5025    1.6912   -2.5149 C   0  0  0  0  0  0  0  0  0  0  0  0
    2.6969    1.5111   -2.1901 O   0  5  0  0  0  0  0  0  0  0  0  0
    1.1202    2.1294   -3.6281 O   0  0  0  0  0  0  0  0  0  0  0  0
    1.1505    0.1868    0.6301 C   0  0  0  0  0  0  0  0  0  0  0  0
    2.2860   -0.1405    0.9544 O   0  0  0  0  0  0  0  0  0  0  0  0
    0.3049    0.6895    1.6061 N   0  0  0  0  0  0  0  0  0  0  0  0
   -0.6588    0.8312    1.3290 H   0  0  0  0  0  0  0  0  0  0  0  0
    0.6616    0.7705    3.0143 C   0  0  0  0  0  0  0  0  0  0  0  0
    1.5690    1.3689    3.1452 H   0  0  0  0  0  0  0  0  0  0  0  0
   -0.1471    1.2422    3.5801 H   0  0  0  0  0  0  0  0  0  0  0  0
    0.8349   -0.2309    3.4215 H   0  0  0  0  0  0  0  0  0  0  0  0
  1  2  1  0  0  0  0
  2  3  1  0  0  0  0
  2  4  1  0  0  0  0
  2  5  1  0  0  0  0
  5  6  2  0  0  0  0
  5  7  1  0  0  0  0
  7  8  1  0  0  0  0
  7  9  1  0  0  0  0
  9 10  1  0  0  0  0
  9 11  1  0  0  0  0
  9 17  1  0  0  0  0
 11 12  1  0  0  0  0
 11 13  1  0  0  0  0
 11 14  1  0  0  0  0
 14 15  1  0  0  0  0
 14 16  2  0  0  0  0
 17 18  2  0  0  0  0
 17 19  1  0  0  0  0
 19 20  1  0  0  0  0
 19 21  1  0  0  0  0
 21 22  1  0  0  0  0
 21 23  1  0  0  0  0
 21 24  1  0  0  0  0
M  CHG  1  15  -1
M  END
$$$$

  -OEChem-03222214023D

 24 23  0     1  0  0  0  0  0999 V2000
   -2.4888   -3.4954   -0.2863 H   0  0  0  0  0  0  0  0  0  0  0  0
   -2.3922   -2.5013   -0.7321 C   0  0  0  0  0  0  0  0  0  0  0  0
   -3.2028   -1.8690   -0.3617 H   0  0  0  0  0  0  0  0  0  0  0  0
   -2.4774   -2.5937   -1.8178 H   0  0  0  0  0  0  0  0  0  0  0  0
   -1.0501   -1.8914   -0.3681 C   0  0  0  0  0  0  0  0  0  0  0  0
   -0.2966   -2.5074    0.3632 O   0  0  0  0  0  0  0  0  0  0  0  0
   -0.7326   -0.6425   -0.8593 N   0  0  0  0  0  0  0  0  0  0  0  0
   -1.3683   -0.2714   -1.5566 H   0  0  0  0  0  0  0  0  0  0  0  0
    0.6025   -0.0177   -0.8072 C   0  0  1  0  0  0  0  0  0  0  0  0
    1.3131   -0.6414   -1.3621 H   0  0  0  0  0  0  0  0  0  0  0  0
    0.4108    1.3520   -1.5120 C   0  0  0  0  0  0  0  0  0  0  0  0
   -0.5368    1.3744   -2.0582 H   0  0  0  0  0  0  0  0  0  0  0  0
    0.3705    2.1497   -0.7661 H   0  0  0  0  0  0  0  0  0  0  0  0
    1.5068    1.7050   -2.5126 C   0  0  0  0  0  0  0  0  0  0  0  0
    2.6712    1.2811   -2.3390 O   0  5  0  0  0  0  0  0  0  0  0  0
    1.1386    2.4051   -3.4879 O   0  0  0  0  0  0  0  0  0  0  0  0
    1.1494    0.1717    0.6336 C   0  0  0  0  0  0  0  0  0  0  0  0
    2.2931   -0.1298    0.9534 O   0  0  0  0  0  0  0  0  0  0  0  0
    0.3045    0.6780    1.6084 N   0  0  0  0  0  0  0  0  0  0  0  0
   -0.6631    0.8033    1.3360 H   0  0  0  0  0  0  0  0  0  0  0  0
    0.6683    0.7790    3.0133 C   0  0  0  0  0  0  0  0  0  0  0  0
    1.5631    1.3984    3.1331 H   0  0  0  0  0  0  0  0  0  0  0  0
   -0.1468    1.2378    3.5803 H   0  0  0  0  0  0  0  0  0  0  0  0
    0.8663   -0.2146    3.4284 H   0  0  0  0  0  0  0  0  0  0  0  0
  1  2  1  0  0  0  0
  2  3  1  0  0  0  0
  2  4  1  0  0  0  0
  2  5  1  0  0  0  0
  5  6  2  0  0  0  0
  5  7  1  0  0  0  0
  7  8  1  0  0  0  0
  7  9  1  0  0  0  0
  9 10  1  0  0  0  0
  9 11  1  0  0  0  0
  9 17  1  0  0  0  0
 11 12  1  0  0  0  0
 11 13  1  0  0  0  0
 11 14  1  0  0  0  0
 14 15  1  0  0  0  0
 14 16  2  0  0  0  0
 17 18  2  0  0  0  0
 17 19  1  0  0  0  0
 19 20  1  0  0  0  0
 19 21  1  0  0  0  0
 21 22  1  0  0  0  0
 21 23  1  0  0  0  0
 21 24  1  0  0  0  0
M  CHG  1  15  -1
M  END
$$$$

  -OEChem-03222214023D

 24 23  0     1  0  0  0  0  0999 V2000
   -2.4885   -3.5117   -0.3193 H   0  0  0  0  0  0  0  0  0  0  0  0
   -2.4012   -2.5068   -0.7426 C   0  0  0  0  0  0  0  0  0  0  0  0
   -3.2156   -1.8894   -0.3557 H   0  0  0  0  0  0  0  0  0  0  0  0
   -2.4888   -2.5756   -1.8298 H   0  0  0  0  0  0  0  0  0  0  0  0
   -1.0626   -1.8948   -0.3680 C   0  0  0  0  0  0  0  0  0  0  0  0
   -0.3161   -2.5076    0.3732 O   0  0  0  0  0  0  0  0  0  0  0  0
   -0.7409   -0.6465   -0.8582 N   0  0  0  0  0  0  0  0  0  0  0  0
   -1.3697   -0.2780   -1.5629 H   0  0  0  0  0  0  0  0  0  0  0  0
    0.5970   -0.0278   -0.8023 C   0  0  1  0  0  0  0  0  0  0  0  0
    1.3009   -0.6627   -1.3523 H   0  0  0  0  0  0  0  0  0  0  0  0
    0.4224    1.3459   -1.5060 C   0  0  0  0  0  0  0  0  0  0  0  0
   -0.5201    1.3712   -2.0601 H   0  0  0  0  0  0  0  0  0  0  0  0
    0.3765    2.1402   -0.7566 H   0  0  0  0  0  0  0  0  0  0  0  0
    1.5166    1.7124   -2.5057 C   0  0  0  0  0  0  0  0  0  0  0  0
    2.6003    1.0854   -2.5175 O   0  5  0  0  0  0  0  0  0  0  0  0
    1.2149    2.6305   -3.3073 O   0  0  0  0  0  0  0  0  0  0  0  0
    1.1448    0.1594    0.6379 C   0  0  0  0  0  0  0  0  0  0  0  0
    2.2994   -0.1108    0.9468 O   0  0  0  0  0  0  0  0  0  0  0  0
    0.3034    0.6691    1.6137 N   0  0  0  0  0  0  0  0  0  0  0  0
   -0.6673    0.7831    1.3473 H   0  0  0  0  0  0  0  0  0  0  0  0
    0.6787    0.7928    3.0138 C   0  0  0  0  0  0  0  0  0  0  0  0
    1.5710    1.4189    3.1166 H   0  0  0  0  0  0  0  0  0  0  0  0
   -0.1340    1.2553    3.5812 H   0  0  0  0  0  0  0  0  0  0  0  0
    0.8856   -0.1936    3.4412 H   0  0  0  0  0  0  0  0  0  0  0  0
  1  2  1  0  0  0  0
  2  3  1  0  0  0  0
  2  4  1  0  0  0  0
  2  5  1  0  0  0  0
  5  6  2  0  0  0  0
  5  7  1  0  0  0  0
  7  8  1  0  0  0  0
  7  9  1  0  0  0  0
  9 10  1  0  0  0  0
  9 11  1  0  0  0  0
  9 17  1  0  0  0  0
 11 12  1  0  0  0  0
 11 13  1  0  0  0  0
 11 14  1  0  0  0  0
 14 15  1  0  0  0  0
 14 16  2  0  0  0  0
 17 18  2  0  0  0  0
 17 19  1  0  0  0  0
 19 20  1  0  0  0  0
 19 21  1  0  0  0  0
 21 22  1  0  0  0  0
 21 23  1  0  0  0  0
 21 24  1  0  0  0  0
M  CHG  1  15  -1
M  END
$$$$

  -OEChem-03222214023D

 24 23  0     1  0  0  0  0  0999 V2000
   -2.5051   -3.5108   -0.3203 H   0  0  0  0  0  0  0  0  0  0  0  0
   -2.4076   -2.5140   -0.7597 C   0  0  0  0  0  0  0  0  0  0  0  0
   -3.2300   -1.8896   -0.4021 H   0  0  0  0  0  0  0  0  0  0  0  0
   -2.4720   -2.6025   -1.8472 H   0  0  0  0  0  0  0  0  0  0  0  0
   -1.0770   -1.8958   -0.3679 C   0  0  0  0  0  0  0  0  0  0  0  0
   -0.3385   -2.5036    0.3856 O   0  0  0  0  0  0  0  0  0  0  0  0
   -0.7539   -0.6466   -0.8550 N   0  0  0  0  0  0  0  0  0  0  0  0
   -1.3746   -0.2831   -1.5693 H   0  0  0  0  0  0  0  0  0  0  0  0
    0.5865   -0.0340   -0.7968 C   0  0  1  0  0  0  0  0  0  0  0  0
    1.2834   -0.6782   -1.3436 H   0  0  0  0  0  0  0  0  0  0  0  0
    0.4278    1.3440   -1.4972 C   0  0  0  0  0  0  0  0  0  0  0  0
   -0.5100    1.3745   -2.0585 H   0  0  0  0  0  0  0  0  0  0  0  0
    0.3789    2.1354   -0.7444 H   0  0  0  0  0  0  0  0  0  0  0  0
    1.5238    1.7148   -2.4945 C   0  0  0  0  0  0  0  0  0  0  0  0
    2.4775    0.9319   -2.7114 O   0  5  0  0  0  0  0  0  0  0  0  0
    1.3377    2.7967   -3.1035 O   0  0  0  0  0  0  0  0  0  0  0  0
    1.1393    0.1480    0.6414 C   0  0  0  0  0  0  0  0  0  0  0  0
    2.3042   -0.0944    0.9342 O   0  0  0  0  0  0  0  0  0  0  0  0
    0.3046    0.6586    1.6221 N   0  0  0  0  0  0  0  0  0  0  0  0
   -0.6703    0.7612    1.3666 H   0  0  0  0  0  0  0  0  0  0  0  0
    0.6967    0.8059    3.0151 C   0  0  0  0  0  0  0  0  0  0  0  0
    1.5773    1.4510    3.0982 H   0  0  0  0  0  0  0  0  0  0  0  0
   -0.1175    1.2582    3.5885 H   0  0  0  0  0  0  0  0  0  0  0  0
    0.9299   -0.1710    3.4506 H   0  0  0  0  0  0  0  0  0  0  0  0
  1  2  1  0  0  0  0
  2  3  1  0  0  0  0
  2  4  1  0  0  0  0
  2  5  1  0  0  0  0
  5  6  2  0  0  0  0
  5  7  1  0  0  0  0
  7  8  1  0  0  0  0
  7  9  1  0  0  0  0
  9 10  1  0  0  0  0
  9 11  1  0  0  0  0
  9 17  1  0  0  0  0
 11 12  1  0  0  0  0
 11 13  1  0  0  0  0
 11 14  1  0  0  0  0
 14 15  1  0  0  0  0
 14 16  2  0  0  0  0
 17 18  2  0  0  0  0
 17 19  1  0  0  0  0
 19 20  1  0  0  0  0
 19 21  1  0  0  0  0
 21 22  1  0  0  0  0
 21 23  1  0  0  0  0
 21 24  1  0  0  0  0
M  CHG  1  15  -1
M  END
$$$$

  -OEChem-03222214023D

 24 23  0     1  0  0  0  0  0999 V2000
   -2.4927   -3.5296   -0.3581 H   0  0  0  0  0  0  0  0  0  0  0  0
   -2.4085   -2.5240   -0.7800 C   0  0  0  0  0  0  0  0  0  0  0  0
   -3.2454   -1.9197   -0.4217 H   0  0  0  0  0  0  0  0  0  0  0  0
   -2.4596   -2.5962   -1.8695 H   0  0  0  0  0  0  0  0  0  0  0  0
   -1.0931   -1.8899   -0.3626 C   0  0  0  0  0  0  0  0  0  0  0  0
   -0.3669   -2.4848    0.4130 O   0  0  0  0  0  0  0  0  0  0  0  0
   -0.7703   -0.6405   -0.8492 N   0  0  0  0  0  0  0  0  0  0  0  0
   -1.3765   -0.2920   -1.5831 H   0  0  0  0  0  0  0  0  0  0  0  0
    0.5725   -0.0340   -0.7909 C   0  0  1  0  0  0  0  0  0  0  0  0
    1.2652   -0.6844   -1.3356 H   0  0  0  0  0  0  0  0  0  0  0  0
    0.4262    1.3459   -1.4900 C   0  0  0  0  0  0  0  0  0  0  0  0
   -0.5073    1.3826   -2.0571 H   0  0  0  0  0  0  0  0  0  0  0  0
    0.3770    2.1370   -0.7365 H   0  0  0  0  0  0  0  0  0  0  0  0
    1.5287    1.7053   -2.4842 C   0  0  0  0  0  0  0  0  0  0  0  0
    2.3076    0.8179   -2.9059 O   0  5  0  0  0  0  0  0  0  0  0  0
    1.5071    2.8899   -2.8985 O   0  0  0  0  0  0  0  0  0  0  0  0
    1.1332    0.1457    0.6441 C   0  0  0  0  0  0  0  0  0  0  0  0
    2.3054   -0.0812    0.9208 O   0  0  0  0  0  0  0  0  0  0  0  0
    0.3078    0.6590    1.6308 N   0  0  0  0  0  0  0  0  0  0  0  0
   -0.6714    0.7503    1.3874 H   0  0  0  0  0  0  0  0  0  0  0  0
    0.7159    0.8166    3.0182 C   0  0  0  0  0  0  0  0  0  0  0  0
    1.5961    1.4642    3.0866 H   0  0  0  0  0  0  0  0  0  0  0  0
   -0.0925    1.2712    3.5981 H   0  0  0  0  0  0  0  0  0  0  0  0
    0.9563   -0.1567    3.4579 H   0  0  0  0  0  0  0  0  0  0  0  0
  1  2  1  0  0  0  0
  2  3  1  0  0  0  0
  2  4  1  0  0  0  0
  2  5  1  0  0  0  0
  5  6  2  0  0  0  0
  5  7  1  0  0  0  0
  7  8  1  0  0  0  0
  7  9  1  0  0  0  0
  9 10  1  0  0  0  0
  9 11  1  0  0  0  0
  9 17  1  0  0  0  0
 11 12  1  0  0  0  0
 11 13  1  0  0  0  0
 11 14  1  0  0  0  0
 14 15  1  0  0  0  0
 14 16  2  0  0  0  0
 17 18  2  0  0  0  0
 17 19  1  0  0  0  0
 19 20  1  0  0  0  0
 19 21  1  0  0  0  0
 21 22  1  0  0  0  0
 21 23  1  0  0  0  0
 21 24  1  0  0  0  0
M  CHG  1  15  -1
M  END
$$$$

  -OEChem-03222214023D

 24 23  0     1  0  0  0  0  0999 V2000
   -2.4922   -3.5340   -0.3724 H   0  0  0  0  0  0  0  0  0  0  0  0
   -2.4060   -2.5290   -0.7956 C   0  0  0  0  0  0  0  0  0  0  0  0
   -3.2508   -1.9276   -0.4511 H   0  0  0  0  0  0  0  0  0  0  0  0
   -2.4400   -2.6037   -1.8855 H   0  0  0  0  0  0  0  0  0  0  0  0
   -1.1001   -1.8872   -0.3613 C   0  0  0  0  0  0  0  0  0  0  0  0
   -0.3808   -2.4755    0.4259 O   0  0  0  0  0  0  0  0  0  0  0  0
   -0.7804   -0.6361   -0.8452 N   0  0  0  0  0  0  0  0  0  0  0  0
   -1.3766   -0.2999   -1.5930 H   0  0  0  0  0  0  0  0  0  0  0  0
    0.5621   -0.0302   -0.7872 C   0  0  1  0  0  0  0  0  0  0  0  0
    1.2543   -0.6789   -1.3348 H   0  0  0  0  0  0  0  0  0  0  0  0
    0.4181    1.3508   -1.4829 C   0  0  0  0  0  0  0  0  0  0  0  0
   -0.5122    1.3916   -2.0552 H   0  0  0  0  0  0  0  0  0  0  0  0
    0.3690    2.1423   -0.7295 H   0  0  0  0  0  0  0  0  0  0  0  0
    1.5298    1.6913   -2.4720 C   0  0  0  0  0  0  0  0  0  0  0  0
    2.1031    0.7614   -3.0892 O   0  5  0  0  0  0  0  0  0  0  0  0
    1.7074    2.9129   -2.6966 O   0  0  0  0  0  0  0  0  0  0  0  0
    1.1293    0.1468    0.6449 C   0  0  0  0  0  0  0  0  0  0  0  0
    2.3058   -0.0731    0.9087 O   0  0  0  0  0  0  0  0  0  0  0  0
    0.3102    0.6580    1.6378 N   0  0  0  0  0  0  0  0  0  0  0  0
   -0.6715    0.7442    1.4025 H   0  0  0  0  0  0  0  0  0  0  0  0
    0.7297    0.8224    3.0208 C   0  0  0  0  0  0  0  0  0  0  0  0
    1.6073    1.4745    3.0794 H   0  0  0  0  0  0  0  0  0  0  0  0
   -0.0757    1.2753    3.6062 H   0  0  0  0  0  0  0  0  0  0  0  0
    0.9782   -0.1485    3.4613 H   0  0  0  0  0  0  0  0  0  0  0  0
  1  2  1  0  0  0  0
  2  3  1  0  0  0  0
  2  4  1  0  0  0  0
  2  5  1  0  0  0  0
  5  6  2  0  0  0  0
  5  7  1  0  0  0  0
  7  8  1  0  0  0  0
  7  9  1  0  0  0  0
  9 10  1  0  0  0  0
  9 11  1  0  0  0  0
  9 17  1  0  0  0  0
 11 12  1  0  0  0  0
 11 13  1  0  0  0  0
 11 14  1  0  0  0  0
 14 15  1  0  0  0  0
 14 16  2  0  0  0  0
 17 18  2  0  0  0  0
 17 19  1  0  0  0  0
 19 20  1  0  0  0  0
 19 21  1  0  0  0  0
 21 22  1  0  0  0  0
 21 23  1  0  0  0  0
 21 24  1  0  0  0  0
M  CHG  1  15  -1
M  END
$$$$

  -OEChem-03222214023D

 24 23  0     1  0  0  0  0  0999 V2000
   -2.4798   -3.5380   -0.3804 H   0  0  0  0  0  0  0  0  0  0  0  0
   -2.4004   -2.5310   -0.7998 C   0  0  0  0  0  0  0  0  0  0  0  0
   -3.2483   -1.9359   -0.4522 H   0  0  0  0  0  0  0  0  0  0  0  0
   -2.4350   -2.6017   -1.8899 H   0  0  0  0  0  0  0  0  0  0  0  0
   -1.0983   -1.8828   -0.3634 C   0  0  0  0  0  0  0  0  0  0  0  0
   -0.3778   -2.4668    0.4260 O   0  0  0  0  0  0  0  0  0  0  0  0
   -0.7849   -0.6293   -0.8453 N   0  0  0  0  0  0  0  0  0  0  0  0
   -1.3760   -0.3014   -1.6009 H   0  0  0  0  0  0  0  0  0  0  0  0
    0.5555   -0.0196   -0.7869 C   0  0  1  0  0  0  0  0  0  0  0  0
    1.2509   -0.6618   -1.3391 H   0  0  0  0  0  0  0  0  0  0  0  0
    0.4079    1.3584   -1.4825 C   0  0  0  0  0  0  0  0  0  0  0  0
   -0.5189    1.3997   -2.0601 H   0  0  0  0  0  0  0  0  0  0  0  0
    0.3580    2.1537   -0.7331 H   0  0  0  0  0  0  0  0  0  0  0  0
    1.5324    1.6708   -2.4628 C   0  0  0  0  0  0  0  0  0  0  0  0
    1.8876    0.7643   -3.2556 O   0  5  0  0  0  0  0  0  0  0  0  0
    1.9277    2.8602   -2.5112 O   0  0  0  0  0  0  0  0  0  0  0  0
    1.1262    0.1570    0.6435 C   0  0  0  0  0  0  0  0  0  0  0  0
    2.3030   -0.0684    0.9019 O   0  0  0  0  0  0  0  0  0  0  0  0
    0.3097    0.6640    1.6406 N   0  0  0  0  0  0  0  0  0  0  0  0
   -0.6730    0.7495    1.4086 H   0  0  0  0  0  0  0  0  0  0  0  0
    0.7326    0.8188    3.0237 C   0  0  0  0  0  0  0  0  0  0  0  0
    1.6153    1.4636    3.0840 H   0  0  0  0  0  0  0  0  0  0  0  0
   -0.0682    1.2752    3.6129 H   0  0  0  0  0  0  0  0  0  0  0  0
    0.9743   -0.1561    3.4589 H   0  0  0  0  0  0  0  0  0  0  0  0
  1  2  1  0  0  0  0
  2  3  1  0  0  0  0
  2  4  1  0  0  0  0
  2  5  1  0  0  0  0
  5  6  2  0  0  0  0
  5  7  1  0  0  0  0
  7  8  1  0  0  0  0
  7  9  1  0  0  0  0
  9 10  1  0  0  0  0
  9 11  1  0  0  0  0
  9 17  1  0  0  0  0
 11 12  1  0  0  0  0
 11 13  1  0  0  0  0
 11 14  1  0  0  0  0
 14 15  1  0  0  0  0
 14 16  2  0  0  0  0
 17 18  2  0  0  0  0
 17 19  1  0  0  0  0
 19 20  1  0  0  0  0
 19 21  1  0  0  0  0
 21 22  1  0  0  0  0
 21 23  1  0  0  0  0
 21 24  1  0  0  0  0
M  CHG  1  15  -1
M  END
$$$$

  -OEChem-03222214023D

 24 23  0     1  0  0  0  0  0999 V2000
   -2.4895   -3.5262   -0.3614 H   0  0  0  0  0  0  0  0  0  0  0  0
   -2.3946   -2.5332   -0.8097 C   0  0  0  0  0  0  0  0  0  0  0  0
   -3.2467   -1.9235   -0.4995 H   0  0  0  0  0  0  0  0  0  0  0  0
   -2.4060   -2.6368   -1.8977 H   0  0  0  0  0  0  0  0  0  0  0  0
   -1.0981   -1.8791   -0.3658 C   0  0  0  0  0  0  0  0  0  0  0  0
   -0.3750   -2.4633    0.4214 O   0  0  0  0  0  0  0  0  0  0  0  0
   -0.7894   -0.6230   -0.8436 N   0  0  0  0  0  0  0  0  0  0  0  0
   -1.3794   -0.2969   -1.6011 H   0  0  0  0  0  0  0  0  0  0  0  0
    0.5495   -0.0107   -0.7849 C   0  0  1  0  0  0  0  0  0  0  0  0
    1.2459   -0.6447   -1.3463 H   0  0  0  0  0  0  0  0  0  0  0  0
    0.3941    1.3637   -1.4801 C   0  0  0  0  0  0  0  0  0  0  0  0
   -0.5312    1.4060   -2.0604 H   0  0  0  0  0  0  0  0  0  0  0  0
    0.3456    2.1635   -0.7356 H   0  0  0  0  0  0  0  0  0  0  0  0
    1.5292    1.6484   -2.4521 C   0  0  0  0  0  0  0  0  0  0  0  0
    1.6743    0.8399   -3.4021 O   0  5  0  0  0  0  0  0  0  0  0  0
    2.1400    2.7370   -2.3344 O   0  0  0  0  0  0  0  0  0  0  0  0
    1.1257    0.1635    0.6431 C   0  0  0  0  0  0  0  0  0  0  0  0
    2.2988   -0.0823    0.8991 O   0  0  0  0  0  0  0  0  0  0  0  0
    0.3129    0.6663    1.6449 N   0  0  0  0  0  0  0  0  0  0  0  0
   -0.6666    0.7769    1.4105 H   0  0  0  0  0  0  0  0  0  0  0  0
    0.7392    0.8169    3.0271 C   0  0  0  0  0  0  0  0  0  0  0  0
    1.6141    1.4722    3.0879 H   0  0  0  0  0  0  0  0  0  0  0  0
   -0.0652    1.2594    3.6215 H   0  0  0  0  0  0  0  0  0  0  0  0
    0.9943   -0.1576    3.4555 H   0  0  0  0  0  0  0  0  0  0  0  0
  1  2  1  0  0  0  0
  2  3  1  0  0  0  0
  2  4  1  0  0  0  0
  2  5  1  0  0  0  0
  5  6  2  0  0  0  0
  5  7  1  0  0  0  0
  7  8  1  0  0  0  0
  7  9  1  0  0  0  0
  9 10  1  0  0  0  0
  9 11  1  0  0  0  0
  9 17  1  0  0  0  0
 11 12  1  0  0  0  0
 11 13  1  0  0  0  0
 11 14  1  0  0  0  0
 14 15  1  0  0  0  0
 14 16  2  0  0  0  0
 17 18  2  0  0  0  0
 17 19  1  0  0  0  0
 19 20  1  0  0  0  0
 19 21  1  0  0  0  0
 21 22  1  0  0  0  0
 21 23  1  0  0  0  0
 21 24  1  0  0  0  0
M  CHG  1  15  -1
M  END
$$$$

  -OEChem-03222214023D

 24 23  0     1  0  0  0  0  0999 V2000
   -2.4689   -3.5331   -0.3697 H   0  0  0  0  0  0  0  0  0  0  0  0
   -2.3899   -2.5298   -0.7979 C   0  0  0  0  0  0  0  0  0  0  0  0
   -3.2382   -1.9322   -0.4555 H   0  0  0  0  0  0  0  0  0  0  0  0
   -2.4245   -2.6099   -1.8874 H   0  0  0  0  0  0  0  0  0  0  0  0
   -1.0883   -1.8770   -0.3677 C   0  0  0  0  0  0  0  0  0  0  0  0
   -0.3563   -2.4641    0.4088 O   0  0  0  0  0  0  0  0  0  0  0  0
   -0.7835   -0.6205   -0.8469 N   0  0  0  0  0  0  0  0  0  0  0  0
   -1.3778   -0.2934   -1.6009 H   0  0  0  0  0  0  0  0  0  0  0  0
    0.5522   -0.0019   -0.7876 C   0  0  1  0  0  0  0  0  0  0  0  0
    1.2527   -0.6308   -1.3503 H   0  0  0  0  0  0  0  0  0  0  0  0
    0.3869    1.3652   -1.4909 C   0  0  0  0  0  0  0  0  0  0  0  0
   -0.5389    1.4039   -2.0715 H   0  0  0  0  0  0  0  0  0  0  0  0
    0.3388    2.1720   -0.7538 H   0  0  0  0  0  0  0  0  0  0  0  0
    1.5290    1.6335   -2.4573 C   0  0  0  0  0  0  0  0  0  0  0  0
    1.5003    0.9939   -3.5377 O   0  5  0  0  0  0  0  0  0  0  0  0
    2.3289    2.5601   -2.1898 O   0  0  0  0  0  0  0  0  0  0  0  0
    1.1265    0.1778    0.6406 C   0  0  0  0  0  0  0  0  0  0  0  0
    2.2923   -0.0929    0.9046 O   0  0  0  0  0  0  0  0  0  0  0  0
    0.3113    0.6790    1.6413 N   0  0  0  0  0  0  0  0  0  0  0  0
   -0.6664    0.7957    1.4030 H   0  0  0  0  0  0  0  0  0  0  0  0
    0.7291    0.8073    3.0284 C   0  0  0  0  0  0  0  0  0  0  0  0
    1.6196    1.4399    3.1028 H   0  0  0  0  0  0  0  0  0  0  0  0
   -0.0690    1.2649    3.6200 H   0  0  0  0  0  0  0  0  0  0  0  0
    0.9563   -0.1769    3.4504 H   0  0  0  0  0  0  0  0  0  0  0  0
  1  2  1  0  0  0  0
  2  3  1  0  0  0  0
  2  4  1  0  0  0  0
  2  5  1  0  0  0  0
  5  6  2  0  0  0  0
  5  7  1  0  0  0  0
  7  8  1  0  0  0  0
  7  9  1  0  0  0  0
  9 10  1  0  0  0  0
  9 11  1  0  0  0  0
  9 17  1  0  0  0  0
 11 12  1  0  0  0  0
 11 13  1  0  0  0  0
 11 14  1  0  0  0  0
 14 15  1  0  0  0  0
 14 16  2  0  0  0  0
 17 18  2  0  0  0  0
 17 19  1  0  0  0  0
 19 20  1  0  0  0  0
 19 21  1  0  0  0  0
 21 22  1  0  0  0  0
 21 23  1  0  0  0  0
 21 24  1  0  0  0  0
M  CHG  1  15  -1
M  END
$$$$

  -OEChem-03222214023D

 24 23  0     1  0  0  0  0  0999 V2000
   -2.4591   -3.5307   -0.3616 H   0  0  0  0  0  0  0  0  0  0  0  0
   -2.3870   -2.5211   -0.7761 C   0  0  0  0  0  0  0  0  0  0  0  0
   -3.2256   -1.9268   -0.4051 H   0  0  0  0  0  0  0  0  0  0  0  0
   -2.4477   -2.5845   -1.8655 H   0  0  0  0  0  0  0  0  0  0  0  0
   -1.0737   -1.8781   -0.3662 C   0  0  0  0  0  0  0  0  0  0  0  0
   -0.3342   -2.4716    0.3977 O   0  0  0  0  0  0  0  0  0  0  0  0
   -0.7674   -0.6237   -0.8504 N   0  0  0  0  0  0  0  0  0  0  0  0
   -1.3717   -0.2892   -1.5931 H   0  0  0  0  0  0  0  0  0  0  0  0
    0.5658    0.0009   -0.7934 C   0  0  1  0  0  0  0  0  0  0  0  0
    1.2723   -0.6231   -1.3536 H   0  0  0  0  0  0  0  0  0  0  0  0
    0.3852    1.3613   -1.5051 C   0  0  0  0  0  0  0  0  0  0  0  0
   -0.5463    1.3927   -2.0772 H   0  0  0  0  0  0  0  0  0  0  0  0
    0.3379    2.1726   -0.7733 H   0  0  0  0  0  0  0  0  0  0  0  0
    1.5222    1.6346   -2.4759 C   0  0  0  0  0  0  0  0  0  0  0  0
    1.3542    1.2244   -3.6511 O   0  5  0  0  0  0  0  0  0  0  0  0
    2.4814    2.3410   -2.0901 O   0  0  0  0  0  0  0  0  0  0  0  0
    1.1333    0.1890    0.6371 C   0  0  0  0  0  0  0  0  0  0  0  0
    2.2869   -0.1141    0.9188 O   0  0  0  0  0  0  0  0  0  0  0  0
    0.3111    0.6916    1.6320 N   0  0  0  0  0  0  0  0  0  0  0  0
   -0.6617    0.8234    1.3818 H   0  0  0  0  0  0  0  0  0  0  0  0
    0.7102    0.7931    3.0271 C   0  0  0  0  0  0  0  0  0  0  0  0
    1.6118    1.4067    3.1238 H   0  0  0  0  0  0  0  0  0  0  0  0
   -0.0878    1.2585    3.6127 H   0  0  0  0  0  0  0  0  0  0  0  0
    0.9114   -0.2011    3.4387 H   0  0  0  0  0  0  0  0  0  0  0  0
  1  2  1  0  0  0  0
  2  3  1  0  0  0  0
  2  4  1  0  0  0  0
  2  5  1  0  0  0  0
  5  6  2  0  0  0  0
  5  7  1  0  0  0  0
  7  8  1  0  0  0  0
  7  9  1  0  0  0  0
  9 10  1  0  0  0  0
  9 11  1  0  0  0  0
  9 17  1  0  0  0  0
 11 12  1  0  0  0  0
 11 13  1  0  0  0  0
 11 14  1  0  0  0  0
 14 15  1  0  0  0  0
 14 16  2  0  0  0  0
 17 18  2  0  0  0  0
 17 19  1  0  0  0  0
 19 20  1  0  0  0  0
 19 21  1  0  0  0  0
 21 22  1  0  0  0  0
 21 23  1  0  0  0  0
 21 24  1  0  0  0  0
M  CHG  1  15  -1
M  END
$$$$

  -OEChem-03222214023D

 24 23  0     1  0  0  0  0  0999 V2000
   -2.4624   -3.5207   -0.3345 H   0  0  0  0  0  0  0  0  0  0  0  0
   -2.3870   -2.5132   -0.7534 C   0  0  0  0  0  0  0  0  0  0  0  0
   -3.2113   -1.9085   -0.3675 H   0  0  0  0  0  0  0  0  0  0  0  0
   -2.4694   -2.5786   -1.8413 H   0  0  0  0  0  0  0  0  0  0  0  0
   -1.0583   -1.8844   -0.3711 C   0  0  0  0  0  0  0  0  0  0  0  0
   -0.3045   -2.4910    0.3680 O   0  0  0  0  0  0  0  0  0  0  0  0
   -0.7511   -0.6306   -0.8564 N   0  0  0  0  0  0  0  0  0  0  0  0
   -1.3725   -0.2793   -1.5769 H   0  0  0  0  0  0  0  0  0  0  0  0
    0.5803   -0.0005   -0.8000 C   0  0  1  0  0  0  0  0  0  0  0  0
    1.2924   -0.6192   -1.3586 H   0  0  0  0  0  0  0  0  0  0  0  0
    0.3862    1.3580   -1.5140 C   0  0  0  0  0  0  0  0  0  0  0  0
   -0.5510    1.3815   -2.0778 H   0  0  0  0  0  0  0  0  0  0  0  0
    0.3377    2.1706   -0.7841 H   0  0  0  0  0  0  0  0  0  0  0  0
    1.5145    1.6481   -2.4911 C   0  0  0  0  0  0  0  0  0  0  0  0
    1.2421    1.5099   -3.7094 O   0  5  0  0  0  0  0  0  0  0  0  0
    2.5995    2.0800   -2.0418 O   0  0  0  0  0  0  0  0  0  0  0  0
    1.1412    0.1909    0.6337 C   0  0  0  0  0  0  0  0  0  0  0  0
    2.2833   -0.1367    0.9342 O   0  0  0  0  0  0  0  0  0  0  0  0
    0.3100    0.6921    1.6220 N   0  0  0  0  0  0  0  0  0  0  0  0
   -0.6568    0.8392    1.3585 H   0  0  0  0  0  0  0  0  0  0  0  0
    0.6914    0.7839    3.0229 C   0  0  0  0  0  0  0  0  0  0  0  0
    1.5999    1.3850    3.1335 H   0  0  0  0  0  0  0  0  0  0  0  0
   -0.1080    1.2582    3.5994 H   0  0  0  0  0  0  0  0  0  0  0  0
    0.8737   -0.2142    3.4342 H   0  0  0  0  0  0  0  0  0  0  0  0
  1  2  1  0  0  0  0
  2  3  1  0  0  0  0
  2  4  1  0  0  0  0
  2  5  1  0  0  0  0
  5  6  2  0  0  0  0
  5  7  1  0  0  0  0
  7  8  1  0  0  0  0
  7  9  1  0  0  0  0
  9 10  1  0  0  0  0
  9 11  1  0  0  0  0
  9 17  1  0  0  0  0
 11 12  1  0  0  0  0
 11 13  1  0  0  0  0
 11 14  1  0  0  0  0
 14 15  1  0  0  0  0
 14 16  2  0  0  0  0
 17 18  2  0  0  0  0
 17 19  1  0  0  0  0
 19 20  1  0  0  0  0
 19 21  1  0  0  0  0
 21 22  1  0  0  0  0
 21 23  1  0  0  0  0
 21 24  1  0  0  0  0
M  CHG  1  15  -1
M  END
$$$$

  -OEChem-03222214023D

 24 23  0     1  0  0  0  0  0999 V2000
   -2.4665   -3.5114   -0.3144 H   0  0  0  0  0  0  0  0  0  0  0  0
   -2.3855   -2.5072   -0.7402 C   0  0  0  0  0  0  0  0  0  0  0  0
   -3.2032   -1.8939   -0.3540 H   0  0  0  0  0  0  0  0  0  0  0  0
   -2.4743   -2.5795   -1.8271 H   0  0  0  0  0  0  0  0  0  0  0  0
   -1.0501   -1.8863   -0.3690 C   0  0  0  0  0  0  0  0  0  0  0  0
   -0.2934   -2.4992    0.3614 O   0  0  0  0  0  0  0  0  0  0  0  0
   -0.7396   -0.6347   -0.8575 N   0  0  0  0  0  0  0  0  0  0  0  0
   -1.3702   -0.2738   -1.5650 H   0  0  0  0  0  0  0  0  0  0  0  0
    0.5922   -0.0037   -0.8044 C   0  0  1  0  0  0  0  0  0  0  0  0
    1.3076   -0.6193   -1.3623 H   0  0  0  0  0  0  0  0  0  0  0  0
    0.3911    1.3567   -1.5170 C   0  0  0  0  0  0  0  0  0  0  0  0
   -0.5520    1.3752   -2.0712 H   0  0  0  0  0  0  0  0  0  0  0  0
    0.3437    2.1678   -0.7857 H   0  0  0  0  0  0  0  0  0  0  0  0
    1.5071    1.6664   -2.5041 C   0  0  0  0  0  0  0  0  0  0  0  0
    1.1597    1.8211   -3.7011 O   0  5  0  0  0  0  0  0  0  0  0  0
    2.6771    1.7801   -2.0771 O   0  0  0  0  0  0  0  0  0  0  0  0
    1.1470    0.1894    0.6322 C   0  0  0  0  0  0  0  0  0  0  0  0
    2.2826   -0.1465    0.9474 O   0  0  0  0  0  0  0  0  0  0  0  0
    0.3086    0.6920    1.6141 N   0  0  0  0  0  0  0  0  0  0  0  0
   -0.6560    0.8396    1.3433 H   0  0  0  0  0  0  0  0  0  0  0  0
    0.6775    0.7780    3.0187 C   0  0  0  0  0  0  0  0  0  0  0  0
    1.5876    1.3747    3.1394 H   0  0  0  0  0  0  0  0  0  0  0  0
   -0.1251    1.2540    3.5894 H   0  0  0  0  0  0  0  0  0  0  0  0
    0.8516   -0.2220    3.4288 H   0  0  0  0  0  0  0  0  0  0  0  0
  1  2  1  0  0  0  0
  2  3  1  0  0  0  0
  2  4  1  0  0  0  0
  2  5  1  0  0  0  0
  5  6  2  0  0  0  0
  5  7  1  0  0  0  0
  7  8  1  0  0  0  0
  7  9  1  0  0  0  0
  9 10  1  0  0  0  0
  9 11  1  0  0  0  0
  9 17  1  0  0  0  0
 11 12  1  0  0  0  0
 11 13  1  0  0  0  0
 11 14  1  0  0  0  0
 14 15  1  0  0  0  0
 14 16  2  0  0  0  0
 17 18  2  0  0  0  0
 17 19  1  0  0  0  0
 19 20  1  0  0  0  0
 19 21  1  0  0  0  0
 21 22  1  0  0  0  0
 21 23  1  0  0  0  0
 21 24  1  0  0  0  0
M  CHG  1  15  -1
M  END
$$$$

  -OEChem-03222214023D

 24 23  0     1  0  0  0  0  0999 V2000
   -2.4683   -3.5061   -0.3035 H   0  0  0  0  0  0  0  0  0  0  0  0
   -2.3862   -2.5006   -0.7259 C   0  0  0  0  0  0  0  0  0  0  0  0
   -3.1958   -1.8839   -0.3283 H   0  0  0  0  0  0  0  0  0  0  0  0
   -2.4870   -2.5672   -1.8122 H   0  0  0  0  0  0  0  0  0  0  0  0
   -1.0439   -1.8885   -0.3659 C   0  0  0  0  0  0  0  0  0  0  0  0
   -0.2870   -2.5040    0.3620 O   0  0  0  0  0  0  0  0  0  0  0  0
   -0.7297   -0.6394   -0.8589 N   0  0  0  0  0  0  0  0  0  0  0  0
   -1.3647   -0.2735   -1.5595 H   0  0  0  0  0  0  0  0  0  0  0  0
    0.6033   -0.0099   -0.8079 C   0  0  1  0  0  0  0  0  0  0  0  0
    1.3188   -0.6271   -1.3636 H   0  0  0  0  0  0  0  0  0  0  0  0
    0.4039    1.3545   -1.5174 C   0  0  0  0  0  0  0  0  0  0  0  0
   -0.5417    1.3696   -2.0675 H   0  0  0  0  0  0  0  0  0  0  0  0
    0.3545    2.1619   -0.7824 H   0  0  0  0  0  0  0  0  0  0  0  0
    1.5081    1.6874   -2.5135 C   0  0  0  0  0  0  0  0  0  0  0  0
    1.1266    2.1357   -3.6229 O   0  5  0  0  0  0  0  0  0  0  0  0
    2.7014    1.4872   -2.1966 O   0  0  0  0  0  0  0  0  0  0  0  0
    1.1508    0.1846    0.6317 C   0  0  0  0  0  0  0  0  0  0  0  0
    2.2869   -0.1405    0.9563 O   0  0  0  0  0  0  0  0  0  0  0  0
    0.3052    0.6904    1.6061 N   0  0  0  0  0  0  0  0  0  0  0  0
   -0.6598    0.8251    1.3298 H   0  0  0  0  0  0  0  0  0  0  0  0
    0.6617    0.7724    3.0141 C   0  0  0  0  0  0  0  0  0  0  0  0
    1.5689    1.3712    3.1444 H   0  0  0  0  0  0  0  0  0  0  0  0
   -0.1471    1.2445    3.5794 H   0  0  0  0  0  0  0  0  0  0  0  0
    0.8351   -0.2286    3.4220 H   0  0  0  0  0  0  0  0  0  0  0  0
  1  2  1  0  0  0  0
  2  3  1  0  0  0  0
  2  4  1  0  0  0  0
  2  5  1  0  0  0  0
  5  6  2  0  0  0  0
  5  7  1  0  0  0  0
  7  8  1  0  0  0  0
  7  9  1  0  0  0  0
  9 10  1  0  0  0  0
  9 11  1  0  0  0  0
  9 17  1  0  0  0  0
 11 12  1  0  0  0  0
 11 13  1  0  0  0  0
 11 14  1  0  0  0  0
 14 15  1  0  0  0  0
 14 16  2  0  0  0  0
 17 18  2  0  0  0  0
 17 19  1  0  0  0  0
 19 20  1  0  0  0  0
 19 21  1  0  0  0  0
 21 22  1  0  0  0  0
 21 23  1  0  0  0  0
 21 24  1  0  0  0  0
M  CHG  1  15  -1
M  END
$$$$

  -OEChem-03222214023D

 24 23  0     1  0  0  0  0  0999 V2000
   -2.4761   -3.5109   -0.3185 H   0  0  0  0  0  0  0  0  0  0  0  0
   -2.3916   -2.5050   -0.7397 C   0  0  0  0  0  0  0  0  0  0  0  0
   -3.2095   -1.8911   -0.3549 H   0  0  0  0  0  0  0  0  0  0  0  0
   -2.4750   -2.5724   -1.8273 H   0  0  0  0  0  0  0  0  0  0  0  0
   -1.0574   -1.8879   -0.3594 C   0  0  0  0  0  0  0  0  0  0  0  0
   -0.3130   -2.4962    0.3875 O   0  0  0  0  0  0  0  0  0  0  0  0
   -0.7368   -0.6415   -0.8546 N   0  0  0  0  0  0  0  0  0  0  0  0
   -1.3644   -0.2789   -1.5636 H   0  0  0  0  0  0  0  0  0  0  0  0
    0.6003   -0.0210   -0.8026 C   0  0  1  0  0  0  0  0  0  0  0  0
    1.3075   -0.6507   -1.3548 H   0  0  0  0  0  0  0  0  0  0  0  0
    0.4164    1.3479   -1.5106 C   0  0  0  0  0  0  0  0  0  0  0  0
   -0.5281    1.3668   -2.0623 H   0  0  0  0  0  0  0  0  0  0  0  0
    0.3666    2.1509   -0.7708 H   0  0  0  0  0  0  0  0  0  0  0  0
    1.5130    1.6994   -2.5116 C   0  0  0  0  0  0  0  0  0  0  0  0
    1.1491    2.4204   -3.4731 O   0  5  0  0  0  0  0  0  0  0  0  0
    2.6629    1.2255   -2.3727 O   0  0  0  0  0  0  0  0  0  0  0  0
    1.1485    0.1724    0.6369 C   0  0  0  0  0  0  0  0  0  0  0  0
    2.2945   -0.1234    0.9544 O   0  0  0  0  0  0  0  0  0  0  0  0
    0.3060    0.6852    1.6103 N   0  0  0  0  0  0  0  0  0  0  0  0
   -0.6633    0.8019    1.3400 H   0  0  0  0  0  0  0  0  0  0  0  0
    0.6706    0.7850    3.0152 C   0  0  0  0  0  0  0  0  0  0  0  0
    1.5684    1.4002    3.1352 H   0  0  0  0  0  0  0  0  0  0  0  0
   -0.1422    1.2474    3.5825 H   0  0  0  0  0  0  0  0  0  0  0  0
    0.8639   -0.2095    3.4299 H   0  0  0  0  0  0  0  0  0  0  0  0
  1  2  1  0  0  0  0
  2  3  1  0  0  0  0
  2  4  1  0  0  0  0
  2  5  1  0  0  0  0
  5  6  2  0  0  0  0
  5  7  1  0  0  0  0
  7  8  1  0  0  0  0
  7  9  1  0  0  0  0
  9 10  1  0  0  0  0
  9 11  1  0  0  0  0
  9 17  1  0  0  0  0
 11 12  1  0  0  0  0
 11 13  1  0  0  0  0
 11 14  1  0  0  0  0
 14 15  1  0  0  0  0
 14 16  2  0  0  0  0
 17 18  2  0  0  0  0
 17 19  1  0  0  0  0
 19 20  1  0  0  0  0
 19 21  1  0  0  0  0
 21 22  1  0  0  0  0
 21 23  1  0  0  0  0
 21 24  1  0  0  0  0
M  CHG  1  15  -1
M  END
$$$$

  -OEChem-03222214023D

 24 23  0     1  0  0  0  0  0999 V2000
   -2.4904   -3.5147   -0.3263 H   0  0  0  0  0  0  0  0  0  0  0  0
   -2.4003   -2.5111   -0.7517 C   0  0  0  0  0  0  0  0  0  0  0  0
   -3.2215   -1.8948   -0.3779 H   0  0  0  0  0  0  0  0  0  0  0  0
   -2.4735   -2.5838   -1.8398 H   0  0  0  0  0  0  0  0  0  0  0  0
   -1.0687   -1.8937   -0.3617 C   0  0  0  0  0  0  0  0  0  0  0  0
   -0.3309   -2.5002    0.3935 O   0  0  0  0  0  0  0  0  0  0  0  0
   -0.7441   -0.6471   -0.8539 N   0  0  0  0  0  0  0  0  0  0  0  0
   -1.3658   -0.2845   -1.5678 H   0  0  0  0  0  0  0  0  0  0  0  0
    0.5953   -0.0324   -0.7976 C   0  0  1  0  0  0  0  0  0  0  0  0
    1.2960   -0.6727   -1.3447 H   0  0  0  0  0  0  0  0  0  0  0  0
    0.4285    1.3419   -1.5026 C   0  0  0  0  0  0  0  0  0  0  0  0
   -0.5121    1.3680   -2.0600 H   0  0  0  0  0  0  0  0  0  0  0  0
    0.3762    2.1393   -0.7568 H   0  0  0  0  0  0  0  0  0  0  0  0
    1.5229    1.7096   -2.5025 C   0  0  0  0  0  0  0  0  0  0  0  0
    1.2367    2.6607   -3.2705 O   0  5  0  0  0  0  0  0  0  0  0  0
    2.5643    1.0189   -2.5848 O   0  0  0  0  0  0  0  0  0  0  0  0
    1.1437    0.1562    0.6418 C   0  0  0  0  0  0  0  0  0  0  0  0
    2.3019   -0.1027    0.9470 O   0  0  0  0  0  0  0  0  0  0  0  0
    0.3036    0.6701    1.6164 N   0  0  0  0  0  0  0  0  0  0  0  0
   -0.6696    0.7711    1.3540 H   0  0  0  0  0  0  0  0  0  0  0  0
    0.6814    0.8023    3.0150 C   0  0  0  0  0  0  0  0  0  0  0  0
    1.5701    1.4342    3.1135 H   0  0  0  0  0  0  0  0  0  0  0  0
   -0.1332    1.2620    3.5821 H   0  0  0  0  0  0  0  0  0  0  0  0
    0.8953   -0.1810    3.4460 H   0  0  0  0  0  0  0  0  0  0  0  0
  1  2  1  0  0  0  0
  2  3  1  0  0  0  0
  2  4  1  0  0  0  0
  2  5  1  0  0  0  0
  5  6  2  0  0  0  0
  5  7  1  0  0  0  0
  7  8  1  0  0  0  0
  7  9  1  0  0  0  0
  9 10  1  0  0  0  0
  9 11  1  0  0  0  0
  9 17  1  0  0  0  0
 11 12  1  0  0  0  0
 11 13  1  0  0  0  0
 11 14  1  0  0  0  0
 14 15  1  0  0  0  0
 14 16  2  0  0  0  0
 17 18  2  0  0  0  0
 17 19  1  0  0  0  0
 19 20  1  0  0  0  0
 19 21  1  0  0  0  0
 21 22  1  0  0  0  0
 21 23  1  0  0  0  0
 21 24  1  0  0  0  0
M  CHG  1  15  -1
M  END
$$$$

  -OEChem-03222214023D

 24 23  0     1  0  0  0  0  0999 V2000
   -2.4940   -3.5318   -0.3479 H   0  0  0  0  0  0  0  0  0  0  0  0
   -2.4011   -2.5342   -0.7865 C   0  0  0  0  0  0  0  0  0  0  0  0
   -3.2498   -1.9263   -0.4637 H   0  0  0  0  0  0  0  0  0  0  0  0
   -2.4210   -2.6268   -1.8754 H   0  0  0  0  0  0  0  0  0  0  0  0
   -1.1001   -1.8865   -0.3460 C   0  0  0  0  0  0  0  0  0  0  0  0
   -0.3913   -2.4621    0.4604 O   0  0  0  0  0  0  0  0  0  0  0  0
   -0.7742   -0.6424   -0.8438 N   0  0  0  0  0  0  0  0  0  0  0  0
   -1.3574   -0.3234   -1.6100 H   0  0  0  0  0  0  0  0  0  0  0  0
    0.5725   -0.0449   -0.7937 C   0  0  1  0  0  0  0  0  0  0  0  0
    1.2704   -0.6989   -1.3266 H   0  0  0  0  0  0  0  0  0  0  0  0
    0.4364    1.3411   -1.4870 C   0  0  0  0  0  0  0  0  0  0  0  0
   -0.5996    1.5258   -1.7832 H   0  0  0  0  0  0  0  0  0  0  0  0
    0.7026    2.1297   -0.7774 H   0  0  0  0  0  0  0  0  0  0  0  0
    1.3032    1.5549   -2.7270 C   0  0  0  0  0  0  0  0  0  0  0  0
    1.1798    2.6792   -3.2707 O   0  5  0  0  0  0  0  0  0  0  0  0
    1.9377    0.5935   -3.2232 O   0  0  0  0  0  0  0  0  0  0  0  0
    1.1275    0.1360    0.6429 C   0  0  0  0  0  0  0  0  0  0  0  0
    2.3088   -0.0545    0.9105 O   0  0  0  0  0  0  0  0  0  0  0  0
    0.3013    0.6585    1.6236 N   0  0  0  0  0  0  0  0  0  0  0  0
   -0.6817    0.7207    1.3846 H   0  0  0  0  0  0  0  0  0  0  0  0
    0.7093    0.8305    3.0092 C   0  0  0  0  0  0  0  0  0  0  0  0
    1.5855    1.4840    3.0720 H   0  0  0  0  0  0  0  0  0  0  0  0
   -0.1018    1.2852    3.5852 H   0  0  0  0  0  0  0  0  0  0  0  0
    0.9556   -0.1376    3.4571 H   0  0  0  0  0  0  0  0  0  0  0  0
  1  2  1  0  0  0  0
  2  3  1  0  0  0  0
  2  4  1  0  0  0  0
  2  5  1  0  0  0  0
  5  6  2  0  0  0  0
  5  7  1  0  0  0  0
  7  8  1  0  0  0  0
  7  9  1  0  0  0  0
  9 10  1  0  0  0  0
  9 11  1  0  0  0  0
  9 17  1  0  0  0  0
 11 12  1  0  0  0  0
 11 13  1  0  0  0  0
 11 14  1  0  0  0  0
 14 15  1  0  0  0  0
 14 16  2  0  0  0  0
 17 18  2  0  0  0  0
 17 19  1  0  0  0  0
 19 20  1  0  0  0  0
 19 21  1  0  0  0  0
 21 22  1  0  0  0  0
 21 23  1  0  0  0  0
 21 24  1  0  0  0  0
M  CHG  1  15  -1
M  END
$$$$

  -OEChem-03222214023D

 24 23  0     1  0  0  0  0  0999 V2000
   -2.5098   -3.5195   -0.3268 H   0  0  0  0  0  0  0  0  0  0  0  0
   -2.3969   -2.5414   -0.8027 C   0  0  0  0  0  0  0  0  0  0  0  0
   -3.2530   -1.9178   -0.5343 H   0  0  0  0  0  0  0  0  0  0  0  0
   -2.3798   -2.6788   -1.8868 H   0  0  0  0  0  0  0  0  0  0  0  0
   -1.1087   -1.8804   -0.3447 C   0  0  0  0  0  0  0  0  0  0  0  0
   -0.4088   -2.4461    0.4765 O   0  0  0  0  0  0  0  0  0  0  0  0
   -0.7863   -0.6346   -0.8404 N   0  0  0  0  0  0  0  0  0  0  0  0
   -1.3543   -0.3323   -1.6248 H   0  0  0  0  0  0  0  0  0  0  0  0
    0.5609   -0.0393   -0.7909 C   0  0  1  0  0  0  0  0  0  0  0  0
    1.2586   -0.6905   -1.3286 H   0  0  0  0  0  0  0  0  0  0  0  0
    0.4277    1.3479   -1.4794 C   0  0  0  0  0  0  0  0  0  0  0  0
   -0.6055    1.5416   -1.7786 H   0  0  0  0  0  0  0  0  0  0  0  0
    0.6995    2.1338   -0.7686 H   0  0  0  0  0  0  0  0  0  0  0  0
    1.3016    1.5397   -2.7160 C   0  0  0  0  0  0  0  0  0  0  0  0
    1.4354    2.7235   -3.1091 O   0  5  0  0  0  0  0  0  0  0  0  0
    1.6586    0.5291   -3.3693 O   0  0  0  0  0  0  0  0  0  0  0  0
    1.1233    0.1380    0.6429 C   0  0  0  0  0  0  0  0  0  0  0  0
    2.3076   -0.0511    0.8982 O   0  0  0  0  0  0  0  0  0  0  0  0
    0.3049    0.6592    1.6308 N   0  0  0  0  0  0  0  0  0  0  0  0
   -0.6802    0.7201    1.4000 H   0  0  0  0  0  0  0  0  0  0  0  0
    0.7249    0.8327    3.0125 C   0  0  0  0  0  0  0  0  0  0  0  0
    1.5903    1.5009    3.0684 H   0  0  0  0  0  0  0  0  0  0  0  0
   -0.0874    1.2717    3.5990 H   0  0  0  0  0  0  0  0  0  0  0  0
    0.9922   -0.1329    3.4538 H   0  0  0  0  0  0  0  0  0  0  0  0
  1  2  1  0  0  0  0
  2  3  1  0  0  0  0
  2  4  1  0  0  0  0
  2  5  1  0  0  0  0
  5  6  2  0  0  0  0
  5  7  1  0  0  0  0
  7  8  1  0  0  0  0
  7  9  1  0  0  0  0
  9 10  1  0  0  0  0
  9 11  1  0  0  0  0
  9 17  1  0  0  0  0
 11 12  1  0  0  0  0
 11 13  1  0  0  0  0
 11 14  1  0  0  0  0
 14 15  1  0  0  0  0
 14 16  2  0  0  0  0
 17 18  2  0  0  0  0
 17 19  1  0  0  0  0
 19 20  1  0  0  0  0
 19 21  1  0  0  0  0
 21 22  1  0  0  0  0
 21 23  1  0  0  0  0
 21 24  1  0  0  0  0
M  CHG  1  15  -1
M  END
$$$$

  -OEChem-03222214023D

 24 23  0     1  0  0  0  0  0999 V2000
   -2.4643   -3.5468   -0.3805 H   0  0  0  0  0  0  0  0  0  0  0  0
   -2.3874   -2.5435   -0.8090 C   0  0  0  0  0  0  0  0  0  0  0  0
   -3.2553   -1.9580   -0.4964 H   0  0  0  0  0  0  0  0  0  0  0  0
   -2.3856   -2.6273   -1.8988 H   0  0  0  0  0  0  0  0  0  0  0  0
   -1.1106   -1.8689   -0.3396 C   0  0  0  0  0  0  0  0  0  0  0  0
   -0.4157   -2.4234    0.4936 O   0  0  0  0  0  0  0  0  0  0  0  0
   -0.7954   -0.6217   -0.8360 N   0  0  0  0  0  0  0  0  0  0  0  0
   -1.3549   -0.3341   -1.6324 H   0  0  0  0  0  0  0  0  0  0  0  0
    0.5505   -0.0246   -0.7891 C   0  0  1  0  0  0  0  0  0  0  0  0
    1.2480   -0.6720   -1.3324 H   0  0  0  0  0  0  0  0  0  0  0  0
    0.4137    1.3577   -1.4826 C   0  0  0  0  0  0  0  0  0  0  0  0
   -0.6169    1.5505   -1.7915 H   0  0  0  0  0  0  0  0  0  0  0  0
    0.6836    2.1501   -0.7782 H   0  0  0  0  0  0  0  0  0  0  0  0
    1.2986    1.5116   -2.7141 C   0  0  0  0  0  0  0  0  0  0  0  0
    1.7014    2.6689   -2.9810 O   0  5  0  0  0  0  0  0  0  0  0  0
    1.4084    0.5218   -3.4798 O   0  0  0  0  0  0  0  0  0  0  0  0
    1.1198    0.1540    0.6413 C   0  0  0  0  0  0  0  0  0  0  0  0
    2.3042   -0.0434    0.8902 O   0  0  0  0  0  0  0  0  0  0  0  0
    0.3066    0.6739    1.6339 N   0  0  0  0  0  0  0  0  0  0  0  0
   -0.6806    0.7258    1.4098 H   0  0  0  0  0  0  0  0  0  0  0  0
    0.7300    0.8259    3.0170 C   0  0  0  0  0  0  0  0  0  0  0  0
    1.6143    1.4687    3.0782 H   0  0  0  0  0  0  0  0  0  0  0  0
   -0.0701    1.2834    3.6060 H   0  0  0  0  0  0  0  0  0  0  0  0
    0.9695   -0.1500    3.4513 H   0  0  0  0  0  0  0  0  0  0  0  0
  1  2  1  0  0  0  0
  2  3  1  0  0  0  0
  2  4  1  0  0  0  0
  2  5  1  0  0  0  0
  5  6  2  0  0  0  0
  5  7  1  0  0  0  0
  7  8  1  0  0  0  0
  7  9  1  0  0  0  0
  9 10  1  0  0  0  0
  9 11  1  0  0  0  0
  9 17  1  0  0  0  0
 11 12  1  0  0  0  0
 11 13  1  0  0  0  0
 11 14  1  0  0  0  0
 14 15  1  0  0  0  0
 14 16  2  0  0  0  0
 17 18  2  0  0  0  0
 17 19  1  0  0  0  0
 19 20  1  0  0  0  0
 19 21  1  0  0  0  0
 21 22  1  0  0  0  0
 21 23  1  0  0  0  0
 21 24  1  0  0  0  0
M  CHG  1  15  -1
M  END
$$$$

  -OEChem-03222214023D

 24 23  0     1  0  0  0  0  0999 V2000
   -2.4609   -3.5453   -0.3854 H   0  0  0  0  0  0  0  0  0  0  0  0
   -2.3833   -2.5438   -0.8181 C   0  0  0  0  0  0  0  0  0  0  0  0
   -3.2551   -1.9591   -0.5144 H   0  0  0  0  0  0  0  0  0  0  0  0
   -2.3733   -2.6329   -1.9076 H   0  0  0  0  0  0  0  0  0  0  0  0
   -1.1110   -1.8643   -0.3433 C   0  0  0  0  0  0  0  0  0  0  0  0
   -0.4124   -2.4213    0.4852 O   0  0  0  0  0  0  0  0  0  0  0  0
   -0.8009   -0.6139   -0.8347 N   0  0  0  0  0  0  0  0  0  0  0  0
   -1.3576   -0.3299   -1.6345 H   0  0  0  0  0  0  0  0  0  0  0  0
    0.5432   -0.0135   -0.7888 C   0  0  1  0  0  0  0  0  0  0  0  0
    1.2402   -0.6527   -1.3433 H   0  0  0  0  0  0  0  0  0  0  0  0
    0.3961    1.3670   -1.4789 C   0  0  0  0  0  0  0  0  0  0  0  0
   -0.6336    1.5566   -1.7923 H   0  0  0  0  0  0  0  0  0  0  0  0
    0.6645    2.1639   -0.7787 H   0  0  0  0  0  0  0  0  0  0  0  0
    1.2871    1.4940   -2.7061 C   0  0  0  0  0  0  0  0  0  0  0  0
    1.9404    2.5541   -2.8521 O   0  5  0  0  0  0  0  0  0  0  0  0
    1.1927    0.5827   -3.5661 O   0  0  0  0  0  0  0  0  0  0  0  0
    1.1191    0.1613    0.6393 C   0  0  0  0  0  0  0  0  0  0  0  0
    2.3019   -0.0490    0.8844 O   0  0  0  0  0  0  0  0  0  0  0  0
    0.3094    0.6755    1.6377 N   0  0  0  0  0  0  0  0  0  0  0  0
   -0.6778    0.7351    1.4157 H   0  0  0  0  0  0  0  0  0  0  0  0
    0.7383    0.8245    3.0195 C   0  0  0  0  0  0  0  0  0  0  0  0
    1.6248    1.4644    3.0782 H   0  0  0  0  0  0  0  0  0  0  0  0
   -0.0582    1.2837    3.6121 H   0  0  0  0  0  0  0  0  0  0  0  0
    0.9762   -0.1526    3.4517 H   0  0  0  0  0  0  0  0  0  0  0  0
  1  2  1  0  0  0  0
  2  3  1  0  0  0  0
  2  4  1  0  0  0  0
  2  5  1  0  0  0  0
  5  6  2  0  0  0  0
  5  7  1  0  0  0  0
  7  8  1  0  0  0  0
  7  9  1  0  0  0  0
  9 10  1  0  0  0  0
  9 11  1  0  0  0  0
  9 17  1  0  0  0  0
 11 12  1  0  0  0  0
 11 13  1  0  0  0  0
 11 14  1  0  0  0  0
 14 15  1  0  0  0  0
 14 16  2  0  0  0  0
 17 18  2  0  0  0  0
 17 19  1  0  0  0  0
 19 20  1  0  0  0  0
 19 21  1  0  0  0  0
 21 22  1  0  0  0  0
 21 23  1  0  0  0  0
 21 24  1  0  0  0  0
M  CHG  1  15  -1
M  END
$$$$

  -OEChem-03222214023D

 24 23  0     1  0  0  0  0  0999 V2000
   -2.4687   -3.5339   -0.3756 H   0  0  0  0  0  0  0  0  0  0  0  0
   -2.3803   -2.5400   -0.8231 C   0  0  0  0  0  0  0  0  0  0  0  0
   -3.2510   -1.9451   -0.5371 H   0  0  0  0  0  0  0  0  0  0  0  0
   -2.3607   -2.6455   -1.9107 H   0  0  0  0  0  0  0  0  0  0  0  0
   -1.1081   -1.8612   -0.3471 C   0  0  0  0  0  0  0  0  0  0  0  0
   -0.4084   -2.4193    0.4797 O   0  0  0  0  0  0  0  0  0  0  0  0
   -0.7999   -0.6094   -0.8358 N   0  0  0  0  0  0  0  0  0  0  0  0
   -1.3560   -0.3258   -1.6367 H   0  0  0  0  0  0  0  0  0  0  0  0
    0.5426   -0.0057   -0.7902 C   0  0  1  0  0  0  0  0  0  0  0  0
    1.2407   -0.6369   -1.3529 H   0  0  0  0  0  0  0  0  0  0  0  0
    0.3811    1.3730   -1.4769 C   0  0  0  0  0  0  0  0  0  0  0  0
   -0.6502    1.5577   -1.7893 H   0  0  0  0  0  0  0  0  0  0  0  0
    0.6487    2.1740   -0.7812 H   0  0  0  0  0  0  0  0  0  0  0  0
    1.2727    1.4869   -2.7025 C   0  0  0  0  0  0  0  0  0  0  0  0
    2.1387    2.3921   -2.7383 O   0  5  0  0  0  0  0  0  0  0  0  0
    1.0124    0.6975   -3.6450 O   0  0  0  0  0  0  0  0  0  0  0  0
    1.1212    0.1686    0.6370 C   0  0  0  0  0  0  0  0  0  0  0  0
    2.3001   -0.0590    0.8848 O   0  0  0  0  0  0  0  0  0  0  0  0
    0.3128    0.6794    1.6382 N   0  0  0  0  0  0  0  0  0  0  0  0
   -0.6734    0.7496    1.4150 H   0  0  0  0  0  0  0  0  0  0  0  0
    0.7417    0.8194    3.0208 C   0  0  0  0  0  0  0  0  0  0  0  0
    1.6271    1.4605    3.0833 H   0  0  0  0  0  0  0  0  0  0  0  0
   -0.0550    1.2737    3.6169 H   0  0  0  0  0  0  0  0  0  0  0  0
    0.9811   -0.1603    3.4465 H   0  0  0  0  0  0  0  0  0  0  0  0
  1  2  1  0  0  0  0
  2  3  1  0  0  0  0
  2  4  1  0  0  0  0
  2  5  1  0  0  0  0
  5  6  2  0  0  0  0
  5  7  1  0  0  0  0
  7  8  1  0  0  0  0
  7  9  1  0  0  0  0
  9 10  1  0  0  0  0
  9 11  1  0  0  0  0
  9 17  1  0  0  0  0
 11 12  1  0  0  0  0
 11 13  1  0  0  0  0
 11 14  1  0  0  0  0
 14 15  1  0  0  0  0
 14 16  2  0  0  0  0
 17 18  2  0  0  0  0
 17 19  1  0  0  0  0
 19 20  1  0  0  0  0
 19 21  1  0  0  0  0
 21 22  1  0  0  0  0
 21 23  1  0  0  0  0
 21 24  1  0  0  0  0
M  CHG  1  15  -1
M  END
$$$$

  -OEChem-03222214023D

 24 23  0     1  0  0  0  0  0999 V2000
   -2.4654   -3.5226   -0.3555 H   0  0  0  0  0  0  0  0  0  0  0  0
   -2.3770   -2.5314   -0.8094 C   0  0  0  0  0  0  0  0  0  0  0  0
   -3.2431   -1.9317   -0.5190 H   0  0  0  0  0  0  0  0  0  0  0  0
   -2.3675   -2.6431   -1.8968 H   0  0  0  0  0  0  0  0  0  0  0  0
   -1.0979   -1.8553   -0.3478 C   0  0  0  0  0  0  0  0  0  0  0  0
   -0.3894   -2.4166    0.4690 O   0  0  0  0  0  0  0  0  0  0  0  0
   -0.7919   -0.6033   -0.8379 N   0  0  0  0  0  0  0  0  0  0  0  0
   -1.3565   -0.3142   -1.6310 H   0  0  0  0  0  0  0  0  0  0  0  0
    0.5484    0.0056   -0.7954 C   0  0  1  0  0  0  0  0  0  0  0  0
    1.2490   -0.6211   -1.3599 H   0  0  0  0  0  0  0  0  0  0  0  0
    0.3753    1.3800   -1.4853 C   0  0  0  0  0  0  0  0  0  0  0  0
   -0.6582    1.5589   -1.7948 H   0  0  0  0  0  0  0  0  0  0  0  0
    0.6427    2.1866   -0.7961 H   0  0  0  0  0  0  0  0  0  0  0  0
    1.2657    1.4857   -2.7111 C   0  0  0  0  0  0  0  0  0  0  0  0
    2.3015    2.1877   -2.6560 O   0  5  0  0  0  0  0  0  0  0  0  0
    0.8673    0.8610   -3.7259 O   0  0  0  0  0  0  0  0  0  0  0  0
    1.1253    0.1824    0.6327 C   0  0  0  0  0  0  0  0  0  0  0  0
    2.2992   -0.0613    0.8888 O   0  0  0  0  0  0  0  0  0  0  0  0
    0.3131    0.6906    1.6324 N   0  0  0  0  0  0  0  0  0  0  0  0
   -0.6724    0.7564    1.4051 H   0  0  0  0  0  0  0  0  0  0  0  0
    0.7306    0.8023    3.0214 C   0  0  0  0  0  0  0  0  0  0  0  0
    1.6189    1.4370    3.1041 H   0  0  0  0  0  0  0  0  0  0  0  0
   -0.0689    1.2494    3.6192 H   0  0  0  0  0  0  0  0  0  0  0  0
    0.9610   -0.1867    3.4304 H   0  0  0  0  0  0  0  0  0  0  0  0
  1  2  1  0  0  0  0
  2  3  1  0  0  0  0
  2  4  1  0  0  0  0
  2  5  1  0  0  0  0
  5  6  2  0  0  0  0
  5  7  1  0  0  0  0
  7  8  1  0  0  0  0
  7  9  1  0  0  0  0
  9 10  1  0  0  0  0
  9 11  1  0  0  0  0
  9 17  1  0  0  0  0
 11 12  1  0  0  0  0
 11 13  1  0  0  0  0
 11 14  1  0  0  0  0
 14 15  1  0  0  0  0
 14 16  2  0  0  0  0
 17 18  2  0  0  0  0
 17 19  1  0  0  0  0
 19 20  1  0  0  0  0
 19 21  1  0  0  0  0
 21 22  1  0  0  0  0
 21 23  1  0  0  0  0
 21 24  1  0  0  0  0
M  CHG  1  15  -1
M  END
$$$$

  -OEChem-03222214023D

 24 23  0     1  0  0  0  0  0999 V2000
   -2.4590   -3.5144   -0.3426 H   0  0  0  0  0  0  0  0  0  0  0  0
   -2.3739   -2.5204   -0.7906 C   0  0  0  0  0  0  0  0  0  0  0  0
   -3.2312   -1.9185   -0.4794 H   0  0  0  0  0  0  0  0  0  0  0  0
   -2.3851   -2.6236   -1.8787 H   0  0  0  0  0  0  0  0  0  0  0  0
   -1.0832   -1.8542   -0.3480 C   0  0  0  0  0  0  0  0  0  0  0  0
   -0.3637   -2.4243    0.4527 O   0  0  0  0  0  0  0  0  0  0  0  0
   -0.7779   -0.6032   -0.8409 N   0  0  0  0  0  0  0  0  0  0  0  0
   -1.3562   -0.3030   -1.6199 H   0  0  0  0  0  0  0  0  0  0  0  0
    0.5609    0.0097   -0.8017 C   0  0  1  0  0  0  0  0  0  0  0  0
    1.2660   -0.6121   -1.3665 H   0  0  0  0  0  0  0  0  0  0  0  0
    0.3754    1.3823   -1.4911 C   0  0  0  0  0  0  0  0  0  0  0  0
   -0.6622    1.5581   -1.7893 H   0  0  0  0  0  0  0  0  0  0  0  0
    0.6476    2.1903   -0.8056 H   0  0  0  0  0  0  0  0  0  0  0  0
    1.2596    1.4917   -2.7207 C   0  0  0  0  0  0  0  0  0  0  0  0
    2.4174    1.9533   -2.6041 O   0  5  0  0  0  0  0  0  0  0  0  0
    0.7498    1.0784   -3.7920 O   0  0  0  0  0  0  0  0  0  0  0  0
    1.1325    0.1893    0.6285 C   0  0  0  0  0  0  0  0  0  0  0  0
    2.2988   -0.0736    0.8991 O   0  0  0  0  0  0  0  0  0  0  0  0
    0.3127    0.6970    1.6226 N   0  0  0  0  0  0  0  0  0  0  0  0
   -0.6689    0.7754    1.3830 H   0  0  0  0  0  0  0  0  0  0  0  0
    0.7120    0.7870    3.0184 C   0  0  0  0  0  0  0  0  0  0  0  0
    1.6033    1.4142    3.1221 H   0  0  0  0  0  0  0  0  0  0  0  0
   -0.0930    1.2309    3.6112 H   0  0  0  0  0  0  0  0  0  0  0  0
    0.9302   -0.2091    3.4169 H   0  0  0  0  0  0  0  0  0  0  0  0
  1  2  1  0  0  0  0
  2  3  1  0  0  0  0
  2  4  1  0  0  0  0
  2  5  1  0  0  0  0
  5  6  2  0  0  0  0
  5  7  1  0  0  0  0
  7  8  1  0  0  0  0
  7  9  1  0  0  0  0
  9 10  1  0  0  0  0
  9 11  1  0  0  0  0
  9 17  1  0  0  0  0
 11 12  1  0  0  0  0
 11 13  1  0  0  0  0
 11 14  1  0  0  0  0
 14 15  1  0  0  0  0
 14 16  2  0  0  0  0
 17 18  2  0  0  0  0
 17 19  1  0  0  0  0
 19 20  1  0  0  0  0
 19 21  1  0  0  0  0
 21 22  1  0  0  0  0
 21 23  1  0  0  0  0
 21 24  1  0  0  0  0
M  CHG  1  15  -1
M  END
$$$$

  -OEChem-03222214023D

 24 23  0     1  0  0  0  0  0999 V2000
   -2.4523   -3.5233   -0.3614 H   0  0  0  0  0  0  0  0  0  0  0  0
   -2.3788   -2.5157   -0.7802 C   0  0  0  0  0  0  0  0  0  0  0  0
   -3.2255   -1.9233   -0.4250 H   0  0  0  0  0  0  0  0  0  0  0  0
   -2.4230   -2.5851   -1.8701 H   0  0  0  0  0  0  0  0  0  0  0  0
   -1.0747   -1.8641   -0.3550 C   0  0  0  0  0  0  0  0  0  0  0  0
   -0.3458   -2.4470    0.4277 O   0  0  0  0  0  0  0  0  0  0  0  0
   -0.7651   -0.6133   -0.8462 N   0  0  0  0  0  0  0  0  0  0  0  0
   -1.3584   -0.2941   -1.6061 H   0  0  0  0  0  0  0  0  0  0  0  0
    0.5725    0.0038   -0.8044 C   0  0  1  0  0  0  0  0  0  0  0  0
    1.2831   -0.6131   -1.3676 H   0  0  0  0  0  0  0  0  0  0  0  0
    0.3810    1.3767   -1.4932 C   0  0  0  0  0  0  0  0  0  0  0  0
   -0.6594    1.5485   -1.7845 H   0  0  0  0  0  0  0  0  0  0  0  0
    0.6533    2.1835   -0.8068 H   0  0  0  0  0  0  0  0  0  0  0  0
    1.2617    1.5030   -2.7250 C   0  0  0  0  0  0  0  0  0  0  0  0
    2.4890    1.7005   -2.5807 O   0  5  0  0  0  0  0  0  0  0  0  0
    0.6787    1.3588   -3.8282 O   0  0  0  0  0  0  0  0  0  0  0  0
    1.1359    0.1841    0.6296 C   0  0  0  0  0  0  0  0  0  0  0  0
    2.2988   -0.0812    0.9115 O   0  0  0  0  0  0  0  0  0  0  0  0
    0.3086    0.6893    1.6190 N   0  0  0  0  0  0  0  0  0  0  0  0
   -0.6712    0.7702    1.3733 H   0  0  0  0  0  0  0  0  0  0  0  0
    0.7015    0.7907    3.0159 C   0  0  0  0  0  0  0  0  0  0  0  0
    1.6012    1.4061    3.1172 H   0  0  0  0  0  0  0  0  0  0  0  0
   -0.1000    1.2540    3.5986 H   0  0  0  0  0  0  0  0  0  0  0  0
    0.9035   -0.2032    3.4279 H   0  0  0  0  0  0  0  0  0  0  0  0
  1  2  1  0  0  0  0
  2  3  1  0  0  0  0
  2  4  1  0  0  0  0
  2  5  1  0  0  0  0
  5  6  2  0  0  0  0
  5  7  1  0  0  0  0
  7  8  1  0  0  0  0
  7  9  1  0  0  0  0
  9 10  1  0  0  0  0
  9 11  1  0  0  0  0
  9 17  1  0  0  0  0
 11 12  1  0  0  0  0
 11 13  1  0  0  0  0
 11 14  1  0  0  0  0
 14 15  1  0  0  0  0
 14 16  2  0  0  0  0
 17 18  2  0  0  0  0
 17 19  1  0  0  0  0
 19 20  1  0  0  0  0
 19 21  1  0  0  0  0
 21 22  1  0  0  0  0
 21 23  1  0  0  0  0
 21 24  1  0  0  0  0
M  CHG  1  15  -1
M  END
$$$$

  -OEChem-03222214023D

 24 23  0     1  0  0  0  0  0999 V2000
   -2.4804   -3.5004   -0.3064 H   0  0  0  0  0  0  0  0  0  0  0  0
   -2.3836   -2.5130   -0.7667 C   0  0  0  0  0  0  0  0  0  0  0  0
   -3.2198   -1.8894   -0.4416 H   0  0  0  0  0  0  0  0  0  0  0  0
   -2.4231   -2.6268   -1.8529 H   0  0  0  0  0  0  0  0  0  0  0  0
   -1.0684   -1.8713   -0.3609 C   0  0  0  0  0  0  0  0  0  0  0  0
   -0.3296   -2.4633    0.4052 O   0  0  0  0  0  0  0  0  0  0  0  0
   -0.7579   -0.6204   -0.8516 N   0  0  0  0  0  0  0  0  0  0  0  0
   -1.3644   -0.2868   -1.5942 H   0  0  0  0  0  0  0  0  0  0  0  0
    0.5797   -0.0021   -0.8086 C   0  0  1  0  0  0  0  0  0  0  0  0
    1.2917   -0.6191   -1.3696 H   0  0  0  0  0  0  0  0  0  0  0  0
    0.3904    1.3739   -1.4945 C   0  0  0  0  0  0  0  0  0  0  0  0
   -0.6521    1.5467   -1.7778 H   0  0  0  0  0  0  0  0  0  0  0  0
    0.6666    2.1757   -0.8042 H   0  0  0  0  0  0  0  0  0  0  0  0
    1.2669    1.5196   -2.7295 C   0  0  0  0  0  0  0  0  0  0  0  0
    2.5100    1.4386   -2.6103 O   0  5  0  0  0  0  0  0  0  0  0  0
    0.6568    1.6728   -3.8167 O   0  0  0  0  0  0  0  0  0  0  0  0
    1.1375    0.1768    0.6283 C   0  0  0  0  0  0  0  0  0  0  0  0
    2.2996   -0.0839    0.9177 O   0  0  0  0  0  0  0  0  0  0  0  0
    0.3050    0.6805    1.6144 N   0  0  0  0  0  0  0  0  0  0  0  0
   -0.6726    0.7685    1.3631 H   0  0  0  0  0  0  0  0  0  0  0  0
    0.6925    0.7862    3.0126 C   0  0  0  0  0  0  0  0  0  0  0  0
    1.5797    1.4192    3.1166 H   0  0  0  0  0  0  0  0  0  0  0  0
   -0.1194    1.2315    3.5948 H   0  0  0  0  0  0  0  0  0  0  0  0
    0.9133   -0.2045    3.4226 H   0  0  0  0  0  0  0  0  0  0  0  0
  1  2  1  0  0  0  0
  2  3  1  0  0  0  0
  2  4  1  0  0  0  0
  2  5  1  0  0  0  0
  5  6  2  0  0  0  0
  5  7  1  0  0  0  0
  7  8  1  0  0  0  0
  7  9  1  0  0  0  0
  9 10  1  0  0  0  0
  9 11  1  0  0  0  0
  9 17  1  0  0  0  0
 11 12  1  0  0  0  0
 11 13  1  0  0  0  0
 11 14  1  0  0  0  0
 14 15  1  0  0  0  0
 14 16  2  0  0  0  0
 17 18  2  0  0  0  0
 17 19  1  0  0  0  0
 19 20  1  0  0  0  0
 19 21  1  0  0  0  0
 21 22  1  0  0  0  0
 21 23  1  0  0  0  0
 21 24  1  0  0  0  0
M  CHG  1  15  -1
M  END
$$$$

  -OEChem-03222214023D

 24 23  0     1  0  0  0  0  0999 V2000
   -2.4761   -3.5115   -0.3255 H   0  0  0  0  0  0  0  0  0  0  0  0
   -2.3892   -2.5113   -0.7595 C   0  0  0  0  0  0  0  0  0  0  0  0
   -3.2193   -1.8978   -0.4011 H   0  0  0  0  0  0  0  0  0  0  0  0
   -2.4499   -2.5950   -1.8475 H   0  0  0  0  0  0  0  0  0  0  0  0
   -1.0671   -1.8794   -0.3611 C   0  0  0  0  0  0  0  0  0  0  0  0
   -0.3289   -2.4761    0.4017 O   0  0  0  0  0  0  0  0  0  0  0  0
   -0.7510   -0.6306   -0.8532 N   0  0  0  0  0  0  0  0  0  0  0  0
   -1.3638   -0.2857   -1.5850 H   0  0  0  0  0  0  0  0  0  0  0  0
    0.5874   -0.0140   -0.8081 C   0  0  1  0  0  0  0  0  0  0  0  0
    1.2979   -0.6378   -1.3630 H   0  0  0  0  0  0  0  0  0  0  0  0
    0.4040    1.3639   -1.4965 C   0  0  0  0  0  0  0  0  0  0  0  0
   -0.6396    1.5362   -1.7756 H   0  0  0  0  0  0  0  0  0  0  0  0
    0.6804    2.1617   -0.8020 H   0  0  0  0  0  0  0  0  0  0  0  0
    1.2746    1.5352   -2.7354 C   0  0  0  0  0  0  0  0  0  0  0  0
    2.4779    1.1918   -2.6981 O   0  5  0  0  0  0  0  0  0  0  0  0
    0.6877    1.9794   -3.7529 O   0  0  0  0  0  0  0  0  0  0  0  0
    1.1390    0.1664    0.6310 C   0  0  0  0  0  0  0  0  0  0  0  0
    2.3034   -0.0786    0.9245 O   0  0  0  0  0  0  0  0  0  0  0  0
    0.3012    0.6728    1.6112 N   0  0  0  0  0  0  0  0  0  0  0  0
   -0.6758    0.7566    1.3558 H   0  0  0  0  0  0  0  0  0  0  0  0
    0.6844    0.7916    3.0094 C   0  0  0  0  0  0  0  0  0  0  0  0
    1.5730    1.4231    3.1100 H   0  0  0  0  0  0  0  0  0  0  0  0
   -0.1278    1.2456    3.5840 H   0  0  0  0  0  0  0  0  0  0  0  0
    0.9007   -0.1956    3.4301 H   0  0  0  0  0  0  0  0  0  0  0  0
  1  2  1  0  0  0  0
  2  3  1  0  0  0  0
  2  4  1  0  0  0  0
  2  5  1  0  0  0  0
  5  6  2  0  0  0  0
  5  7  1  0  0  0  0
  7  8  1  0  0  0  0
  7  9  1  0  0  0  0
  9 10  1  0  0  0  0
  9 11  1  0  0  0  0
  9 17  1  0  0  0  0
 11 12  1  0  0  0  0
 11 13  1  0  0  0  0
 11 14  1  0  0  0  0
 14 15  1  0  0  0  0
 14 16  2  0  0  0  0
 17 18  2  0  0  0  0
 17 19  1  0  0  0  0
 19 20  1  0  0  0  0
 19 21  1  0  0  0  0
 21 22  1  0  0  0  0
 21 23  1  0  0  0  0
 21 24  1  0  0  0  0
M  CHG  1  15  -1
M  END
$$$$

  -OEChem-03222214023D

 24 23  0     1  0  0  0  0  0999 V2000
   -2.5027   -3.5000   -0.2994 H   0  0  0  0  0  0  0  0  0  0  0  0
   -2.3975   -2.5136   -0.7600 C   0  0  0  0  0  0  0  0  0  0  0  0
   -3.2254   -1.8807   -0.4308 H   0  0  0  0  0  0  0  0  0  0  0  0
   -2.4439   -2.6272   -1.8461 H   0  0  0  0  0  0  0  0  0  0  0  0
   -1.0735   -1.8861   -0.3607 C   0  0  0  0  0  0  0  0  0  0  0  0
   -0.3388   -2.4837    0.4048 O   0  0  0  0  0  0  0  0  0  0  0  0
   -0.7529   -0.6384   -0.8532 N   0  0  0  0  0  0  0  0  0  0  0  0
   -1.3649   -0.2910   -1.5840 H   0  0  0  0  0  0  0  0  0  0  0  0
    0.5880   -0.0266   -0.8063 C   0  0  1  0  0  0  0  0  0  0  0  0
    1.2933   -0.6607   -1.3549 H   0  0  0  0  0  0  0  0  0  0  0  0
    0.4186    1.3555   -1.4952 C   0  0  0  0  0  0  0  0  0  0  0  0
   -0.6244    1.5294   -1.7752 H   0  0  0  0  0  0  0  0  0  0  0  0
    0.6931    2.1476   -0.7933 H   0  0  0  0  0  0  0  0  0  0  0  0
    1.2838    1.5535   -2.7369 C   0  0  0  0  0  0  0  0  0  0  0  0
    2.3916    0.9767   -2.8304 O   0  5  0  0  0  0  0  0  0  0  0  0
    0.7738    2.2680   -3.6347 O   0  0  0  0  0  0  0  0  0  0  0  0
    1.1379    0.1522    0.6335 C   0  0  0  0  0  0  0  0  0  0  0  0
    2.3077   -0.0722    0.9229 O   0  0  0  0  0  0  0  0  0  0  0  0
    0.3002    0.6618    1.6121 N   0  0  0  0  0  0  0  0  0  0  0  0
   -0.6782    0.7361    1.3592 H   0  0  0  0  0  0  0  0  0  0  0  0
    0.6868    0.7993    3.0077 C   0  0  0  0  0  0  0  0  0  0  0  0
    1.5626    1.4500    3.0998 H   0  0  0  0  0  0  0  0  0  0  0  0
   -0.1323    1.2407    3.5826 H   0  0  0  0  0  0  0  0  0  0  0  0
    0.9251   -0.1798    3.4354 H   0  0  0  0  0  0  0  0  0  0  0  0
  1  2  1  0  0  0  0
  2  3  1  0  0  0  0
  2  4  1  0  0  0  0
  2  5  1  0  0  0  0
  5  6  2  0  0  0  0
  5  7  1  0  0  0  0
  7  8  1  0  0  0  0
  7  9  1  0  0  0  0
  9 10  1  0  0  0  0
  9 11  1  0  0  0  0
  9 17  1  0  0  0  0
 11 12  1  0  0  0  0
 11 13  1  0  0  0  0
 11 14  1  0  0  0  0
 14 15  1  0  0  0  0
 14 16  2  0  0  0  0
 17 18  2  0  0  0  0
 17 19  1  0  0  0  0
 19 20  1  0  0  0  0
 19 21  1  0  0  0  0
 21 22  1  0  0  0  0
 21 23  1  0  0  0  0
 21 24  1  0  0  0  0
M  CHG  1  15  -1
M  END
$$$$

  -OEChem-03222214023D

 24 23  0     1  0  0  0  0  0999 V2000
   -2.5125   -3.5020   -0.3002 H   0  0  0  0  0  0  0  0  0  0  0  0
   -2.4029   -2.5195   -0.7682 C   0  0  0  0  0  0  0  0  0  0  0  0
   -3.2378   -1.8865   -0.4580 H   0  0  0  0  0  0  0  0  0  0  0  0
   -2.4312   -2.6429   -1.8538 H   0  0  0  0  0  0  0  0  0  0  0  0
   -1.0866   -1.8855   -0.3539 C   0  0  0  0  0  0  0  0  0  0  0  0
   -0.3620   -2.4758    0.4270 O   0  0  0  0  0  0  0  0  0  0  0  0
   -0.7621   -0.6401   -0.8493 N   0  0  0  0  0  0  0  0  0  0  0  0
   -1.3663   -0.2993   -1.5894 H   0  0  0  0  0  0  0  0  0  0  0  0
    0.5820   -0.0355   -0.8022 C   0  0  1  0  0  0  0  0  0  0  0  0
    1.2813   -0.6820   -1.3429 H   0  0  0  0  0  0  0  0  0  0  0  0
    0.4293    1.3488   -1.4939 C   0  0  0  0  0  0  0  0  0  0  0  0
   -0.6115    1.5260   -1.7790 H   0  0  0  0  0  0  0  0  0  0  0  0
    0.7019    2.1376   -0.7872 H   0  0  0  0  0  0  0  0  0  0  0  0
    1.2917    1.5623   -2.7368 C   0  0  0  0  0  0  0  0  0  0  0  0
    2.2504    0.7949   -2.9857 O   0  5  0  0  0  0  0  0  0  0  0  0
    0.9140    2.4949   -3.4873 O   0  0  0  0  0  0  0  0  0  0  0  0
    1.1342    0.1441    0.6363 C   0  0  0  0  0  0  0  0  0  0  0  0
    2.3089   -0.0653    0.9171 O   0  0  0  0  0  0  0  0  0  0  0  0
    0.3017    0.6603    1.6157 N   0  0  0  0  0  0  0  0  0  0  0  0
   -0.6791    0.7270    1.3696 H   0  0  0  0  0  0  0  0  0  0  0  0
    0.6970    0.8071    3.0078 C   0  0  0  0  0  0  0  0  0  0  0  0
    1.5655    1.4686    3.0910 H   0  0  0  0  0  0  0  0  0  0  0  0
   -0.1237    1.2403    3.5870 H   0  0  0  0  0  0  0  0  0  0  0  0
    0.9503   -0.1678    3.4369 H   0  0  0  0  0  0  0  0  0  0  0  0
  1  2  1  0  0  0  0
  2  3  1  0  0  0  0
  2  4  1  0  0  0  0
  2  5  1  0  0  0  0
  5  6  2  0  0  0  0
  5  7  1  0  0  0  0
  7  8  1  0  0  0  0
  7  9  1  0  0  0  0
  9 10  1  0  0  0  0
  9 11  1  0  0  0  0
  9 17  1  0  0  0  0
 11 12  1  0  0  0  0
 11 13  1  0  0  0  0
 11 14  1  0  0  0  0
 14 15  1  0  0  0  0
 14 16  2  0  0  0  0
 17 18  2  0  0  0  0
 17 19  1  0  0  0  0
 19 20  1  0  0  0  0
 19 21  1  0  0  0  0
 21 22  1  0  0  0  0
 21 23  1  0  0  0  0
 21 24  1  0  0  0  0
M  CHG  1  15  -1
M  END
$$$$

  -OEChem-03222214023D

 24 23  0     1  0  0  0  0  0999 V2000
   -2.4990   -3.5250   -0.3438 H   0  0  0  0  0  0  0  0  0  0  0  0
   -2.4067   -2.5253   -0.7779 C   0  0  0  0  0  0  0  0  0  0  0  0
   -3.2472   -1.9144   -0.4396 H   0  0  0  0  0  0  0  0  0  0  0  0
   -2.4425   -2.6115   -1.8670 H   0  0  0  0  0  0  0  0  0  0  0  0
   -1.0962   -1.8873   -0.3517 C   0  0  0  0  0  0  0  0  0  0  0  0
   -0.3814   -2.4702    0.4439 O   0  0  0  0  0  0  0  0  0  0  0  0
   -0.7696   -0.6428   -0.8477 N   0  0  0  0  0  0  0  0  0  0  0  0
   -1.3616   -0.3143   -1.6030 H   0  0  0  0  0  0  0  0  0  0  0  0
    0.5765   -0.0433   -0.7985 C   0  0  1  0  0  0  0  0  0  0  0  0
    1.2741   -0.6950   -1.3348 H   0  0  0  0  0  0  0  0  0  0  0  0
    0.4344    1.3438   -1.4890 C   0  0  0  0  0  0  0  0  0  0  0  0
   -0.6035    1.5226   -1.7824 H   0  0  0  0  0  0  0  0  0  0  0  0
    0.7021    2.1303   -0.7778 H   0  0  0  0  0  0  0  0  0  0  0  0
    1.2974    1.5642   -2.7307 C   0  0  0  0  0  0  0  0  0  0  0  0
    2.0626    0.6600   -3.1417 O   0  5  0  0  0  0  0  0  0  0  0  0
    1.0990    2.6517   -3.3250 O   0  0  0  0  0  0  0  0  0  0  0  0
    1.1305    0.1360    0.6391 C   0  0  0  0  0  0  0  0  0  0  0  0
    2.3093   -0.0625    0.9111 O   0  0  0  0  0  0  0  0  0  0  0  0
    0.3026    0.6557    1.6202 N   0  0  0  0  0  0  0  0  0  0  0  0
   -0.6800    0.7178    1.3798 H   0  0  0  0  0  0  0  0  0  0  0  0
    0.7071    0.8204    3.0078 C   0  0  0  0  0  0  0  0  0  0  0  0
    1.5858    1.4699    3.0763 H   0  0  0  0  0  0  0  0  0  0  0  0
   -0.1039    1.2764    3.5829 H   0  0  0  0  0  0  0  0  0  0  0  0
    0.9475   -0.1506    3.4527 H   0  0  0  0  0  0  0  0  0  0  0  0
  1  2  1  0  0  0  0
  2  3  1  0  0  0  0
  2  4  1  0  0  0  0
  2  5  1  0  0  0  0
  5  6  2  0  0  0  0
  5  7  1  0  0  0  0
  7  8  1  0  0  0  0
  7  9  1  0  0  0  0
  9 10  1  0  0  0  0
  9 11  1  0  0  0  0
  9 17  1  0  0  0  0
 11 12  1  0  0  0  0
 11 13  1  0  0  0  0
 11 14  1  0  0  0  0
 14 15  1  0  0  0  0
 14 16  2  0  0  0  0
 17 18  2  0  0  0  0
 17 19  1  0  0  0  0
 19 20  1  0  0  0  0
 19 21  1  0  0  0  0
 21 22  1  0  0  0  0
 21 23  1  0  0  0  0
 21 24  1  0  0  0  0
M  CHG  1  15  -1
M  END
$$$$

  -OEChem-03222214023D

 24 23  0     1  0  0  0  0  0999 V2000
   -2.4867   -3.5357   -0.3636 H   0  0  0  0  0  0  0  0  0  0  0  0
   -2.4031   -2.5318   -0.7897 C   0  0  0  0  0  0  0  0  0  0  0  0
   -3.2556   -1.9349   -0.4569 H   0  0  0  0  0  0  0  0  0  0  0  0
   -2.4252   -2.6108   -1.8795 H   0  0  0  0  0  0  0  0  0  0  0  0
   -1.1067   -1.8787   -0.3439 C   0  0  0  0  0  0  0  0  0  0  0  0
   -0.4022   -2.4487    0.4702 O   0  0  0  0  0  0  0  0  0  0  0  0
   -0.7830   -0.6340   -0.8416 N   0  0  0  0  0  0  0  0  0  0  0  0
   -1.3612   -0.3227   -1.6147 H   0  0  0  0  0  0  0  0  0  0  0  0
    0.5646   -0.0383   -0.7952 C   0  0  1  0  0  0  0  0  0  0  0  0
    1.2603   -0.6929   -1.3306 H   0  0  0  0  0  0  0  0  0  0  0  0
    0.4318    1.3491   -1.4866 C   0  0  0  0  0  0  0  0  0  0  0  0
   -0.6030    1.5316   -1.7875 H   0  0  0  0  0  0  0  0  0  0  0  0
    0.6991    2.1363   -0.7756 H   0  0  0  0  0  0  0  0  0  0  0  0
    1.3001    1.5530   -2.7268 C   0  0  0  0  0  0  0  0  0  0  0  0
    1.8309    0.5634   -3.2863 O   0  5  0  0  0  0  0  0  0  0  0  0
    1.3284    2.7239   -3.1766 O   0  0  0  0  0  0  0  0  0  0  0  0
    1.1261    0.1401    0.6393 C   0  0  0  0  0  0  0  0  0  0  0  0
    2.3081   -0.0552    0.8997 O   0  0  0  0  0  0  0  0  0  0  0  0
    0.3059    0.6621    1.6255 N   0  0  0  0  0  0  0  0  0  0  0  0
   -0.6790    0.7181    1.3934 H   0  0  0  0  0  0  0  0  0  0  0  0
    0.7192    0.8198    3.0113 C   0  0  0  0  0  0  0  0  0  0  0  0
    1.6006    1.4659    3.0772 H   0  0  0  0  0  0  0  0  0  0  0  0
   -0.0866    1.2769    3.5928 H   0  0  0  0  0  0  0  0  0  0  0  0
    0.9585   -0.1538    3.4511 H   0  0  0  0  0  0  0  0  0  0  0  0
  1  2  1  0  0  0  0
  2  3  1  0  0  0  0
  2  4  1  0  0  0  0
  2  5  1  0  0  0  0
  5  6  2  0  0  0  0
  5  7  1  0  0  0  0
  7  8  1  0  0  0  0
  7  9  1  0  0  0  0
  9 10  1  0  0  0  0
  9 11  1  0  0  0  0
  9 17  1  0  0  0  0
 11 12  1  0  0  0  0
 11 13  1  0  0  0  0
 11 14  1  0  0  0  0
 14 15  1  0  0  0  0
 14 16  2  0  0  0  0
 17 18  2  0  0  0  0
 17 19  1  0  0  0  0
 19 20  1  0  0  0  0
 19 21  1  0  0  0  0
 21 22  1  0  0  0  0
 21 23  1  0  0  0  0
 21 24  1  0  0  0  0
M  CHG  1  15  -1
M  END
$$$$

  -OEChem-03222214023D

 24 23  0     1  0  0  0  0  0999 V2000
   -2.4838   -3.5389   -0.3800 H   0  0  0  0  0  0  0  0  0  0  0  0
   -2.3983   -2.5377   -0.8119 C   0  0  0  0  0  0  0  0  0  0  0  0
   -3.2631   -1.9451   -0.5036 H   0  0  0  0  0  0  0  0  0  0  0  0
   -2.3947   -2.6256   -1.9014 H   0  0  0  0  0  0  0  0  0  0  0  0
   -1.1173   -1.8710   -0.3423 C   0  0  0  0  0  0  0  0  0  0  0  0
   -0.4228   -2.4332    0.4860 O   0  0  0  0  0  0  0  0  0  0  0  0
   -0.7962   -0.6242   -0.8361 N   0  0  0  0  0  0  0  0  0  0  0  0
   -1.3604   -0.3270   -1.6250 H   0  0  0  0  0  0  0  0  0  0  0  0
    0.5522   -0.0316   -0.7898 C   0  0  1  0  0  0  0  0  0  0  0  0
    1.2466   -0.6827   -1.3318 H   0  0  0  0  0  0  0  0  0  0  0  0
    0.4212    1.3561   -1.4774 C   0  0  0  0  0  0  0  0  0  0  0  0
   -0.6109    1.5411   -1.7861 H   0  0  0  0  0  0  0  0  0  0  0  0
    0.6878    2.1447   -0.7674 H   0  0  0  0  0  0  0  0  0  0  0  0
    1.2977    1.5338   -2.7139 C   0  0  0  0  0  0  0  0  0  0  0  0
    1.5724    0.5233   -3.4068 O   0  5  0  0  0  0  0  0  0  0  0  0
    1.5791    2.7142   -3.0313 O   0  0  0  0  0  0  0  0  0  0  0  0
    1.1217    0.1412    0.6417 C   0  0  0  0  0  0  0  0  0  0  0  0
    2.3060   -0.0555    0.8910 O   0  0  0  0  0  0  0  0  0  0  0  0
    0.3095    0.6613    1.6352 N   0  0  0  0  0  0  0  0  0  0  0  0
   -0.6778    0.7143    1.4123 H   0  0  0  0  0  0  0  0  0  0  0  0
    0.7370    0.8263    3.0157 C   0  0  0  0  0  0  0  0  0  0  0  0
    1.6180    1.4740    3.0686 H   0  0  0  0  0  0  0  0  0  0  0  0
   -0.0631    1.2846    3.6040 H   0  0  0  0  0  0  0  0  0  0  0  0
    0.9832   -0.1447    3.4571 H   0  0  0  0  0  0  0  0  0  0  0  0
  1  2  1  0  0  0  0
  2  3  1  0  0  0  0
  2  4  1  0  0  0  0
  2  5  1  0  0  0  0
  5  6  2  0  0  0  0
  5  7  1  0  0  0  0
  7  8  1  0  0  0  0
  7  9  1  0  0  0  0
  9 10  1  0  0  0  0
  9 11  1  0  0  0  0
  9 17  1  0  0  0  0
 11 12  1  0  0  0  0
 11 13  1  0  0  0  0
 11 14  1  0  0  0  0
 14 15  1  0  0  0  0
 14 16  2  0  0  0  0
 17 18  2  0  0  0  0
 17 19  1  0  0  0  0
 19 20  1  0  0  0  0
 19 21  1  0  0  0  0
 21 22  1  0  0  0  0
 21 23  1  0  0  0  0
 21 24  1  0  0  0  0
M  CHG  1  15  -1
M  END
$$$$

  -OEChem-03222214023D

 24 23  0     1  0  0  0  0  0999 V2000
   -2.4967   -3.5169   -0.3412 H   0  0  0  0  0  0  0  0  0  0  0  0
   -2.3893   -2.5376   -0.8165 C   0  0  0  0  0  0  0  0  0  0  0  0
   -3.2566   -1.9244   -0.5605 H   0  0  0  0  0  0  0  0  0  0  0  0
   -2.3556   -2.6752   -1.9003 H   0  0  0  0  0  0  0  0  0  0  0  0
   -1.1156   -1.8604   -0.3421 C   0  0  0  0  0  0  0  0  0  0  0  0
   -0.4204   -2.4170    0.4895 O   0  0  0  0  0  0  0  0  0  0  0  0
   -0.8024   -0.6109   -0.8343 N   0  0  0  0  0  0  0  0  0  0  0  0
   -1.3596   -0.3254   -1.6332 H   0  0  0  0  0  0  0  0  0  0  0  0
    0.5444   -0.0154   -0.7900 C   0  0  1  0  0  0  0  0  0  0  0  0
    1.2386   -0.6599   -1.3414 H   0  0  0  0  0  0  0  0  0  0  0  0
    0.4085    1.3698   -1.4766 C   0  0  0  0  0  0  0  0  0  0  0  0
   -0.6214    1.5550   -1.7918 H   0  0  0  0  0  0  0  0  0  0  0  0
    0.6754    2.1632   -0.7719 H   0  0  0  0  0  0  0  0  0  0  0  0
    1.2951    1.5113   -2.7073 C   0  0  0  0  0  0  0  0  0  0  0  0
    1.3145    0.5492   -3.5151 O   0  5  0  0  0  0  0  0  0  0  0  0
    1.8361    2.6250   -2.9062 O   0  0  0  0  0  0  0  0  0  0  0  0
    1.1202    0.1560    0.6388 C   0  0  0  0  0  0  0  0  0  0  0  0
    2.3035   -0.0527    0.8833 O   0  0  0  0  0  0  0  0  0  0  0  0
    0.3124    0.6722    1.6378 N   0  0  0  0  0  0  0  0  0  0  0  0
   -0.6752    0.7309    1.4172 H   0  0  0  0  0  0  0  0  0  0  0  0
    0.7407    0.8104    3.0209 C   0  0  0  0  0  0  0  0  0  0  0  0
    1.6130    1.4686    3.0873 H   0  0  0  0  0  0  0  0  0  0  0  0
   -0.0642    1.2435    3.6217 H   0  0  0  0  0  0  0  0  0  0  0  0
    1.0007   -0.1675    3.4387 H   0  0  0  0  0  0  0  0  0  0  0  0
  1  2  1  0  0  0  0
  2  3  1  0  0  0  0
  2  4  1  0  0  0  0
  2  5  1  0  0  0  0
  5  6  2  0  0  0  0
  5  7  1  0  0  0  0
  7  8  1  0  0  0  0
  7  9  1  0  0  0  0
  9 10  1  0  0  0  0
  9 11  1  0  0  0  0
  9 17  1  0  0  0  0
 11 12  1  0  0  0  0
 11 13  1  0  0  0  0
 11 14  1  0  0  0  0
 14 15  1  0  0  0  0
 14 16  2  0  0  0  0
 17 18  2  0  0  0  0
 17 19  1  0  0  0  0
 19 20  1  0  0  0  0
 19 21  1  0  0  0  0
 21 22  1  0  0  0  0
 21 23  1  0  0  0  0
 21 24  1  0  0  0  0
M  CHG  1  15  -1
M  END
$$$$

  -OEChem-03222214023D

 24 23  0     1  0  0  0  0  0999 V2000
   -2.4939   -3.5128   -0.3483 H   0  0  0  0  0  0  0  0  0  0  0  0
   -2.3841   -2.5342   -0.8243 C   0  0  0  0  0  0  0  0  0  0  0  0
   -3.2511   -1.9194   -0.5712 H   0  0  0  0  0  0  0  0  0  0  0  0
   -2.3479   -2.6730   -1.9080 H   0  0  0  0  0  0  0  0  0  0  0  0
   -1.1111   -1.8579   -0.3474 C   0  0  0  0  0  0  0  0  0  0  0  0
   -0.4149   -2.4156    0.4827 O   0  0  0  0  0  0  0  0  0  0  0  0
   -0.8005   -0.6062   -0.8348 N   0  0  0  0  0  0  0  0  0  0  0  0
   -1.3563   -0.3202   -1.6350 H   0  0  0  0  0  0  0  0  0  0  0  0
    0.5437   -0.0065   -0.7881 C   0  0  1  0  0  0  0  0  0  0  0  0
    1.2396   -0.6426   -1.3481 H   0  0  0  0  0  0  0  0  0  0  0  0
    0.3949    1.3748   -1.4744 C   0  0  0  0  0  0  0  0  0  0  0  0
   -0.6342    1.5569   -1.7946 H   0  0  0  0  0  0  0  0  0  0  0  0
    0.6592    2.1744   -0.7758 H   0  0  0  0  0  0  0  0  0  0  0  0
    1.2901    1.4879   -2.6983 C   0  0  0  0  0  0  0  0  0  0  0  0
    1.0848    0.6498   -3.6119 O   0  5  0  0  0  0  0  0  0  0  0  0
    2.0673    2.4678   -2.7821 O   0  0  0  0  0  0  0  0  0  0  0  0
    1.1208    0.1631    0.6399 C   0  0  0  0  0  0  0  0  0  0  0  0
    2.3022   -0.0552    0.8843 O   0  0  0  0  0  0  0  0  0  0  0  0
    0.3126    0.6740    1.6411 N   0  0  0  0  0  0  0  0  0  0  0  0
   -0.6755    0.7295    1.4220 H   0  0  0  0  0  0  0  0  0  0  0  0
    0.7429    0.8099    3.0237 C   0  0  0  0  0  0  0  0  0  0  0  0
    1.6198    1.4621    3.0883 H   0  0  0  0  0  0  0  0  0  0  0  0
   -0.0586    1.2488    3.6248 H   0  0  0  0  0  0  0  0  0  0  0  0
    0.9967   -0.1695    3.4419 H   0  0  0  0  0  0  0  0  0  0  0  0
  1  2  1  0  0  0  0
  2  3  1  0  0  0  0
  2  4  1  0  0  0  0
  2  5  1  0  0  0  0
  5  6  2  0  0  0  0
  5  7  1  0  0  0  0
  7  8  1  0  0  0  0
  7  9  1  0  0  0  0
  9 10  1  0  0  0  0
  9 11  1  0  0  0  0
  9 17  1  0  0  0  0
 11 12  1  0  0  0  0
 11 13  1  0  0  0  0
 11 14  1  0  0  0  0
 14 15  1  0  0  0  0
 14 16  2  0  0  0  0
 17 18  2  0  0  0  0
 17 19  1  0  0  0  0
 19 20  1  0  0  0  0
 19 21  1  0  0  0  0
 21 22  1  0  0  0  0
 21 23  1  0  0  0  0
 21 24  1  0  0  0  0
M  CHG  1  15  -1
M  END
$$$$

  -OEChem-03222214023D

 24 23  0     1  0  0  0  0  0999 V2000
   -2.4823   -3.5171   -0.3545 H   0  0  0  0  0  0  0  0  0  0  0  0
   -2.3834   -2.5302   -0.8154 C   0  0  0  0  0  0  0  0  0  0  0  0
   -3.2461   -1.9215   -0.5340 H   0  0  0  0  0  0  0  0  0  0  0  0
   -2.3695   -2.6502   -1.9017 H   0  0  0  0  0  0  0  0  0  0  0  0
   -1.1015   -1.8603   -0.3527 C   0  0  0  0  0  0  0  0  0  0  0  0
   -0.3932   -2.4279    0.4599 O   0  0  0  0  0  0  0  0  0  0  0  0
   -0.7911   -0.6078   -0.8389 N   0  0  0  0  0  0  0  0  0  0  0  0
   -1.3543   -0.3131   -1.6309 H   0  0  0  0  0  0  0  0  0  0  0  0
    0.5507   -0.0026   -0.7909 C   0  0  1  0  0  0  0  0  0  0  0  0
    1.2501   -0.6323   -1.3540 H   0  0  0  0  0  0  0  0  0  0  0  0
    0.3879    1.3741   -1.4791 C   0  0  0  0  0  0  0  0  0  0  0  0
   -0.6432    1.5537   -1.7952 H   0  0  0  0  0  0  0  0  0  0  0  0
    0.6530    2.1786   -0.7866 H   0  0  0  0  0  0  0  0  0  0  0  0
    1.2851    1.4772   -2.7004 C   0  0  0  0  0  0  0  0  0  0  0  0
    0.9019    0.8346   -3.7099 O   0  5  0  0  0  0  0  0  0  0  0  0
    2.2619    2.2612   -2.6728 O   0  0  0  0  0  0  0  0  0  0  0  0
    1.1248    0.1696    0.6386 C   0  0  0  0  0  0  0  0  0  0  0  0
    2.3004   -0.0674    0.8930 O   0  0  0  0  0  0  0  0  0  0  0  0
    0.3122    0.6779    1.6378 N   0  0  0  0  0  0  0  0  0  0  0  0
   -0.6726    0.7515    1.4096 H   0  0  0  0  0  0  0  0  0  0  0  0
    0.7333    0.8064    3.0240 C   0  0  0  0  0  0  0  0  0  0  0  0
    1.6188    1.4461    3.0968 H   0  0  0  0  0  0  0  0  0  0  0  0
   -0.0666    1.2563    3.6192 H   0  0  0  0  0  0  0  0  0  0  0  0
    0.9696   -0.1768    3.4432 H   0  0  0  0  0  0  0  0  0  0  0  0
  1  2  1  0  0  0  0
  2  3  1  0  0  0  0
  2  4  1  0  0  0  0
  2  5  1  0  0  0  0
  5  6  2  0  0  0  0
  5  7  1  0  0  0  0
  7  8  1  0  0  0  0
  7  9  1  0  0  0  0
  9 10  1  0  0  0  0
  9 11  1  0  0  0  0
  9 17  1  0  0  0  0
 11 12  1  0  0  0  0
 11 13  1  0  0  0  0
 11 14  1  0  0  0  0
 14 15  1  0  0  0  0
 14 16  2  0  0  0  0
 17 18  2  0  0  0  0
 17 19  1  0  0  0  0
 19 20  1  0  0  0  0
 19 21  1  0  0  0  0
 21 22  1  0  0  0  0
 21 23  1  0  0  0  0
 21 24  1  0  0  0  0
M  CHG  1  15  -1
M  END
$$$$

  -OEChem-03222214023D

 24 23  0     1  0  0  0  0  0999 V2000
   -2.4795   -3.5066   -0.3310 H   0  0  0  0  0  0  0  0  0  0  0  0
   -2.3798   -2.5214   -0.7953 C   0  0  0  0  0  0  0  0  0  0  0  0
   -3.2343   -1.9060   -0.5042 H   0  0  0  0  0  0  0  0  0  0  0  0
   -2.3804   -2.6437   -1.8815 H   0  0  0  0  0  0  0  0  0  0  0  0
   -1.0874   -1.8600   -0.3506 C   0  0  0  0  0  0  0  0  0  0  0  0
   -0.3666   -2.4358    0.4449 O   0  0  0  0  0  0  0  0  0  0  0  0
   -0.7771   -0.6095   -0.8413 N   0  0  0  0  0  0  0  0  0  0  0  0
   -1.3570   -0.3022   -1.6165 H   0  0  0  0  0  0  0  0  0  0  0  0
    0.5628    0.0009   -0.7971 C   0  0  1  0  0  0  0  0  0  0  0  0
    1.2675   -0.6235   -1.3590 H   0  0  0  0  0  0  0  0  0  0  0  0
    0.3852    1.3731   -1.4890 C   0  0  0  0  0  0  0  0  0  0  0  0
   -0.6502    1.5480   -1.7951 H   0  0  0  0  0  0  0  0  0  0  0  0
    0.6520    2.1821   -0.8028 H   0  0  0  0  0  0  0  0  0  0  0  0
    1.2761    1.4792   -2.7145 C   0  0  0  0  0  0  0  0  0  0  0  0
    0.7637    1.0851   -3.7918 O   0  5  0  0  0  0  0  0  0  0  0  0
    2.4092    2.0002   -2.6034 O   0  0  0  0  0  0  0  0  0  0  0  0
    1.1316    0.1792    0.6341 C   0  0  0  0  0  0  0  0  0  0  0  0
    2.2986   -0.0811    0.9043 O   0  0  0  0  0  0  0  0  0  0  0  0
    0.3122    0.6881    1.6276 N   0  0  0  0  0  0  0  0  0  0  0  0
   -0.6684    0.7757    1.3874 H   0  0  0  0  0  0  0  0  0  0  0  0
    0.7147    0.7917    3.0213 C   0  0  0  0  0  0  0  0  0  0  0  0
    1.6007    1.4277    3.1172 H   0  0  0  0  0  0  0  0  0  0  0  0
   -0.0926    1.2329    3.6129 H   0  0  0  0  0  0  0  0  0  0  0  0
    0.9430   -0.1993    3.4266 H   0  0  0  0  0  0  0  0  0  0  0  0
  1  2  1  0  0  0  0
  2  3  1  0  0  0  0
  2  4  1  0  0  0  0
  2  5  1  0  0  0  0
  5  6  2  0  0  0  0
  5  7  1  0  0  0  0
  7  8  1  0  0  0  0
  7  9  1  0  0  0  0
  9 10  1  0  0  0  0
  9 11  1  0  0  0  0
  9 17  1  0  0  0  0
 11 12  1  0  0  0  0
 11 13  1  0  0  0  0
 11 14  1  0  0  0  0
 14 15  1  0  0  0  0
 14 16  2  0  0  0  0
 17 18  2  0  0  0  0
 17 19  1  0  0  0  0
 19 20  1  0  0  0  0
 19 21  1  0  0  0  0
 21 22  1  0  0  0  0
 21 23  1  0  0  0  0
 21 24  1  0  0  0  0
M  CHG  1  15  -1
M  END
$$$$

  -OEChem-03222214023D

 24 23  0     1  0  0  0  0  0999 V2000
   -2.4574   -3.5248   -0.3615 H   0  0  0  0  0  0  0  0  0  0  0  0
   -2.3818   -2.5179   -0.7814 C   0  0  0  0  0  0  0  0  0  0  0  0
   -3.2275   -1.9236   -0.4275 H   0  0  0  0  0  0  0  0  0  0  0  0
   -2.4251   -2.5888   -1.8713 H   0  0  0  0  0  0  0  0  0  0  0  0
   -1.0768   -1.8686   -0.3557 C   0  0  0  0  0  0  0  0  0  0  0  0
   -0.3488   -2.4524    0.4270 O   0  0  0  0  0  0  0  0  0  0  0  0
   -0.7647   -0.6186   -0.8471 N   0  0  0  0  0  0  0  0  0  0  0  0
   -1.3581   -0.2967   -1.6058 H   0  0  0  0  0  0  0  0  0  0  0  0
    0.5733   -0.0031   -0.8019 C   0  0  1  0  0  0  0  0  0  0  0  0
    1.2838   -0.6228   -1.3616 H   0  0  0  0  0  0  0  0  0  0  0  0
    0.3869    1.3681   -1.4944 C   0  0  0  0  0  0  0  0  0  0  0  0
   -0.6521    1.5392   -1.7911 H   0  0  0  0  0  0  0  0  0  0  0  0
    0.6548    2.1777   -0.8096 H   0  0  0  0  0  0  0  0  0  0  0  0
    1.2731    1.4896   -2.7230 C   0  0  0  0  0  0  0  0  0  0  0  0
    0.6894    1.3813   -3.8299 O   0  5  0  0  0  0  0  0  0  0  0  0
    2.4966    1.7064   -2.5734 O   0  0  0  0  0  0  0  0  0  0  0  0
    1.1344    0.1786    0.6328 C   0  0  0  0  0  0  0  0  0  0  0  0
    2.2973   -0.0862    0.9155 O   0  0  0  0  0  0  0  0  0  0  0  0
    0.3072    0.6861    1.6212 N   0  0  0  0  0  0  0  0  0  0  0  0
   -0.6716    0.7739    1.3742 H   0  0  0  0  0  0  0  0  0  0  0  0
    0.7017    0.7956    3.0173 C   0  0  0  0  0  0  0  0  0  0  0  0
    1.6011    1.4123    3.1141 H   0  0  0  0  0  0  0  0  0  0  0  0
   -0.0994    1.2612    3.5985 H   0  0  0  0  0  0  0  0  0  0  0  0
    0.9048   -0.1958    3.4346 H   0  0  0  0  0  0  0  0  0  0  0  0
  1  2  1  0  0  0  0
  2  3  1  0  0  0  0
  2  4  1  0  0  0  0
  2  5  1  0  0  0  0
  5  6  2  0  0  0  0
  5  7  1  0  0  0  0
  7  8  1  0  0  0  0
  7  9  1  0  0  0  0
  9 10  1  0  0  0  0
  9 11  1  0  0  0  0
  9 17  1  0  0  0  0
 11 12  1  0  0  0  0
 11 13  1  0  0  0  0
 11 14  1  0  0  0  0
 14 15  1  0  0  0  0
 14 16  2  0  0  0  0
 17 18  2  0  0  0  0
 17 19  1  0  0  0  0
 19 20  1  0  0  0  0
 19 21  1  0  0  0  0
 21 22  1  0  0  0  0
 21 23  1  0  0  0  0
 21 24  1  0  0  0  0
M  CHG  1  15  -1
M  END
$$$$

  -OEChem-03222214023D

 24 23  0     1  0  0  0  0  0999 V2000
   -2.4594   -3.5203   -0.3454 H   0  0  0  0  0  0  0  0  0  0  0  0
   -2.3832   -2.5114   -0.7608 C   0  0  0  0  0  0  0  0  0  0  0  0
   -3.2179   -1.9124   -0.3885 H   0  0  0  0  0  0  0  0  0  0  0  0
   -2.4464   -2.5746   -1.8501 H   0  0  0  0  0  0  0  0  0  0  0  0
   -1.0658   -1.8747   -0.3550 C   0  0  0  0  0  0  0  0  0  0  0  0
   -0.3311   -2.4658    0.4156 O   0  0  0  0  0  0  0  0  0  0  0  0
   -0.7514   -0.6267   -0.8500 N   0  0  0  0  0  0  0  0  0  0  0  0
   -1.3586   -0.2920   -1.5915 H   0  0  0  0  0  0  0  0  0  0  0  0
    0.5861   -0.0086   -0.8073 C   0  0  1  0  0  0  0  0  0  0  0  0
    1.2994   -0.6274   -1.3644 H   0  0  0  0  0  0  0  0  0  0  0  0
    0.3968    1.3643   -1.4992 C   0  0  0  0  0  0  0  0  0  0  0  0
   -0.6455    1.5318   -1.7865 H   0  0  0  0  0  0  0  0  0  0  0  0
    0.6650    2.1725   -0.8134 H   0  0  0  0  0  0  0  0  0  0  0  0
    1.2735    1.5088   -2.7346 C   0  0  0  0  0  0  0  0  0  0  0  0
    0.6656    1.7022   -3.8166 O   0  5  0  0  0  0  0  0  0  0  0  0
    2.5159    1.4141   -2.6175 O   0  0  0  0  0  0  0  0  0  0  0  0
    1.1401    0.1761    0.6301 C   0  0  0  0  0  0  0  0  0  0  0  0
    2.3008   -0.0849    0.9248 O   0  0  0  0  0  0  0  0  0  0  0  0
    0.3039    0.6842    1.6106 N   0  0  0  0  0  0  0  0  0  0  0  0
   -0.6726    0.7700    1.3542 H   0  0  0  0  0  0  0  0  0  0  0  0
    0.6832    0.7886    3.0111 C   0  0  0  0  0  0  0  0  0  0  0  0
    1.5806    1.4062    3.1193 H   0  0  0  0  0  0  0  0  0  0  0  0
   -0.1246    1.2516    3.5852 H   0  0  0  0  0  0  0  0  0  0  0  0
    0.8830   -0.2042    3.4270 H   0  0  0  0  0  0  0  0  0  0  0  0
  1  2  1  0  0  0  0
  2  3  1  0  0  0  0
  2  4  1  0  0  0  0
  2  5  1  0  0  0  0
  5  6  2  0  0  0  0
  5  7  1  0  0  0  0
  7  8  1  0  0  0  0
  7  9  1  0  0  0  0
  9 10  1  0  0  0  0
  9 11  1  0  0  0  0
  9 17  1  0  0  0  0
 11 12  1  0  0  0  0
 11 13  1  0  0  0  0
 11 14  1  0  0  0  0
 14 15  1  0  0  0  0
 14 16  2  0  0  0  0
 17 18  2  0  0  0  0
 17 19  1  0  0  0  0
 19 20  1  0  0  0  0
 19 21  1  0  0  0  0
 21 22  1  0  0  0  0
 21 23  1  0  0  0  0
 21 24  1  0  0  0  0
M  CHG  1  15  -1
M  END
$$$$

  -OEChem-03222214023D

 24 23  0     1  0  0  0  0  0999 V2000
   -2.4712   -3.5185   -0.3318 H   0  0  0  0  0  0  0  0  0  0  0  0
   -2.3906   -2.5120   -0.7522 C   0  0  0  0  0  0  0  0  0  0  0  0
   -3.2173   -1.9048   -0.3756 H   0  0  0  0  0  0  0  0  0  0  0  0
   -2.4628   -2.5800   -1.8406 H   0  0  0  0  0  0  0  0  0  0  0  0
   -1.0655   -1.8838   -0.3587 C   0  0  0  0  0  0  0  0  0  0  0  0
   -0.3292   -2.4797    0.4065 O   0  0  0  0  0  0  0  0  0  0  0  0
   -0.7472   -0.6369   -0.8543 N   0  0  0  0  0  0  0  0  0  0  0  0
   -1.3591   -0.2935   -1.5874 H   0  0  0  0  0  0  0  0  0  0  0  0
    0.5916   -0.0208   -0.8090 C   0  0  1  0  0  0  0  0  0  0  0  0
    1.3030   -0.6462   -1.3609 H   0  0  0  0  0  0  0  0  0  0  0  0
    0.4115    1.3570   -1.4991 C   0  0  0  0  0  0  0  0  0  0  0  0
   -0.6317    1.5230   -1.7836 H   0  0  0  0  0  0  0  0  0  0  0  0
    0.6766    2.1602   -0.8063 H   0  0  0  0  0  0  0  0  0  0  0  0
    1.2816    1.5324   -2.7381 C   0  0  0  0  0  0  0  0  0  0  0  0
    0.7053    2.0258   -3.7389 O   0  5  0  0  0  0  0  0  0  0  0  0
    2.4740    1.1518   -2.7169 O   0  0  0  0  0  0  0  0  0  0  0  0
    1.1398    0.1636    0.6309 C   0  0  0  0  0  0  0  0  0  0  0  0
    2.3039   -0.0791    0.9278 O   0  0  0  0  0  0  0  0  0  0  0  0
    0.2996    0.6735    1.6073 N   0  0  0  0  0  0  0  0  0  0  0  0
   -0.6772    0.7524    1.3495 H   0  0  0  0  0  0  0  0  0  0  0  0
    0.6774    0.7951    3.0068 C   0  0  0  0  0  0  0  0  0  0  0  0
    1.5697    1.4211    3.1095 H   0  0  0  0  0  0  0  0  0  0  0  0
   -0.1345    1.2569    3.5760 H   0  0  0  0  0  0  0  0  0  0  0  0
    0.8849   -0.1920    3.4323 H   0  0  0  0  0  0  0  0  0  0  0  0
  1  2  1  0  0  0  0
  2  3  1  0  0  0  0
  2  4  1  0  0  0  0
  2  5  1  0  0  0  0
  5  6  2  0  0  0  0
  5  7  1  0  0  0  0
  7  8  1  0  0  0  0
  7  9  1  0  0  0  0
  9 10  1  0  0  0  0
  9 11  1  0  0  0  0
  9 17  1  0  0  0  0
 11 12  1  0  0  0  0
 11 13  1  0  0  0  0
 11 14  1  0  0  0  0
 14 15  1  0  0  0  0
 14 16  2  0  0  0  0
 17 18  2  0  0  0  0
 17 19  1  0  0  0  0
 19 20  1  0  0  0  0
 19 21  1  0  0  0  0
 21 22  1  0  0  0  0
 21 23  1  0  0  0  0
 21 24  1  0  0  0  0
M  CHG  1  15  -1
M  END
$$$$

  -OEChem-03222214023D

 24 23  0     1  0  0  0  0  0999 V2000
   -2.4885   -3.5191   -0.3265 H   0  0  0  0  0  0  0  0  0  0  0  0
   -2.3977   -2.5198   -0.7620 C   0  0  0  0  0  0  0  0  0  0  0  0
   -3.2299   -1.9045   -0.4113 H   0  0  0  0  0  0  0  0  0  0  0  0
   -2.4498   -2.6065   -1.8503 H   0  0  0  0  0  0  0  0  0  0  0  0
   -1.0780   -1.8880   -0.3555 C   0  0  0  0  0  0  0  0  0  0  0  0
   -0.3486   -2.4803    0.4192 O   0  0  0  0  0  0  0  0  0  0  0  0
   -0.7554   -0.6424   -0.8515 N   0  0  0  0  0  0  0  0  0  0  0  0
   -1.3634   -0.2993   -1.5875 H   0  0  0  0  0  0  0  0  0  0  0  0
    0.5867   -0.0330   -0.8038 C   0  0  1  0  0  0  0  0  0  0  0  0
    1.2907   -0.6720   -1.3483 H   0  0  0  0  0  0  0  0  0  0  0  0
    0.4244    1.3484   -1.4961 C   0  0  0  0  0  0  0  0  0  0  0  0
   -0.6171    1.5178   -1.7843 H   0  0  0  0  0  0  0  0  0  0  0  0
    0.6863    2.1464   -0.7960 H   0  0  0  0  0  0  0  0  0  0  0  0
    1.2906    1.5491   -2.7371 C   0  0  0  0  0  0  0  0  0  0  0  0
    0.8045    2.3125   -3.6073 O   0  5  0  0  0  0  0  0  0  0  0  0
    2.3663    0.9200   -2.8641 O   0  0  0  0  0  0  0  0  0  0  0  0
    1.1361    0.1502    0.6354 C   0  0  0  0  0  0  0  0  0  0  0  0
    2.3066   -0.0708    0.9241 O   0  0  0  0  0  0  0  0  0  0  0  0
    0.2995    0.6650    1.6121 N   0  0  0  0  0  0  0  0  0  0  0  0
   -0.6785    0.7434    1.3584 H   0  0  0  0  0  0  0  0  0  0  0  0
    0.6870    0.8077    3.0069 C   0  0  0  0  0  0  0  0  0  0  0  0
    1.5680    1.4514    3.0960 H   0  0  0  0  0  0  0  0  0  0  0  0
   -0.1288    1.2599    3.5783 H   0  0  0  0  0  0  0  0  0  0  0  0
    0.9169   -0.1707    3.4408 H   0  0  0  0  0  0  0  0  0  0  0  0
  1  2  1  0  0  0  0
  2  3  1  0  0  0  0
  2  4  1  0  0  0  0
  2  5  1  0  0  0  0
  5  6  2  0  0  0  0
  5  7  1  0  0  0  0
  7  8  1  0  0  0  0
  7  9  1  0  0  0  0
  9 10  1  0  0  0  0
  9 11  1  0  0  0  0
  9 17  1  0  0  0  0
 11 12  1  0  0  0  0
 11 13  1  0  0  0  0
 11 14  1  0  0  0  0
 14 15  1  0  0  0  0
 14 16  2  0  0  0  0
 17 18  2  0  0  0  0
 17 19  1  0  0  0  0
 19 20  1  0  0  0  0
 19 21  1  0  0  0  0
 21 22  1  0  0  0  0
 21 23  1  0  0  0  0
 21 24  1  0  0  0  0
M  CHG  1  15  -1
M  END
$$$$

  -OEChem-03222214023D

 24 23  0     1  0  0  0  0  0999 V2000
   -2.4966   -3.5237   -0.3335 H   0  0  0  0  0  0  0  0  0  0  0  0
   -2.4020   -2.5271   -0.7738 C   0  0  0  0  0  0  0  0  0  0  0  0
   -3.2408   -1.9121   -0.4390 H   0  0  0  0  0  0  0  0  0  0  0  0
   -2.4382   -2.6200   -1.8622 H   0  0  0  0  0  0  0  0  0  0  0  0
   -1.0899   -1.8898   -0.3515 C   0  0  0  0  0  0  0  0  0  0  0  0
   -0.3721   -2.4736    0.4406 O   0  0  0  0  0  0  0  0  0  0  0  0
   -0.7640   -0.6457   -0.8490 N   0  0  0  0  0  0  0  0  0  0  0  0
   -1.3595   -0.3135   -1.5998 H   0  0  0  0  0  0  0  0  0  0  0  0
    0.5804   -0.0425   -0.7985 C   0  0  1  0  0  0  0  0  0  0  0  0
    1.2802   -0.6926   -1.3342 H   0  0  0  0  0  0  0  0  0  0  0  0
    0.4339    1.3416   -1.4927 C   0  0  0  0  0  0  0  0  0  0  0  0
   -0.6051    1.5166   -1.7859 H   0  0  0  0  0  0  0  0  0  0  0  0
    0.6946    2.1347   -0.7865 H   0  0  0  0  0  0  0  0  0  0  0  0
    1.2989    1.5592   -2.7334 C   0  0  0  0  0  0  0  0  0  0  0  0
    0.9638    2.5393   -3.4425 O   0  5  0  0  0  0  0  0  0  0  0  0
    2.1868    0.7307   -3.0431 O   0  0  0  0  0  0  0  0  0  0  0  0
    1.1307    0.1410    0.6401 C   0  0  0  0  0  0  0  0  0  0  0  0
    2.3073   -0.0606    0.9189 O   0  0  0  0  0  0  0  0  0  0  0  0
    0.2991    0.6606    1.6182 N   0  0  0  0  0  0  0  0  0  0  0  0
   -0.6818    0.7274    1.3731 H   0  0  0  0  0  0  0  0  0  0  0  0
    0.6981    0.8214    3.0078 C   0  0  0  0  0  0  0  0  0  0  0  0
    1.5746    1.4733    3.0812 H   0  0  0  0  0  0  0  0  0  0  0  0
   -0.1157    1.2725    3.5828 H   0  0  0  0  0  0  0  0  0  0  0  0
    0.9405   -0.1505    3.4492 H   0  0  0  0  0  0  0  0  0  0  0  0
  1  2  1  0  0  0  0
  2  3  1  0  0  0  0
  2  4  1  0  0  0  0
  2  5  1  0  0  0  0
  5  6  2  0  0  0  0
  5  7  1  0  0  0  0
  7  8  1  0  0  0  0
  7  9  1  0  0  0  0
  9 10  1  0  0  0  0
  9 11  1  0  0  0  0
  9 17  1  0  0  0  0
 11 12  1  0  0  0  0
 11 13  1  0  0  0  0
 11 14  1  0  0  0  0
 14 15  1  0  0  0  0
 14 16  2  0  0  0  0
 17 18  2  0  0  0  0
 17 19  1  0  0  0  0
 19 20  1  0  0  0  0
 19 21  1  0  0  0  0
 21 22  1  0  0  0  0
 21 23  1  0  0  0  0
 21 24  1  0  0  0  0
M  CHG  1  15  -1
M  END
$$$$

  -OEChem-03222214023D

 24 23  0     1  0  0  0  0  0999 V2000
   -2.5171   -3.5069   -0.3061 H   0  0  0  0  0  0  0  0  0  0  0  0
   -2.3906   -2.5402   -0.8017 C   0  0  0  0  0  0  0  0  0  0  0  0
   -3.2500   -1.9080   -0.5660 H   0  0  0  0  0  0  0  0  0  0  0  0
   -2.3509   -2.7017   -1.8821 H   0  0  0  0  0  0  0  0  0  0  0  0
   -1.1105   -1.8720   -0.3321 C   0  0  0  0  0  0  0  0  0  0  0  0
   -0.4255   -2.4236    0.5117 O   0  0  0  0  0  0  0  0  0  0  0  0
   -0.7818   -0.6331   -0.8406 N   0  0  0  0  0  0  0  0  0  0  0  0
   -1.3332   -0.3523   -1.6458 H   0  0  0  0  0  0  0  0  0  0  0  0
    0.5691   -0.0478   -0.7986 C   0  0  1  0  0  0  0  0  0  0  0  0
    1.2748   -0.6942   -1.3315 H   0  0  0  0  0  0  0  0  0  0  0  0
    0.4338    1.3422   -1.4766 C   0  0  0  0  0  0  0  0  0  0  0  0
   -0.6093    1.6697   -1.4936 H   0  0  0  0  0  0  0  0  0  0  0  0
    0.9852    2.0816   -0.8885 H   0  0  0  0  0  0  0  0  0  0  0  0
    0.9938    1.4299   -2.8944 C   0  0  0  0  0  0  0  0  0  0  0  0
    0.8877    2.5521   -3.4448 O   0  5  0  0  0  0  0  0  0  0  0  0
    1.3318    0.3776   -3.4894 O   0  0  0  0  0  0  0  0  0  0  0  0
    1.1239    0.1339    0.6375 C   0  0  0  0  0  0  0  0  0  0  0  0
    2.3099   -0.0453    0.8944 O   0  0  0  0  0  0  0  0  0  0  0  0
    0.3040    0.6673    1.6174 N   0  0  0  0  0  0  0  0  0  0  0  0
   -0.6820    0.7114    1.3855 H   0  0  0  0  0  0  0  0  0  0  0  0
    0.7155    0.8309    3.0028 C   0  0  0  0  0  0  0  0  0  0  0  0
    1.5810    1.4980    3.0686 H   0  0  0  0  0  0  0  0  0  0  0  0
   -0.1001    1.2654    3.5880 H   0  0  0  0  0  0  0  0  0  0  0  0
    0.9800   -0.1378    3.4387 H   0  0  0  0  0  0  0  0  0  0  0  0
  1  2  1  0  0  0  0
  2  3  1  0  0  0  0
  2  4  1  0  0  0  0
  2  5  1  0  0  0  0
  5  6  2  0  0  0  0
  5  7  1  0  0  0  0
  7  8  1  0  0  0  0
  7  9  1  0  0  0  0
  9 10  1  0  0  0  0
  9 11  1  0  0  0  0
  9 17  1  0  0  0  0
 11 12  1  0  0  0  0
 11 13  1  0  0  0  0
 11 14  1  0  0  0  0
 14 15  1  0  0  0  0
 14 16  2  0  0  0  0
 17 18  2  0  0  0  0
 17 19  1  0  0  0  0
 19 20  1  0  0  0  0
 19 21  1  0  0  0  0
 21 22  1  0  0  0  0
 21 23  1  0  0  0  0
 21 24  1  0  0  0  0
M  CHG  1  15  -1
M  END
$$$$

  -OEChem-03222214023D

 24 23  0     1  0  0  0  0  0999 V2000
   -2.4892   -3.5228   -0.3431 H   0  0  0  0  0  0  0  0  0  0  0  0
   -2.3805   -2.5440   -0.8187 C   0  0  0  0  0  0  0  0  0  0  0  0
   -3.2568   -1.9362   -0.5810 H   0  0  0  0  0  0  0  0  0  0  0  0
   -2.3257   -2.6843   -1.9013 H   0  0  0  0  0  0  0  0  0  0  0  0
   -1.1211   -1.8560   -0.3229 C   0  0  0  0  0  0  0  0  0  0  0  0
   -0.4503   -2.3925    0.5421 O   0  0  0  0  0  0  0  0  0  0  0  0
   -0.7958   -0.6167   -0.8317 N   0  0  0  0  0  0  0  0  0  0  0  0
   -1.3279   -0.3578   -1.6575 H   0  0  0  0  0  0  0  0  0  0  0  0
    0.5564   -0.0361   -0.7935 C   0  0  1  0  0  0  0  0  0  0  0  0
    1.2577   -0.6818   -1.3339 H   0  0  0  0  0  0  0  0  0  0  0  0
    0.4243    1.3511   -1.4743 C   0  0  0  0  0  0  0  0  0  0  0  0
   -0.6156    1.6872   -1.4981 H   0  0  0  0  0  0  0  0  0  0  0  0
    0.9820    2.0905   -0.8916 H   0  0  0  0  0  0  0  0  0  0  0  0
    0.9891    1.4023   -2.8902 C   0  0  0  0  0  0  0  0  0  0  0  0
    1.1764    2.5444   -3.3730 O   0  5  0  0  0  0  0  0  0  0  0  0
    1.0237    0.3350   -3.5523 O   0  0  0  0  0  0  0  0  0  0  0  0
    1.1204    0.1423    0.6389 C   0  0  0  0  0  0  0  0  0  0  0  0
    2.3087   -0.0382    0.8844 O   0  0  0  0  0  0  0  0  0  0  0  0
    0.3084    0.6768    1.6245 N   0  0  0  0  0  0  0  0  0  0  0  0
   -0.6807    0.7059    1.4031 H   0  0  0  0  0  0  0  0  0  0  0  0
    0.7281    0.8273    3.0089 C   0  0  0  0  0  0  0  0  0  0  0  0
    1.6034    1.4816    3.0742 H   0  0  0  0  0  0  0  0  0  0  0  0
   -0.0787    1.2710    3.5993 H   0  0  0  0  0  0  0  0  0  0  0  0
    0.9799   -0.1475    3.4391 H   0  0  0  0  0  0  0  0  0  0  0  0
  1  2  1  0  0  0  0
  2  3  1  0  0  0  0
  2  4  1  0  0  0  0
  2  5  1  0  0  0  0
  5  6  2  0  0  0  0
  5  7  1  0  0  0  0
  7  8  1  0  0  0  0
  7  9  1  0  0  0  0
  9 10  1  0  0  0  0
  9 11  1  0  0  0  0
  9 17  1  0  0  0  0
 11 12  1  0  0  0  0
 11 13  1  0  0  0  0
 11 14  1  0  0  0  0
 14 15  1  0  0  0  0
 14 16  2  0  0  0  0
 17 18  2  0  0  0  0
 17 19  1  0  0  0  0
 19 20  1  0  0  0  0
 19 21  1  0  0  0  0
 21 22  1  0  0  0  0
 21 23  1  0  0  0  0
 21 24  1  0  0  0  0
M  CHG  1  15  -1
M  END
$$$$

  -OEChem-03222214023D

 24 23  0     1  0  0  0  0  0999 V2000
   -2.4968   -3.5157   -0.3450 H   0  0  0  0  0  0  0  0  0  0  0  0
   -2.3780   -2.5444   -0.8335 C   0  0  0  0  0  0  0  0  0  0  0  0
   -3.2562   -1.9309   -0.6180 H   0  0  0  0  0  0  0  0  0  0  0  0
   -2.3066   -2.7008   -1.9130 H   0  0  0  0  0  0  0  0  0  0  0  0
   -1.1241   -1.8523   -0.3289 C   0  0  0  0  0  0  0  0  0  0  0  0
   -0.4539   -2.3896    0.5363 O   0  0  0  0  0  0  0  0  0  0  0  0
   -0.8022   -0.6094   -0.8310 N   0  0  0  0  0  0  0  0  0  0  0  0
   -1.3242   -0.3572   -1.6662 H   0  0  0  0  0  0  0  0  0  0  0  0
    0.5490   -0.0279   -0.7909 C   0  0  1  0  0  0  0  0  0  0  0  0
    1.2489   -0.6658   -1.3430 H   0  0  0  0  0  0  0  0  0  0  0  0
    0.4079    1.3597   -1.4652 C   0  0  0  0  0  0  0  0  0  0  0  0
   -0.6326    1.6933   -1.4950 H   0  0  0  0  0  0  0  0  0  0  0  0
    0.9630    2.1029   -0.8844 H   0  0  0  0  0  0  0  0  0  0  0  0
    0.9771    1.3834   -2.8773 C   0  0  0  0  0  0  0  0  0  0  0  0
    1.4465    2.4681   -3.2955 O   0  5  0  0  0  0  0  0  0  0  0  0
    0.7627    0.3718   -3.5925 O   0  0  0  0  0  0  0  0  0  0  0  0
    1.1202    0.1452    0.6390 C   0  0  0  0  0  0  0  0  0  0  0  0
    2.3082   -0.0441    0.8791 O   0  0  0  0  0  0  0  0  0  0  0  0
    0.3128    0.6747    1.6307 N   0  0  0  0  0  0  0  0  0  0  0  0
   -0.6768    0.7105    1.4127 H   0  0  0  0  0  0  0  0  0  0  0  0
    0.7406    0.8276    3.0123 C   0  0  0  0  0  0  0  0  0  0  0  0
    1.6166    1.4816    3.0714 H   0  0  0  0  0  0  0  0  0  0  0  0
   -0.0628    1.2728    3.6062 H   0  0  0  0  0  0  0  0  0  0  0  0
    0.9943   -0.1465    3.4426 H   0  0  0  0  0  0  0  0  0  0  0  0
  1  2  1  0  0  0  0
  2  3  1  0  0  0  0
  2  4  1  0  0  0  0
  2  5  1  0  0  0  0
  5  6  2  0  0  0  0
  5  7  1  0  0  0  0
  7  8  1  0  0  0  0
  7  9  1  0  0  0  0
  9 10  1  0  0  0  0
  9 11  1  0  0  0  0
  9 17  1  0  0  0  0
 11 12  1  0  0  0  0
 11 13  1  0  0  0  0
 11 14  1  0  0  0  0
 14 15  1  0  0  0  0
 14 16  2  0  0  0  0
 17 18  2  0  0  0  0
 17 19  1  0  0  0  0
 19 20  1  0  0  0  0
 19 21  1  0  0  0  0
 21 22  1  0  0  0  0
 21 23  1  0  0  0  0
 21 24  1  0  0  0  0
M  CHG  1  15  -1
M  END
$$$$

  -OEChem-03222214023D

 24 23  0     1  0  0  0  0  0999 V2000
   -2.4909   -3.5133   -0.3576 H   0  0  0  0  0  0  0  0  0  0  0  0
   -2.3742   -2.5404   -0.8433 C   0  0  0  0  0  0  0  0  0  0  0  0
   -3.2552   -1.9306   -0.6293 H   0  0  0  0  0  0  0  0  0  0  0  0
   -2.2991   -2.6930   -1.9231 H   0  0  0  0  0  0  0  0  0  0  0  0
   -1.1246   -1.8452   -0.3326 C   0  0  0  0  0  0  0  0  0  0  0  0
   -0.4557   -2.3811    0.5344 O   0  0  0  0  0  0  0  0  0  0  0  0
   -0.8049   -0.6007   -0.8314 N   0  0  0  0  0  0  0  0  0  0  0  0
   -1.3223   -0.3510   -1.6712 H   0  0  0  0  0  0  0  0  0  0  0  0
    0.5452   -0.0176   -0.7905 C   0  0  1  0  0  0  0  0  0  0  0  0
    1.2443   -0.6489   -1.3516 H   0  0  0  0  0  0  0  0  0  0  0  0
    0.3913    1.3678   -1.4615 C   0  0  0  0  0  0  0  0  0  0  0  0
   -0.6507    1.6966   -1.4949 H   0  0  0  0  0  0  0  0  0  0  0  0
    0.9429    2.1174   -0.8856 H   0  0  0  0  0  0  0  0  0  0  0  0
    0.9628    1.3648   -2.8703 C   0  0  0  0  0  0  0  0  0  0  0  0
    1.6857    2.3239   -3.2287 O   0  5  0  0  0  0  0  0  0  0  0  0
    0.5488    0.4505   -3.6283 O   0  0  0  0  0  0  0  0  0  0  0  0
    1.1206    0.1537    0.6380 C   0  0  0  0  0  0  0  0  0  0  0  0
    2.3072   -0.0457    0.8760 O   0  0  0  0  0  0  0  0  0  0  0  0
    0.3166    0.6803    1.6341 N   0  0  0  0  0  0  0  0  0  0  0  0
   -0.6734    0.7194    1.4185 H   0  0  0  0  0  0  0  0  0  0  0  0
    0.7472    0.8223    3.0161 C   0  0  0  0  0  0  0  0  0  0  0  0
    1.6257    1.4728    3.0785 H   0  0  0  0  0  0  0  0  0  0  0  0
   -0.0535    1.2662    3.6147 H   0  0  0  0  0  0  0  0  0  0  0  0
    0.9986   -0.1555    3.4394 H   0  0  0  0  0  0  0  0  0  0  0  0
  1  2  1  0  0  0  0
  2  3  1  0  0  0  0
  2  4  1  0  0  0  0
  2  5  1  0  0  0  0
  5  6  2  0  0  0  0
  5  7  1  0  0  0  0
  7  8  1  0  0  0  0
  7  9  1  0  0  0  0
  9 10  1  0  0  0  0
  9 11  1  0  0  0  0
  9 17  1  0  0  0  0
 11 12  1  0  0  0  0
 11 13  1  0  0  0  0
 11 14  1  0  0  0  0
 14 15  1  0  0  0  0
 14 16  2  0  0  0  0
 17 18  2  0  0  0  0
 17 19  1  0  0  0  0
 19 20  1  0  0  0  0
 19 21  1  0  0  0  0
 21 22  1  0  0  0  0
 21 23  1  0  0  0  0
 21 24  1  0  0  0  0
M  CHG  1  15  -1
M  END
$$$$

  -OEChem-03222214023D

 24 23  0     1  0  0  0  0  0999 V2000
   -2.4802   -3.5130   -0.3696 H   0  0  0  0  0  0  0  0  0  0  0  0
   -2.3732   -2.5317   -0.8402 C   0  0  0  0  0  0  0  0  0  0  0  0
   -3.2519   -1.9276   -0.6018 H   0  0  0  0  0  0  0  0  0  0  0  0
   -2.3149   -2.6659   -1.9235 H   0  0  0  0  0  0  0  0  0  0  0  0
   -1.1177   -1.8418   -0.3372 C   0  0  0  0  0  0  0  0  0  0  0  0
   -0.4419   -2.3829    0.5211 O   0  0  0  0  0  0  0  0  0  0  0  0
   -0.7995   -0.5959   -0.8333 N   0  0  0  0  0  0  0  0  0  0  0  0
   -1.3218   -0.3407   -1.6690 H   0  0  0  0  0  0  0  0  0  0  0  0
    0.5483   -0.0077   -0.7932 C   0  0  1  0  0  0  0  0  0  0  0  0
    1.2495   -0.6332   -1.3586 H   0  0  0  0  0  0  0  0  0  0  0  0
    0.3814    1.3757   -1.4622 C   0  0  0  0  0  0  0  0  0  0  0  0
   -0.6627    1.6982   -1.4963 H   0  0  0  0  0  0  0  0  0  0  0  0
    0.9296    2.1318   -0.8917 H   0  0  0  0  0  0  0  0  0  0  0  0
    0.9533    1.3562   -2.8688 C   0  0  0  0  0  0  0  0  0  0  0  0
    1.8872    2.1368   -3.1658 O   0  5  0  0  0  0  0  0  0  0  0  0
    0.3797    0.5745   -3.6701 O   0  0  0  0  0  0  0  0  0  0  0  0
    1.1229    0.1629    0.6355 C   0  0  0  0  0  0  0  0  0  0  0  0
    2.3079   -0.0410    0.8767 O   0  0  0  0  0  0  0  0  0  0  0  0
    0.3159    0.6846    1.6319 N   0  0  0  0  0  0  0  0  0  0  0  0
   -0.6740    0.7181    1.4150 H   0  0  0  0  0  0  0  0  0  0  0  0
    0.7422    0.8137    3.0164 C   0  0  0  0  0  0  0  0  0  0  0  0
    1.6269    1.4548    3.0860 H   0  0  0  0  0  0  0  0  0  0  0  0
   -0.0563    1.2620    3.6147 H   0  0  0  0  0  0  0  0  0  0  0  0
    0.9821   -0.1691    3.4346 H   0  0  0  0  0  0  0  0  0  0  0  0
  1  2  1  0  0  0  0
  2  3  1  0  0  0  0
  2  4  1  0  0  0  0
  2  5  1  0  0  0  0
  5  6  2  0  0  0  0
  5  7  1  0  0  0  0
  7  8  1  0  0  0  0
  7  9  1  0  0  0  0
  9 10  1  0  0  0  0
  9 11  1  0  0  0  0
  9 17  1  0  0  0  0
 11 12  1  0  0  0  0
 11 13  1  0  0  0  0
 11 14  1  0  0  0  0
 14 15  1  0  0  0  0
 14 16  2  0  0  0  0
 17 18  2  0  0  0  0
 17 19  1  0  0  0  0
 19 20  1  0  0  0  0
 19 21  1  0  0  0  0
 21 22  1  0  0  0  0
 21 23  1  0  0  0  0
 21 24  1  0  0  0  0
M  CHG  1  15  -1
M  END
$$$$

  -OEChem-03222214023D

 24 23  0     1  0  0  0  0  0999 V2000
   -2.4400   -3.5347   -0.4213 H   0  0  0  0  0  0  0  0  0  0  0  0
   -2.3718   -2.5246   -0.8350 C   0  0  0  0  0  0  0  0  0  0  0  0
   -3.2532   -1.9561   -0.5283 H   0  0  0  0  0  0  0  0  0  0  0  0
   -2.3529   -2.5937   -1.9258 H   0  0  0  0  0  0  0  0  0  0  0  0
   -1.1118   -1.8374   -0.3386 C   0  0  0  0  0  0  0  0  0  0  0  0
   -0.4281   -2.3860    0.5084 O   0  0  0  0  0  0  0  0  0  0  0  0
   -0.7926   -0.5918   -0.8352 N   0  0  0  0  0  0  0  0  0  0  0  0
   -1.3256   -0.3257   -1.6609 H   0  0  0  0  0  0  0  0  0  0  0  0
    0.5544   -0.0011   -0.7958 C   0  0  1  0  0  0  0  0  0  0  0  0
    1.2583   -0.6230   -1.3618 H   0  0  0  0  0  0  0  0  0  0  0  0
    0.3766    1.3790   -1.4656 C   0  0  0  0  0  0  0  0  0  0  0  0
   -0.6695    1.6966   -1.4973 H   0  0  0  0  0  0  0  0  0  0  0  0
    0.9239    2.1405   -0.9016 H   0  0  0  0  0  0  0  0  0  0  0  0
    0.9471    1.3508   -2.8714 C   0  0  0  0  0  0  0  0  0  0  0  0
    2.0416    1.9105   -3.1108 O   0  5  0  0  0  0  0  0  0  0  0  0
    0.2465    0.7357   -3.7153 O   0  0  0  0  0  0  0  0  0  0  0  0
    1.1270    0.1716    0.6339 C   0  0  0  0  0  0  0  0  0  0  0  0
    2.3071   -0.0486    0.8842 O   0  0  0  0  0  0  0  0  0  0  0  0
    0.3171    0.6931    1.6283 N   0  0  0  0  0  0  0  0  0  0  0  0
   -0.6703    0.7415    1.4033 H   0  0  0  0  0  0  0  0  0  0  0  0
    0.7332    0.8082    3.0172 C   0  0  0  0  0  0  0  0  0  0  0  0
    1.6303    1.4306    3.0983 H   0  0  0  0  0  0  0  0  0  0  0  0
   -0.0617    1.2703    3.6097 H   0  0  0  0  0  0  0  0  0  0  0  0
    0.9486   -0.1811    3.4332 H   0  0  0  0  0  0  0  0  0  0  0  0
  1  2  1  0  0  0  0
  2  3  1  0  0  0  0
  2  4  1  0  0  0  0
  2  5  1  0  0  0  0
  5  6  2  0  0  0  0
  5  7  1  0  0  0  0
  7  8  1  0  0  0  0
  7  9  1  0  0  0  0
  9 10  1  0  0  0  0
  9 11  1  0  0  0  0
  9 17  1  0  0  0  0
 11 12  1  0  0  0  0
 11 13  1  0  0  0  0
 11 14  1  0  0  0  0
 14 15  1  0  0  0  0
 14 16  2  0  0  0  0
 17 18  2  0  0  0  0
 17 19  1  0  0  0  0
 19 20  1  0  0  0  0
 19 21  1  0  0  0  0
 21 22  1  0  0  0  0
 21 23  1  0  0  0  0
 21 24  1  0  0  0  0
M  CHG  1  15  -1
M  END
$$$$

  -OEChem-03222214023D

 24 23  0     1  0  0  0  0  0999 V2000
   -2.4575   -3.5200   -0.4029 H   0  0  0  0  0  0  0  0  0  0  0  0
   -2.3752   -2.5162   -0.8290 C   0  0  0  0  0  0  0  0  0  0  0  0
   -3.2447   -1.9295   -0.5232 H   0  0  0  0  0  0  0  0  0  0  0  0
   -2.3648   -2.5976   -1.9190 H   0  0  0  0  0  0  0  0  0  0  0  0
   -1.1014   -1.8441   -0.3486 C   0  0  0  0  0  0  0  0  0  0  0  0
   -0.4082   -2.4043    0.4827 O   0  0  0  0  0  0  0  0  0  0  0  0
   -0.7808   -0.5974   -0.8413 N   0  0  0  0  0  0  0  0  0  0  0  0
   -1.3299   -0.3119   -1.6497 H   0  0  0  0  0  0  0  0  0  0  0  0
    0.5643   -0.0019   -0.7997 C   0  0  1  0  0  0  0  0  0  0  0  0
    1.2727   -0.6162   -1.3682 H   0  0  0  0  0  0  0  0  0  0  0  0
    0.3754    1.3790   -1.4631 C   0  0  0  0  0  0  0  0  0  0  0  0
   -0.6727    1.6915   -1.4868 H   0  0  0  0  0  0  0  0  0  0  0  0
    0.9219    2.1414   -0.8997 H   0  0  0  0  0  0  0  0  0  0  0  0
    0.9431    1.3607   -2.8698 C   0  0  0  0  0  0  0  0  0  0  0  0
    2.1407    1.6715   -3.0613 O   0  5  0  0  0  0  0  0  0  0  0  0
    0.1485    0.9566   -3.7560 O   0  0  0  0  0  0  0  0  0  0  0  0
    1.1317    0.1691    0.6323 C   0  0  0  0  0  0  0  0  0  0  0  0
    2.3097   -0.0532    0.8901 O   0  0  0  0  0  0  0  0  0  0  0  0
    0.3156    0.6856    1.6244 N   0  0  0  0  0  0  0  0  0  0  0  0
   -0.6702    0.7385    1.3934 H   0  0  0  0  0  0  0  0  0  0  0  0
    0.7263    0.8068    3.0145 C   0  0  0  0  0  0  0  0  0  0  0  0
    1.6182    1.4362    3.0970 H   0  0  0  0  0  0  0  0  0  0  0  0
   -0.0737    1.2647    3.6034 H   0  0  0  0  0  0  0  0  0  0  0  0
    0.9480   -0.1798    3.4339 H   0  0  0  0  0  0  0  0  0  0  0  0
  1  2  1  0  0  0  0
  2  3  1  0  0  0  0
  2  4  1  0  0  0  0
  2  5  1  0  0  0  0
  5  6  2  0  0  0  0
  5  7  1  0  0  0  0
  7  8  1  0  0  0  0
  7  9  1  0  0  0  0
  9 10  1  0  0  0  0
  9 11  1  0  0  0  0
  9 17  1  0  0  0  0
 11 12  1  0  0  0  0
 11 13  1  0  0  0  0
 11 14  1  0  0  0  0
 14 15  1  0  0  0  0
 14 16  2  0  0  0  0
 17 18  2  0  0  0  0
 17 19  1  0  0  0  0
 19 20  1  0  0  0  0
 19 21  1  0  0  0  0
 21 22  1  0  0  0  0
 21 23  1  0  0  0  0
 21 24  1  0  0  0  0
M  CHG  1  15  -1
M  END
$$$$

  -OEChem-03222214023D

 24 23  0     1  0  0  0  0  0999 V2000
   -2.4821   -3.4969   -0.3555 H   0  0  0  0  0  0  0  0  0  0  0  0
   -2.3799   -2.5075   -0.8102 C   0  0  0  0  0  0  0  0  0  0  0  0
   -3.2348   -1.8938   -0.5164 H   0  0  0  0  0  0  0  0  0  0  0  0
   -2.3773   -2.6190   -1.8976 H   0  0  0  0  0  0  0  0  0  0  0  0
   -1.0886   -1.8510   -0.3554 C   0  0  0  0  0  0  0  0  0  0  0  0
   -0.3820   -2.4229    0.4560 O   0  0  0  0  0  0  0  0  0  0  0  0
   -0.7673   -0.6042   -0.8473 N   0  0  0  0  0  0  0  0  0  0  0  0
   -1.3360   -0.2988   -1.6339 H   0  0  0  0  0  0  0  0  0  0  0  0
    0.5757   -0.0026   -0.8046 C   0  0  1  0  0  0  0  0  0  0  0  0
    1.2893   -0.6139   -1.3701 H   0  0  0  0  0  0  0  0  0  0  0  0
    0.3818    1.3774   -1.4693 C   0  0  0  0  0  0  0  0  0  0  0  0
   -0.6676    1.6866   -1.4861 H   0  0  0  0  0  0  0  0  0  0  0  0
    0.9280    2.1400   -0.9065 H   0  0  0  0  0  0  0  0  0  0  0  0
    0.9484    1.3741   -2.8777 C   0  0  0  0  0  0  0  0  0  0  0  0
    2.1885    1.4165   -3.0446 O   0  5  0  0  0  0  0  0  0  0  0  0
    0.1007    1.2314   -3.7942 O   0  0  0  0  0  0  0  0  0  0  0  0
    1.1357    0.1699    0.6305 C   0  0  0  0  0  0  0  0  0  0  0  0
    2.3126   -0.0468    0.8974 O   0  0  0  0  0  0  0  0  0  0  0  0
    0.3116    0.6824    1.6182 N   0  0  0  0  0  0  0  0  0  0  0  0
   -0.6732    0.7293    1.3823 H   0  0  0  0  0  0  0  0  0  0  0  0
    0.7128    0.7971    3.0118 C   0  0  0  0  0  0  0  0  0  0  0  0
    1.5951    1.4384    3.1044 H   0  0  0  0  0  0  0  0  0  0  0  0
   -0.0970    1.2378    3.6007 H   0  0  0  0  0  0  0  0  0  0  0  0
    0.9467   -0.1900    3.4234 H   0  0  0  0  0  0  0  0  0  0  0  0
  1  2  1  0  0  0  0
  2  3  1  0  0  0  0
  2  4  1  0  0  0  0
  2  5  1  0  0  0  0
  5  6  2  0  0  0  0
  5  7  1  0  0  0  0
  7  8  1  0  0  0  0
  7  9  1  0  0  0  0
  9 10  1  0  0  0  0
  9 11  1  0  0  0  0
  9 17  1  0  0  0  0
 11 12  1  0  0  0  0
 11 13  1  0  0  0  0
 11 14  1  0  0  0  0
 14 15  1  0  0  0  0
 14 16  2  0  0  0  0
 17 18  2  0  0  0  0
 17 19  1  0  0  0  0
 19 20  1  0  0  0  0
 19 21  1  0  0  0  0
 21 22  1  0  0  0  0
 21 23  1  0  0  0  0
 21 24  1  0  0  0  0
M  CHG  1  15  -1
M  END
$$$$

  -OEChem-03222214023D

 24 23  0     1  0  0  0  0  0999 V2000
   -2.4774   -3.5107   -0.3717 H   0  0  0  0  0  0  0  0  0  0  0  0
   -2.3871   -2.5081   -0.7993 C   0  0  0  0  0  0  0  0  0  0  0  0
   -3.2327   -1.9031   -0.4630 H   0  0  0  0  0  0  0  0  0  0  0  0
   -2.4158   -2.5875   -1.8892 H   0  0  0  0  0  0  0  0  0  0  0  0
   -1.0826   -1.8657   -0.3619 C   0  0  0  0  0  0  0  0  0  0  0  0
   -0.3668   -2.4493    0.4329 O   0  0  0  0  0  0  0  0  0  0  0  0
   -0.7582   -0.6188   -0.8526 N   0  0  0  0  0  0  0  0  0  0  0  0
   -1.3444   -0.2929   -1.6168 H   0  0  0  0  0  0  0  0  0  0  0  0
    0.5845   -0.0149   -0.8067 C   0  0  1  0  0  0  0  0  0  0  0  0
    1.3001   -0.6274   -1.3682 H   0  0  0  0  0  0  0  0  0  0  0  0
    0.3941    1.3679   -1.4699 C   0  0  0  0  0  0  0  0  0  0  0  0
   -0.6553    1.6776   -1.4785 H   0  0  0  0  0  0  0  0  0  0  0  0
    0.9425    2.1248   -0.9019 H   0  0  0  0  0  0  0  0  0  0  0  0
    0.9592    1.3920   -2.8812 C   0  0  0  0  0  0  0  0  0  0  0  0
    2.1764    1.1605   -3.0620 O   0  5  0  0  0  0  0  0  0  0  0  0
    0.1137    1.5506   -3.7965 O   0  0  0  0  0  0  0  0  0  0  0  0
    1.1373    0.1576    0.6317 C   0  0  0  0  0  0  0  0  0  0  0  0
    2.3139   -0.0511    0.9060 O   0  0  0  0  0  0  0  0  0  0  0  0
    0.3062    0.6689    1.6144 N   0  0  0  0  0  0  0  0  0  0  0  0
   -0.6764    0.7242    1.3713 H   0  0  0  0  0  0  0  0  0  0  0  0
    0.7029    0.8070    3.0071 C   0  0  0  0  0  0  0  0  0  0  0  0
    1.5873    1.4465    3.0916 H   0  0  0  0  0  0  0  0  0  0  0  0
   -0.1071    1.2617    3.5848 H   0  0  0  0  0  0  0  0  0  0  0  0
    0.9315   -0.1733    3.4372 H   0  0  0  0  0  0  0  0  0  0  0  0
  1  2  1  0  0  0  0
  2  3  1  0  0  0  0
  2  4  1  0  0  0  0
  2  5  1  0  0  0  0
  5  6  2  0  0  0  0
  5  7  1  0  0  0  0
  7  8  1  0  0  0  0
  7  9  1  0  0  0  0
  9 10  1  0  0  0  0
  9 11  1  0  0  0  0
  9 17  1  0  0  0  0
 11 12  1  0  0  0  0
 11 13  1  0  0  0  0
 11 14  1  0  0  0  0
 14 15  1  0  0  0  0
 14 16  2  0  0  0  0
 17 18  2  0  0  0  0
 17 19  1  0  0  0  0
 19 20  1  0  0  0  0
 19 21  1  0  0  0  0
 21 22  1  0  0  0  0
 21 23  1  0  0  0  0
 21 24  1  0  0  0  0
M  CHG  1  15  -1
M  END
$$$$

  -OEChem-03222214023D

 24 23  0     1  0  0  0  0  0999 V2000
   -2.5078   -3.4896   -0.3103 H   0  0  0  0  0  0  0  0  0  0  0  0
   -2.3932   -2.5101   -0.7829 C   0  0  0  0  0  0  0  0  0  0  0  0
   -3.2293   -1.8738   -0.4833 H   0  0  0  0  0  0  0  0  0  0  0  0
   -2.4136   -2.6396   -1.8680 H   0  0  0  0  0  0  0  0  0  0  0  0
   -1.0801   -1.8740   -0.3620 C   0  0  0  0  0  0  0  0  0  0  0  0
   -0.3583   -2.4610    0.4246 O   0  0  0  0  0  0  0  0  0  0  0  0
   -0.7552   -0.6281   -0.8554 N   0  0  0  0  0  0  0  0  0  0  0  0
   -1.3505   -0.2937   -1.6077 H   0  0  0  0  0  0  0  0  0  0  0  0
    0.5878   -0.0238   -0.8088 C   0  0  1  0  0  0  0  0  0  0  0  0
    1.3020   -0.6459   -1.3603 H   0  0  0  0  0  0  0  0  0  0  0  0
    0.4093    1.3604   -1.4783 C   0  0  0  0  0  0  0  0  0  0  0  0
   -0.6396    1.6714   -1.4842 H   0  0  0  0  0  0  0  0  0  0  0  0
    0.9586    2.1117   -0.9042 H   0  0  0  0  0  0  0  0  0  0  0  0
    0.9734    1.4142   -2.8925 C   0  0  0  0  0  0  0  0  0  0  0  0
    2.1019    0.9252   -3.1307 O   0  5  0  0  0  0  0  0  0  0  0  0
    0.1980    1.8813   -3.7628 O   0  0  0  0  0  0  0  0  0  0  0  0
    1.1354    0.1512    0.6313 C   0  0  0  0  0  0  0  0  0  0  0  0
    2.3136   -0.0458    0.9079 O   0  0  0  0  0  0  0  0  0  0  0  0
    0.3012    0.6638    1.6109 N   0  0  0  0  0  0  0  0  0  0  0  0
   -0.6812    0.7157    1.3664 H   0  0  0  0  0  0  0  0  0  0  0  0
    0.6947    0.8035    3.0044 C   0  0  0  0  0  0  0  0  0  0  0  0
    1.5628    1.4648    3.0923 H   0  0  0  0  0  0  0  0  0  0  0  0
   -0.1265    1.2333    3.5850 H   0  0  0  0  0  0  0  0  0  0  0  0
    0.9478   -0.1735    3.4286 H   0  0  0  0  0  0  0  0  0  0  0  0
  1  2  1  0  0  0  0
  2  3  1  0  0  0  0
  2  4  1  0  0  0  0
  2  5  1  0  0  0  0
  5  6  2  0  0  0  0
  5  7  1  0  0  0  0
  7  8  1  0  0  0  0
  7  9  1  0  0  0  0
  9 10  1  0  0  0  0
  9 11  1  0  0  0  0
  9 17  1  0  0  0  0
 11 12  1  0  0  0  0
 11 13  1  0  0  0  0
 11 14  1  0  0  0  0
 14 15  1  0  0  0  0
 14 16  2  0  0  0  0
 17 18  2  0  0  0  0
 17 19  1  0  0  0  0
 19 20  1  0  0  0  0
 19 21  1  0  0  0  0
 21 22  1  0  0  0  0
 21 23  1  0  0  0  0
 21 24  1  0  0  0  0
M  CHG  1  15  -1
M  END
$$$$

  -OEChem-03222214023D

 24 23  0     1  0  0  0  0  0999 V2000
   -2.4891   -3.5206   -0.3556 H   0  0  0  0  0  0  0  0  0  0  0  0
   -2.3979   -2.5191   -0.7855 C   0  0  0  0  0  0  0  0  0  0  0  0
   -3.2410   -1.9115   -0.4480 H   0  0  0  0  0  0  0  0  0  0  0  0
   -2.4303   -2.6014   -1.8749 H   0  0  0  0  0  0  0  0  0  0  0  0
   -1.0903   -1.8793   -0.3532 C   0  0  0  0  0  0  0  0  0  0  0  0
   -0.3782   -2.4605    0.4465 O   0  0  0  0  0  0  0  0  0  0  0  0
   -0.7601   -0.6371   -0.8522 N   0  0  0  0  0  0  0  0  0  0  0  0
   -1.3498   -0.3082   -1.6108 H   0  0  0  0  0  0  0  0  0  0  0  0
    0.5860   -0.0396   -0.8055 C   0  0  1  0  0  0  0  0  0  0  0  0
    1.2961   -0.6742   -1.3467 H   0  0  0  0  0  0  0  0  0  0  0  0
    0.4225    1.3471   -1.4798 C   0  0  0  0  0  0  0  0  0  0  0  0
   -0.6254    1.6617   -1.4842 H   0  0  0  0  0  0  0  0  0  0  0  0
    0.9737    2.0916   -0.8987 H   0  0  0  0  0  0  0  0  0  0  0  0
    0.9828    1.4287   -2.8971 C   0  0  0  0  0  0  0  0  0  0  0  0
    1.9596    0.7178   -3.2301 O   0  5  0  0  0  0  0  0  0  0  0  0
    0.3413    2.1695   -3.6816 O   0  0  0  0  0  0  0  0  0  0  0  0
    1.1328    0.1395    0.6346 C   0  0  0  0  0  0  0  0  0  0  0  0
    2.3124   -0.0520    0.9092 O   0  0  0  0  0  0  0  0  0  0  0  0
    0.3009    0.6612    1.6113 N   0  0  0  0  0  0  0  0  0  0  0  0
   -0.6812    0.7182    1.3669 H   0  0  0  0  0  0  0  0  0  0  0  0
    0.6974    0.8192    3.0018 C   0  0  0  0  0  0  0  0  0  0  0  0
    1.5752    1.4691    3.0780 H   0  0  0  0  0  0  0  0  0  0  0  0
   -0.1170    1.2714    3.5752 H   0  0  0  0  0  0  0  0  0  0  0  0
    0.9362   -0.1542    3.4424 H   0  0  0  0  0  0  0  0  0  0  0  0
  1  2  1  0  0  0  0
  2  3  1  0  0  0  0
  2  4  1  0  0  0  0
  2  5  1  0  0  0  0
  5  6  2  0  0  0  0
  5  7  1  0  0  0  0
  7  8  1  0  0  0  0
  7  9  1  0  0  0  0
  9 10  1  0  0  0  0
  9 11  1  0  0  0  0
  9 17  1  0  0  0  0
 11 12  1  0  0  0  0
 11 13  1  0  0  0  0
 11 14  1  0  0  0  0
 14 15  1  0  0  0  0
 14 16  2  0  0  0  0
 17 18  2  0  0  0  0
 17 19  1  0  0  0  0
 19 20  1  0  0  0  0
 19 21  1  0  0  0  0
 21 22  1  0  0  0  0
 21 23  1  0  0  0  0
 21 24  1  0  0  0  0
M  CHG  1  15  -1
M  END
$$$$

  -OEChem-03222214023D

 24 23  0     1  0  0  0  0  0999 V2000
   -2.4963   -3.5238   -0.3472 H   0  0  0  0  0  0  0  0  0  0  0  0
   -2.4025   -2.5257   -0.7845 C   0  0  0  0  0  0  0  0  0  0  0  0
   -3.2485   -1.9161   -0.4583 H   0  0  0  0  0  0  0  0  0  0  0  0
   -2.4260   -2.6168   -1.8735 H   0  0  0  0  0  0  0  0  0  0  0  0
   -1.0987   -1.8820   -0.3472 C   0  0  0  0  0  0  0  0  0  0  0  0
   -0.3919   -2.4580    0.4611 O   0  0  0  0  0  0  0  0  0  0  0  0
   -0.7664   -0.6417   -0.8499 N   0  0  0  0  0  0  0  0  0  0  0  0
   -1.3484   -0.3220   -1.6178 H   0  0  0  0  0  0  0  0  0  0  0  0
    0.5825   -0.0500   -0.8050 C   0  0  1  0  0  0  0  0  0  0  0  0
    1.2903   -0.6918   -1.3403 H   0  0  0  0  0  0  0  0  0  0  0  0
    0.4330    1.3403   -1.4792 C   0  0  0  0  0  0  0  0  0  0  0  0
   -0.6130    1.6600   -1.4846 H   0  0  0  0  0  0  0  0  0  0  0  0
    0.9873    2.0784   -0.8926 H   0  0  0  0  0  0  0  0  0  0  0  0
    0.9895    1.4408   -2.8982 C   0  0  0  0  0  0  0  0  0  0  0  0
    1.7604    0.5569   -3.3410 O   0  5  0  0  0  0  0  0  0  0  0  0
    0.5404    2.3960   -3.5767 O   0  0  0  0  0  0  0  0  0  0  0  0
    1.1299    0.1292    0.6348 C   0  0  0  0  0  0  0  0  0  0  0  0
    2.3123   -0.0528    0.9045 O   0  0  0  0  0  0  0  0  0  0  0  0
    0.3002    0.6561    1.6105 N   0  0  0  0  0  0  0  0  0  0  0  0
   -0.6830    0.7085    1.3689 H   0  0  0  0  0  0  0  0  0  0  0  0
    0.7012    0.8276    2.9982 C   0  0  0  0  0  0  0  0  0  0  0  0
    1.5793    1.4780    3.0656 H   0  0  0  0  0  0  0  0  0  0  0  0
   -0.1114    1.2855    3.5696 H   0  0  0  0  0  0  0  0  0  0  0  0
    0.9417   -0.1412    3.4475 H   0  0  0  0  0  0  0  0  0  0  0  0
  1  2  1  0  0  0  0
  2  3  1  0  0  0  0
  2  4  1  0  0  0  0
  2  5  1  0  0  0  0
  5  6  2  0  0  0  0
  5  7  1  0  0  0  0
  7  8  1  0  0  0  0
  7  9  1  0  0  0  0
  9 10  1  0  0  0  0
  9 11  1  0  0  0  0
  9 17  1  0  0  0  0
 11 12  1  0  0  0  0
 11 13  1  0  0  0  0
 11 14  1  0  0  0  0
 14 15  1  0  0  0  0
 14 16  2  0  0  0  0
 17 18  2  0  0  0  0
 17 19  1  0  0  0  0
 19 20  1  0  0  0  0
 19 21  1  0  0  0  0
 21 22  1  0  0  0  0
 21 23  1  0  0  0  0
 21 24  1  0  0  0  0
M  CHG  1  15  -1
M  END
$$$$

  -OEChem-03222214023D

 24 23  0     1  0  0  0  0  0999 V2000
   -2.5075   -3.5172   -0.3249 H   0  0  0  0  0  0  0  0  0  0  0  0
   -2.4013   -2.5333   -0.7905 C   0  0  0  0  0  0  0  0  0  0  0  0
   -3.2553   -1.9140   -0.5058 H   0  0  0  0  0  0  0  0  0  0  0  0
   -2.3960   -2.6583   -1.8764 H   0  0  0  0  0  0  0  0  0  0  0  0
   -1.1090   -1.8761   -0.3390 C   0  0  0  0  0  0  0  0  0  0  0  0
   -0.4125   -2.4389    0.4874 O   0  0  0  0  0  0  0  0  0  0  0  0
   -0.7794   -0.6362   -0.8448 N   0  0  0  0  0  0  0  0  0  0  0  0
   -1.3464   -0.3368   -1.6316 H   0  0  0  0  0  0  0  0  0  0  0  0
    0.5716   -0.0493   -0.8034 C   0  0  1  0  0  0  0  0  0  0  0  0
    1.2769   -0.6953   -1.3371 H   0  0  0  0  0  0  0  0  0  0  0  0
    0.4352    1.3428   -1.4783 C   0  0  0  0  0  0  0  0  0  0  0  0
   -0.6092    1.6667   -1.4912 H   0  0  0  0  0  0  0  0  0  0  0  0
    0.9893    2.0784   -0.8879 H   0  0  0  0  0  0  0  0  0  0  0  0
    0.9924    1.4413   -2.8974 C   0  0  0  0  0  0  0  0  0  0  0  0
    1.5145    0.4375   -3.4393 O   0  5  0  0  0  0  0  0  0  0  0  0
    0.7883    2.5351   -3.4768 O   0  0  0  0  0  0  0  0  0  0  0  0
    1.1248    0.1288    0.6338 C   0  0  0  0  0  0  0  0  0  0  0  0
    2.3093   -0.0534    0.8945 O   0  0  0  0  0  0  0  0  0  0  0  0
    0.3025    0.6588    1.6135 N   0  0  0  0  0  0  0  0  0  0  0  0
   -0.6824    0.7089    1.3788 H   0  0  0  0  0  0  0  0  0  0  0  0
    0.7122    0.8266    2.9989 C   0  0  0  0  0  0  0  0  0  0  0  0
    1.5857    1.4834    3.0631 H   0  0  0  0  0  0  0  0  0  0  0  0
   -0.0996    1.2754    3.5784 H   0  0  0  0  0  0  0  0  0  0  0  0
    0.9628   -0.1424    3.4423 H   0  0  0  0  0  0  0  0  0  0  0  0
  1  2  1  0  0  0  0
  2  3  1  0  0  0  0
  2  4  1  0  0  0  0
  2  5  1  0  0  0  0
  5  6  2  0  0  0  0
  5  7  1  0  0  0  0
  7  8  1  0  0  0  0
  7  9  1  0  0  0  0
  9 10  1  0  0  0  0
  9 11  1  0  0  0  0
  9 17  1  0  0  0  0
 11 12  1  0  0  0  0
 11 13  1  0  0  0  0
 11 14  1  0  0  0  0
 14 15  1  0  0  0  0
 14 16  2  0  0  0  0
 17 18  2  0  0  0  0
 17 19  1  0  0  0  0
 19 20  1  0  0  0  0
 19 21  1  0  0  0  0
 21 22  1  0  0  0  0
 21 23  1  0  0  0  0
 21 24  1  0  0  0  0
M  CHG  1  15  -1
M  END
$$$$

  -OEChem-03222214023D

 24 23  0     1  0  0  0  0  0999 V2000
   -2.5144   -3.5090   -0.3216 H   0  0  0  0  0  0  0  0  0  0  0  0
   -2.3958   -2.5357   -0.8058 C   0  0  0  0  0  0  0  0  0  0  0  0
   -3.2585   -1.9117   -0.5599 H   0  0  0  0  0  0  0  0  0  0  0  0
   -2.3586   -2.6843   -1.8880 H   0  0  0  0  0  0  0  0  0  0  0  0
   -1.1180   -1.8658   -0.3324 C   0  0  0  0  0  0  0  0  0  0  0  0
   -0.4343   -2.4173    0.5125 O   0  0  0  0  0  0  0  0  0  0  0  0
   -0.7909   -0.6253   -0.8379 N   0  0  0  0  0  0  0  0  0  0  0  0
   -1.3400   -0.3473   -1.6455 H   0  0  0  0  0  0  0  0  0  0  0  0
    0.5614   -0.0427   -0.7999 C   0  0  1  0  0  0  0  0  0  0  0  0
    1.2639   -0.6883   -1.3383 H   0  0  0  0  0  0  0  0  0  0  0  0
    0.4292    1.3496   -1.4741 C   0  0  0  0  0  0  0  0  0  0  0  0
   -0.6138    1.6768   -1.4923 H   0  0  0  0  0  0  0  0  0  0  0  0
    0.9853    2.0854   -0.8855 H   0  0  0  0  0  0  0  0  0  0  0  0
    0.9875    1.4281   -2.8929 C   0  0  0  0  0  0  0  0  0  0  0  0
    1.2341    0.3654   -3.5144 O   0  5  0  0  0  0  0  0  0  0  0  0
    1.0525    2.5762   -3.3935 O   0  0  0  0  0  0  0  0  0  0  0  0
    1.1222    0.1315    0.6350 C   0  0  0  0  0  0  0  0  0  0  0  0
    2.3094   -0.0488    0.8854 O   0  0  0  0  0  0  0  0  0  0  0  0
    0.3070    0.6618    1.6205 N   0  0  0  0  0  0  0  0  0  0  0  0
   -0.6807    0.6997    1.3953 H   0  0  0  0  0  0  0  0  0  0  0  0
    0.7258    0.8242    3.0039 C   0  0  0  0  0  0  0  0  0  0  0  0
    1.5987    1.4821    3.0650 H   0  0  0  0  0  0  0  0  0  0  0  0
   -0.0827    1.2695    3.5910 H   0  0  0  0  0  0  0  0  0  0  0  0
    0.9812   -0.1464    3.4412 H   0  0  0  0  0  0  0  0  0  0  0  0
  1  2  1  0  0  0  0
  2  3  1  0  0  0  0
  2  4  1  0  0  0  0
  2  5  1  0  0  0  0
  5  6  2  0  0  0  0
  5  7  1  0  0  0  0
  7  8  1  0  0  0  0
  7  9  1  0  0  0  0
  9 10  1  0  0  0  0
  9 11  1  0  0  0  0
  9 17  1  0  0  0  0
 11 12  1  0  0  0  0
 11 13  1  0  0  0  0
 11 14  1  0  0  0  0
 14 15  1  0  0  0  0
 14 16  2  0  0  0  0
 17 18  2  0  0  0  0
 17 19  1  0  0  0  0
 19 20  1  0  0  0  0
 19 21  1  0  0  0  0
 21 22  1  0  0  0  0
 21 23  1  0  0  0  0
 21 24  1  0  0  0  0
M  CHG  1  15  -1
M  END
$$$$

  -OEChem-03222214023D

 24 23  0     1  0  0  0  0  0999 V2000
   -2.5014   -3.5174   -0.3519 H   0  0  0  0  0  0  0  0  0  0  0  0
   -2.3883   -2.5392   -0.8278 C   0  0  0  0  0  0  0  0  0  0  0  0
   -3.2635   -1.9288   -0.5928 H   0  0  0  0  0  0  0  0  0  0  0  0
   -2.3306   -2.6801   -1.9102 H   0  0  0  0  0  0  0  0  0  0  0  0
   -1.1283   -1.8542   -0.3288 C   0  0  0  0  0  0  0  0  0  0  0  0
   -0.4563   -2.3962    0.5318 O   0  0  0  0  0  0  0  0  0  0  0  0
   -0.8031   -0.6124   -0.8319 N   0  0  0  0  0  0  0  0  0  0  0  0
   -1.3334   -0.3530   -1.6588 H   0  0  0  0  0  0  0  0  0  0  0  0
    0.5502   -0.0336   -0.7939 C   0  0  1  0  0  0  0  0  0  0  0  0
    1.2493   -0.6758   -1.3418 H   0  0  0  0  0  0  0  0  0  0  0  0
    0.4178    1.3583   -1.4653 C   0  0  0  0  0  0  0  0  0  0  0  0
   -0.6248    1.6857   -1.4931 H   0  0  0  0  0  0  0  0  0  0  0  0
    0.9714    2.0978   -0.8788 H   0  0  0  0  0  0  0  0  0  0  0  0
    0.9817    1.4045   -2.8812 C   0  0  0  0  0  0  0  0  0  0  0  0
    0.9448    0.3504   -3.5643 O   0  5  0  0  0  0  0  0  0  0  0  0
    1.3313    2.5266   -3.3180 O   0  0  0  0  0  0  0  0  0  0  0  0
    1.1202    0.1374    0.6371 C   0  0  0  0  0  0  0  0  0  0  0  0
    2.3080   -0.0510    0.8787 O   0  0  0  0  0  0  0  0  0  0  0  0
    0.3131    0.6684    1.6284 N   0  0  0  0  0  0  0  0  0  0  0  0
   -0.6762    0.7073    1.4101 H   0  0  0  0  0  0  0  0  0  0  0  0
    0.7411    0.8249    3.0095 C   0  0  0  0  0  0  0  0  0  0  0  0
    1.6201    1.4751    3.0661 H   0  0  0  0  0  0  0  0  0  0  0  0
   -0.0601    1.2764    3.6019 H   0  0  0  0  0  0  0  0  0  0  0  0
    0.9904   -0.1487    3.4436 H   0  0  0  0  0  0  0  0  0  0  0  0
  1  2  1  0  0  0  0
  2  3  1  0  0  0  0
  2  4  1  0  0  0  0
  2  5  1  0  0  0  0
  5  6  2  0  0  0  0
  5  7  1  0  0  0  0
  7  8  1  0  0  0  0
  7  9  1  0  0  0  0
  9 10  1  0  0  0  0
  9 11  1  0  0  0  0
  9 17  1  0  0  0  0
 11 12  1  0  0  0  0
 11 13  1  0  0  0  0
 11 14  1  0  0  0  0
 14 15  1  0  0  0  0
 14 16  2  0  0  0  0
 17 18  2  0  0  0  0
 17 19  1  0  0  0  0
 19 20  1  0  0  0  0
 19 21  1  0  0  0  0
 21 22  1  0  0  0  0
 21 23  1  0  0  0  0
 21 24  1  0  0  0  0
M  CHG  1  15  -1
M  END
$$$$

  -OEChem-03222214023D

 24 23  0     1  0  0  0  0  0999 V2000
   -2.5052   -3.5051   -0.3529 H   0  0  0  0  0  0  0  0  0  0  0  0
   -2.3796   -2.5368   -0.8454 C   0  0  0  0  0  0  0  0  0  0  0  0
   -3.2595   -1.9211   -0.6439 H   0  0  0  0  0  0  0  0  0  0  0  0
   -2.2957   -2.6988   -1.9232 H   0  0  0  0  0  0  0  0  0  0  0  0
   -1.1312   -1.8431   -0.3300 C   0  0  0  0  0  0  0  0  0  0  0  0
   -0.4651   -2.3805    0.5383 O   0  0  0  0  0  0  0  0  0  0  0  0
   -0.8088   -0.5991   -0.8286 N   0  0  0  0  0  0  0  0  0  0  0  0
   -1.3270   -0.3489   -1.6671 H   0  0  0  0  0  0  0  0  0  0  0  0
    0.5438   -0.0208   -0.7899 C   0  0  1  0  0  0  0  0  0  0  0  0
    1.2400   -0.6573   -1.3486 H   0  0  0  0  0  0  0  0  0  0  0  0
    0.4030    1.3686   -1.4593 C   0  0  0  0  0  0  0  0  0  0  0  0
   -0.6398    1.6942   -1.4944 H   0  0  0  0  0  0  0  0  0  0  0  0
    0.9547    2.1144   -0.8787 H   0  0  0  0  0  0  0  0  0  0  0  0
    0.9724    1.3774   -2.8706 C   0  0  0  0  0  0  0  0  0  0  0  0
    0.6669    0.4033   -3.6050 O   0  5  0  0  0  0  0  0  0  0  0  0
    1.5988    2.3943   -3.2510 O   0  0  0  0  0  0  0  0  0  0  0  0
    1.1200    0.1461    0.6387 C   0  0  0  0  0  0  0  0  0  0  0  0
    2.3074   -0.0513    0.8749 O   0  0  0  0  0  0  0  0  0  0  0  0
    0.3176    0.6740    1.6355 N   0  0  0  0  0  0  0  0  0  0  0  0
   -0.6730    0.7096    1.4222 H   0  0  0  0  0  0  0  0  0  0  0  0
    0.7510    0.8195    3.0162 C   0  0  0  0  0  0  0  0  0  0  0  0
    1.6281    1.4720    3.0751 H   0  0  0  0  0  0  0  0  0  0  0  0
   -0.0495    1.2628    3.6156 H   0  0  0  0  0  0  0  0  0  0  0  0
    1.0053   -0.1570    3.4408 H   0  0  0  0  0  0  0  0  0  0  0  0
  1  2  1  0  0  0  0
  2  3  1  0  0  0  0
  2  4  1  0  0  0  0
  2  5  1  0  0  0  0
  5  6  2  0  0  0  0
  5  7  1  0  0  0  0
  7  8  1  0  0  0  0
  7  9  1  0  0  0  0
  9 10  1  0  0  0  0
  9 11  1  0  0  0  0
  9 17  1  0  0  0  0
 11 12  1  0  0  0  0
 11 13  1  0  0  0  0
 11 14  1  0  0  0  0
 14 15  1  0  0  0  0
 14 16  2  0  0  0  0
 17 18  2  0  0  0  0
 17 19  1  0  0  0  0
 19 20  1  0  0  0  0
 19 21  1  0  0  0  0
 21 22  1  0  0  0  0
 21 23  1  0  0  0  0
 21 24  1  0  0  0  0
M  CHG  1  15  -1
M  END
$$$$

  -OEChem-03222214023D

 24 23  0     1  0  0  0  0  0999 V2000
   -2.4826   -3.5093   -0.3702 H   0  0  0  0  0  0  0  0  0  0  0  0
   -2.3735   -2.5287   -0.8421 C   0  0  0  0  0  0  0  0  0  0  0  0
   -3.2552   -1.9257   -0.6117 H   0  0  0  0  0  0  0  0  0  0  0  0
   -2.3068   -2.6655   -1.9247 H   0  0  0  0  0  0  0  0  0  0  0  0
   -1.1222   -1.8362   -0.3320 C   0  0  0  0  0  0  0  0  0  0  0  0
   -0.4517   -2.3760    0.5313 O   0  0  0  0  0  0  0  0  0  0  0  0
   -0.8008   -0.5917   -0.8302 N   0  0  0  0  0  0  0  0  0  0  0  0
   -1.3187   -0.3404   -1.6697 H   0  0  0  0  0  0  0  0  0  0  0  0
    0.5496   -0.0091   -0.7908 C   0  0  1  0  0  0  0  0  0  0  0  0
    1.2478   -0.6402   -1.3538 H   0  0  0  0  0  0  0  0  0  0  0  0
    0.3936    1.3752   -1.4623 C   0  0  0  0  0  0  0  0  0  0  0  0
   -0.6510    1.6957   -1.5024 H   0  0  0  0  0  0  0  0  0  0  0  0
    0.9413    2.1305   -0.8903 H   0  0  0  0  0  0  0  0  0  0  0  0
    0.9672    1.3529   -2.8687 C   0  0  0  0  0  0  0  0  0  0  0  0
    0.4340    0.5284   -3.6549 O   0  5  0  0  0  0  0  0  0  0  0  0
    1.8331    2.1997   -3.1904 O   0  0  0  0  0  0  0  0  0  0  0  0
    1.1243    0.1603    0.6379 C   0  0  0  0  0  0  0  0  0  0  0  0
    2.3081   -0.0500    0.8797 O   0  0  0  0  0  0  0  0  0  0  0  0
    0.3192    0.6862    1.6333 N   0  0  0  0  0  0  0  0  0  0  0  0
   -0.6697    0.7287    1.4133 H   0  0  0  0  0  0  0  0  0  0  0  0
    0.7416    0.8066    3.0198 C   0  0  0  0  0  0  0  0  0  0  0  0
    1.6251    1.4486    3.0968 H   0  0  0  0  0  0  0  0  0  0  0  0
   -0.0598    1.2492    3.6183 H   0  0  0  0  0  0  0  0  0  0  0  0
    0.9816   -0.1786    3.4322 H   0  0  0  0  0  0  0  0  0  0  0  0
  1  2  1  0  0  0  0
  2  3  1  0  0  0  0
  2  4  1  0  0  0  0
  2  5  1  0  0  0  0
  5  6  2  0  0  0  0
  5  7  1  0  0  0  0
  7  8  1  0  0  0  0
  7  9  1  0  0  0  0
  9 10  1  0  0  0  0
  9 11  1  0  0  0  0
  9 17  1  0  0  0  0
 11 12  1  0  0  0  0
 11 13  1  0  0  0  0
 11 14  1  0  0  0  0
 14 15  1  0  0  0  0
 14 16  2  0  0  0  0
 17 18  2  0  0  0  0
 17 19  1  0  0  0  0
 19 20  1  0  0  0  0
 19 21  1  0  0  0  0
 21 22  1  0  0  0  0
 21 23  1  0  0  0  0
 21 24  1  0  0  0  0
M  CHG  1  15  -1
M  END
$$$$

  -OEChem-03222214023D

 24 23  0     1  0  0  0  0  0999 V2000
   -2.4888   -3.5021   -0.3644 H   0  0  0  0  0  0  0  0  0  0  0  0
   -2.3760   -2.5224   -0.8374 C   0  0  0  0  0  0  0  0  0  0  0  0
   -3.2476   -1.9098   -0.5936 H   0  0  0  0  0  0  0  0  0  0  0  0
   -2.3268   -2.6589   -1.9209 H   0  0  0  0  0  0  0  0  0  0  0  0
   -1.1103   -1.8434   -0.3449 C   0  0  0  0  0  0  0  0  0  0  0  0
   -0.4248   -2.3971    0.4973 O   0  0  0  0  0  0  0  0  0  0  0  0
   -0.7885   -0.5972   -0.8381 N   0  0  0  0  0  0  0  0  0  0  0  0
   -1.3215   -0.3258   -1.6621 H   0  0  0  0  0  0  0  0  0  0  0  0
    0.5587   -0.0078   -0.7934 C   0  0  1  0  0  0  0  0  0  0  0  0
    1.2629   -0.6299   -1.3586 H   0  0  0  0  0  0  0  0  0  0  0  0
    0.3855    1.3734   -1.4613 C   0  0  0  0  0  0  0  0  0  0  0  0
   -0.6611    1.6886   -1.4986 H   0  0  0  0  0  0  0  0  0  0  0  0
    0.9293    2.1343   -0.8931 H   0  0  0  0  0  0  0  0  0  0  0  0
    0.9620    1.3439   -2.8645 C   0  0  0  0  0  0  0  0  0  0  0  0
    0.2597    0.7357   -3.7122 O   0  5  0  0  0  0  0  0  0  0  0  0
    2.0233    1.9607   -3.1140 O   0  0  0  0  0  0  0  0  0  0  0  0
    1.1276    0.1617    0.6379 C   0  0  0  0  0  0  0  0  0  0  0  0
    2.3089   -0.0526    0.8875 O   0  0  0  0  0  0  0  0  0  0  0  0
    0.3160    0.6818    1.6316 N   0  0  0  0  0  0  0  0  0  0  0  0
   -0.6715    0.7296    1.4067 H   0  0  0  0  0  0  0  0  0  0  0  0
    0.7342    0.8092    3.0188 C   0  0  0  0  0  0  0  0  0  0  0  0
    1.6169    1.4523    3.0952 H   0  0  0  0  0  0  0  0  0  0  0  0
   -0.0690    1.2544    3.6131 H   0  0  0  0  0  0  0  0  0  0  0  0
    0.9738   -0.1740    3.4365 H   0  0  0  0  0  0  0  0  0  0  0  0
  1  2  1  0  0  0  0
  2  3  1  0  0  0  0
  2  4  1  0  0  0  0
  2  5  1  0  0  0  0
  5  6  2  0  0  0  0
  5  7  1  0  0  0  0
  7  8  1  0  0  0  0
  7  9  1  0  0  0  0
  9 10  1  0  0  0  0
  9 11  1  0  0  0  0
  9 17  1  0  0  0  0
 11 12  1  0  0  0  0
 11 13  1  0  0  0  0
 11 14  1  0  0  0  0
 14 15  1  0  0  0  0
 14 16  2  0  0  0  0
 17 18  2  0  0  0  0
 17 19  1  0  0  0  0
 19 20  1  0  0  0  0
 19 21  1  0  0  0  0
 21 22  1  0  0  0  0
 21 23  1  0  0  0  0
 21 24  1  0  0  0  0
M  CHG  1  15  -1
M  END
$$$$

  -OEChem-03222214023D

 24 23  0     1  0  0  0  0  0999 V2000
   -2.4805   -3.5063   -0.3627 H   0  0  0  0  0  0  0  0  0  0  0  0
   -2.3808   -2.5156   -0.8152 C   0  0  0  0  0  0  0  0  0  0  0  0
   -3.2388   -1.9054   -0.5228 H   0  0  0  0  0  0  0  0  0  0  0  0
   -2.3749   -2.6256   -1.9027 H   0  0  0  0  0  0  0  0  0  0  0  0
   -1.0930   -1.8552   -0.3552 C   0  0  0  0  0  0  0  0  0  0  0  0
   -0.3899   -2.4238    0.4619 O   0  0  0  0  0  0  0  0  0  0  0  0
   -0.7709   -0.6084   -0.8471 N   0  0  0  0  0  0  0  0  0  0  0  0
   -1.3272   -0.3136   -1.6470 H   0  0  0  0  0  0  0  0  0  0  0  0
    0.5727   -0.0091   -0.8004 C   0  0  1  0  0  0  0  0  0  0  0  0
    1.2856   -0.6228   -1.3641 H   0  0  0  0  0  0  0  0  0  0  0  0
    0.3854    1.3702   -1.4672 C   0  0  0  0  0  0  0  0  0  0  0  0
   -0.6636    1.6791   -1.4972 H   0  0  0  0  0  0  0  0  0  0  0  0
    0.9254    2.1355   -0.9019 H   0  0  0  0  0  0  0  0  0  0  0  0
    0.9608    1.3519   -2.8711 C   0  0  0  0  0  0  0  0  0  0  0  0
    0.1543    1.0094   -3.7722 O   0  5  0  0  0  0  0  0  0  0  0  0
    2.1528    1.6871   -3.0579 O   0  0  0  0  0  0  0  0  0  0  0  0
    1.1325    0.1642    0.6345 C   0  0  0  0  0  0  0  0  0  0  0  0
    2.3096   -0.0555    0.8982 O   0  0  0  0  0  0  0  0  0  0  0  0
    0.3107    0.6790    1.6226 N   0  0  0  0  0  0  0  0  0  0  0  0
   -0.6737    0.7343    1.3869 H   0  0  0  0  0  0  0  0  0  0  0  0
    0.7160    0.8062    3.0138 C   0  0  0  0  0  0  0  0  0  0  0  0
    1.6021    1.4437    3.0976 H   0  0  0  0  0  0  0  0  0  0  0  0
   -0.0898    1.2579    3.5995 H   0  0  0  0  0  0  0  0  0  0  0  0
    0.9450   -0.1777    3.4355 H   0  0  0  0  0  0  0  0  0  0  0  0
  1  2  1  0  0  0  0
  2  3  1  0  0  0  0
  2  4  1  0  0  0  0
  2  5  1  0  0  0  0
  5  6  2  0  0  0  0
  5  7  1  0  0  0  0
  7  8  1  0  0  0  0
  7  9  1  0  0  0  0
  9 10  1  0  0  0  0
  9 11  1  0  0  0  0
  9 17  1  0  0  0  0
 11 12  1  0  0  0  0
 11 13  1  0  0  0  0
 11 14  1  0  0  0  0
 14 15  1  0  0  0  0
 14 16  2  0  0  0  0
 17 18  2  0  0  0  0
 17 19  1  0  0  0  0
 19 20  1  0  0  0  0
 19 21  1  0  0  0  0
 21 22  1  0  0  0  0
 21 23  1  0  0  0  0
 21 24  1  0  0  0  0
M  CHG  1  15  -1
M  END
$$$$

  -OEChem-03222214023D

 24 23  0     1  0  0  0  0  0999 V2000
   -2.4660   -3.5156   -0.3677 H   0  0  0  0  0  0  0  0  0  0  0  0
   -2.3821   -2.5128   -0.7961 C   0  0  0  0  0  0  0  0  0  0  0  0
   -3.2313   -1.9127   -0.4606 H   0  0  0  0  0  0  0  0  0  0  0  0
   -2.4099   -2.5933   -1.8858 H   0  0  0  0  0  0  0  0  0  0  0  0
   -1.0820   -1.8619   -0.3584 C   0  0  0  0  0  0  0  0  0  0  0  0
   -0.3668   -2.4386    0.4419 O   0  0  0  0  0  0  0  0  0  0  0  0
   -0.7607   -0.6155   -0.8523 N   0  0  0  0  0  0  0  0  0  0  0  0
   -1.3371   -0.3021   -1.6297 H   0  0  0  0  0  0  0  0  0  0  0  0
    0.5813   -0.0113   -0.8057 C   0  0  1  0  0  0  0  0  0  0  0  0
    1.2978   -0.6234   -1.3665 H   0  0  0  0  0  0  0  0  0  0  0  0
    0.3901    1.3672   -1.4744 C   0  0  0  0  0  0  0  0  0  0  0  0
   -0.6601    1.6733   -1.4967 H   0  0  0  0  0  0  0  0  0  0  0  0
    0.9301    2.1335   -0.9106 H   0  0  0  0  0  0  0  0  0  0  0  0
    0.9633    1.3637   -2.8804 C   0  0  0  0  0  0  0  0  0  0  0  0
    0.1163    1.3156   -3.8071 O   0  5  0  0  0  0  0  0  0  0  0  0
    2.2049    1.3858   -3.0400 O   0  0  0  0  0  0  0  0  0  0  0  0
    1.1347    0.1658    0.6315 C   0  0  0  0  0  0  0  0  0  0  0  0
    2.3089   -0.0554    0.9058 O   0  0  0  0  0  0  0  0  0  0  0  0
    0.3059    0.6795    1.6147 N   0  0  0  0  0  0  0  0  0  0  0  0
   -0.6763    0.7400    1.3713 H   0  0  0  0  0  0  0  0  0  0  0  0
    0.7008    0.8029    3.0092 C   0  0  0  0  0  0  0  0  0  0  0  0
    1.5898    1.4354    3.1011 H   0  0  0  0  0  0  0  0  0  0  0  0
   -0.1071    1.2583    3.5891 H   0  0  0  0  0  0  0  0  0  0  0  0
    0.9213   -0.1828    3.4313 H   0  0  0  0  0  0  0  0  0  0  0  0
  1  2  1  0  0  0  0
  2  3  1  0  0  0  0
  2  4  1  0  0  0  0
  2  5  1  0  0  0  0
  5  6  2  0  0  0  0
  5  7  1  0  0  0  0
  7  8  1  0  0  0  0
  7  9  1  0  0  0  0
  9 10  1  0  0  0  0
  9 11  1  0  0  0  0
  9 17  1  0  0  0  0
 11 12  1  0  0  0  0
 11 13  1  0  0  0  0
 11 14  1  0  0  0  0
 14 15  1  0  0  0  0
 14 16  2  0  0  0  0
 17 18  2  0  0  0  0
 17 19  1  0  0  0  0
 19 20  1  0  0  0  0
 19 21  1  0  0  0  0
 21 22  1  0  0  0  0
 21 23  1  0  0  0  0
 21 24  1  0  0  0  0
M  CHG  1  15  -1
M  END
$$$$

  -OEChem-03222214023D

 24 23  0     1  0  0  0  0  0999 V2000
   -2.4836   -3.5066   -0.3357 H   0  0  0  0  0  0  0  0  0  0  0  0
   -2.3875   -2.5126   -0.7817 C   0  0  0  0  0  0  0  0  0  0  0  0
   -3.2269   -1.8953   -0.4528 H   0  0  0  0  0  0  0  0  0  0  0  0
   -2.4213   -2.6113   -1.8697 H   0  0  0  0  0  0  0  0  0  0  0  0
   -1.0767   -1.8723   -0.3607 C   0  0  0  0  0  0  0  0  0  0  0  0
   -0.3525   -2.4581    0.4247 O   0  0  0  0  0  0  0  0  0  0  0  0
   -0.7547   -0.6261   -0.8549 N   0  0  0  0  0  0  0  0  0  0  0  0
   -1.3494   -0.2945   -1.6097 H   0  0  0  0  0  0  0  0  0  0  0  0
    0.5868   -0.0190   -0.8091 C   0  0  1  0  0  0  0  0  0  0  0  0
    1.3036   -0.6346   -1.3651 H   0  0  0  0  0  0  0  0  0  0  0  0
    0.4010    1.3610   -1.4801 C   0  0  0  0  0  0  0  0  0  0  0  0
   -0.6496    1.6662   -1.4952 H   0  0  0  0  0  0  0  0  0  0  0  0
    0.9413    2.1239   -0.9127 H   0  0  0  0  0  0  0  0  0  0  0  0
    0.9707    1.3847   -2.8905 C   0  0  0  0  0  0  0  0  0  0  0  0
    0.1474    1.6436   -3.8028 O   0  5  0  0  0  0  0  0  0  0  0  0
    2.1801    1.1151   -3.0716 O   0  0  0  0  0  0  0  0  0  0  0  0
    1.1356    0.1585    0.6305 C   0  0  0  0  0  0  0  0  0  0  0  0
    2.3111   -0.0510    0.9091 O   0  0  0  0  0  0  0  0  0  0  0  0
    0.3013    0.6705    1.6103 N   0  0  0  0  0  0  0  0  0  0  0  0
   -0.6806    0.7236    1.3646 H   0  0  0  0  0  0  0  0  0  0  0  0
    0.6919    0.8043    3.0052 C   0  0  0  0  0  0  0  0  0  0  0  0
    1.5711    1.4503    3.0967 H   0  0  0  0  0  0  0  0  0  0  0  0
   -0.1239    1.2496    3.5820 H   0  0  0  0  0  0  0  0  0  0  0  0
    0.9259   -0.1767    3.4310 H   0  0  0  0  0  0  0  0  0  0  0  0
  1  2  1  0  0  0  0
  2  3  1  0  0  0  0
  2  4  1  0  0  0  0
  2  5  1  0  0  0  0
  5  6  2  0  0  0  0
  5  7  1  0  0  0  0
  7  8  1  0  0  0  0
  7  9  1  0  0  0  0
  9 10  1  0  0  0  0
  9 11  1  0  0  0  0
  9 17  1  0  0  0  0
 11 12  1  0  0  0  0
 11 13  1  0  0  0  0
 11 14  1  0  0  0  0
 14 15  1  0  0  0  0
 14 16  2  0  0  0  0
 17 18  2  0  0  0  0
 17 19  1  0  0  0  0
 19 20  1  0  0  0  0
 19 21  1  0  0  0  0
 21 22  1  0  0  0  0
 21 23  1  0  0  0  0
 21 24  1  0  0  0  0
M  CHG  1  15  -1
M  END
$$$$

  -OEChem-03222214023D

 24 23  0     1  0  0  0  0  0999 V2000
   -2.4817   -3.5197   -0.3434 H   0  0  0  0  0  0  0  0  0  0  0  0
   -2.3939   -2.5178   -0.7732 C   0  0  0  0  0  0  0  0  0  0  0  0
   -3.2304   -1.9086   -0.4226 H   0  0  0  0  0  0  0  0  0  0  0  0
   -2.4414   -2.5980   -1.8623 H   0  0  0  0  0  0  0  0  0  0  0  0
   -1.0791   -1.8819   -0.3579 C   0  0  0  0  0  0  0  0  0  0  0  0
   -0.3568   -2.4670    0.4296 O   0  0  0  0  0  0  0  0  0  0  0  0
   -0.7533   -0.6382   -0.8563 N   0  0  0  0  0  0  0  0  0  0  0  0
   -1.3508   -0.3033   -1.6065 H   0  0  0  0  0  0  0  0  0  0  0  0
    0.5899   -0.0339   -0.8095 C   0  0  1  0  0  0  0  0  0  0  0  0
    1.3045   -0.6594   -1.3563 H   0  0  0  0  0  0  0  0  0  0  0  0
    0.4153    1.3499   -1.4822 C   0  0  0  0  0  0  0  0  0  0  0  0
   -0.6355    1.6553   -1.4938 H   0  0  0  0  0  0  0  0  0  0  0  0
    0.9543    2.1078   -0.9069 H   0  0  0  0  0  0  0  0  0  0  0  0
    0.9802    1.4091   -2.8965 C   0  0  0  0  0  0  0  0  0  0  0  0
    0.2429    1.9644   -3.7478 O   0  5  0  0  0  0  0  0  0  0  0  0
    2.0850    0.8752   -3.1491 O   0  0  0  0  0  0  0  0  0  0  0  0
    1.1347    0.1474    0.6308 C   0  0  0  0  0  0  0  0  0  0  0  0
    2.3113   -0.0527    0.9120 O   0  0  0  0  0  0  0  0  0  0  0  0
    0.2983    0.6650    1.6055 N   0  0  0  0  0  0  0  0  0  0  0  0
   -0.6822    0.7239    1.3558 H   0  0  0  0  0  0  0  0  0  0  0  0
    0.6870    0.8132    2.9992 C   0  0  0  0  0  0  0  0  0  0  0  0
    1.5679    1.4577    3.0852 H   0  0  0  0  0  0  0  0  0  0  0  0
   -0.1288    1.2668    3.5695 H   0  0  0  0  0  0  0  0  0  0  0  0
    0.9181   -0.1637    3.4360 H   0  0  0  0  0  0  0  0  0  0  0  0
  1  2  1  0  0  0  0
  2  3  1  0  0  0  0
  2  4  1  0  0  0  0
  2  5  1  0  0  0  0
  5  6  2  0  0  0  0
  5  7  1  0  0  0  0
  7  8  1  0  0  0  0
  7  9  1  0  0  0  0
  9 10  1  0  0  0  0
  9 11  1  0  0  0  0
  9 17  1  0  0  0  0
 11 12  1  0  0  0  0
 11 13  1  0  0  0  0
 11 14  1  0  0  0  0
 14 15  1  0  0  0  0
 14 16  2  0  0  0  0
 17 18  2  0  0  0  0
 17 19  1  0  0  0  0
 19 20  1  0  0  0  0
 19 21  1  0  0  0  0
 21 22  1  0  0  0  0
 21 23  1  0  0  0  0
 21 24  1  0  0  0  0
M  CHG  1  15  -1
M  END
$$$$

  -OEChem-03222214023D

 24 23  0     1  0  0  0  0  0999 V2000
   -2.4845   -3.5284   -0.3510 H   0  0  0  0  0  0  0  0  0  0  0  0
   -2.3967   -2.5265   -0.7804 C   0  0  0  0  0  0  0  0  0  0  0  0
   -3.2419   -1.9221   -0.4421 H   0  0  0  0  0  0  0  0  0  0  0  0
   -2.4289   -2.6081   -1.8699 H   0  0  0  0  0  0  0  0  0  0  0  0
   -1.0912   -1.8828   -0.3476 C   0  0  0  0  0  0  0  0  0  0  0  0
   -0.3822   -2.4577    0.4593 O   0  0  0  0  0  0  0  0  0  0  0  0
   -0.7610   -0.6426   -0.8516 N   0  0  0  0  0  0  0  0  0  0  0  0
   -1.3472   -0.3206   -1.6156 H   0  0  0  0  0  0  0  0  0  0  0  0
    0.5857   -0.0458   -0.8054 C   0  0  1  0  0  0  0  0  0  0  0  0
    1.2959   -0.6838   -1.3424 H   0  0  0  0  0  0  0  0  0  0  0  0
    0.4275    1.3405   -1.4829 C   0  0  0  0  0  0  0  0  0  0  0  0
   -0.6217    1.6500   -1.4942 H   0  0  0  0  0  0  0  0  0  0  0  0
    0.9677    2.0920   -0.9003 H   0  0  0  0  0  0  0  0  0  0  0  0
    0.9879    1.4280   -2.9004 C   0  0  0  0  0  0  0  0  0  0  0  0
    0.4014    2.2420   -3.6547 O   0  5  0  0  0  0  0  0  0  0  0  0
    1.9065    0.6573   -3.2649 O   0  0  0  0  0  0  0  0  0  0  0  0
    1.1311    0.1385    0.6345 C   0  0  0  0  0  0  0  0  0  0  0  0
    2.3111   -0.0499    0.9098 O   0  0  0  0  0  0  0  0  0  0  0  0
    0.2986    0.6646    1.6080 N   0  0  0  0  0  0  0  0  0  0  0  0
   -0.6837    0.7164    1.3633 H   0  0  0  0  0  0  0  0  0  0  0  0
    0.6936    0.8250    2.9986 C   0  0  0  0  0  0  0  0  0  0  0  0
    1.5720    1.4740    3.0750 H   0  0  0  0  0  0  0  0  0  0  0  0
   -0.1212    1.2792    3.5697 H   0  0  0  0  0  0  0  0  0  0  0  0
    0.9312   -0.1473    3.4419 H   0  0  0  0  0  0  0  0  0  0  0  0
  1  2  1  0  0  0  0
  2  3  1  0  0  0  0
  2  4  1  0  0  0  0
  2  5  1  0  0  0  0
  5  6  2  0  0  0  0
  5  7  1  0  0  0  0
  7  8  1  0  0  0  0
  7  9  1  0  0  0  0
  9 10  1  0  0  0  0
  9 11  1  0  0  0  0
  9 17  1  0  0  0  0
 11 12  1  0  0  0  0
 11 13  1  0  0  0  0
 11 14  1  0  0  0  0
 14 15  1  0  0  0  0
 14 16  2  0  0  0  0
 17 18  2  0  0  0  0
 17 19  1  0  0  0  0
 19 20  1  0  0  0  0
 19 21  1  0  0  0  0
 21 22  1  0  0  0  0
 21 23  1  0  0  0  0
 21 24  1  0  0  0  0
M  CHG  1  15  -1
M  END
$$$$

  -OEChem-03222214023D

 24 23  0     1  0  0  0  0  0999 V2000
   -2.4913   -3.5317   -0.3491 H   0  0  0  0  0  0  0  0  0  0  0  0
   -2.3960   -2.5363   -0.7922 C   0  0  0  0  0  0  0  0  0  0  0  0
   -3.2508   -1.9294   -0.4842 H   0  0  0  0  0  0  0  0  0  0  0  0
   -2.4013   -2.6352   -1.8807 H   0  0  0  0  0  0  0  0  0  0  0  0
   -1.1031   -1.8815   -0.3391 C   0  0  0  0  0  0  0  0  0  0  0  0
   -0.4061   -2.4465    0.4855 O   0  0  0  0  0  0  0  0  0  0  0  0
   -0.7717   -0.6427   -0.8459 N   0  0  0  0  0  0  0  0  0  0  0  0
   -1.3434   -0.3369   -1.6270 H   0  0  0  0  0  0  0  0  0  0  0  0
    0.5777   -0.0526   -0.8010 C   0  0  1  0  0  0  0  0  0  0  0  0
    1.2852   -0.6983   -1.3319 H   0  0  0  0  0  0  0  0  0  0  0  0
    0.4353    1.3366   -1.4796 C   0  0  0  0  0  0  0  0  0  0  0  0
   -0.6109    1.6553   -1.4927 H   0  0  0  0  0  0  0  0  0  0  0  0
    0.9809    2.0799   -0.8914 H   0  0  0  0  0  0  0  0  0  0  0  0
    0.9944    1.4371   -2.8977 C   0  0  0  0  0  0  0  0  0  0  0  0
    0.6230    2.4478   -3.5418 O   0  5  0  0  0  0  0  0  0  0  0  0
    1.6464    0.4846   -3.3881 O   0  0  0  0  0  0  0  0  0  0  0  0
    1.1262    0.1313    0.6375 C   0  0  0  0  0  0  0  0  0  0  0  0
    2.3098   -0.0486    0.9039 O   0  0  0  0  0  0  0  0  0  0  0  0
    0.2993    0.6625    1.6129 N   0  0  0  0  0  0  0  0  0  0  0  0
   -0.6846    0.7131    1.3740 H   0  0  0  0  0  0  0  0  0  0  0  0
    0.7042    0.8360    2.9991 C   0  0  0  0  0  0  0  0  0  0  0  0
    1.5802    1.4895    3.0634 H   0  0  0  0  0  0  0  0  0  0  0  0
   -0.1080    1.2915    3.5729 H   0  0  0  0  0  0  0  0  0  0  0  0
    0.9493   -0.1319    3.4479 H   0  0  0  0  0  0  0  0  0  0  0  0
  1  2  1  0  0  0  0
  2  3  1  0  0  0  0
  2  4  1  0  0  0  0
  2  5  1  0  0  0  0
  5  6  2  0  0  0  0
  5  7  1  0  0  0  0
  7  8  1  0  0  0  0
  7  9  1  0  0  0  0
  9 10  1  0  0  0  0
  9 11  1  0  0  0  0
  9 17  1  0  0  0  0
 11 12  1  0  0  0  0
 11 13  1  0  0  0  0
 11 14  1  0  0  0  0
 14 15  1  0  0  0  0
 14 16  2  0  0  0  0
 17 18  2  0  0  0  0
 17 19  1  0  0  0  0
 19 20  1  0  0  0  0
 19 21  1  0  0  0  0
 21 22  1  0  0  0  0
 21 23  1  0  0  0  0
 21 24  1  0  0  0  0
M  CHG  1  15  -1
M  END
$$$$

  -OEChem-03222214023D

 24 23  0     1  0  0  0  0  0999 V2000
   -2.4978   -3.5187   -0.3471 H   0  0  0  0  0  0  0  0  0  0  0  0
   -2.3771   -2.5486   -0.8371 C   0  0  0  0  0  0  0  0  0  0  0  0
   -3.2603   -1.9378   -0.6351 H   0  0  0  0  0  0  0  0  0  0  0  0
   -2.2920   -2.7078   -1.9152 H   0  0  0  0  0  0  0  0  0  0  0  0
   -1.1326   -1.8497   -0.3195 C   0  0  0  0  0  0  0  0  0  0  0  0
   -0.4788   -2.3741    0.5664 O   0  0  0  0  0  0  0  0  0  0  0  0
   -0.8004   -0.6146   -0.8335 N   0  0  0  0  0  0  0  0  0  0  0  0
   -1.3071   -0.3780   -1.6836 H   0  0  0  0  0  0  0  0  0  0  0  0
    0.5556   -0.0454   -0.7931 C   0  0  1  0  0  0  0  0  0  0  0  0
    1.2575   -0.6868   -1.3380 H   0  0  0  0  0  0  0  0  0  0  0  0
    0.4272    1.3423   -1.4638 C   0  0  0  0  0  0  0  0  0  0  0  0
   -0.5434    1.7947   -1.2422 H   0  0  0  0  0  0  0  0  0  0  0  0
    1.1932    2.0068   -1.0533 H   0  0  0  0  0  0  0  0  0  0  0  0
    0.6426    1.3239   -2.9741 C   0  0  0  0  0  0  0  0  0  0  0  0
    0.5486    2.4316   -3.5536 O   0  5  0  0  0  0  0  0  0  0  0  0
    0.6617    0.2144   -3.5636 O   0  0  0  0  0  0  0  0  0  0  0  0
    1.1197    0.1357    0.6381 C   0  0  0  0  0  0  0  0  0  0  0  0
    2.3099   -0.0408    0.8793 O   0  0  0  0  0  0  0  0  0  0  0  0
    0.3123    0.6816    1.6208 N   0  0  0  0  0  0  0  0  0  0  0  0
   -0.6781    0.7018    1.4035 H   0  0  0  0  0  0  0  0  0  0  0  0
    0.7356    0.8413    3.0031 C   0  0  0  0  0  0  0  0  0  0  0  0
    1.6120    1.4947    3.0620 H   0  0  0  0  0  0  0  0  0  0  0  0
   -0.0693    1.2903    3.5921 H   0  0  0  0  0  0  0  0  0  0  0  0
    0.9870   -0.1308    3.4394 H   0  0  0  0  0  0  0  0  0  0  0  0
  1  2  1  0  0  0  0
  2  3  1  0  0  0  0
  2  4  1  0  0  0  0
  2  5  1  0  0  0  0
  5  6  2  0  0  0  0
  5  7  1  0  0  0  0
  7  8  1  0  0  0  0
  7  9  1  0  0  0  0
  9 10  1  0  0  0  0
  9 11  1  0  0  0  0
  9 17  1  0  0  0  0
 11 12  1  0  0  0  0
 11 13  1  0  0  0  0
 11 14  1  0  0  0  0
 14 15  1  0  0  0  0
 14 16  2  0  0  0  0
 17 18  2  0  0  0  0
 17 19  1  0  0  0  0
 19 20  1  0  0  0  0
 19 21  1  0  0  0  0
 21 22  1  0  0  0  0
 21 23  1  0  0  0  0
 21 24  1  0  0  0  0
M  CHG  1  15  -1
M  END
$$$$

  -OEChem-03222214023D

 24 23  0     1  0  0  0  0  0999 V2000
   -2.4871   -3.5221   -0.3723 H   0  0  0  0  0  0  0  0  0  0  0  0
   -2.3688   -2.5483   -0.8555 C   0  0  0  0  0  0  0  0  0  0  0  0
   -3.2625   -1.9486   -0.6676 H   0  0  0  0  0  0  0  0  0  0  0  0
   -2.2613   -2.7011   -1.9325 H   0  0  0  0  0  0  0  0  0  0  0  0
   -1.1432   -1.8362   -0.3120 C   0  0  0  0  0  0  0  0  0  0  0  0
   -0.5060   -2.3496    0.5925 O   0  0  0  0  0  0  0  0  0  0  0  0
   -0.8101   -0.6016   -0.8254 N   0  0  0  0  0  0  0  0  0  0  0  0
   -1.2950   -0.3839   -1.6948 H   0  0  0  0  0  0  0  0  0  0  0  0
    0.5472   -0.0383   -0.7876 C   0  0  1  0  0  0  0  0  0  0  0  0
    1.2432   -0.6779   -1.3424 H   0  0  0  0  0  0  0  0  0  0  0  0
    0.4157    1.3476   -1.4584 C   0  0  0  0  0  0  0  0  0  0  0  0
   -0.5533    1.8047   -1.2403 H   0  0  0  0  0  0  0  0  0  0  0  0
    1.1849    2.0127   -1.0545 H   0  0  0  0  0  0  0  0  0  0  0  0
    0.6287    1.2982   -2.9668 C   0  0  0  0  0  0  0  0  0  0  0  0
    0.8298    2.3908   -3.5470 O   0  5  0  0  0  0  0  0  0  0  0  0
    0.3580    0.2183   -3.5529 O   0  0  0  0  0  0  0  0  0  0  0  0
    1.1205    0.1400    0.6396 C   0  0  0  0  0  0  0  0  0  0  0  0
    2.3106   -0.0465    0.8735 O   0  0  0  0  0  0  0  0  0  0  0  0
    0.3205    0.6886    1.6265 N   0  0  0  0  0  0  0  0  0  0  0  0
   -0.6710    0.7104    1.4134 H   0  0  0  0  0  0  0  0  0  0  0  0
    0.7488    0.8378    3.0080 C   0  0  0  0  0  0  0  0  0  0  0  0
    1.6306    1.4839    3.0676 H   0  0  0  0  0  0  0  0  0  0  0  0
   -0.0511    1.2905    3.6011 H   0  0  0  0  0  0  0  0  0  0  0  0
    0.9934   -0.1384    3.4388 H   0  0  0  0  0  0  0  0  0  0  0  0
  1  2  1  0  0  0  0
  2  3  1  0  0  0  0
  2  4  1  0  0  0  0
  2  5  1  0  0  0  0
  5  6  2  0  0  0  0
  5  7  1  0  0  0  0
  7  8  1  0  0  0  0
  7  9  1  0  0  0  0
  9 10  1  0  0  0  0
  9 11  1  0  0  0  0
  9 17  1  0  0  0  0
 11 12  1  0  0  0  0
 11 13  1  0  0  0  0
 11 14  1  0  0  0  0
 14 15  1  0  0  0  0
 14 16  2  0  0  0  0
 17 18  2  0  0  0  0
 17 19  1  0  0  0  0
 19 20  1  0  0  0  0
 19 21  1  0  0  0  0
 21 22  1  0  0  0  0
 21 23  1  0  0  0  0
 21 24  1  0  0  0  0
M  CHG  1  15  -1
M  END
$$$$

  -OEChem-03222214023D

 24 23  0     1  0  0  0  0  0999 V2000
   -2.4874   -3.5164   -0.3841 H   0  0  0  0  0  0  0  0  0  0  0  0
   -2.3660   -2.5432   -0.8678 C   0  0  0  0  0  0  0  0  0  0  0  0
   -3.2627   -1.9447   -0.6898 H   0  0  0  0  0  0  0  0  0  0  0  0
   -2.2478   -2.6974   -1.9437 H   0  0  0  0  0  0  0  0  0  0  0  0
   -1.1466   -1.8283   -0.3136 C   0  0  0  0  0  0  0  0  0  0  0  0
   -0.5130   -2.3415    0.5938 O   0  0  0  0  0  0  0  0  0  0  0  0
   -0.8123   -0.5929   -0.8236 N   0  0  0  0  0  0  0  0  0  0  0  0
   -1.2870   -0.3799   -1.7018 H   0  0  0  0  0  0  0  0  0  0  0  0
    0.5446   -0.0295   -0.7848 C   0  0  1  0  0  0  0  0  0  0  0  0
    1.2391   -0.6646   -1.3471 H   0  0  0  0  0  0  0  0  0  0  0  0
    0.4009    1.3543   -1.4542 C   0  0  0  0  0  0  0  0  0  0  0  0
   -0.5707    1.8081   -1.2410 H   0  0  0  0  0  0  0  0  0  0  0  0
    1.1668    2.0264   -1.0553 H   0  0  0  0  0  0  0  0  0  0  0  0
    0.6134    1.2758   -2.9593 C   0  0  0  0  0  0  0  0  0  0  0  0
    1.0887    2.2793   -3.5402 O   0  5  0  0  0  0  0  0  0  0  0  0
    0.1111    0.2789   -3.5421 O   0  0  0  0  0  0  0  0  0  0  0  0
    1.1219    0.1471    0.6409 C   0  0  0  0  0  0  0  0  0  0  0  0
    2.3111   -0.0482    0.8722 O   0  0  0  0  0  0  0  0  0  0  0  0
    0.3258    0.6942    1.6318 N   0  0  0  0  0  0  0  0  0  0  0  0
   -0.6659    0.7210    1.4203 H   0  0  0  0  0  0  0  0  0  0  0  0
    0.7569    0.8314    3.0139 C   0  0  0  0  0  0  0  0  0  0  0  0
    1.6389    1.4766    3.0779 H   0  0  0  0  0  0  0  0  0  0  0  0
   -0.0417    1.2784    3.6128 H   0  0  0  0  0  0  0  0  0  0  0  0
    1.0024   -0.1487    3.4355 H   0  0  0  0  0  0  0  0  0  0  0  0
  1  2  1  0  0  0  0
  2  3  1  0  0  0  0
  2  4  1  0  0  0  0
  2  5  1  0  0  0  0
  5  6  2  0  0  0  0
  5  7  1  0  0  0  0
  7  8  1  0  0  0  0
  7  9  1  0  0  0  0
  9 10  1  0  0  0  0
  9 11  1  0  0  0  0
  9 17  1  0  0  0  0
 11 12  1  0  0  0  0
 11 13  1  0  0  0  0
 11 14  1  0  0  0  0
 14 15  1  0  0  0  0
 14 16  2  0  0  0  0
 17 18  2  0  0  0  0
 17 19  1  0  0  0  0
 19 20  1  0  0  0  0
 19 21  1  0  0  0  0
 21 22  1  0  0  0  0
 21 23  1  0  0  0  0
 21 24  1  0  0  0  0
M  CHG  1  15  -1
M  END
$$$$

  -OEChem-03222214023D

 24 23  0     1  0  0  0  0  0999 V2000
   -2.4903   -3.5122   -0.3995 H   0  0  0  0  0  0  0  0  0  0  0  0
   -2.3693   -2.5349   -0.8748 C   0  0  0  0  0  0  0  0  0  0  0  0
   -3.2620   -1.9349   -0.6828 H   0  0  0  0  0  0  0  0  0  0  0  0
   -2.2616   -2.6785   -1.9533 H   0  0  0  0  0  0  0  0  0  0  0  0
   -1.1424   -1.8296   -0.3251 C   0  0  0  0  0  0  0  0  0  0  0  0
   -0.5001   -2.3539    0.5697 O   0  0  0  0  0  0  0  0  0  0  0  0
   -0.8081   -0.5910   -0.8267 N   0  0  0  0  0  0  0  0  0  0  0  0
   -1.2866   -0.3664   -1.7013 H   0  0  0  0  0  0  0  0  0  0  0  0
    0.5466   -0.0236   -0.7846 C   0  0  1  0  0  0  0  0  0  0  0  0
    1.2429   -0.6504   -1.3538 H   0  0  0  0  0  0  0  0  0  0  0  0
    0.3878    1.3603   -1.4469 C   0  0  0  0  0  0  0  0  0  0  0  0
   -0.5882    1.8059   -1.2354 H   0  0  0  0  0  0  0  0  0  0  0  0
    1.1482    2.0404   -1.0504 H   0  0  0  0  0  0  0  0  0  0  0  0
    0.6008    1.2626   -2.9491 C   0  0  0  0  0  0  0  0  0  0  0  0
    1.3168    2.1178   -3.5196 O   0  5  0  0  0  0  0  0  0  0  0  0
   -0.0826    0.3829   -3.5374 O   0  0  0  0  0  0  0  0  0  0  0  0
    1.1242    0.1474    0.6417 C   0  0  0  0  0  0  0  0  0  0  0  0
    2.3131   -0.0485    0.8729 O   0  0  0  0  0  0  0  0  0  0  0  0
    0.3263    0.6868    1.6355 N   0  0  0  0  0  0  0  0  0  0  0  0
   -0.6653    0.7164    1.4242 H   0  0  0  0  0  0  0  0  0  0  0  0
    0.7597    0.8317    3.0161 C   0  0  0  0  0  0  0  0  0  0  0  0
    1.6427    1.4761    3.0742 H   0  0  0  0  0  0  0  0  0  0  0  0
   -0.0372    1.2840    3.6136 H   0  0  0  0  0  0  0  0  0  0  0  0
    1.0044   -0.1459    3.4435 H   0  0  0  0  0  0  0  0  0  0  0  0
  1  2  1  0  0  0  0
  2  3  1  0  0  0  0
  2  4  1  0  0  0  0
  2  5  1  0  0  0  0
  5  6  2  0  0  0  0
  5  7  1  0  0  0  0
  7  8  1  0  0  0  0
  7  9  1  0  0  0  0
  9 10  1  0  0  0  0
  9 11  1  0  0  0  0
  9 17  1  0  0  0  0
 11 12  1  0  0  0  0
 11 13  1  0  0  0  0
 11 14  1  0  0  0  0
 14 15  1  0  0  0  0
 14 16  2  0  0  0  0
 17 18  2  0  0  0  0
 17 19  1  0  0  0  0
 19 20  1  0  0  0  0
 19 21  1  0  0  0  0
 21 22  1  0  0  0  0
 21 23  1  0  0  0  0
 21 24  1  0  0  0  0
M  CHG  1  15  -1
M  END
$$$$

  -OEChem-03222214023D

 24 23  0     1  0  0  0  0  0999 V2000
   -2.4872   -3.5072   -0.4080 H   0  0  0  0  0  0  0  0  0  0  0  0
   -2.3732   -2.5231   -0.8709 C   0  0  0  0  0  0  0  0  0  0  0  0
   -3.2595   -1.9234   -0.6507 H   0  0  0  0  0  0  0  0  0  0  0  0
   -2.2894   -2.6509   -1.9534 H   0  0  0  0  0  0  0  0  0  0  0  0
   -1.1328   -1.8298   -0.3364 C   0  0  0  0  0  0  0  0  0  0  0  0
   -0.4788   -2.3656    0.5428 O   0  0  0  0  0  0  0  0  0  0  0  0
   -0.7989   -0.5888   -0.8325 N   0  0  0  0  0  0  0  0  0  0  0  0
   -1.2897   -0.3472   -1.6965 H   0  0  0  0  0  0  0  0  0  0  0  0
    0.5532   -0.0155   -0.7880 C   0  0  1  0  0  0  0  0  0  0  0  0
    1.2539   -0.6343   -1.3604 H   0  0  0  0  0  0  0  0  0  0  0  0
    0.3790    1.3675   -1.4443 C   0  0  0  0  0  0  0  0  0  0  0  0
   -0.6011    1.8042   -1.2332 H   0  0  0  0  0  0  0  0  0  0  0  0
    1.1328    2.0565   -1.0510 H   0  0  0  0  0  0  0  0  0  0  0  0
    0.5925    1.2552   -2.9436 C   0  0  0  0  0  0  0  0  0  0  0  0
    1.5051    1.9134   -3.4939 O   0  5  0  0  0  0  0  0  0  0  0  0
   -0.2315    0.5141   -3.5427 O   0  0  0  0  0  0  0  0  0  0  0  0
    1.1280    0.1531    0.6395 C   0  0  0  0  0  0  0  0  0  0  0  0
    2.3162   -0.0420    0.8745 O   0  0  0  0  0  0  0  0  0  0  0  0
    0.3253    0.6857    1.6331 N   0  0  0  0  0  0  0  0  0  0  0  0
   -0.6658    0.7121    1.4188 H   0  0  0  0  0  0  0  0  0  0  0  0
    0.7539    0.8249    3.0157 C   0  0  0  0  0  0  0  0  0  0  0  0
    1.6388    1.4663    3.0797 H   0  0  0  0  0  0  0  0  0  0  0  0
   -0.0439    1.2779    3.6111 H   0  0  0  0  0  0  0  0  0  0  0  0
    0.9939   -0.1550    3.4408 H   0  0  0  0  0  0  0  0  0  0  0  0
  1  2  1  0  0  0  0
  2  3  1  0  0  0  0
  2  4  1  0  0  0  0
  2  5  1  0  0  0  0
  5  6  2  0  0  0  0
  5  7  1  0  0  0  0
  7  8  1  0  0  0  0
  7  9  1  0  0  0  0
  9 10  1  0  0  0  0
  9 11  1  0  0  0  0
  9 17  1  0  0  0  0
 11 12  1  0  0  0  0
 11 13  1  0  0  0  0
 11 14  1  0  0  0  0
 14 15  1  0  0  0  0
 14 16  2  0  0  0  0
 17 18  2  0  0  0  0
 17 19  1  0  0  0  0
 19 20  1  0  0  0  0
 19 21  1  0  0  0  0
 21 22  1  0  0  0  0
 21 23  1  0  0  0  0
 21 24  1  0  0  0  0
M  CHG  1  15  -1
M  END
$$$$

  -OEChem-03222214023D

 24 23  0     1  0  0  0  0  0999 V2000
   -2.4461   -3.5254   -0.4596 H   0  0  0  0  0  0  0  0  0  0  0  0
   -2.3751   -2.5112   -0.8624 C   0  0  0  0  0  0  0  0  0  0  0  0
   -3.2610   -1.9471   -0.5610 H   0  0  0  0  0  0  0  0  0  0  0  0
   -2.3430   -2.5682   -1.9538 H   0  0  0  0  0  0  0  0  0  0  0  0
   -1.1231   -1.8262   -0.3441 C   0  0  0  0  0  0  0  0  0  0  0  0
   -0.4587   -2.3697    0.5225 O   0  0  0  0  0  0  0  0  0  0  0  0
   -0.7892   -0.5846   -0.8390 N   0  0  0  0  0  0  0  0  0  0  0  0
   -1.2945   -0.3273   -1.6903 H   0  0  0  0  0  0  0  0  0  0  0  0
    0.5613   -0.0059   -0.7918 C   0  0  1  0  0  0  0  0  0  0  0  0
    1.2669   -0.6200   -1.3636 H   0  0  0  0  0  0  0  0  0  0  0  0
    0.3745    1.3738   -1.4481 C   0  0  0  0  0  0  0  0  0  0  0  0
   -0.6094    1.8034   -1.2386 H   0  0  0  0  0  0  0  0  0  0  0  0
    1.1230    2.0715   -1.0604 H   0  0  0  0  0  0  0  0  0  0  0  0
    0.5907    1.2474   -2.9443 C   0  0  0  0  0  0  0  0  0  0  0  0
    1.6487    1.6700   -3.4643 O   0  5  0  0  0  0  0  0  0  0  0  0
   -0.3385    0.6606   -3.5595 O   0  0  0  0  0  0  0  0  0  0  0  0
    1.1313    0.1652    0.6375 C   0  0  0  0  0  0  0  0  0  0  0  0
    2.3171   -0.0345    0.8801 O   0  0  0  0  0  0  0  0  0  0  0  0
    0.3238    0.6952    1.6288 N   0  0  0  0  0  0  0  0  0  0  0  0
   -0.6660    0.7229    1.4090 H   0  0  0  0  0  0  0  0  0  0  0  0
    0.7426    0.8160    3.0164 C   0  0  0  0  0  0  0  0  0  0  0  0
    1.6416    1.4360    3.0928 H   0  0  0  0  0  0  0  0  0  0  0  0
   -0.0496    1.2841    3.6080 H   0  0  0  0  0  0  0  0  0  0  0  0
    0.9559   -0.1720    3.4370 H   0  0  0  0  0  0  0  0  0  0  0  0
  1  2  1  0  0  0  0
  2  3  1  0  0  0  0
  2  4  1  0  0  0  0
  2  5  1  0  0  0  0
  5  6  2  0  0  0  0
  5  7  1  0  0  0  0
  7  8  1  0  0  0  0
  7  9  1  0  0  0  0
  9 10  1  0  0  0  0
  9 11  1  0  0  0  0
  9 17  1  0  0  0  0
 11 12  1  0  0  0  0
 11 13  1  0  0  0  0
 11 14  1  0  0  0  0
 14 15  1  0  0  0  0
 14 16  2  0  0  0  0
 17 18  2  0  0  0  0
 17 19  1  0  0  0  0
 19 20  1  0  0  0  0
 19 21  1  0  0  0  0
 21 22  1  0  0  0  0
 21 23  1  0  0  0  0
 21 24  1  0  0  0  0
M  CHG  1  15  -1
M  END
$$$$

  -OEChem-03222214023D

 24 23  0     1  0  0  0  0  0999 V2000
   -2.4589   -3.5110   -0.4525 H   0  0  0  0  0  0  0  0  0  0  0  0
   -2.3790   -2.4978   -0.8562 C   0  0  0  0  0  0  0  0  0  0  0  0
   -3.2515   -1.9205   -0.5412 H   0  0  0  0  0  0  0  0  0  0  0  0
   -2.3647   -2.5549   -1.9478 H   0  0  0  0  0  0  0  0  0  0  0  0
   -1.1093   -1.8314   -0.3573 C   0  0  0  0  0  0  0  0  0  0  0  0
   -0.4324   -2.3905    0.4892 O   0  0  0  0  0  0  0  0  0  0  0  0
   -0.7742   -0.5880   -0.8466 N   0  0  0  0  0  0  0  0  0  0  0  0
   -1.3007   -0.3059   -1.6761 H   0  0  0  0  0  0  0  0  0  0  0  0
    0.5739   -0.0038   -0.7964 C   0  0  1  0  0  0  0  0  0  0  0  0
    1.2849   -0.6098   -1.3704 H   0  0  0  0  0  0  0  0  0  0  0  0
    0.3732    1.3758   -1.4456 C   0  0  0  0  0  0  0  0  0  0  0  0
   -0.6129    1.7977   -1.2297 H   0  0  0  0  0  0  0  0  0  0  0  0
    1.1182    2.0783   -1.0606 H   0  0  0  0  0  0  0  0  0  0  0  0
    0.5882    1.2525   -2.9413 C   0  0  0  0  0  0  0  0  0  0  0  0
    1.7305    1.4194   -3.4263 O   0  5  0  0  0  0  0  0  0  0  0  0
   -0.4208    0.8537   -3.5795 O   0  0  0  0  0  0  0  0  0  0  0  0
    1.1376    0.1640    0.6360 C   0  0  0  0  0  0  0  0  0  0  0  0
    2.3221   -0.0331    0.8863 O   0  0  0  0  0  0  0  0  0  0  0  0
    0.3220    0.6872    1.6246 N   0  0  0  0  0  0  0  0  0  0  0  0
   -0.6661    0.7172    1.3978 H   0  0  0  0  0  0  0  0  0  0  0  0
    0.7332    0.8137    3.0139 C   0  0  0  0  0  0  0  0  0  0  0  0
    1.6284    1.4387    3.0932 H   0  0  0  0  0  0  0  0  0  0  0  0
   -0.0644    1.2790    3.6002 H   0  0  0  0  0  0  0  0  0  0  0  0
    0.9495   -0.1720    3.4381 H   0  0  0  0  0  0  0  0  0  0  0  0
  1  2  1  0  0  0  0
  2  3  1  0  0  0  0
  2  4  1  0  0  0  0
  2  5  1  0  0  0  0
  5  6  2  0  0  0  0
  5  7  1  0  0  0  0
  7  8  1  0  0  0  0
  7  9  1  0  0  0  0
  9 10  1  0  0  0  0
  9 11  1  0  0  0  0
  9 17  1  0  0  0  0
 11 12  1  0  0  0  0
 11 13  1  0  0  0  0
 11 14  1  0  0  0  0
 14 15  1  0  0  0  0
 14 16  2  0  0  0  0
 17 18  2  0  0  0  0
 17 19  1  0  0  0  0
 19 20  1  0  0  0  0
 19 21  1  0  0  0  0
 21 22  1  0  0  0  0
 21 23  1  0  0  0  0
 21 24  1  0  0  0  0
M  CHG  1  15  -1
M  END
$$$$

  -OEChem-03222214023D

 24 23  0     1  0  0  0  0  0999 V2000
   -2.4884   -3.4916   -0.4153 H   0  0  0  0  0  0  0  0  0  0  0  0
   -2.3851   -2.4939   -0.8510 C   0  0  0  0  0  0  0  0  0  0  0  0
   -3.2462   -1.8887   -0.5576 H   0  0  0  0  0  0  0  0  0  0  0  0
   -2.3683   -2.5862   -1.9402 H   0  0  0  0  0  0  0  0  0  0  0  0
   -1.1027   -1.8398   -0.3685 C   0  0  0  0  0  0  0  0  0  0  0  0
   -0.4150   -2.4107    0.4609 O   0  0  0  0  0  0  0  0  0  0  0  0
   -0.7665   -0.5948   -0.8534 N   0  0  0  0  0  0  0  0  0  0  0  0
   -1.3144   -0.2889   -1.6587 H   0  0  0  0  0  0  0  0  0  0  0  0
    0.5810   -0.0075   -0.7993 C   0  0  1  0  0  0  0  0  0  0  0  0
    1.2951   -0.6112   -1.3721 H   0  0  0  0  0  0  0  0  0  0  0  0
    0.3793    1.3738   -1.4443 C   0  0  0  0  0  0  0  0  0  0  0  0
   -0.6058    1.7948   -1.2214 H   0  0  0  0  0  0  0  0  0  0  0  0
    1.1259    2.0731   -1.0570 H   0  0  0  0  0  0  0  0  0  0  0  0
    0.5957    1.2688   -2.9419 C   0  0  0  0  0  0  0  0  0  0  0  0
    1.7582    1.1641   -3.3953 O   0  5  0  0  0  0  0  0  0  0  0  0
   -0.4577    1.1150   -3.6113 O   0  0  0  0  0  0  0  0  0  0  0  0
    1.1395    0.1570    0.6359 C   0  0  0  0  0  0  0  0  0  0  0  0
    2.3245   -0.0309    0.8906 O   0  0  0  0  0  0  0  0  0  0  0  0
    0.3190    0.6754    1.6232 N   0  0  0  0  0  0  0  0  0  0  0  0
   -0.6687    0.7039    1.3950 H   0  0  0  0  0  0  0  0  0  0  0  0
    0.7297    0.8162    3.0113 C   0  0  0  0  0  0  0  0  0  0  0  0
    1.6102    1.4623    3.0862 H   0  0  0  0  0  0  0  0  0  0  0  0
   -0.0774    1.2647    3.5977 H   0  0  0  0  0  0  0  0  0  0  0  0
    0.9697   -0.1625    3.4388 H   0  0  0  0  0  0  0  0  0  0  0  0
  1  2  1  0  0  0  0
  2  3  1  0  0  0  0
  2  4  1  0  0  0  0
  2  5  1  0  0  0  0
  5  6  2  0  0  0  0
  5  7  1  0  0  0  0
  7  8  1  0  0  0  0
  7  9  1  0  0  0  0
  9 10  1  0  0  0  0
  9 11  1  0  0  0  0
  9 17  1  0  0  0  0
 11 12  1  0  0  0  0
 11 13  1  0  0  0  0
 11 14  1  0  0  0  0
 14 15  1  0  0  0  0
 14 16  2  0  0  0  0
 17 18  2  0  0  0  0
 17 19  1  0  0  0  0
 19 20  1  0  0  0  0
 19 21  1  0  0  0  0
 21 22  1  0  0  0  0
 21 23  1  0  0  0  0
 21 24  1  0  0  0  0
M  CHG  1  15  -1
M  END
$$$$

  -OEChem-03222214023D

 24 23  0     1  0  0  0  0  0999 V2000
   -2.4753   -3.5066   -0.4204 H   0  0  0  0  0  0  0  0  0  0  0  0
   -2.3888   -2.4966   -0.8307 C   0  0  0  0  0  0  0  0  0  0  0  0
   -3.2430   -1.9037   -0.4951 H   0  0  0  0  0  0  0  0  0  0  0  0
   -2.4046   -2.5587   -1.9220 H   0  0  0  0  0  0  0  0  0  0  0  0
   -1.0945   -1.8511   -0.3681 C   0  0  0  0  0  0  0  0  0  0  0  0
   -0.3960   -2.4287    0.4473 O   0  0  0  0  0  0  0  0  0  0  0  0
   -0.7588   -0.6070   -0.8567 N   0  0  0  0  0  0  0  0  0  0  0  0
   -1.3276   -0.2839   -1.6382 H   0  0  0  0  0  0  0  0  0  0  0  0
    0.5875   -0.0151   -0.8018 C   0  0  1  0  0  0  0  0  0  0  0  0
    1.3039   -0.6245   -1.3649 H   0  0  0  0  0  0  0  0  0  0  0  0
    0.3934    1.3653   -1.4553 C   0  0  0  0  0  0  0  0  0  0  0  0
   -0.5905    1.7874   -1.2284 H   0  0  0  0  0  0  0  0  0  0  0  0
    1.1410    2.0605   -1.0632 H   0  0  0  0  0  0  0  0  0  0  0  0
    0.6136    1.2855   -2.9568 C   0  0  0  0  0  0  0  0  0  0  0  0
    1.7236    0.9102   -3.3996 O   0  5  0  0  0  0  0  0  0  0  0  0
   -0.4213    1.4408   -3.6518 O   0  0  0  0  0  0  0  0  0  0  0  0
    1.1396    0.1560    0.6354 C   0  0  0  0  0  0  0  0  0  0  0  0
    2.3229   -0.0317    0.8983 O   0  0  0  0  0  0  0  0  0  0  0  0
    0.3139    0.6756    1.6179 N   0  0  0  0  0  0  0  0  0  0  0  0
   -0.6712    0.7185    1.3810 H   0  0  0  0  0  0  0  0  0  0  0  0
    0.7158    0.8145    3.0090 C   0  0  0  0  0  0  0  0  0  0  0  0
    1.5993    1.4558    3.0902 H   0  0  0  0  0  0  0  0  0  0  0  0
   -0.0930    1.2673    3.5896 H   0  0  0  0  0  0  0  0  0  0  0  0
    0.9474   -0.1657    3.4379 H   0  0  0  0  0  0  0  0  0  0  0  0
  1  2  1  0  0  0  0
  2  3  1  0  0  0  0
  2  4  1  0  0  0  0
  2  5  1  0  0  0  0
  5  6  2  0  0  0  0
  5  7  1  0  0  0  0
  7  8  1  0  0  0  0
  7  9  1  0  0  0  0
  9 10  1  0  0  0  0
  9 11  1  0  0  0  0
  9 17  1  0  0  0  0
 11 12  1  0  0  0  0
 11 13  1  0  0  0  0
 11 14  1  0  0  0  0
 14 15  1  0  0  0  0
 14 16  2  0  0  0  0
 17 18  2  0  0  0  0
 17 19  1  0  0  0  0
 19 20  1  0  0  0  0
 19 21  1  0  0  0  0
 21 22  1  0  0  0  0
 21 23  1  0  0  0  0
 21 24  1  0  0  0  0
M  CHG  1  15  -1
M  END
$$$$

  -OEChem-03222214023D

 24 23  0     1  0  0  0  0  0999 V2000
   -2.4793   -3.5143   -0.3929 H   0  0  0  0  0  0  0  0  0  0  0  0
   -2.3940   -2.5056   -0.8066 C   0  0  0  0  0  0  0  0  0  0  0  0
   -3.2406   -1.9080   -0.4601 H   0  0  0  0  0  0  0  0  0  0  0  0
   -2.4251   -2.5703   -1.8974 H   0  0  0  0  0  0  0  0  0  0  0  0
   -1.0904   -1.8652   -0.3637 C   0  0  0  0  0  0  0  0  0  0  0  0
   -0.3844   -2.4448    0.4435 O   0  0  0  0  0  0  0  0  0  0  0  0
   -0.7561   -0.6229   -0.8586 N   0  0  0  0  0  0  0  0  0  0  0  0
   -1.3366   -0.2943   -1.6270 H   0  0  0  0  0  0  0  0  0  0  0  0
    0.5903   -0.0294   -0.8057 C   0  0  1  0  0  0  0  0  0  0  0  0
    1.3068   -0.6484   -1.3577 H   0  0  0  0  0  0  0  0  0  0  0  0
    0.4123    1.3538   -1.4647 C   0  0  0  0  0  0  0  0  0  0  0  0
   -0.5685    1.7801   -1.2328 H   0  0  0  0  0  0  0  0  0  0  0  0
    1.1644    2.0384   -1.0629 H   0  0  0  0  0  0  0  0  0  0  0  0
    0.6327    1.3137   -2.9713 C   0  0  0  0  0  0  0  0  0  0  0  0
    1.6142    0.6903   -3.4386 O   0  5  0  0  0  0  0  0  0  0  0  0
   -0.2964    1.8016   -3.6603 O   0  0  0  0  0  0  0  0  0  0  0  0
    1.1362    0.1467    0.6334 C   0  0  0  0  0  0  0  0  0  0  0  0
    2.3203   -0.0306    0.9002 O   0  0  0  0  0  0  0  0  0  0  0  0
    0.3055    0.6688    1.6103 N   0  0  0  0  0  0  0  0  0  0  0  0
   -0.6785    0.7113    1.3691 H   0  0  0  0  0  0  0  0  0  0  0  0
    0.7021    0.8180    3.0017 C   0  0  0  0  0  0  0  0  0  0  0  0
    1.5842    1.4613    3.0818 H   0  0  0  0  0  0  0  0  0  0  0  0
   -0.1097    1.2736    3.5759 H   0  0  0  0  0  0  0  0  0  0  0  0
    0.9337   -0.1586    3.4386 H   0  0  0  0  0  0  0  0  0  0  0  0
  1  2  1  0  0  0  0
  2  3  1  0  0  0  0
  2  4  1  0  0  0  0
  2  5  1  0  0  0  0
  5  6  2  0  0  0  0
  5  7  1  0  0  0  0
  7  8  1  0  0  0  0
  7  9  1  0  0  0  0
  9 10  1  0  0  0  0
  9 11  1  0  0  0  0
  9 17  1  0  0  0  0
 11 12  1  0  0  0  0
 11 13  1  0  0  0  0
 11 14  1  0  0  0  0
 14 15  1  0  0  0  0
 14 16  2  0  0  0  0
 17 18  2  0  0  0  0
 17 19  1  0  0  0  0
 19 20  1  0  0  0  0
 19 21  1  0  0  0  0
 21 22  1  0  0  0  0
 21 23  1  0  0  0  0
 21 24  1  0  0  0  0
M  CHG  1  15  -1
M  END
$$$$

  -OEChem-03222214023D

 24 23  0     1  0  0  0  0  0999 V2000
   -2.5200   -3.4968   -0.3305 H   0  0  0  0  0  0  0  0  0  0  0  0
   -2.3991   -2.5187   -0.8047 C   0  0  0  0  0  0  0  0  0  0  0  0
   -3.2455   -1.8854   -0.5283 H   0  0  0  0  0  0  0  0  0  0  0  0
   -2.3921   -2.6525   -1.8896 H   0  0  0  0  0  0  0  0  0  0  0  0
   -1.0997   -1.8739   -0.3560 C   0  0  0  0  0  0  0  0  0  0  0  0
   -0.4002   -2.4464    0.4619 O   0  0  0  0  0  0  0  0  0  0  0  0
   -0.7648   -0.6334   -0.8551 N   0  0  0  0  0  0  0  0  0  0  0  0
   -1.3399   -0.3153   -1.6305 H   0  0  0  0  0  0  0  0  0  0  0  0
    0.5839   -0.0444   -0.8057 C   0  0  1  0  0  0  0  0  0  0  0  0
    1.2973   -0.6719   -1.3514 H   0  0  0  0  0  0  0  0  0  0  0  0
    0.4233    1.3440   -1.4644 C   0  0  0  0  0  0  0  0  0  0  0  0
   -0.5539    1.7758   -1.2282 H   0  0  0  0  0  0  0  0  0  0  0  0
    1.1812    2.0175   -1.0547 H   0  0  0  0  0  0  0  0  0  0  0  0
    0.6400    1.3377   -2.9745 C   0  0  0  0  0  0  0  0  0  0  0  0
    1.4245    0.5071   -3.4904 O   0  5  0  0  0  0  0  0  0  0  0  0
   -0.1008    2.1144   -3.6245 O   0  0  0  0  0  0  0  0  0  0  0  0
    1.1322    0.1325    0.6326 C   0  0  0  0  0  0  0  0  0  0  0  0
    2.3188   -0.0363    0.8941 O   0  0  0  0  0  0  0  0  0  0  0  0
    0.3045    0.6592    1.6094 N   0  0  0  0  0  0  0  0  0  0  0  0
   -0.6806    0.6969    1.3723 H   0  0  0  0  0  0  0  0  0  0  0  0
    0.7081    0.8289    2.9965 C   0  0  0  0  0  0  0  0  0  0  0  0
    1.5722    1.4979    3.0643 H   0  0  0  0  0  0  0  0  0  0  0  0
   -0.1117    1.2647    3.5750 H   0  0  0  0  0  0  0  0  0  0  0  0
    0.9713   -0.1377    3.4379 H   0  0  0  0  0  0  0  0  0  0  0  0
  1  2  1  0  0  0  0
  2  3  1  0  0  0  0
  2  4  1  0  0  0  0
  2  5  1  0  0  0  0
  5  6  2  0  0  0  0
  5  7  1  0  0  0  0
  7  8  1  0  0  0  0
  7  9  1  0  0  0  0
  9 10  1  0  0  0  0
  9 11  1  0  0  0  0
  9 17  1  0  0  0  0
 11 12  1  0  0  0  0
 11 13  1  0  0  0  0
 11 14  1  0  0  0  0
 14 15  1  0  0  0  0
 14 16  2  0  0  0  0
 17 18  2  0  0  0  0
 17 19  1  0  0  0  0
 19 20  1  0  0  0  0
 19 21  1  0  0  0  0
 21 22  1  0  0  0  0
 21 23  1  0  0  0  0
 21 24  1  0  0  0  0
M  CHG  1  15  -1
M  END
$$$$

  -OEChem-03222214023D

 24 23  0     1  0  0  0  0  0999 V2000
   -2.5114   -3.5078   -0.3329 H   0  0  0  0  0  0  0  0  0  0  0  0
   -2.3956   -2.5291   -0.8070 C   0  0  0  0  0  0  0  0  0  0  0  0
   -3.2556   -1.9069   -0.5480 H   0  0  0  0  0  0  0  0  0  0  0  0
   -2.3667   -2.6656   -1.8912 H   0  0  0  0  0  0  0  0  0  0  0  0
   -1.1136   -1.8655   -0.3365 C   0  0  0  0  0  0  0  0  0  0  0  0
   -0.4303   -2.4183    0.5083 O   0  0  0  0  0  0  0  0  0  0  0  0
   -0.7797   -0.6289   -0.8460 N   0  0  0  0  0  0  0  0  0  0  0  0
   -1.3332   -0.3426   -1.6489 H   0  0  0  0  0  0  0  0  0  0  0  0
    0.5724   -0.0476   -0.8035 C   0  0  1  0  0  0  0  0  0  0  0  0
    1.2815   -0.6848   -1.3432 H   0  0  0  0  0  0  0  0  0  0  0  0
    0.4283    1.3404   -1.4702 C   0  0  0  0  0  0  0  0  0  0  0  0
   -0.5462    1.7794   -1.2375 H   0  0  0  0  0  0  0  0  0  0  0  0
    1.1911    2.0070   -1.0584 H   0  0  0  0  0  0  0  0  0  0  0  0
    0.6421    1.3417   -2.9821 C   0  0  0  0  0  0  0  0  0  0  0  0
    1.1785    0.3542   -3.5394 O   0  5  0  0  0  0  0  0  0  0  0  0
    0.1480    2.3193   -3.5932 O   0  0  0  0  0  0  0  0  0  0  0  0
    1.1261    0.1348    0.6321 C   0  0  0  0  0  0  0  0  0  0  0  0
    2.3138   -0.0383    0.8870 O   0  0  0  0  0  0  0  0  0  0  0  0
    0.3069    0.6718    1.6103 N   0  0  0  0  0  0  0  0  0  0  0  0
   -0.6800    0.7064    1.3801 H   0  0  0  0  0  0  0  0  0  0  0  0
    0.7165    0.8286    2.9972 C   0  0  0  0  0  0  0  0  0  0  0  0
    1.5867    1.4892    3.0671 H   0  0  0  0  0  0  0  0  0  0  0  0
   -0.0975    1.2675    3.5814 H   0  0  0  0  0  0  0  0  0  0  0  0
    0.9724   -0.1434    3.4310 H   0  0  0  0  0  0  0  0  0  0  0  0
  1  2  1  0  0  0  0
  2  3  1  0  0  0  0
  2  4  1  0  0  0  0
  2  5  1  0  0  0  0
  5  6  2  0  0  0  0
  5  7  1  0  0  0  0
  7  8  1  0  0  0  0
  7  9  1  0  0  0  0
  9 10  1  0  0  0  0
  9 11  1  0  0  0  0
  9 17  1  0  0  0  0
 11 12  1  0  0  0  0
 11 13  1  0  0  0  0
 11 14  1  0  0  0  0
 14 15  1  0  0  0  0
 14 16  2  0  0  0  0
 17 18  2  0  0  0  0
 17 19  1  0  0  0  0
 19 20  1  0  0  0  0
 19 21  1  0  0  0  0
 21 22  1  0  0  0  0
 21 23  1  0  0  0  0
 21 24  1  0  0  0  0
M  CHG  1  15  -1
M  END
$$$$

  -OEChem-03222214023D

 24 23  0     1  0  0  0  0  0999 V2000
   -2.5089   -3.5110   -0.3323 H   0  0  0  0  0  0  0  0  0  0  0  0
   -2.3895   -2.5394   -0.8197 C   0  0  0  0  0  0  0  0  0  0  0  0
   -3.2641   -1.9230   -0.5979 H   0  0  0  0  0  0  0  0  0  0  0  0
   -2.3254   -2.6941   -1.8999 H   0  0  0  0  0  0  0  0  0  0  0  0
   -1.1304   -1.8532   -0.3214 C   0  0  0  0  0  0  0  0  0  0  0  0
   -0.4664   -2.3866    0.5511 O   0  0  0  0  0  0  0  0  0  0  0  0
   -0.7974   -0.6184   -0.8362 N   0  0  0  0  0  0  0  0  0  0  0  0
   -1.3265   -0.3625   -1.6656 H   0  0  0  0  0  0  0  0  0  0  0  0
    0.5588   -0.0473   -0.8005 C   0  0  1  0  0  0  0  0  0  0  0  0
    1.2610   -0.6894   -1.3439 H   0  0  0  0  0  0  0  0  0  0  0  0
    0.4283    1.3427   -1.4675 C   0  0  0  0  0  0  0  0  0  0  0  0
   -0.5423    1.7909   -1.2372 H   0  0  0  0  0  0  0  0  0  0  0  0
    1.1984    2.0024   -1.0573 H   0  0  0  0  0  0  0  0  0  0  0  0
    0.6370    1.3399   -2.9797 C   0  0  0  0  0  0  0  0  0  0  0  0
    0.8889    0.2591   -3.5667 O   0  5  0  0  0  0  0  0  0  0  0  0
    0.4288    2.4315   -3.5603 O   0  0  0  0  0  0  0  0  0  0  0  0
    1.1218    0.1330    0.6315 C   0  0  0  0  0  0  0  0  0  0  0  0
    2.3101   -0.0482    0.8778 O   0  0  0  0  0  0  0  0  0  0  0  0
    0.3122    0.6774    1.6136 N   0  0  0  0  0  0  0  0  0  0  0  0
   -0.6769    0.7073    1.3914 H   0  0  0  0  0  0  0  0  0  0  0  0
    0.7306    0.8304    2.9981 C   0  0  0  0  0  0  0  0  0  0  0  0
    1.6037    1.4873    3.0631 H   0  0  0  0  0  0  0  0  0  0  0  0
   -0.0781    1.2720    3.5876 H   0  0  0  0  0  0  0  0  0  0  0  0
    0.9853   -0.1430    3.4293 H   0  0  0  0  0  0  0  0  0  0  0  0
  1  2  1  0  0  0  0
  2  3  1  0  0  0  0
  2  4  1  0  0  0  0
  2  5  1  0  0  0  0
  5  6  2  0  0  0  0
  5  7  1  0  0  0  0
  7  8  1  0  0  0  0
  7  9  1  0  0  0  0
  9 10  1  0  0  0  0
  9 11  1  0  0  0  0
  9 17  1  0  0  0  0
 11 12  1  0  0  0  0
 11 13  1  0  0  0  0
 11 14  1  0  0  0  0
 14 15  1  0  0  0  0
 14 16  2  0  0  0  0
 17 18  2  0  0  0  0
 17 19  1  0  0  0  0
 19 20  1  0  0  0  0
 19 21  1  0  0  0  0
 21 22  1  0  0  0  0
 21 23  1  0  0  0  0
 21 24  1  0  0  0  0
M  CHG  1  15  -1
M  END
$$$$

  -OEChem-03222214023D

 24 23  0     1  0  0  0  0  0999 V2000
   -2.4979   -3.5234   -0.3691 H   0  0  0  0  0  0  0  0  0  0  0  0
   -2.3862   -2.5437   -0.8421 C   0  0  0  0  0  0  0  0  0  0  0  0
   -3.2729   -1.9429   -0.6255 H   0  0  0  0  0  0  0  0  0  0  0  0
   -2.3048   -2.6833   -1.9233 H   0  0  0  0  0  0  0  0  0  0  0  0
   -1.1443   -1.8448   -0.3177 C   0  0  0  0  0  0  0  0  0  0  0  0
   -0.4955   -2.3690    0.5719 O   0  0  0  0  0  0  0  0  0  0  0  0
   -0.8105   -0.6094   -0.8298 N   0  0  0  0  0  0  0  0  0  0  0  0
   -1.3130   -0.3773   -1.6834 H   0  0  0  0  0  0  0  0  0  0  0  0
    0.5473   -0.0441   -0.7934 C   0  0  1  0  0  0  0  0  0  0  0  0
    1.2452   -0.6850   -1.3443 H   0  0  0  0  0  0  0  0  0  0  0  0
    0.4203    1.3464   -1.4593 C   0  0  0  0  0  0  0  0  0  0  0  0
   -0.5514    1.7954   -1.2368 H   0  0  0  0  0  0  0  0  0  0  0  0
    1.1888    2.0078   -1.0483 H   0  0  0  0  0  0  0  0  0  0  0  0
    0.6304    1.3241   -2.9702 C   0  0  0  0  0  0  0  0  0  0  0  0
    0.5908    0.2181   -3.5660 O   0  5  0  0  0  0  0  0  0  0  0  0
    0.7164    2.4372   -3.5402 O   0  0  0  0  0  0  0  0  0  0  0  0
    1.1188    0.1321    0.6356 C   0  0  0  0  0  0  0  0  0  0  0  0
    2.3091   -0.0511    0.8714 O   0  0  0  0  0  0  0  0  0  0  0  0
    0.3177    0.6779    1.6235 N   0  0  0  0  0  0  0  0  0  0  0  0
   -0.6736    0.7049    1.4107 H   0  0  0  0  0  0  0  0  0  0  0  0
    0.7495    0.8379    3.0030 C   0  0  0  0  0  0  0  0  0  0  0  0
    1.6344    1.4803    3.0549 H   0  0  0  0  0  0  0  0  0  0  0  0
   -0.0466    1.2998    3.5938 H   0  0  0  0  0  0  0  0  0  0  0  0
    0.9905   -0.1352    3.4426 H   0  0  0  0  0  0  0  0  0  0  0  0
  1  2  1  0  0  0  0
  2  3  1  0  0  0  0
  2  4  1  0  0  0  0
  2  5  1  0  0  0  0
  5  6  2  0  0  0  0
  5  7  1  0  0  0  0
  7  8  1  0  0  0  0
  7  9  1  0  0  0  0
  9 10  1  0  0  0  0
  9 11  1  0  0  0  0
  9 17  1  0  0  0  0
 11 12  1  0  0  0  0
 11 13  1  0  0  0  0
 11 14  1  0  0  0  0
 14 15  1  0  0  0  0
 14 16  2  0  0  0  0
 17 18  2  0  0  0  0
 17 19  1  0  0  0  0
 19 20  1  0  0  0  0
 19 21  1  0  0  0  0
 21 22  1  0  0  0  0
 21 23  1  0  0  0  0
 21 24  1  0  0  0  0
M  CHG  1  15  -1
M  END
$$$$

  -OEChem-03222214023D

 24 23  0     1  0  0  0  0  0999 V2000
   -2.4971   -3.5140   -0.3752 H   0  0  0  0  0  0  0  0  0  0  0  0
   -2.3774   -2.5408   -0.8595 C   0  0  0  0  0  0  0  0  0  0  0  0
   -3.2717   -1.9411   -0.6740 H   0  0  0  0  0  0  0  0  0  0  0  0
   -2.2680   -2.6949   -1.9364 H   0  0  0  0  0  0  0  0  0  0  0  0
   -1.1518   -1.8294   -0.3141 C   0  0  0  0  0  0  0  0  0  0  0  0
   -0.5155   -2.3440    0.5903 O   0  0  0  0  0  0  0  0  0  0  0  0
   -0.8184   -0.5937   -0.8247 N   0  0  0  0  0  0  0  0  0  0  0  0
   -1.2997   -0.3788   -1.6970 H   0  0  0  0  0  0  0  0  0  0  0  0
    0.5404   -0.0330   -0.7886 C   0  0  1  0  0  0  0  0  0  0  0  0
    1.2333   -0.6718   -1.3483 H   0  0  0  0  0  0  0  0  0  0  0  0
    0.4099    1.3555   -1.4546 C   0  0  0  0  0  0  0  0  0  0  0  0
   -0.5634    1.8046   -1.2394 H   0  0  0  0  0  0  0  0  0  0  0  0
    1.1770    2.0218   -1.0483 H   0  0  0  0  0  0  0  0  0  0  0  0
    0.6203    1.3000   -2.9627 C   0  0  0  0  0  0  0  0  0  0  0  0
    0.2937    0.2374   -3.5527 O   0  5  0  0  0  0  0  0  0  0  0  0
    0.9963    2.3494   -3.5354 O   0  0  0  0  0  0  0  0  0  0  0  0
    1.1189    0.1400    0.6374 C   0  0  0  0  0  0  0  0  0  0  0  0
    2.3089   -0.0523    0.8671 O   0  0  0  0  0  0  0  0  0  0  0  0
    0.3245    0.6871    1.6297 N   0  0  0  0  0  0  0  0  0  0  0  0
   -0.6680    0.7108    1.4220 H   0  0  0  0  0  0  0  0  0  0  0  0
    0.7600    0.8294    3.0100 C   0  0  0  0  0  0  0  0  0  0  0  0
    1.6460    1.4698    3.0683 H   0  0  0  0  0  0  0  0  0  0  0  0
   -0.0344    1.2848    3.6083 H   0  0  0  0  0  0  0  0  0  0  0  0
    1.0006   -0.1496    3.4366 H   0  0  0  0  0  0  0  0  0  0  0  0
  1  2  1  0  0  0  0
  2  3  1  0  0  0  0
  2  4  1  0  0  0  0
  2  5  1  0  0  0  0
  5  6  2  0  0  0  0
  5  7  1  0  0  0  0
  7  8  1  0  0  0  0
  7  9  1  0  0  0  0
  9 10  1  0  0  0  0
  9 11  1  0  0  0  0
  9 17  1  0  0  0  0
 11 12  1  0  0  0  0
 11 13  1  0  0  0  0
 11 14  1  0  0  0  0
 14 15  1  0  0  0  0
 14 16  2  0  0  0  0
 17 18  2  0  0  0  0
 17 19  1  0  0  0  0
 19 20  1  0  0  0  0
 19 21  1  0  0  0  0
 21 22  1  0  0  0  0
 21 23  1  0  0  0  0
 21 24  1  0  0  0  0
M  CHG  1  15  -1
M  END
$$$$

  -OEChem-03222214023D

 24 23  0     1  0  0  0  0  0999 V2000
   -2.4746   -3.5220   -0.4158 H   0  0  0  0  0  0  0  0  0  0  0  0
   -2.3736   -2.5317   -0.8686 C   0  0  0  0  0  0  0  0  0  0  0  0
   -3.2708   -1.9484   -0.6482 H   0  0  0  0  0  0  0  0  0  0  0  0
   -2.2808   -2.6479   -1.9517 H   0  0  0  0  0  0  0  0  0  0  0  0
   -1.1472   -1.8244   -0.3199 C   0  0  0  0  0  0  0  0  0  0  0  0
   -0.5111   -2.3428    0.5827 O   0  0  0  0  0  0  0  0  0  0  0  0
   -0.8123   -0.5874   -0.8255 N   0  0  0  0  0  0  0  0  0  0  0  0
   -1.2871   -0.3706   -1.7033 H   0  0  0  0  0  0  0  0  0  0  0  0
    0.5445   -0.0241   -0.7861 C   0  0  1  0  0  0  0  0  0  0  0  0
    1.2386   -0.6566   -1.3518 H   0  0  0  0  0  0  0  0  0  0  0  0
    0.4003    1.3617   -1.4507 C   0  0  0  0  0  0  0  0  0  0  0  0
   -0.5773    1.8046   -1.2426 H   0  0  0  0  0  0  0  0  0  0  0  0
    1.1612    2.0383   -1.0494 H   0  0  0  0  0  0  0  0  0  0  0  0
    0.6140    1.2725   -2.9545 C   0  0  0  0  0  0  0  0  0  0  0  0
    0.0310    0.3225   -3.5410 O   0  5  0  0  0  0  0  0  0  0  0  0
    1.2565    2.1836   -3.5263 O   0  0  0  0  0  0  0  0  0  0  0  0
    1.1219    0.1470    0.6403 C   0  0  0  0  0  0  0  0  0  0  0  0
    2.3109   -0.0496    0.8713 O   0  0  0  0  0  0  0  0  0  0  0  0
    0.3254    0.6902    1.6330 N   0  0  0  0  0  0  0  0  0  0  0  0
   -0.6672    0.7098    1.4244 H   0  0  0  0  0  0  0  0  0  0  0  0
    0.7581    0.8262    3.0147 C   0  0  0  0  0  0  0  0  0  0  0  0
    1.6519    1.4555    3.0760 H   0  0  0  0  0  0  0  0  0  0  0  0
   -0.0322    1.2912    3.6110 H   0  0  0  0  0  0  0  0  0  0  0  0
    0.9852   -0.1562    3.4407 H   0  0  0  0  0  0  0  0  0  0  0  0
  1  2  1  0  0  0  0
  2  3  1  0  0  0  0
  2  4  1  0  0  0  0
  2  5  1  0  0  0  0
  5  6  2  0  0  0  0
  5  7  1  0  0  0  0
  7  8  1  0  0  0  0
  7  9  1  0  0  0  0
  9 10  1  0  0  0  0
  9 11  1  0  0  0  0
  9 17  1  0  0  0  0
 11 12  1  0  0  0  0
 11 13  1  0  0  0  0
 11 14  1  0  0  0  0
 14 15  1  0  0  0  0
 14 16  2  0  0  0  0
 17 18  2  0  0  0  0
 17 19  1  0  0  0  0
 19 20  1  0  0  0  0
 19 21  1  0  0  0  0
 21 22  1  0  0  0  0
 21 23  1  0  0  0  0
 21 24  1  0  0  0  0
M  CHG  1  15  -1
M  END
$$$$

  -OEChem-03222214023D

 24 23  0     1  0  0  0  0  0999 V2000
   -2.4966   -3.5005   -0.4024 H   0  0  0  0  0  0  0  0  0  0  0  0
   -2.3751   -2.5207   -0.8727 C   0  0  0  0  0  0  0  0  0  0  0  0
   -3.2607   -1.9156   -0.6640 H   0  0  0  0  0  0  0  0  0  0  0  0
   -2.2839   -2.6578   -1.9535 H   0  0  0  0  0  0  0  0  0  0  0  0
   -1.1352   -1.8285   -0.3354 C   0  0  0  0  0  0  0  0  0  0  0  0
   -0.4861   -2.3630    0.5483 O   0  0  0  0  0  0  0  0  0  0  0  0
   -0.7990   -0.5883   -0.8318 N   0  0  0  0  0  0  0  0  0  0  0  0
   -1.2843   -0.3510   -1.6999 H   0  0  0  0  0  0  0  0  0  0  0  0
    0.5544   -0.0180   -0.7863 C   0  0  1  0  0  0  0  0  0  0  0  0
    1.2535   -0.6407   -1.3566 H   0  0  0  0  0  0  0  0  0  0  0  0
    0.3891    1.3660   -1.4448 C   0  0  0  0  0  0  0  0  0  0  0  0
   -0.5934    1.7995   -1.2387 H   0  0  0  0  0  0  0  0  0  0  0  0
    1.1419    2.0542   -1.0478 H   0  0  0  0  0  0  0  0  0  0  0  0
    0.6057    1.2535   -2.9440 C   0  0  0  0  0  0  0  0  0  0  0  0
   -0.1890    0.4791   -3.5409 O   0  5  0  0  0  0  0  0  0  0  0  0
    1.4752    1.9637   -3.4996 O   0  0  0  0  0  0  0  0  0  0  0  0
    1.1275    0.1491    0.6420 C   0  0  0  0  0  0  0  0  0  0  0  0
    2.3160   -0.0445    0.8769 O   0  0  0  0  0  0  0  0  0  0  0  0
    0.3249    0.6832    1.6349 N   0  0  0  0  0  0  0  0  0  0  0  0
   -0.6669    0.7027    1.4224 H   0  0  0  0  0  0  0  0  0  0  0  0
    0.7545    0.8242    3.0172 C   0  0  0  0  0  0  0  0  0  0  0  0
    1.6400    1.4651    3.0792 H   0  0  0  0  0  0  0  0  0  0  0  0
   -0.0424    1.2790    3.6128 H   0  0  0  0  0  0  0  0  0  0  0  0
    0.9941   -0.1552    3.4436 H   0  0  0  0  0  0  0  0  0  0  0  0
  1  2  1  0  0  0  0
  2  3  1  0  0  0  0
  2  4  1  0  0  0  0
  2  5  1  0  0  0  0
  5  6  2  0  0  0  0
  5  7  1  0  0  0  0
  7  8  1  0  0  0  0
  7  9  1  0  0  0  0
  9 10  1  0  0  0  0
  9 11  1  0  0  0  0
  9 17  1  0  0  0  0
 11 12  1  0  0  0  0
 11 13  1  0  0  0  0
 11 14  1  0  0  0  0
 14 15  1  0  0  0  0
 14 16  2  0  0  0  0
 17 18  2  0  0  0  0
 17 19  1  0  0  0  0
 19 20  1  0  0  0  0
 19 21  1  0  0  0  0
 21 22  1  0  0  0  0
 21 23  1  0  0  0  0
 21 24  1  0  0  0  0
M  CHG  1  15  -1
M  END
$$$$

  -OEChem-03222214023D

 24 23  0     1  0  0  0  0  0999 V2000
   -2.4900   -3.4935   -0.4022 H   0  0  0  0  0  0  0  0  0  0  0  0
   -2.3751   -2.5077   -0.8613 C   0  0  0  0  0  0  0  0  0  0  0  0
   -3.2512   -1.9006   -0.6207 H   0  0  0  0  0  0  0  0  0  0  0  0
   -2.3128   -2.6299   -1.9458 H   0  0  0  0  0  0  0  0  0  0  0  0
   -1.1176   -1.8307   -0.3462 C   0  0  0  0  0  0  0  0  0  0  0  0
   -0.4510   -2.3799    0.5149 O   0  0  0  0  0  0  0  0  0  0  0  0
   -0.7807   -0.5896   -0.8398 N   0  0  0  0  0  0  0  0  0  0  0  0
   -1.2905   -0.3250   -1.6859 H   0  0  0  0  0  0  0  0  0  0  0  0
    0.5695   -0.0110   -0.7907 C   0  0  1  0  0  0  0  0  0  0  0  0
    1.2767   -0.6249   -1.3607 H   0  0  0  0  0  0  0  0  0  0  0  0
    0.3815    1.3677   -1.4478 C   0  0  0  0  0  0  0  0  0  0  0  0
   -0.6048    1.7931   -1.2405 H   0  0  0  0  0  0  0  0  0  0  0  0
    1.1276    2.0679   -1.0601 H   0  0  0  0  0  0  0  0  0  0  0  0
    0.6000    1.2367   -2.9431 C   0  0  0  0  0  0  0  0  0  0  0  0
   -0.3485    0.6877   -3.5636 O   0  5  0  0  0  0  0  0  0  0  0  0
    1.6441    1.6866   -3.4681 O   0  0  0  0  0  0  0  0  0  0  0  0
    1.1352    0.1589    0.6404 C   0  0  0  0  0  0  0  0  0  0  0  0
    2.3206   -0.0394    0.8863 O   0  0  0  0  0  0  0  0  0  0  0  0
    0.3241    0.6880    1.6291 N   0  0  0  0  0  0  0  0  0  0  0  0
   -0.6647    0.7169    1.4054 H   0  0  0  0  0  0  0  0  0  0  0  0
    0.7385    0.8137    3.0174 C   0  0  0  0  0  0  0  0  0  0  0  0
    1.6196    1.4585    3.0970 H   0  0  0  0  0  0  0  0  0  0  0  0
   -0.0673    1.2562    3.6103 H   0  0  0  0  0  0  0  0  0  0  0  0
    0.9786   -0.1697    3.4341 H   0  0  0  0  0  0  0  0  0  0  0  0
  1  2  1  0  0  0  0
  2  3  1  0  0  0  0
  2  4  1  0  0  0  0
  2  5  1  0  0  0  0
  5  6  2  0  0  0  0
  5  7  1  0  0  0  0
  7  8  1  0  0  0  0
  7  9  1  0  0  0  0
  9 10  1  0  0  0  0
  9 11  1  0  0  0  0
  9 17  1  0  0  0  0
 11 12  1  0  0  0  0
 11 13  1  0  0  0  0
 11 14  1  0  0  0  0
 14 15  1  0  0  0  0
 14 16  2  0  0  0  0
 17 18  2  0  0  0  0
 17 19  1  0  0  0  0
 19 20  1  0  0  0  0
 19 21  1  0  0  0  0
 21 22  1  0  0  0  0
 21 23  1  0  0  0  0
 21 24  1  0  0  0  0
M  CHG  1  15  -1
M  END
$$$$

  -OEChem-03222214023D

 24 23  0     1  0  0  0  0  0999 V2000
   -2.4915   -3.4898   -0.3925 H   0  0  0  0  0  0  0  0  0  0  0  0
   -2.3789   -2.5015   -0.8467 C   0  0  0  0  0  0  0  0  0  0  0  0
   -3.2422   -1.8879   -0.5778 H   0  0  0  0  0  0  0  0  0  0  0  0
   -2.3468   -2.6153   -1.9335 H   0  0  0  0  0  0  0  0  0  0  0  0
   -1.1016   -1.8411   -0.3595 C   0  0  0  0  0  0  0  0  0  0  0  0
   -0.4146   -2.4067    0.4741 O   0  0  0  0  0  0  0  0  0  0  0  0
   -0.7663   -0.5979   -0.8491 N   0  0  0  0  0  0  0  0  0  0  0  0
   -1.3069   -0.3023   -1.6640 H   0  0  0  0  0  0  0  0  0  0  0  0
    0.5807   -0.0101   -0.7959 C   0  0  1  0  0  0  0  0  0  0  0  0
    1.2955   -0.6166   -1.3647 H   0  0  0  0  0  0  0  0  0  0  0  0
    0.3795    1.3662   -1.4505 C   0  0  0  0  0  0  0  0  0  0  0  0
   -0.6083    1.7863   -1.2387 H   0  0  0  0  0  0  0  0  0  0  0  0
    1.1215    2.0720   -1.0656 H   0  0  0  0  0  0  0  0  0  0  0  0
    0.6012    1.2373   -2.9449 C   0  0  0  0  0  0  0  0  0  0  0  0
   -0.4328    0.9594   -3.6056 O   0  5  0  0  0  0  0  0  0  0  0  0
    1.7476    1.3891   -3.4251 O   0  0  0  0  0  0  0  0  0  0  0  0
    1.1385    0.1605    0.6385 C   0  0  0  0  0  0  0  0  0  0  0  0
    2.3225   -0.0335    0.8937 O   0  0  0  0  0  0  0  0  0  0  0  0
    0.3186    0.6826    1.6240 N   0  0  0  0  0  0  0  0  0  0  0  0
   -0.6685    0.7157    1.3935 H   0  0  0  0  0  0  0  0  0  0  0  0
    0.7253    0.8129    3.0144 C   0  0  0  0  0  0  0  0  0  0  0  0
    1.6008    1.4648    3.0974 H   0  0  0  0  0  0  0  0  0  0  0  0
   -0.0870    1.2492    3.6029 H   0  0  0  0  0  0  0  0  0  0  0  0
    0.9717   -0.1682    3.4331 H   0  0  0  0  0  0  0  0  0  0  0  0
  1  2  1  0  0  0  0
  2  3  1  0  0  0  0
  2  4  1  0  0  0  0
  2  5  1  0  0  0  0
  5  6  2  0  0  0  0
  5  7  1  0  0  0  0
  7  8  1  0  0  0  0
  7  9  1  0  0  0  0
  9 10  1  0  0  0  0
  9 11  1  0  0  0  0
  9 17  1  0  0  0  0
 11 12  1  0  0  0  0
 11 13  1  0  0  0  0
 11 14  1  0  0  0  0
 14 15  1  0  0  0  0
 14 16  2  0  0  0  0
 17 18  2  0  0  0  0
 17 19  1  0  0  0  0
 19 20  1  0  0  0  0
 19 21  1  0  0  0  0
 21 22  1  0  0  0  0
 21 23  1  0  0  0  0
 21 24  1  0  0  0  0
M  CHG  1  15  -1
M  END
$$$$

  -OEChem-03222214023D

 24 23  0     1  0  0  0  0  0999 V2000
   -2.4793   -3.5073   -0.4022 H   0  0  0  0  0  0  0  0  0  0  0  0
   -2.3857   -2.5044   -0.8281 C   0  0  0  0  0  0  0  0  0  0  0  0
   -3.2388   -1.9023   -0.5062 H   0  0  0  0  0  0  0  0  0  0  0  0
   -2.3960   -2.5835   -1.9183 H   0  0  0  0  0  0  0  0  0  0  0  0
   -1.0914   -1.8572   -0.3692 C   0  0  0  0  0  0  0  0  0  0  0  0
   -0.3892   -2.4340    0.4435 O   0  0  0  0  0  0  0  0  0  0  0  0
   -0.7587   -0.6124   -0.8574 N   0  0  0  0  0  0  0  0  0  0  0  0
   -1.3253   -0.2924   -1.6427 H   0  0  0  0  0  0  0  0  0  0  0  0
    0.5861   -0.0175   -0.8008 C   0  0  1  0  0  0  0  0  0  0  0  0
    1.3052   -0.6225   -1.3659 H   0  0  0  0  0  0  0  0  0  0  0  0
    0.3873    1.3601   -1.4548 C   0  0  0  0  0  0  0  0  0  0  0  0
   -0.6010    1.7772   -1.2386 H   0  0  0  0  0  0  0  0  0  0  0  0
    1.1272    2.0648   -1.0642 H   0  0  0  0  0  0  0  0  0  0  0  0
    0.6130    1.2567   -2.9523 C   0  0  0  0  0  0  0  0  0  0  0  0
   -0.4309    1.2830   -3.6515 O   0  5  0  0  0  0  0  0  0  0  0  0
    1.7740    1.1050   -3.3965 O   0  0  0  0  0  0  0  0  0  0  0  0
    1.1372    0.1552    0.6364 C   0  0  0  0  0  0  0  0  0  0  0  0
    2.3207   -0.0318    0.8986 O   0  0  0  0  0  0  0  0  0  0  0  0
    0.3104    0.6730    1.6188 N   0  0  0  0  0  0  0  0  0  0  0  0
   -0.6751    0.7124    1.3832 H   0  0  0  0  0  0  0  0  0  0  0  0
    0.7139    0.8197    3.0086 C   0  0  0  0  0  0  0  0  0  0  0  0
    1.5934    1.4670    3.0859 H   0  0  0  0  0  0  0  0  0  0  0  0
   -0.0967    1.2697    3.5890 H   0  0  0  0  0  0  0  0  0  0  0  0
    0.9529   -0.1570    3.4415 H   0  0  0  0  0  0  0  0  0  0  0  0
  1  2  1  0  0  0  0
  2  3  1  0  0  0  0
  2  4  1  0  0  0  0
  2  5  1  0  0  0  0
  5  6  2  0  0  0  0
  5  7  1  0  0  0  0
  7  8  1  0  0  0  0
  7  9  1  0  0  0  0
  9 10  1  0  0  0  0
  9 11  1  0  0  0  0
  9 17  1  0  0  0  0
 11 12  1  0  0  0  0
 11 13  1  0  0  0  0
 11 14  1  0  0  0  0
 14 15  1  0  0  0  0
 14 16  2  0  0  0  0
 17 18  2  0  0  0  0
 17 19  1  0  0  0  0
 19 20  1  0  0  0  0
 19 21  1  0  0  0  0
 21 22  1  0  0  0  0
 21 23  1  0  0  0  0
 21 24  1  0  0  0  0
M  CHG  1  15  -1
M  END
$$$$

  -OEChem-03222214023D

 24 23  0     1  0  0  0  0  0999 V2000
   -2.4831   -3.5146   -0.3851 H   0  0  0  0  0  0  0  0  0  0  0  0
   -2.3911   -2.5112   -0.8100 C   0  0  0  0  0  0  0  0  0  0  0  0
   -3.2369   -1.9063   -0.4745 H   0  0  0  0  0  0  0  0  0  0  0  0
   -2.4171   -2.5876   -1.9000 H   0  0  0  0  0  0  0  0  0  0  0  0
   -1.0875   -1.8707   -0.3677 C   0  0  0  0  0  0  0  0  0  0  0  0
   -0.3778   -2.4524    0.4344 O   0  0  0  0  0  0  0  0  0  0  0  0
   -0.7553   -0.6269   -0.8598 N   0  0  0  0  0  0  0  0  0  0  0  0
   -1.3384   -0.2953   -1.6257 H   0  0  0  0  0  0  0  0  0  0  0  0
    0.5890   -0.0288   -0.8049 C   0  0  1  0  0  0  0  0  0  0  0  0
    1.3087   -0.6393   -1.3628 H   0  0  0  0  0  0  0  0  0  0  0  0
    0.4003    1.3520   -1.4608 C   0  0  0  0  0  0  0  0  0  0  0  0
   -0.5858    1.7703   -1.2369 H   0  0  0  0  0  0  0  0  0  0  0  0
    1.1423    2.0504   -1.0633 H   0  0  0  0  0  0  0  0  0  0  0  0
    0.6245    1.2848   -2.9635 C   0  0  0  0  0  0  0  0  0  0  0  0
   -0.3574    1.6207   -3.6706 O   0  5  0  0  0  0  0  0  0  0  0  0
    1.7138    0.8541   -3.4076 O   0  0  0  0  0  0  0  0  0  0  0  0
    1.1358    0.1482    0.6337 C   0  0  0  0  0  0  0  0  0  0  0  0
    2.3193   -0.0318    0.9005 O   0  0  0  0  0  0  0  0  0  0  0  0
    0.3046    0.6669    1.6120 N   0  0  0  0  0  0  0  0  0  0  0  0
   -0.6791    0.7135    1.3709 H   0  0  0  0  0  0  0  0  0  0  0  0
    0.7036    0.8238    3.0019 C   0  0  0  0  0  0  0  0  0  0  0  0
    1.5806    1.4747    3.0771 H   0  0  0  0  0  0  0  0  0  0  0  0
   -0.1102    1.2742    3.5775 H   0  0  0  0  0  0  0  0  0  0  0  0
    0.9451   -0.1494    3.4409 H   0  0  0  0  0  0  0  0  0  0  0  0
  1  2  1  0  0  0  0
  2  3  1  0  0  0  0
  2  4  1  0  0  0  0
  2  5  1  0  0  0  0
  5  6  2  0  0  0  0
  5  7  1  0  0  0  0
  7  8  1  0  0  0  0
  7  9  1  0  0  0  0
  9 10  1  0  0  0  0
  9 11  1  0  0  0  0
  9 17  1  0  0  0  0
 11 12  1  0  0  0  0
 11 13  1  0  0  0  0
 11 14  1  0  0  0  0
 14 15  1  0  0  0  0
 14 16  2  0  0  0  0
 17 18  2  0  0  0  0
 17 19  1  0  0  0  0
 19 20  1  0  0  0  0
 19 21  1  0  0  0  0
 21 22  1  0  0  0  0
 21 23  1  0  0  0  0
 21 24  1  0  0  0  0
M  CHG  1  15  -1
M  END
$$$$

  -OEChem-03222214023D

 24 23  0     1  0  0  0  0  0999 V2000
   -2.4904   -3.5202   -0.3652 H   0  0  0  0  0  0  0  0  0  0  0  0
   -2.3962   -2.5202   -0.7977 C   0  0  0  0  0  0  0  0  0  0  0  0
   -3.2390   -1.9102   -0.4639 H   0  0  0  0  0  0  0  0  0  0  0  0
   -2.4257   -2.6050   -1.8870 H   0  0  0  0  0  0  0  0  0  0  0  0
   -1.0889   -1.8813   -0.3636 C   0  0  0  0  0  0  0  0  0  0  0  0
   -0.3790   -2.4605    0.4402 O   0  0  0  0  0  0  0  0  0  0  0  0
   -0.7568   -0.6389   -0.8602 N   0  0  0  0  0  0  0  0  0  0  0  0
   -1.3409   -0.3103   -1.6251 H   0  0  0  0  0  0  0  0  0  0  0  0
    0.5885   -0.0423   -0.8069 C   0  0  1  0  0  0  0  0  0  0  0  0
    1.3069   -0.6618   -1.3557 H   0  0  0  0  0  0  0  0  0  0  0  0
    0.4151    1.3431   -1.4650 C   0  0  0  0  0  0  0  0  0  0  0  0
   -0.5690    1.7630   -1.2359 H   0  0  0  0  0  0  0  0  0  0  0  0
    1.1587    2.0333   -1.0571 H   0  0  0  0  0  0  0  0  0  0  0  0
    0.6367    1.3182   -2.9726 C   0  0  0  0  0  0  0  0  0  0  0  0
   -0.2124    1.9450   -3.6519 O   0  5  0  0  0  0  0  0  0  0  0  0
    1.5687    0.6322   -3.4537 O   0  0  0  0  0  0  0  0  0  0  0  0
    1.1326    0.1373    0.6326 C   0  0  0  0  0  0  0  0  0  0  0  0
    2.3173   -0.0344    0.9002 O   0  0  0  0  0  0  0  0  0  0  0  0
    0.2998    0.6593    1.6076 N   0  0  0  0  0  0  0  0  0  0  0  0
   -0.6841    0.7009    1.3663 H   0  0  0  0  0  0  0  0  0  0  0  0
    0.6989    0.8326    2.9954 C   0  0  0  0  0  0  0  0  0  0  0  0
    1.5748    1.4859    3.0632 H   0  0  0  0  0  0  0  0  0  0  0  0
   -0.1156    1.2884    3.5656 H   0  0  0  0  0  0  0  0  0  0  0  0
    0.9416   -0.1353    3.4454 H   0  0  0  0  0  0  0  0  0  0  0  0
  1  2  1  0  0  0  0
  2  3  1  0  0  0  0
  2  4  1  0  0  0  0
  2  5  1  0  0  0  0
  5  6  2  0  0  0  0
  5  7  1  0  0  0  0
  7  8  1  0  0  0  0
  7  9  1  0  0  0  0
  9 10  1  0  0  0  0
  9 11  1  0  0  0  0
  9 17  1  0  0  0  0
 11 12  1  0  0  0  0
 11 13  1  0  0  0  0
 11 14  1  0  0  0  0
 14 15  1  0  0  0  0
 14 16  2  0  0  0  0
 17 18  2  0  0  0  0
 17 19  1  0  0  0  0
 19 20  1  0  0  0  0
 19 21  1  0  0  0  0
 21 22  1  0  0  0  0
 21 23  1  0  0  0  0
 21 24  1  0  0  0  0
M  CHG  1  15  -1
M  END
$$$$

  -OEChem-03222214023D

 24 23  0     1  0  0  0  0  0999 V2000
   -2.5181   -3.5034   -0.3194 H   0  0  0  0  0  0  0  0  0  0  0  0
   -2.3932   -2.5316   -0.8052 C   0  0  0  0  0  0  0  0  0  0  0  0
   -3.2457   -1.8972   -0.5505 H   0  0  0  0  0  0  0  0  0  0  0  0
   -2.3696   -2.6803   -1.8878 H   0  0  0  0  0  0  0  0  0  0  0  0
   -1.1028   -1.8761   -0.3465 C   0  0  0  0  0  0  0  0  0  0  0  0
   -0.4095   -2.4385    0.4836 O   0  0  0  0  0  0  0  0  0  0  0  0
   -0.7707   -0.6369   -0.8509 N   0  0  0  0  0  0  0  0  0  0  0  0
   -1.3359   -0.3350   -1.6399 H   0  0  0  0  0  0  0  0  0  0  0  0
    0.5782   -0.0483   -0.8039 C   0  0  1  0  0  0  0  0  0  0  0  0
    1.2915   -0.6799   -1.3449 H   0  0  0  0  0  0  0  0  0  0  0  0
    0.4256    1.3395   -1.4679 C   0  0  0  0  0  0  0  0  0  0  0  0
   -0.5536    1.7695   -1.2373 H   0  0  0  0  0  0  0  0  0  0  0  0
    1.1770    2.0181   -1.0547 H   0  0  0  0  0  0  0  0  0  0  0  0
    0.6432    1.3395   -2.9789 C   0  0  0  0  0  0  0  0  0  0  0  0
   -0.0031    2.2086   -3.6123 O   0  5  0  0  0  0  0  0  0  0  0  0
    1.3183    0.4282   -3.5138 O   0  0  0  0  0  0  0  0  0  0  0  0
    1.1267    0.1330    0.6336 C   0  0  0  0  0  0  0  0  0  0  0  0
    2.3146   -0.0315    0.8921 O   0  0  0  0  0  0  0  0  0  0  0  0
    0.3010    0.6630    1.6105 N   0  0  0  0  0  0  0  0  0  0  0  0
   -0.6855    0.6949    1.3778 H   0  0  0  0  0  0  0  0  0  0  0  0
    0.7090    0.8359    2.9958 C   0  0  0  0  0  0  0  0  0  0  0  0
    1.5712    1.5073    3.0597 H   0  0  0  0  0  0  0  0  0  0  0  0
   -0.1099    1.2701    3.5769 H   0  0  0  0  0  0  0  0  0  0  0  0
    0.9771   -0.1292    3.4377 H   0  0  0  0  0  0  0  0  0  0  0  0
  1  2  1  0  0  0  0
  2  3  1  0  0  0  0
  2  4  1  0  0  0  0
  2  5  1  0  0  0  0
  5  6  2  0  0  0  0
  5  7  1  0  0  0  0
  7  8  1  0  0  0  0
  7  9  1  0  0  0  0
  9 10  1  0  0  0  0
  9 11  1  0  0  0  0
  9 17  1  0  0  0  0
 11 12  1  0  0  0  0
 11 13  1  0  0  0  0
 11 14  1  0  0  0  0
 14 15  1  0  0  0  0
 14 16  2  0  0  0  0
 17 18  2  0  0  0  0
 17 19  1  0  0  0  0
 19 20  1  0  0  0  0
 19 21  1  0  0  0  0
 21 22  1  0  0  0  0
 21 23  1  0  0  0  0
 21 24  1  0  0  0  0
M  CHG  1  15  -1
M  END
$$$$

  -OEChem-03222214023D

 24 23  0     1  0  0  0  0  0999 V2000
   -2.5019   -3.5253   -0.3555 H   0  0  0  0  0  0  0  0  0  0  0  0
   -2.3877   -2.5455   -0.8275 C   0  0  0  0  0  0  0  0  0  0  0  0
   -3.2590   -1.9326   -0.5846 H   0  0  0  0  0  0  0  0  0  0  0  0
   -2.3377   -2.6818   -1.9109 H   0  0  0  0  0  0  0  0  0  0  0  0
   -1.1218   -1.8682   -0.3330 C   0  0  0  0  0  0  0  0  0  0  0  0
   -0.4517   -2.4111    0.5288 O   0  0  0  0  0  0  0  0  0  0  0  0
   -0.7868   -0.6319   -0.8423 N   0  0  0  0  0  0  0  0  0  0  0  0
   -1.3222   -0.3622   -1.6633 H   0  0  0  0  0  0  0  0  0  0  0  0
    0.5667   -0.0552   -0.7969 C   0  0  1  0  0  0  0  0  0  0  0  0
    1.2747   -0.6931   -1.3375 H   0  0  0  0  0  0  0  0  0  0  0  0
    0.4303    1.3352   -1.4614 C   0  0  0  0  0  0  0  0  0  0  0  0
   -0.5446    1.7756   -1.2328 H   0  0  0  0  0  0  0  0  0  0  0  0
    1.1892    2.0041   -1.0455 H   0  0  0  0  0  0  0  0  0  0  0  0
    0.6461    1.3418   -2.9728 C   0  0  0  0  0  0  0  0  0  0  0  0
    0.2595    2.3777   -3.5647 O   0  5  0  0  0  0  0  0  0  0  0  0
    0.9962    0.2847   -3.5517 O   0  0  0  0  0  0  0  0  0  0  0  0
    1.1225    0.1265    0.6378 C   0  0  0  0  0  0  0  0  0  0  0  0
    2.3121   -0.0408    0.8874 O   0  0  0  0  0  0  0  0  0  0  0  0
    0.3065    0.6668    1.6168 N   0  0  0  0  0  0  0  0  0  0  0  0
   -0.6816    0.6981    1.3914 H   0  0  0  0  0  0  0  0  0  0  0  0
    0.7255    0.8522    2.9971 C   0  0  0  0  0  0  0  0  0  0  0  0
    1.5984    1.5110    3.0471 H   0  0  0  0  0  0  0  0  0  0  0  0
   -0.0833    1.3069    3.5766 H   0  0  0  0  0  0  0  0  0  0  0  0
    0.9810   -0.1109    3.4503 H   0  0  0  0  0  0  0  0  0  0  0  0
  1  2  1  0  0  0  0
  2  3  1  0  0  0  0
  2  4  1  0  0  0  0
  2  5  1  0  0  0  0
  5  6  2  0  0  0  0
  5  7  1  0  0  0  0
  7  8  1  0  0  0  0
  7  9  1  0  0  0  0
  9 10  1  0  0  0  0
  9 11  1  0  0  0  0
  9 17  1  0  0  0  0
 11 12  1  0  0  0  0
 11 13  1  0  0  0  0
 11 14  1  0  0  0  0
 14 15  1  0  0  0  0
 14 16  2  0  0  0  0
 17 18  2  0  0  0  0
 17 19  1  0  0  0  0
 19 20  1  0  0  0  0
 19 21  1  0  0  0  0
 21 22  1  0  0  0  0
 21 23  1  0  0  0  0
 21 24  1  0  0  0  0
M  CHG  1  15  -1
M  END
$$$$

  -OEChem-03222214023D

 24 23  0     1  0  0  0  0  0999 V2000
   -2.4850   -3.5326   -0.3839 H   0  0  0  0  0  0  0  0  0  0  0  0
   -2.3712   -2.5569   -0.8640 C   0  0  0  0  0  0  0  0  0  0  0  0
   -3.2711   -1.9648   -0.6811 H   0  0  0  0  0  0  0  0  0  0  0  0
   -2.2556   -2.7060   -1.9409 H   0  0  0  0  0  0  0  0  0  0  0  0
   -1.1550   -1.8365   -0.3102 C   0  0  0  0  0  0  0  0  0  0  0  0
   -0.5262   -2.3407    0.6060 O   0  0  0  0  0  0  0  0  0  0  0  0
   -0.8205   -0.6038   -0.8257 N   0  0  0  0  0  0  0  0  0  0  0  0
   -1.2812   -0.4083   -1.7166 H   0  0  0  0  0  0  0  0  0  0  0  0
    0.5374   -0.0431   -0.7841 C   0  0  1  0  0  0  0  0  0  0  0  0
    1.2277   -0.6857   -1.3424 H   0  0  0  0  0  0  0  0  0  0  0  0
    0.4214    1.3382   -1.4619 C   0  0  0  0  0  0  0  0  0  0  0  0
   -0.4251    1.8951   -1.0509 H   0  0  0  0  0  0  0  0  0  0  0  0
    1.3269    1.9141   -1.2506 H   0  0  0  0  0  0  0  0  0  0  0  0
    0.2818    1.2651   -2.9804 C   0  0  0  0  0  0  0  0  0  0  0  0
    0.1867    2.3606   -3.5811 O   0  5  0  0  0  0  0  0  0  0  0  0
    0.0235    0.1473   -3.4981 O   0  0  0  0  0  0  0  0  0  0  0  0
    1.1145    0.1410    0.6400 C   0  0  0  0  0  0  0  0  0  0  0  0
    2.3078   -0.0376    0.8656 O   0  0  0  0  0  0  0  0  0  0  0  0
    0.3204    0.6952    1.6285 N   0  0  0  0  0  0  0  0  0  0  0  0
   -0.6730    0.7103    1.4225 H   0  0  0  0  0  0  0  0  0  0  0  0
    0.7571    0.8494    3.0071 C   0  0  0  0  0  0  0  0  0  0  0  0
    1.6431    1.4902    3.0588 H   0  0  0  0  0  0  0  0  0  0  0  0
   -0.0364    1.3099    3.6026 H   0  0  0  0  0  0  0  0  0  0  0  0
    0.9982   -0.1261    3.4416 H   0  0  0  0  0  0  0  0  0  0  0  0
  1  2  1  0  0  0  0
  2  3  1  0  0  0  0
  2  4  1  0  0  0  0
  2  5  1  0  0  0  0
  5  6  2  0  0  0  0
  5  7  1  0  0  0  0
  7  8  1  0  0  0  0
  7  9  1  0  0  0  0
  9 10  1  0  0  0  0
  9 11  1  0  0  0  0
  9 17  1  0  0  0  0
 11 12  1  0  0  0  0
 11 13  1  0  0  0  0
 11 14  1  0  0  0  0
 14 15  1  0  0  0  0
 14 16  2  0  0  0  0
 17 18  2  0  0  0  0
 17 19  1  0  0  0  0
 19 20  1  0  0  0  0
 19 21  1  0  0  0  0
 21 22  1  0  0  0  0
 21 23  1  0  0  0  0
 21 24  1  0  0  0  0
M  CHG  1  15  -1
M  END
$$$$

  -OEChem-03222214023D

 24 23  0     1  0  0  0  0  0999 V2000
   -2.4784   -3.5388   -0.3994 H   0  0  0  0  0  0  0  0  0  0  0  0
   -2.3726   -2.5553   -0.8655 C   0  0  0  0  0  0  0  0  0  0  0  0
   -3.2756   -1.9717   -0.6712 H   0  0  0  0  0  0  0  0  0  0  0  0
   -2.2598   -2.6874   -1.9450 H   0  0  0  0  0  0  0  0  0  0  0  0
   -1.1592   -1.8345   -0.3062 C   0  0  0  0  0  0  0  0  0  0  0  0
   -0.5285   -2.3416    0.6073 O   0  0  0  0  0  0  0  0  0  0  0  0
   -0.8242   -0.6017   -0.8203 N   0  0  0  0  0  0  0  0  0  0  0  0
   -1.2809   -0.4061   -1.7159 H   0  0  0  0  0  0  0  0  0  0  0  0
    0.5332   -0.0408   -0.7819 C   0  0  1  0  0  0  0  0  0  0  0  0
    1.2201   -0.6830   -1.3446 H   0  0  0  0  0  0  0  0  0  0  0  0
    0.4161    1.3391   -1.4618 C   0  0  0  0  0  0  0  0  0  0  0  0
   -0.4290    1.9000   -1.0539 H   0  0  0  0  0  0  0  0  0  0  0  0
    1.3233    1.9135   -1.2524 H   0  0  0  0  0  0  0  0  0  0  0  0
    0.2751    1.2528   -2.9792 C   0  0  0  0  0  0  0  0  0  0  0  0
    0.4662    2.3077   -3.6275 O   0  5  0  0  0  0  0  0  0  0  0  0
   -0.2317    0.2032   -3.4581 O   0  0  0  0  0  0  0  0  0  0  0  0
    1.1144    0.1421    0.6405 C   0  0  0  0  0  0  0  0  0  0  0  0
    2.3080   -0.0388    0.8627 O   0  0  0  0  0  0  0  0  0  0  0  0
    0.3218    0.6952    1.6307 N   0  0  0  0  0  0  0  0  0  0  0  0
   -0.6720    0.7105    1.4262 H   0  0  0  0  0  0  0  0  0  0  0  0
    0.7605    0.8478    3.0087 C   0  0  0  0  0  0  0  0  0  0  0  0
    1.6468    1.4883    3.0603 H   0  0  0  0  0  0  0  0  0  0  0  0
   -0.0324    1.3077    3.6054 H   0  0  0  0  0  0  0  0  0  0  0  0
    1.0020   -0.1281    3.4419 H   0  0  0  0  0  0  0  0  0  0  0  0
  1  2  1  0  0  0  0
  2  3  1  0  0  0  0
  2  4  1  0  0  0  0
  2  5  1  0  0  0  0
  5  6  2  0  0  0  0
  5  7  1  0  0  0  0
  7  8  1  0  0  0  0
  7  9  1  0  0  0  0
  9 10  1  0  0  0  0
  9 11  1  0  0  0  0
  9 17  1  0  0  0  0
 11 12  1  0  0  0  0
 11 13  1  0  0  0  0
 11 14  1  0  0  0  0
 14 15  1  0  0  0  0
 14 16  2  0  0  0  0
 17 18  2  0  0  0  0
 17 19  1  0  0  0  0
 19 20  1  0  0  0  0
 19 21  1  0  0  0  0
 21 22  1  0  0  0  0
 21 23  1  0  0  0  0
 21 24  1  0  0  0  0
M  CHG  1  15  -1
M  END
$$$$

  -OEChem-03222214023D

 24 23  0     1  0  0  0  0  0999 V2000
   -2.4822   -3.5360   -0.4067 H   0  0  0  0  0  0  0  0  0  0  0  0
   -2.3779   -2.5487   -0.8646 C   0  0  0  0  0  0  0  0  0  0  0  0
   -3.2766   -1.9635   -0.6549 H   0  0  0  0  0  0  0  0  0  0  0  0
   -2.2772   -2.6707   -1.9464 H   0  0  0  0  0  0  0  0  0  0  0  0
   -1.1560   -1.8374   -0.3121 C   0  0  0  0  0  0  0  0  0  0  0  0
   -0.5141   -2.3563    0.5869 O   0  0  0  0  0  0  0  0  0  0  0  0
   -0.8212   -0.6019   -0.8192 N   0  0  0  0  0  0  0  0  0  0  0  0
   -1.2880   -0.3906   -1.7080 H   0  0  0  0  0  0  0  0  0  0  0  0
    0.5334   -0.0346   -0.7813 C   0  0  1  0  0  0  0  0  0  0  0  0
    1.2215   -0.6720   -1.3476 H   0  0  0  0  0  0  0  0  0  0  0  0
    0.4083    1.3445   -1.4611 C   0  0  0  0  0  0  0  0  0  0  0  0
   -0.4397    1.9032   -1.0565 H   0  0  0  0  0  0  0  0  0  0  0  0
    1.3128    1.9238   -1.2522 H   0  0  0  0  0  0  0  0  0  0  0  0
    0.2681    1.2420   -2.9773 C   0  0  0  0  0  0  0  0  0  0  0  0
    0.7197    2.1834   -3.6695 O   0  5  0  0  0  0  0  0  0  0  0  0
   -0.4432    0.3014   -3.4237 O   0  0  0  0  0  0  0  0  0  0  0  0
    1.1156    0.1442    0.6410 C   0  0  0  0  0  0  0  0  0  0  0  0
    2.3093   -0.0352    0.8622 O   0  0  0  0  0  0  0  0  0  0  0  0
    0.3212    0.6889    1.6342 N   0  0  0  0  0  0  0  0  0  0  0  0
   -0.6727    0.7000    1.4306 H   0  0  0  0  0  0  0  0  0  0  0  0
    0.7612    0.8436    3.0116 C   0  0  0  0  0  0  0  0  0  0  0  0
    1.6433    1.4900    3.0614 H   0  0  0  0  0  0  0  0  0  0  0  0
   -0.0337    1.2985    3.6098 H   0  0  0  0  0  0  0  0  0  0  0  0
    1.0097   -0.1309    3.4443 H   0  0  0  0  0  0  0  0  0  0  0  0
  1  2  1  0  0  0  0
  2  3  1  0  0  0  0
  2  4  1  0  0  0  0
  2  5  1  0  0  0  0
  5  6  2  0  0  0  0
  5  7  1  0  0  0  0
  7  8  1  0  0  0  0
  7  9  1  0  0  0  0
  9 10  1  0  0  0  0
  9 11  1  0  0  0  0
  9 17  1  0  0  0  0
 11 12  1  0  0  0  0
 11 13  1  0  0  0  0
 11 14  1  0  0  0  0
 14 15  1  0  0  0  0
 14 16  2  0  0  0  0
 17 18  2  0  0  0  0
 17 19  1  0  0  0  0
 19 20  1  0  0  0  0
 19 21  1  0  0  0  0
 21 22  1  0  0  0  0
 21 23  1  0  0  0  0
 21 24  1  0  0  0  0
M  CHG  1  15  -1
M  END
$$$$

  -OEChem-03222214023D

 24 23  0     1  0  0  0  0  0999 V2000
   -2.4887   -3.5276   -0.4100 H   0  0  0  0  0  0  0  0  0  0  0  0
   -2.3838   -2.5380   -0.8632 C   0  0  0  0  0  0  0  0  0  0  0  0
   -3.2749   -1.9478   -0.6365 H   0  0  0  0  0  0  0  0  0  0  0  0
   -2.3002   -2.6536   -1.9472 H   0  0  0  0  0  0  0  0  0  0  0  0
   -1.1483   -1.8396   -0.3245 C   0  0  0  0  0  0  0  0  0  0  0  0
   -0.4932   -2.3717    0.5568 O   0  0  0  0  0  0  0  0  0  0  0  0
   -0.8131   -0.6014   -0.8240 N   0  0  0  0  0  0  0  0  0  0  0  0
   -1.2977   -0.3657   -1.6982 H   0  0  0  0  0  0  0  0  0  0  0  0
    0.5387   -0.0279   -0.7829 C   0  0  1  0  0  0  0  0  0  0  0  0
    1.2312   -0.6580   -1.3523 H   0  0  0  0  0  0  0  0  0  0  0  0
    0.4008    1.3509   -1.4576 C   0  0  0  0  0  0  0  0  0  0  0  0
   -0.4541    1.9010   -1.0556 H   0  0  0  0  0  0  0  0  0  0  0  0
    1.2990    1.9402   -1.2492 H   0  0  0  0  0  0  0  0  0  0  0  0
    0.2615    1.2301   -2.9714 C   0  0  0  0  0  0  0  0  0  0  0  0
    0.9346    1.9978   -3.6971 O   0  5  0  0  0  0  0  0  0  0  0  0
   -0.6157    0.4269   -3.3918 O   0  0  0  0  0  0  0  0  0  0  0  0
    1.1183    0.1474    0.6408 C   0  0  0  0  0  0  0  0  0  0  0  0
    2.3118   -0.0300    0.8644 O   0  0  0  0  0  0  0  0  0  0  0  0
    0.3202    0.6839    1.6354 N   0  0  0  0  0  0  0  0  0  0  0  0
   -0.6733    0.6959    1.4295 H   0  0  0  0  0  0  0  0  0  0  0  0
    0.7585    0.8381    3.0135 C   0  0  0  0  0  0  0  0  0  0  0  0
    1.6338    1.4937    3.0653 H   0  0  0  0  0  0  0  0  0  0  0  0
   -0.0412    1.2822    3.6135 H   0  0  0  0  0  0  0  0  0  0  0  0
    1.0175   -0.1352    3.4427 H   0  0  0  0  0  0  0  0  0  0  0  0
  1  2  1  0  0  0  0
  2  3  1  0  0  0  0
  2  4  1  0  0  0  0
  2  5  1  0  0  0  0
  5  6  2  0  0  0  0
  5  7  1  0  0  0  0
  7  8  1  0  0  0  0
  7  9  1  0  0  0  0
  9 10  1  0  0  0  0
  9 11  1  0  0  0  0
  9 17  1  0  0  0  0
 11 12  1  0  0  0  0
 11 13  1  0  0  0  0
 11 14  1  0  0  0  0
 14 15  1  0  0  0  0
 14 16  2  0  0  0  0
 17 18  2  0  0  0  0
 17 19  1  0  0  0  0
 19 20  1  0  0  0  0
 19 21  1  0  0  0  0
 21 22  1  0  0  0  0
 21 23  1  0  0  0  0
 21 24  1  0  0  0  0
M  CHG  1  15  -1
M  END
$$$$

  -OEChem-03222214023D

 24 23  0     1  0  0  0  0  0999 V2000
   -2.4817   -3.5206   -0.4224 H   0  0  0  0  0  0  0  0  0  0  0  0
   -2.3890   -2.5194   -0.8521 C   0  0  0  0  0  0  0  0  0  0  0  0
   -3.2672   -1.9312   -0.5748 H   0  0  0  0  0  0  0  0  0  0  0  0
   -2.3481   -2.6057   -1.9411 H   0  0  0  0  0  0  0  0  0  0  0  0
   -1.1302   -1.8417   -0.3416 C   0  0  0  0  0  0  0  0  0  0  0  0
   -0.4580   -2.3900    0.5166 O   0  0  0  0  0  0  0  0  0  0  0  0
   -0.7960   -0.6005   -0.8343 N   0  0  0  0  0  0  0  0  0  0  0  0
   -1.3009   -0.3394   -1.6902 H   0  0  0  0  0  0  0  0  0  0  0  0
    0.5518   -0.0175   -0.7876 C   0  0  1  0  0  0  0  0  0  0  0  0
    1.2518   -0.6379   -1.3583 H   0  0  0  0  0  0  0  0  0  0  0  0
    0.3948    1.3599   -1.4571 C   0  0  0  0  0  0  0  0  0  0  0  0
   -0.4690    1.8981   -1.0577 H   0  0  0  0  0  0  0  0  0  0  0  0
    1.2833    1.9644   -1.2511 H   0  0  0  0  0  0  0  0  0  0  0  0
    0.2578    1.2159   -2.9671 C   0  0  0  0  0  0  0  0  0  0  0  0
    1.1026    1.7641   -3.7115 O   0  5  0  0  0  0  0  0  0  0  0  0
   -0.7435    0.5619   -3.3682 O   0  0  0  0  0  0  0  0  0  0  0  0
    1.1241    0.1563    0.6389 C   0  0  0  0  0  0  0  0  0  0  0  0
    2.3168   -0.0170    0.8695 O   0  0  0  0  0  0  0  0  0  0  0  0
    0.3169    0.6836    1.6313 N   0  0  0  0  0  0  0  0  0  0  0  0
   -0.6750    0.6941    1.4179 H   0  0  0  0  0  0  0  0  0  0  0  0
    0.7440    0.8259    3.0141 C   0  0  0  0  0  0  0  0  0  0  0  0
    1.6240    1.4739    3.0783 H   0  0  0  0  0  0  0  0  0  0  0  0
   -0.0573    1.2729    3.6097 H   0  0  0  0  0  0  0  0  0  0  0  0
    0.9912   -0.1523    3.4389 H   0  0  0  0  0  0  0  0  0  0  0  0
  1  2  1  0  0  0  0
  2  3  1  0  0  0  0
  2  4  1  0  0  0  0
  2  5  1  0  0  0  0
  5  6  2  0  0  0  0
  5  7  1  0  0  0  0
  7  8  1  0  0  0  0
  7  9  1  0  0  0  0
  9 10  1  0  0  0  0
  9 11  1  0  0  0  0
  9 17  1  0  0  0  0
 11 12  1  0  0  0  0
 11 13  1  0  0  0  0
 11 14  1  0  0  0  0
 14 15  1  0  0  0  0
 14 16  2  0  0  0  0
 17 18  2  0  0  0  0
 17 19  1  0  0  0  0
 19 20  1  0  0  0  0
 19 21  1  0  0  0  0
 21 22  1  0  0  0  0
 21 23  1  0  0  0  0
 21 24  1  0  0  0  0
M  CHG  1  15  -1
M  END
$$$$

  -OEChem-03222214023D

 24 23  0     1  0  0  0  0  0999 V2000
   -2.4962   -3.5009   -0.4252 H   0  0  0  0  0  0  0  0  0  0  0  0
   -2.3926   -2.5024   -0.8585 C   0  0  0  0  0  0  0  0  0  0  0  0
   -3.2621   -1.9025   -0.5790 H   0  0  0  0  0  0  0  0  0  0  0  0
   -2.3583   -2.5922   -1.9475 H   0  0  0  0  0  0  0  0  0  0  0  0
   -1.1223   -1.8396   -0.3569 C   0  0  0  0  0  0  0  0  0  0  0  0
   -0.4423   -2.4014    0.4862 O   0  0  0  0  0  0  0  0  0  0  0  0
   -0.7848   -0.5963   -0.8415 N   0  0  0  0  0  0  0  0  0  0  0  0
   -1.3081   -0.3096   -1.6779 H   0  0  0  0  0  0  0  0  0  0  0  0
    0.5619   -0.0103   -0.7900 C   0  0  1  0  0  0  0  0  0  0  0  0
    1.2664   -0.6216   -1.3652 H   0  0  0  0  0  0  0  0  0  0  0  0
    0.3871    1.3674   -1.4499 C   0  0  0  0  0  0  0  0  0  0  0  0
   -0.4816    1.8957   -1.0474 H   0  0  0  0  0  0  0  0  0  0  0  0
    1.2694    1.9829   -1.2511 H   0  0  0  0  0  0  0  0  0  0  0  0
    0.2479    1.2055   -2.9555 C   0  0  0  0  0  0  0  0  0  0  0  0
    1.2097    1.5019   -3.7006 O   0  5  0  0  0  0  0  0  0  0  0  0
   -0.8446    0.7097   -3.3442 O   0  0  0  0  0  0  0  0  0  0  0  0
    1.1311    0.1580    0.6386 C   0  0  0  0  0  0  0  0  0  0  0  0
    2.3234   -0.0120    0.8731 O   0  0  0  0  0  0  0  0  0  0  0  0
    0.3196    0.6787    1.6311 N   0  0  0  0  0  0  0  0  0  0  0  0
   -0.6717    0.6884    1.4150 H   0  0  0  0  0  0  0  0  0  0  0  0
    0.7429    0.8216    3.0151 C   0  0  0  0  0  0  0  0  0  0  0  0
    1.6158    1.4788    3.0827 H   0  0  0  0  0  0  0  0  0  0  0  0
   -0.0641    1.2582    3.6106 H   0  0  0  0  0  0  0  0  0  0  0  0
    0.9997   -0.1551    3.4378 H   0  0  0  0  0  0  0  0  0  0  0  0
  1  2  1  0  0  0  0
  2  3  1  0  0  0  0
  2  4  1  0  0  0  0
  2  5  1  0  0  0  0
  5  6  2  0  0  0  0
  5  7  1  0  0  0  0
  7  8  1  0  0  0  0
  7  9  1  0  0  0  0
  9 10  1  0  0  0  0
  9 11  1  0  0  0  0
  9 17  1  0  0  0  0
 11 12  1  0  0  0  0
 11 13  1  0  0  0  0
 11 14  1  0  0  0  0
 14 15  1  0  0  0  0
 14 16  2  0  0  0  0
 17 18  2  0  0  0  0
 17 19  1  0  0  0  0
 19 20  1  0  0  0  0
 19 21  1  0  0  0  0
 21 22  1  0  0  0  0
 21 23  1  0  0  0  0
 21 24  1  0  0  0  0
M  CHG  1  15  -1
M  END
$$$$

  -OEChem-03222214023D

 24 23  0     1  0  0  0  0  0999 V2000
   -2.4745   -3.5071   -0.4738 H   0  0  0  0  0  0  0  0  0  0  0  0
   -2.3945   -2.4880   -0.8622 C   0  0  0  0  0  0  0  0  0  0  0  0
   -3.2591   -1.9107   -0.5259 H   0  0  0  0  0  0  0  0  0  0  0  0
   -2.3961   -2.5270   -1.9548 H   0  0  0  0  0  0  0  0  0  0  0  0
   -1.1140   -1.8364   -0.3714 C   0  0  0  0  0  0  0  0  0  0  0  0
   -0.4281   -2.4087    0.4598 O   0  0  0  0  0  0  0  0  0  0  0  0
   -0.7737   -0.5914   -0.8507 N   0  0  0  0  0  0  0  0  0  0  0  0
   -1.3117   -0.2833   -1.6694 H   0  0  0  0  0  0  0  0  0  0  0  0
    0.5728   -0.0035   -0.7921 C   0  0  1  0  0  0  0  0  0  0  0  0
    1.2825   -0.6080   -1.3688 H   0  0  0  0  0  0  0  0  0  0  0  0
    0.3833    1.3729   -1.4461 C   0  0  0  0  0  0  0  0  0  0  0  0
   -0.4893    1.8945   -1.0421 H   0  0  0  0  0  0  0  0  0  0  0  0
    1.2609    1.9968   -1.2533 H   0  0  0  0  0  0  0  0  0  0  0  0
    0.2459    1.1957   -2.9482 C   0  0  0  0  0  0  0  0  0  0  0  0
    1.2682    1.2216   -3.6705 O   0  5  0  0  0  0  0  0  0  0  0  0
   -0.9068    0.8652   -3.3360 O   0  0  0  0  0  0  0  0  0  0  0  0
    1.1368    0.1620    0.6389 C   0  0  0  0  0  0  0  0  0  0  0  0
    2.3279   -0.0080    0.8795 O   0  0  0  0  0  0  0  0  0  0  0  0
    0.3205    0.6797    1.6293 N   0  0  0  0  0  0  0  0  0  0  0  0
   -0.6695    0.6945    1.4078 H   0  0  0  0  0  0  0  0  0  0  0  0
    0.7377    0.8201    3.0154 C   0  0  0  0  0  0  0  0  0  0  0  0
    1.6261    1.4560    3.0858 H   0  0  0  0  0  0  0  0  0  0  0  0
   -0.0622    1.2803    3.6025 H   0  0  0  0  0  0  0  0  0  0  0  0
    0.9674   -0.1602    3.4453 H   0  0  0  0  0  0  0  0  0  0  0  0
  1  2  1  0  0  0  0
  2  3  1  0  0  0  0
  2  4  1  0  0  0  0
  2  5  1  0  0  0  0
  5  6  2  0  0  0  0
  5  7  1  0  0  0  0
  7  8  1  0  0  0  0
  7  9  1  0  0  0  0
  9 10  1  0  0  0  0
  9 11  1  0  0  0  0
  9 17  1  0  0  0  0
 11 12  1  0  0  0  0
 11 13  1  0  0  0  0
 11 14  1  0  0  0  0
 14 15  1  0  0  0  0
 14 16  2  0  0  0  0
 17 18  2  0  0  0  0
 17 19  1  0  0  0  0
 19 20  1  0  0  0  0
 19 21  1  0  0  0  0
 21 22  1  0  0  0  0
 21 23  1  0  0  0  0
 21 24  1  0  0  0  0
M  CHG  1  15  -1
M  END
$$$$

  -OEChem-03222214023D

 24 23  0     1  0  0  0  0  0999 V2000
   -2.4949   -3.4840   -0.4567 H   0  0  0  0  0  0  0  0  0  0  0  0
   -2.3957   -2.4751   -0.8668 C   0  0  0  0  0  0  0  0  0  0  0  0
   -3.2524   -1.8763   -0.5486 H   0  0  0  0  0  0  0  0  0  0  0  0
   -2.3913   -2.5374   -1.9583 H   0  0  0  0  0  0  0  0  0  0  0  0
   -1.1074   -1.8346   -0.3822 C   0  0  0  0  0  0  0  0  0  0  0  0
   -0.4204   -2.4146    0.4427 O   0  0  0  0  0  0  0  0  0  0  0  0
   -0.7630   -0.5894   -0.8577 N   0  0  0  0  0  0  0  0  0  0  0  0
   -1.3149   -0.2628   -1.6578 H   0  0  0  0  0  0  0  0  0  0  0  0
    0.5841   -0.0024   -0.7941 C   0  0  1  0  0  0  0  0  0  0  0  0
    1.2962   -0.6039   -1.3712 H   0  0  0  0  0  0  0  0  0  0  0  0
    0.3843    1.3736   -1.4430 C   0  0  0  0  0  0  0  0  0  0  0  0
   -0.4883    1.8905   -1.0327 H   0  0  0  0  0  0  0  0  0  0  0  0
    1.2603    2.0006   -1.2539 H   0  0  0  0  0  0  0  0  0  0  0  0
    0.2463    1.1963   -2.9445 C   0  0  0  0  0  0  0  0  0  0  0  0
    1.2636    0.9492   -3.6317 O   0  5  0  0  0  0  0  0  0  0  0  0
   -0.9407    1.0646   -3.3423 O   0  0  0  0  0  0  0  0  0  0  0  0
    1.1434    0.1602    0.6391 C   0  0  0  0  0  0  0  0  0  0  0  0
    2.3341   -0.0061    0.8842 O   0  0  0  0  0  0  0  0  0  0  0  0
    0.3230    0.6765    1.6269 N   0  0  0  0  0  0  0  0  0  0  0  0
   -0.6663    0.6899    1.4021 H   0  0  0  0  0  0  0  0  0  0  0  0
    0.7353    0.8193    3.0142 C   0  0  0  0  0  0  0  0  0  0  0  0
    1.6122    1.4704    3.0879 H   0  0  0  0  0  0  0  0  0  0  0  0
   -0.0734    1.2634    3.6019 H   0  0  0  0  0  0  0  0  0  0  0  0
    0.9817   -0.1580    3.4414 H   0  0  0  0  0  0  0  0  0  0  0  0
  1  2  1  0  0  0  0
  2  3  1  0  0  0  0
  2  4  1  0  0  0  0
  2  5  1  0  0  0  0
  5  6  2  0  0  0  0
  5  7  1  0  0  0  0
  7  8  1  0  0  0  0
  7  9  1  0  0  0  0
  9 10  1  0  0  0  0
  9 11  1  0  0  0  0
  9 17  1  0  0  0  0
 11 12  1  0  0  0  0
 11 13  1  0  0  0  0
 11 14  1  0  0  0  0
 14 15  1  0  0  0  0
 14 16  2  0  0  0  0
 17 18  2  0  0  0  0
 17 19  1  0  0  0  0
 19 20  1  0  0  0  0
 19 21  1  0  0  0  0
 21 22  1  0  0  0  0
 21 23  1  0  0  0  0
 21 24  1  0  0  0  0
M  CHG  1  15  -1
M  END
$$$$

  -OEChem-03222214023D

 24 23  0     1  0  0  0  0  0999 V2000
   -2.4856   -3.4944   -0.4589 H   0  0  0  0  0  0  0  0  0  0  0  0
   -2.3973   -2.4779   -0.8522 C   0  0  0  0  0  0  0  0  0  0  0  0
   -3.2482   -1.8877   -0.5038 H   0  0  0  0  0  0  0  0  0  0  0  0
   -2.4170   -2.5207   -1.9443 H   0  0  0  0  0  0  0  0  0  0  0  0
   -1.0997   -1.8437   -0.3844 C   0  0  0  0  0  0  0  0  0  0  0  0
   -0.4059   -2.4274    0.4316 O   0  0  0  0  0  0  0  0  0  0  0  0
   -0.7558   -0.5991   -0.8632 N   0  0  0  0  0  0  0  0  0  0  0  0
   -1.3238   -0.2607   -1.6431 H   0  0  0  0  0  0  0  0  0  0  0  0
    0.5912   -0.0104   -0.7973 C   0  0  1  0  0  0  0  0  0  0  0  0
    1.3057   -0.6163   -1.3664 H   0  0  0  0  0  0  0  0  0  0  0  0
    0.3978    1.3665   -1.4485 C   0  0  0  0  0  0  0  0  0  0  0  0
   -0.4712    1.8855   -1.0328 H   0  0  0  0  0  0  0  0  0  0  0  0
    1.2769    1.9873   -1.2551 H   0  0  0  0  0  0  0  0  0  0  0  0
    0.2632    1.2147   -2.9549 C   0  0  0  0  0  0  0  0  0  0  0  0
    1.2034    0.7036   -3.6060 O   0  5  0  0  0  0  0  0  0  0  0  0
   -0.9049    1.3722   -3.3908 O   0  0  0  0  0  0  0  0  0  0  0  0
    1.1440    0.1561    0.6380 C   0  0  0  0  0  0  0  0  0  0  0  0
    2.3336   -0.0077    0.8899 O   0  0  0  0  0  0  0  0  0  0  0  0
    0.3188    0.6743    1.6210 N   0  0  0  0  0  0  0  0  0  0  0  0
   -0.6687    0.6975    1.3891 H   0  0  0  0  0  0  0  0  0  0  0  0
    0.7240    0.8200    3.0102 C   0  0  0  0  0  0  0  0  0  0  0  0
    1.6073    1.4623    3.0864 H   0  0  0  0  0  0  0  0  0  0  0  0
   -0.0837    1.2753    3.5904 H   0  0  0  0  0  0  0  0  0  0  0  0
    0.9573   -0.1579    3.4434 H   0  0  0  0  0  0  0  0  0  0  0  0
  1  2  1  0  0  0  0
  2  3  1  0  0  0  0
  2  4  1  0  0  0  0
  2  5  1  0  0  0  0
  5  6  2  0  0  0  0
  5  7  1  0  0  0  0
  7  8  1  0  0  0  0
  7  9  1  0  0  0  0
  9 10  1  0  0  0  0
  9 11  1  0  0  0  0
  9 17  1  0  0  0  0
 11 12  1  0  0  0  0
 11 13  1  0  0  0  0
 11 14  1  0  0  0  0
 14 15  1  0  0  0  0
 14 16  2  0  0  0  0
 17 18  2  0  0  0  0
 17 19  1  0  0  0  0
 19 20  1  0  0  0  0
 19 21  1  0  0  0  0
 21 22  1  0  0  0  0
 21 23  1  0  0  0  0
 21 24  1  0  0  0  0
M  CHG  1  15  -1
M  END
$$$$

  -OEChem-03222214023D

 24 23  0     1  0  0  0  0  0999 V2000
   -2.5079   -3.4981   -0.4007 H   0  0  0  0  0  0  0  0  0  0  0  0
   -2.4006   -2.5019   -0.8388 C   0  0  0  0  0  0  0  0  0  0  0  0
   -3.2516   -1.8879   -0.5347 H   0  0  0  0  0  0  0  0  0  0  0  0
   -2.3994   -2.5951   -1.9279 H   0  0  0  0  0  0  0  0  0  0  0  0
   -1.1054   -1.8598   -0.3747 C   0  0  0  0  0  0  0  0  0  0  0  0
   -0.4089   -2.4373    0.4431 O   0  0  0  0  0  0  0  0  0  0  0  0
   -0.7680   -0.6154   -0.8600 N   0  0  0  0  0  0  0  0  0  0  0  0
   -1.3406   -0.2859   -1.6362 H   0  0  0  0  0  0  0  0  0  0  0  0
    0.5794   -0.0265   -0.7979 C   0  0  1  0  0  0  0  0  0  0  0  0
    1.2915   -0.6436   -1.3577 H   0  0  0  0  0  0  0  0  0  0  0  0
    0.4136    1.3545   -1.4544 C   0  0  0  0  0  0  0  0  0  0  0  0
   -0.4483    1.8820   -1.0348 H   0  0  0  0  0  0  0  0  0  0  0  0
    1.3020    1.9573   -1.2477 H   0  0  0  0  0  0  0  0  0  0  0  0
    0.2842    1.2484   -2.9685 C   0  0  0  0  0  0  0  0  0  0  0  0
    1.0642    0.4980   -3.6002 O   0  5  0  0  0  0  0  0  0  0  0  0
   -0.7441    1.7774   -3.4561 O   0  0  0  0  0  0  0  0  0  0  0  0
    1.1331    0.1438    0.6373 C   0  0  0  0  0  0  0  0  0  0  0  0
    2.3246   -0.0128    0.8856 O   0  0  0  0  0  0  0  0  0  0  0  0
    0.3106    0.6645    1.6213 N   0  0  0  0  0  0  0  0  0  0  0  0
   -0.6776    0.6908    1.3939 H   0  0  0  0  0  0  0  0  0  0  0  0
    0.7250    0.8309    3.0055 C   0  0  0  0  0  0  0  0  0  0  0  0
    1.5937    1.4942    3.0674 H   0  0  0  0  0  0  0  0  0  0  0  0
   -0.0876    1.2715    3.5903 H   0  0  0  0  0  0  0  0  0  0  0  0
    0.9857   -0.1377    3.4439 H   0  0  0  0  0  0  0  0  0  0  0  0
  1  2  1  0  0  0  0
  2  3  1  0  0  0  0
  2  4  1  0  0  0  0
  2  5  1  0  0  0  0
  5  6  2  0  0  0  0
  5  7  1  0  0  0  0
  7  8  1  0  0  0  0
  7  9  1  0  0  0  0
  9 10  1  0  0  0  0
  9 11  1  0  0  0  0
  9 17  1  0  0  0  0
 11 12  1  0  0  0  0
 11 13  1  0  0  0  0
 11 14  1  0  0  0  0
 14 15  1  0  0  0  0
 14 16  2  0  0  0  0
 17 18  2  0  0  0  0
 17 19  1  0  0  0  0
 19 20  1  0  0  0  0
 19 21  1  0  0  0  0
 21 22  1  0  0  0  0
 21 23  1  0  0  0  0
 21 24  1  0  0  0  0
M  CHG  1  15  -1
M  END
$$$$

  -OEChem-03222214023D

 24 23  0     1  0  0  0  0  0999 V2000
   -2.5108   -3.5059   -0.3643 H   0  0  0  0  0  0  0  0  0  0  0  0
   -2.3962   -2.5233   -0.8303 C   0  0  0  0  0  0  0  0  0  0  0  0
   -3.2601   -1.9062   -0.5716 H   0  0  0  0  0  0  0  0  0  0  0  0
   -2.3606   -2.6510   -1.9154 H   0  0  0  0  0  0  0  0  0  0  0  0
   -1.1198   -1.8575   -0.3481 C   0  0  0  0  0  0  0  0  0  0  0  0
   -0.4385   -2.4110    0.4986 O   0  0  0  0  0  0  0  0  0  0  0  0
   -0.7865   -0.6175   -0.8483 N   0  0  0  0  0  0  0  0  0  0  0  0
   -1.3381   -0.3267   -1.6528 H   0  0  0  0  0  0  0  0  0  0  0  0
    0.5646   -0.0358   -0.7985 C   0  0  1  0  0  0  0  0  0  0  0  0
    1.2703   -0.6658   -1.3517 H   0  0  0  0  0  0  0  0  0  0  0  0
    0.4234    1.3473   -1.4631 C   0  0  0  0  0  0  0  0  0  0  0  0
   -0.4303    1.8859   -1.0411 H   0  0  0  0  0  0  0  0  0  0  0  0
    1.3221    1.9334   -1.2527 H   0  0  0  0  0  0  0  0  0  0  0  0
    0.2890    1.2710   -2.9807 C   0  0  0  0  0  0  0  0  0  0  0  0
    0.8367    0.3289   -3.6012 O   0  5  0  0  0  0  0  0  0  0  0  0
   -0.5017    2.0957   -3.4978 O   0  0  0  0  0  0  0  0  0  0  0  0
    1.1250    0.1417    0.6337 C   0  0  0  0  0  0  0  0  0  0  0  0
    2.3170   -0.0203    0.8767 O   0  0  0  0  0  0  0  0  0  0  0  0
    0.3104    0.6739    1.6180 N   0  0  0  0  0  0  0  0  0  0  0  0
   -0.6790    0.6974    1.3959 H   0  0  0  0  0  0  0  0  0  0  0  0
    0.7293    0.8318    3.0018 C   0  0  0  0  0  0  0  0  0  0  0  0
    1.5962    1.4971    3.0655 H   0  0  0  0  0  0  0  0  0  0  0  0
   -0.0828    1.2657    3.5922 H   0  0  0  0  0  0  0  0  0  0  0  0
    0.9939   -0.1390    3.4329 H   0  0  0  0  0  0  0  0  0  0  0  0
  1  2  1  0  0  0  0
  2  3  1  0  0  0  0
  2  4  1  0  0  0  0
  2  5  1  0  0  0  0
  5  6  2  0  0  0  0
  5  7  1  0  0  0  0
  7  8  1  0  0  0  0
  7  9  1  0  0  0  0
  9 10  1  0  0  0  0
  9 11  1  0  0  0  0
  9 17  1  0  0  0  0
 11 12  1  0  0  0  0
 11 13  1  0  0  0  0
 11 14  1  0  0  0  0
 14 15  1  0  0  0  0
 14 16  2  0  0  0  0
 17 18  2  0  0  0  0
 17 19  1  0  0  0  0
 19 20  1  0  0  0  0
 19 21  1  0  0  0  0
 21 22  1  0  0  0  0
 21 23  1  0  0  0  0
 21 24  1  0  0  0  0
M  CHG  1  15  -1
M  END
$$$$

  -OEChem-03222214023D

 24 23  0     1  0  0  0  0  0999 V2000
   -2.5207   -3.5129   -0.3546 H   0  0  0  0  0  0  0  0  0  0  0  0
   -2.3950   -2.5423   -0.8422 C   0  0  0  0  0  0  0  0  0  0  0  0
   -3.2710   -1.9244   -0.6305 H   0  0  0  0  0  0  0  0  0  0  0  0
   -2.3208   -2.6981   -1.9216 H   0  0  0  0  0  0  0  0  0  0  0  0
   -1.1399   -1.8562   -0.3330 C   0  0  0  0  0  0  0  0  0  0  0  0
   -0.4767   -2.3929    0.5387 O   0  0  0  0  0  0  0  0  0  0  0  0
   -0.8067   -0.6184   -0.8393 N   0  0  0  0  0  0  0  0  0  0  0  0
   -1.3252   -0.3669   -1.6783 H   0  0  0  0  0  0  0  0  0  0  0  0
    0.5488   -0.0472   -0.7944 C   0  0  1  0  0  0  0  0  0  0  0  0
    1.2475   -0.6829   -1.3501 H   0  0  0  0  0  0  0  0  0  0  0  0
    0.4247    1.3404   -1.4567 C   0  0  0  0  0  0  0  0  0  0  0  0
   -0.4239    1.8854   -1.0331 H   0  0  0  0  0  0  0  0  0  0  0  0
    1.3300    1.9154   -1.2425 H   0  0  0  0  0  0  0  0  0  0  0  0
    0.2851    1.2857   -2.9753 C   0  0  0  0  0  0  0  0  0  0  0  0
    0.5599    0.2206   -3.5800 O   0  5  0  0  0  0  0  0  0  0  0  0
   -0.2202    2.2977   -3.5155 O   0  0  0  0  0  0  0  0  0  0  0  0
    1.1184    0.1304    0.6341 C   0  0  0  0  0  0  0  0  0  0  0  0
    2.3119   -0.0347    0.8675 O   0  0  0  0  0  0  0  0  0  0  0  0
    0.3139    0.6719    1.6216 N   0  0  0  0  0  0  0  0  0  0  0  0
   -0.6772    0.6988    1.4072 H   0  0  0  0  0  0  0  0  0  0  0  0
    0.7465    0.8484    2.9989 C   0  0  0  0  0  0  0  0  0  0  0  0
    1.6182    1.5090    3.0443 H   0  0  0  0  0  0  0  0  0  0  0  0
   -0.0573    1.2973    3.5895 H   0  0  0  0  0  0  0  0  0  0  0  0
    1.0086   -0.1173    3.4430 H   0  0  0  0  0  0  0  0  0  0  0  0
  1  2  1  0  0  0  0
  2  3  1  0  0  0  0
  2  4  1  0  0  0  0
  2  5  1  0  0  0  0
  5  6  2  0  0  0  0
  5  7  1  0  0  0  0
  7  8  1  0  0  0  0
  7  9  1  0  0  0  0
  9 10  1  0  0  0  0
  9 11  1  0  0  0  0
  9 17  1  0  0  0  0
 11 12  1  0  0  0  0
 11 13  1  0  0  0  0
 11 14  1  0  0  0  0
 14 15  1  0  0  0  0
 14 16  2  0  0  0  0
 17 18  2  0  0  0  0
 17 19  1  0  0  0  0
 19 20  1  0  0  0  0
 19 21  1  0  0  0  0
 21 22  1  0  0  0  0
 21 23  1  0  0  0  0
 21 24  1  0  0  0  0
M  CHG  1  15  -1
M  END
$$$$

  -OEChem-03222214023D

 24 23  0     1  0  0  0  0  0999 V2000
   -2.5031   -3.5235   -0.3707 H   0  0  0  0  0  0  0  0  0  0  0  0
   -2.3847   -2.5496   -0.8537 C   0  0  0  0  0  0  0  0  0  0  0  0
   -3.2775   -1.9488   -0.6639 H   0  0  0  0  0  0  0  0  0  0  0  0
   -2.2794   -2.7017   -1.9311 H   0  0  0  0  0  0  0  0  0  0  0  0
   -1.1570   -1.8392   -0.3126 C   0  0  0  0  0  0  0  0  0  0  0  0
   -0.5183   -2.3525    0.5913 O   0  0  0  0  0  0  0  0  0  0  0  0
   -0.8236   -0.6054   -0.8273 N   0  0  0  0  0  0  0  0  0  0  0  0
   -1.3074   -0.3939   -1.6993 H   0  0  0  0  0  0  0  0  0  0  0  0
    0.5359   -0.0456   -0.7900 C   0  0  1  0  0  0  0  0  0  0  0  0
    1.2257   -0.6880   -1.3492 H   0  0  0  0  0  0  0  0  0  0  0  0
    0.4213    1.3408   -1.4579 C   0  0  0  0  0  0  0  0  0  0  0  0
   -0.4232    1.8936   -1.0371 H   0  0  0  0  0  0  0  0  0  0  0  0
    1.3314    1.9097   -1.2470 H   0  0  0  0  0  0  0  0  0  0  0  0
    0.2746    1.2808   -2.9759 C   0  0  0  0  0  0  0  0  0  0  0  0
    0.2563    0.1580   -3.5408 O   0  5  0  0  0  0  0  0  0  0  0  0
    0.0712    2.3718   -3.5578 O   0  0  0  0  0  0  0  0  0  0  0  0
    1.1150    0.1337    0.6342 C   0  0  0  0  0  0  0  0  0  0  0  0
    2.3080   -0.0452    0.8602 O   0  0  0  0  0  0  0  0  0  0  0  0
    0.3208    0.6860    1.6239 N   0  0  0  0  0  0  0  0  0  0  0  0
   -0.6721    0.7077    1.4168 H   0  0  0  0  0  0  0  0  0  0  0  0
    0.7588    0.8458    3.0013 C   0  0  0  0  0  0  0  0  0  0  0  0
    1.6413    1.4916    3.0499 H   0  0  0  0  0  0  0  0  0  0  0  0
   -0.0365    1.3037    3.5965 H   0  0  0  0  0  0  0  0  0  0  0  0
    1.0055   -0.1273    3.4377 H   0  0  0  0  0  0  0  0  0  0  0  0
  1  2  1  0  0  0  0
  2  3  1  0  0  0  0
  2  4  1  0  0  0  0
  2  5  1  0  0  0  0
  5  6  2  0  0  0  0
  5  7  1  0  0  0  0
  7  8  1  0  0  0  0
  7  9  1  0  0  0  0
  9 10  1  0  0  0  0
  9 11  1  0  0  0  0
  9 17  1  0  0  0  0
 11 12  1  0  0  0  0
 11 13  1  0  0  0  0
 11 14  1  0  0  0  0
 14 15  1  0  0  0  0
 14 16  2  0  0  0  0
 17 18  2  0  0  0  0
 17 19  1  0  0  0  0
 19 20  1  0  0  0  0
 19 21  1  0  0  0  0
 21 22  1  0  0  0  0
 21 23  1  0  0  0  0
 21 24  1  0  0  0  0
M  CHG  1  15  -1
M  END
$$$$

  -OEChem-03222214023D

 24 23  0     1  0  0  0  0  0999 V2000
   -2.5041   -3.5214   -0.3781 H   0  0  0  0  0  0  0  0  0  0  0  0
   -2.3804   -2.5506   -0.8658 C   0  0  0  0  0  0  0  0  0  0  0  0
   -3.2801   -1.9532   -0.6994 H   0  0  0  0  0  0  0  0  0  0  0  0
   -2.2520   -2.7099   -1.9398 H   0  0  0  0  0  0  0  0  0  0  0  0
   -1.1680   -1.8295   -0.3044 C   0  0  0  0  0  0  0  0  0  0  0  0
   -0.5429   -2.3335    0.6144 O   0  0  0  0  0  0  0  0  0  0  0  0
   -0.8321   -0.5969   -0.8196 N   0  0  0  0  0  0  0  0  0  0  0  0
   -1.2913   -0.4047   -1.7121 H   0  0  0  0  0  0  0  0  0  0  0  0
    0.5285   -0.0419   -0.7849 C   0  0  1  0  0  0  0  0  0  0  0  0
    1.2131   -0.6848   -1.3499 H   0  0  0  0  0  0  0  0  0  0  0  0
    0.4151    1.3428   -1.4569 C   0  0  0  0  0  0  0  0  0  0  0  0
   -0.4303    1.8973   -1.0405 H   0  0  0  0  0  0  0  0  0  0  0  0
    1.3247    1.9131   -1.2478 H   0  0  0  0  0  0  0  0  0  0  0  0
    0.2658    1.2702   -2.9743 C   0  0  0  0  0  0  0  0  0  0  0  0
   -0.0406    0.1638   -3.4909 O   0  5  0  0  0  0  0  0  0  0  0  0
    0.3620    2.3480   -3.6058 O   0  0  0  0  0  0  0  0  0  0  0  0
    1.1145    0.1366    0.6364 C   0  0  0  0  0  0  0  0  0  0  0  0
    2.3075   -0.0499    0.8565 O   0  0  0  0  0  0  0  0  0  0  0  0
    0.3269    0.6921    1.6292 N   0  0  0  0  0  0  0  0  0  0  0  0
   -0.6672    0.7115    1.4274 H   0  0  0  0  0  0  0  0  0  0  0  0
    0.7697    0.8435    3.0059 C   0  0  0  0  0  0  0  0  0  0  0  0
    1.6551    1.4853    3.0550 H   0  0  0  0  0  0  0  0  0  0  0  0
   -0.0221    1.3015    3.6056 H   0  0  0  0  0  0  0  0  0  0  0  0
    1.0142   -0.1325    3.4372 H   0  0  0  0  0  0  0  0  0  0  0  0
  1  2  1  0  0  0  0
  2  3  1  0  0  0  0
  2  4  1  0  0  0  0
  2  5  1  0  0  0  0
  5  6  2  0  0  0  0
  5  7  1  0  0  0  0
  7  8  1  0  0  0  0
  7  9  1  0  0  0  0
  9 10  1  0  0  0  0
  9 11  1  0  0  0  0
  9 17  1  0  0  0  0
 11 12  1  0  0  0  0
 11 13  1  0  0  0  0
 11 14  1  0  0  0  0
 14 15  1  0  0  0  0
 14 16  2  0  0  0  0
 17 18  2  0  0  0  0
 17 19  1  0  0  0  0
 19 20  1  0  0  0  0
 19 21  1  0  0  0  0
 21 22  1  0  0  0  0
 21 23  1  0  0  0  0
 21 24  1  0  0  0  0
M  CHG  1  15  -1
M  END
$$$$

  -OEChem-03222214023D

 24 23  0     1  0  0  0  0  0999 V2000
   -2.4809   -3.5355   -0.4168 H   0  0  0  0  0  0  0  0  0  0  0  0
   -2.3808   -2.5456   -0.8701 C   0  0  0  0  0  0  0  0  0  0  0  0
   -3.2847   -1.9675   -0.6644 H   0  0  0  0  0  0  0  0  0  0  0  0
   -2.2716   -2.6633   -1.9516 H   0  0  0  0  0  0  0  0  0  0  0  0
   -1.1675   -1.8280   -0.3067 C   0  0  0  0  0  0  0  0  0  0  0  0
   -0.5387   -2.3374    0.6067 O   0  0  0  0  0  0  0  0  0  0  0  0
   -0.8309   -0.5942   -0.8171 N   0  0  0  0  0  0  0  0  0  0  0  0
   -1.2874   -0.3965   -1.7127 H   0  0  0  0  0  0  0  0  0  0  0  0
    0.5276   -0.0360   -0.7813 C   0  0  1  0  0  0  0  0  0  0  0  0
    1.2114   -0.6775   -1.3486 H   0  0  0  0  0  0  0  0  0  0  0  0
    0.4113    1.3455   -1.4587 C   0  0  0  0  0  0  0  0  0  0  0  0
   -0.4393    1.8982   -1.0511 H   0  0  0  0  0  0  0  0  0  0  0  0
    1.3167    1.9222   -1.2472 H   0  0  0  0  0  0  0  0  0  0  0  0
    0.2665    1.2536   -2.9756 C   0  0  0  0  0  0  0  0  0  0  0  0
   -0.3066    0.2343   -3.4461 O   0  5  0  0  0  0  0  0  0  0  0  0
    0.6431    2.2367   -3.6546 O   0  0  0  0  0  0  0  0  0  0  0  0
    1.1138    0.1403    0.6399 C   0  0  0  0  0  0  0  0  0  0  0  0
    2.3068   -0.0471    0.8589 O   0  0  0  0  0  0  0  0  0  0  0  0
    0.3257    0.6912    1.6349 N   0  0  0  0  0  0  0  0  0  0  0  0
   -0.6690    0.7060    1.4350 H   0  0  0  0  0  0  0  0  0  0  0  0
    0.7706    0.8419    3.0113 C   0  0  0  0  0  0  0  0  0  0  0  0
    1.6616    1.4760    3.0586 H   0  0  0  0  0  0  0  0  0  0  0  0
   -0.0166    1.3089    3.6101 H   0  0  0  0  0  0  0  0  0  0  0  0
    1.0062   -0.1352    3.4449 H   0  0  0  0  0  0  0  0  0  0  0  0
  1  2  1  0  0  0  0
  2  3  1  0  0  0  0
  2  4  1  0  0  0  0
  2  5  1  0  0  0  0
  5  6  2  0  0  0  0
  5  7  1  0  0  0  0
  7  8  1  0  0  0  0
  7  9  1  0  0  0  0
  9 10  1  0  0  0  0
  9 11  1  0  0  0  0
  9 17  1  0  0  0  0
 11 12  1  0  0  0  0
 11 13  1  0  0  0  0
 11 14  1  0  0  0  0
 14 15  1  0  0  0  0
 14 16  2  0  0  0  0
 17 18  2  0  0  0  0
 17 19  1  0  0  0  0
 19 20  1  0  0  0  0
 19 21  1  0  0  0  0
 21 22  1  0  0  0  0
 21 23  1  0  0  0  0
 21 24  1  0  0  0  0
M  CHG  1  15  -1
M  END
$$$$

  -OEChem-03222214023D

 24 23  0     1  0  0  0  0  0999 V2000
   -2.4885   -3.5231   -0.4018 H   0  0  0  0  0  0  0  0  0  0  0  0
   -2.3834   -2.5357   -0.8597 C   0  0  0  0  0  0  0  0  0  0  0  0
   -3.2779   -1.9468   -0.6432 H   0  0  0  0  0  0  0  0  0  0  0  0
   -2.2914   -2.6577   -1.9421 H   0  0  0  0  0  0  0  0  0  0  0  0
   -1.1544   -1.8302   -0.3154 C   0  0  0  0  0  0  0  0  0  0  0  0
   -0.5081   -2.3532    0.5780 O   0  0  0  0  0  0  0  0  0  0  0  0
   -0.8182   -0.5944   -0.8210 N   0  0  0  0  0  0  0  0  0  0  0  0
   -1.2927   -0.3730   -1.7040 H   0  0  0  0  0  0  0  0  0  0  0  0
    0.5367   -0.0270   -0.7842 C   0  0  1  0  0  0  0  0  0  0  0  0
    1.2249   -0.6630   -1.3519 H   0  0  0  0  0  0  0  0  0  0  0  0
    0.4096    1.3526   -1.4619 C   0  0  0  0  0  0  0  0  0  0  0  0
   -0.4467    1.9002   -1.0598 H   0  0  0  0  0  0  0  0  0  0  0  0
    1.3093    1.9388   -1.2511 H   0  0  0  0  0  0  0  0  0  0  0  0
    0.2678    1.2379   -2.9766 C   0  0  0  0  0  0  0  0  0  0  0  0
   -0.5373    0.3682   -3.4082 O   0  5  0  0  0  0  0  0  0  0  0  0
    0.8910    2.0535   -3.6946 O   0  0  0  0  0  0  0  0  0  0  0  0
    1.1184    0.1496    0.6385 C   0  0  0  0  0  0  0  0  0  0  0  0
    2.3104   -0.0373    0.8626 O   0  0  0  0  0  0  0  0  0  0  0  0
    0.3236    0.6927    1.6322 N   0  0  0  0  0  0  0  0  0  0  0  0
   -0.6697    0.7080    1.4256 H   0  0  0  0  0  0  0  0  0  0  0  0
    0.7581    0.8284    3.0132 C   0  0  0  0  0  0  0  0  0  0  0  0
    1.6389    1.4755    3.0760 H   0  0  0  0  0  0  0  0  0  0  0  0
   -0.0399    1.2731    3.6150 H   0  0  0  0  0  0  0  0  0  0  0  0
    1.0067   -0.1519    3.4324 H   0  0  0  0  0  0  0  0  0  0  0  0
  1  2  1  0  0  0  0
  2  3  1  0  0  0  0
  2  4  1  0  0  0  0
  2  5  1  0  0  0  0
  5  6  2  0  0  0  0
  5  7  1  0  0  0  0
  7  8  1  0  0  0  0
  7  9  1  0  0  0  0
  9 10  1  0  0  0  0
  9 11  1  0  0  0  0
  9 17  1  0  0  0  0
 11 12  1  0  0  0  0
 11 13  1  0  0  0  0
 11 14  1  0  0  0  0
 14 15  1  0  0  0  0
 14 16  2  0  0  0  0
 17 18  2  0  0  0  0
 17 19  1  0  0  0  0
 19 20  1  0  0  0  0
 19 21  1  0  0  0  0
 21 22  1  0  0  0  0
 21 23  1  0  0  0  0
 21 24  1  0  0  0  0
M  CHG  1  15  -1
M  END
$$$$

  -OEChem-03222214023D

 24 23  0     1  0  0  0  0  0999 V2000
   -2.4865   -3.5171   -0.4190 H   0  0  0  0  0  0  0  0  0  0  0  0
   -2.3899   -2.5174   -0.8512 C   0  0  0  0  0  0  0  0  0  0  0  0
   -3.2671   -1.9262   -0.5774 H   0  0  0  0  0  0  0  0  0  0  0  0
   -2.3471   -2.6067   -1.9400 H   0  0  0  0  0  0  0  0  0  0  0  0
   -1.1304   -1.8416   -0.3400 C   0  0  0  0  0  0  0  0  0  0  0  0
   -0.4587   -2.3907    0.5182 O   0  0  0  0  0  0  0  0  0  0  0  0
   -0.7941   -0.6014   -0.8336 N   0  0  0  0  0  0  0  0  0  0  0  0
   -1.2961   -0.3430   -1.6920 H   0  0  0  0  0  0  0  0  0  0  0  0
    0.5544   -0.0201   -0.7873 C   0  0  1  0  0  0  0  0  0  0  0  0
    1.2541   -0.6428   -1.3559 H   0  0  0  0  0  0  0  0  0  0  0  0
    0.4029    1.3576   -1.4590 C   0  0  0  0  0  0  0  0  0  0  0  0
   -0.4642    1.8921   -1.0619 H   0  0  0  0  0  0  0  0  0  0  0  0
    1.2907    1.9623   -1.2505 H   0  0  0  0  0  0  0  0  0  0  0  0
    0.2671    1.2146   -2.9696 C   0  0  0  0  0  0  0  0  0  0  0  0
   -0.7183    0.5380   -3.3729 O   0  5  0  0  0  0  0  0  0  0  0  0
    1.0900    1.7969   -3.7127 O   0  0  0  0  0  0  0  0  0  0  0  0
    1.1255    0.1537    0.6400 C   0  0  0  0  0  0  0  0  0  0  0  0
    2.3178   -0.0202    0.8723 O   0  0  0  0  0  0  0  0  0  0  0  0
    0.3176    0.6826    1.6310 N   0  0  0  0  0  0  0  0  0  0  0  0
   -0.6741    0.6927    1.4165 H   0  0  0  0  0  0  0  0  0  0  0  0
    0.7422    0.8248    3.0147 C   0  0  0  0  0  0  0  0  0  0  0  0
    1.6241    1.4700    3.0802 H   0  0  0  0  0  0  0  0  0  0  0  0
   -0.0592    1.2750    3.6075 H   0  0  0  0  0  0  0  0  0  0  0  0
    0.9850   -0.1537    3.4413 H   0  0  0  0  0  0  0  0  0  0  0  0
  1  2  1  0  0  0  0
  2  3  1  0  0  0  0
  2  4  1  0  0  0  0
  2  5  1  0  0  0  0
  5  6  2  0  0  0  0
  5  7  1  0  0  0  0
  7  8  1  0  0  0  0
  7  9  1  0  0  0  0
  9 10  1  0  0  0  0
  9 11  1  0  0  0  0
  9 17  1  0  0  0  0
 11 12  1  0  0  0  0
 11 13  1  0  0  0  0
 11 14  1  0  0  0  0
 14 15  1  0  0  0  0
 14 16  2  0  0  0  0
 17 18  2  0  0  0  0
 17 19  1  0  0  0  0
 19 20  1  0  0  0  0
 19 21  1  0  0  0  0
 21 22  1  0  0  0  0
 21 23  1  0  0  0  0
 21 24  1  0  0  0  0
M  CHG  1  15  -1
M  END
$$$$

  -OEChem-03222214023D

 24 23  0     1  0  0  0  0  0999 V2000
   -2.4906   -3.5032   -0.4263 H   0  0  0  0  0  0  0  0  0  0  0  0
   -2.3905   -2.5018   -0.8540 C   0  0  0  0  0  0  0  0  0  0  0  0
   -3.2571   -1.9033   -0.5628 H   0  0  0  0  0  0  0  0  0  0  0  0
   -2.3657   -2.5849   -1.9438 H   0  0  0  0  0  0  0  0  0  0  0  0
   -1.1159   -1.8423   -0.3587 C   0  0  0  0  0  0  0  0  0  0  0  0
   -0.4339   -2.4061    0.4814 O   0  0  0  0  0  0  0  0  0  0  0  0
   -0.7754   -0.6002   -0.8452 N   0  0  0  0  0  0  0  0  0  0  0  0
   -1.3036   -0.3064   -1.6759 H   0  0  0  0  0  0  0  0  0  0  0  0
    0.5711   -0.0133   -0.7898 C   0  0  1  0  0  0  0  0  0  0  0  0
    1.2792   -0.6245   -1.3611 H   0  0  0  0  0  0  0  0  0  0  0  0
    0.3931    1.3617   -1.4526 C   0  0  0  0  0  0  0  0  0  0  0  0
   -0.4803    1.8856   -1.0544 H   0  0  0  0  0  0  0  0  0  0  0  0
    1.2719    1.9824   -1.2544 H   0  0  0  0  0  0  0  0  0  0  0  0
    0.2587    1.1871   -2.9565 C   0  0  0  0  0  0  0  0  0  0  0  0
   -0.8550    0.7426   -3.3465 O   0  5  0  0  0  0  0  0  0  0  0  0
    1.2187    1.4828   -3.7039 O   0  0  0  0  0  0  0  0  0  0  0  0
    1.1339    0.1592    0.6404 C   0  0  0  0  0  0  0  0  0  0  0  0
    2.3244   -0.0143    0.8813 O   0  0  0  0  0  0  0  0  0  0  0  0
    0.3182    0.6824    1.6282 N   0  0  0  0  0  0  0  0  0  0  0  0
   -0.6716    0.6999    1.4055 H   0  0  0  0  0  0  0  0  0  0  0  0
    0.7339    0.8197    3.0150 C   0  0  0  0  0  0  0  0  0  0  0  0
    1.6074    1.4750    3.0900 H   0  0  0  0  0  0  0  0  0  0  0  0
   -0.0756    1.2552    3.6079 H   0  0  0  0  0  0  0  0  0  0  0  0
    0.9871   -0.1590    3.4351 H   0  0  0  0  0  0  0  0  0  0  0  0
  1  2  1  0  0  0  0
  2  3  1  0  0  0  0
  2  4  1  0  0  0  0
  2  5  1  0  0  0  0
  5  6  2  0  0  0  0
  5  7  1  0  0  0  0
  7  8  1  0  0  0  0
  7  9  1  0  0  0  0
  9 10  1  0  0  0  0
  9 11  1  0  0  0  0
  9 17  1  0  0  0  0
 11 12  1  0  0  0  0
 11 13  1  0  0  0  0
 11 14  1  0  0  0  0
 14 15  1  0  0  0  0
 14 16  2  0  0  0  0
 17 18  2  0  0  0  0
 17 19  1  0  0  0  0
 19 20  1  0  0  0  0
 19 21  1  0  0  0  0
 21 22  1  0  0  0  0
 21 23  1  0  0  0  0
 21 24  1  0  0  0  0
M  CHG  1  15  -1
M  END
$$$$

  -OEChem-03222214023D

 24 23  0     1  0  0  0  0  0999 V2000
   -2.4913   -3.4959   -0.4383 H   0  0  0  0  0  0  0  0  0  0  0  0
   -2.3917   -2.4901   -0.8556 C   0  0  0  0  0  0  0  0  0  0  0  0
   -3.2464   -1.8878   -0.5383 H   0  0  0  0  0  0  0  0  0  0  0  0
   -2.3913   -2.5600   -1.9466 H   0  0  0  0  0  0  0  0  0  0  0  0
   -1.1009   -1.8483   -0.3798 C   0  0  0  0  0  0  0  0  0  0  0  0
   -0.4043   -2.4303    0.4353 O   0  0  0  0  0  0  0  0  0  0  0  0
   -0.7605   -0.6026   -0.8572 N   0  0  0  0  0  0  0  0  0  0  0  0
   -1.3163   -0.2757   -1.6549 H   0  0  0  0  0  0  0  0  0  0  0  0
    0.5842   -0.0103   -0.7920 C   0  0  1  0  0  0  0  0  0  0  0  0
    1.2994   -0.6115   -1.3652 H   0  0  0  0  0  0  0  0  0  0  0  0
    0.3851    1.3624   -1.4471 C   0  0  0  0  0  0  0  0  0  0  0  0
   -0.4928    1.8774   -1.0462 H   0  0  0  0  0  0  0  0  0  0  0  0
    1.2568    1.9949   -1.2566 H   0  0  0  0  0  0  0  0  0  0  0  0
    0.2546    1.1701   -2.9469 C   0  0  0  0  0  0  0  0  0  0  0  0
   -0.9227    0.9897   -3.3554 O   0  5  0  0  0  0  0  0  0  0  0  0
    1.2791    1.1557   -3.6666 O   0  0  0  0  0  0  0  0  0  0  0  0
    1.1394    0.1570    0.6421 C   0  0  0  0  0  0  0  0  0  0  0  0
    2.3290   -0.0119    0.8902 O   0  0  0  0  0  0  0  0  0  0  0  0
    0.3165    0.6721    1.6286 N   0  0  0  0  0  0  0  0  0  0  0  0
   -0.6718    0.6949    1.4005 H   0  0  0  0  0  0  0  0  0  0  0  0
    0.7277    0.8239    3.0155 C   0  0  0  0  0  0  0  0  0  0  0  0
    1.5996    1.4820    3.0864 H   0  0  0  0  0  0  0  0  0  0  0  0
   -0.0844    1.2640    3.6014 H   0  0  0  0  0  0  0  0  0  0  0  0
    0.9813   -0.1499    3.4464 H   0  0  0  0  0  0  0  0  0  0  0  0
  1  2  1  0  0  0  0
  2  3  1  0  0  0  0
  2  4  1  0  0  0  0
  2  5  1  0  0  0  0
  5  6  2  0  0  0  0
  5  7  1  0  0  0  0
  7  8  1  0  0  0  0
  7  9  1  0  0  0  0
  9 10  1  0  0  0  0
  9 11  1  0  0  0  0
  9 17  1  0  0  0  0
 11 12  1  0  0  0  0
 11 13  1  0  0  0  0
 11 14  1  0  0  0  0
 14 15  1  0  0  0  0
 14 16  2  0  0  0  0
 17 18  2  0  0  0  0
 17 19  1  0  0  0  0
 19 20  1  0  0  0  0
 19 21  1  0  0  0  0
 21 22  1  0  0  0  0
 21 23  1  0  0  0  0
 21 24  1  0  0  0  0
M  CHG  1  15  -1
M  END
$$$$

  -OEChem-03222214023D

 24 23  0     1  0  0  0  0  0999 V2000
   -2.4762   -3.5079   -0.4393 H   0  0  0  0  0  0  0  0  0  0  0  0
   -2.3935   -2.4916   -0.8345 C   0  0  0  0  0  0  0  0  0  0  0  0
   -3.2389   -1.9010   -0.4734 H   0  0  0  0  0  0  0  0  0  0  0  0
   -2.4297   -2.5348   -1.9262 H   0  0  0  0  0  0  0  0  0  0  0  0
   -1.0891   -1.8577   -0.3855 C   0  0  0  0  0  0  0  0  0  0  0  0
   -0.3809   -2.4441    0.4158 O   0  0  0  0  0  0  0  0  0  0  0  0
   -0.7525   -0.6112   -0.8651 N   0  0  0  0  0  0  0  0  0  0  0  0
   -1.3309   -0.2685   -1.6356 H   0  0  0  0  0  0  0  0  0  0  0  0
    0.5904   -0.0125   -0.7980 C   0  0  1  0  0  0  0  0  0  0  0  0
    1.3101   -0.6131   -1.3668 H   0  0  0  0  0  0  0  0  0  0  0  0
    0.3901    1.3596   -1.4539 C   0  0  0  0  0  0  0  0  0  0  0  0
   -0.4882    1.8712   -1.0489 H   0  0  0  0  0  0  0  0  0  0  0  0
    1.2601    1.9933   -1.2602 H   0  0  0  0  0  0  0  0  0  0  0  0
    0.2634    1.1839   -2.9569 C   0  0  0  0  0  0  0  0  0  0  0  0
   -0.9024    1.3007   -3.4118 O   0  5  0  0  0  0  0  0  0  0  0  0
    1.2714    0.8713   -3.6312 O   0  0  0  0  0  0  0  0  0  0  0  0
    1.1405    0.1603    0.6380 C   0  0  0  0  0  0  0  0  0  0  0  0
    2.3293   -0.0044    0.8923 O   0  0  0  0  0  0  0  0  0  0  0  0
    0.3119    0.6740    1.6206 N   0  0  0  0  0  0  0  0  0  0  0  0
   -0.6747    0.6999    1.3865 H   0  0  0  0  0  0  0  0  0  0  0  0
    0.7141    0.8201    3.0107 C   0  0  0  0  0  0  0  0  0  0  0  0
    1.5962    1.4637    3.0895 H   0  0  0  0  0  0  0  0  0  0  0  0
   -0.0958    1.2735    3.5896 H   0  0  0  0  0  0  0  0  0  0  0  0
    0.9483   -0.1576    3.4439 H   0  0  0  0  0  0  0  0  0  0  0  0
  1  2  1  0  0  0  0
  2  3  1  0  0  0  0
  2  4  1  0  0  0  0
  2  5  1  0  0  0  0
  5  6  2  0  0  0  0
  5  7  1  0  0  0  0
  7  8  1  0  0  0  0
  7  9  1  0  0  0  0
  9 10  1  0  0  0  0
  9 11  1  0  0  0  0
  9 17  1  0  0  0  0
 11 12  1  0  0  0  0
 11 13  1  0  0  0  0
 11 14  1  0  0  0  0
 14 15  1  0  0  0  0
 14 16  2  0  0  0  0
 17 18  2  0  0  0  0
 17 19  1  0  0  0  0
 19 20  1  0  0  0  0
 19 21  1  0  0  0  0
 21 22  1  0  0  0  0
 21 23  1  0  0  0  0
 21 24  1  0  0  0  0
M  CHG  1  15  -1
M  END
$$$$

  -OEChem-03222214023D

 24 23  0     1  0  0  0  0  0999 V2000
   -2.4846   -3.5178   -0.4216 H   0  0  0  0  0  0  0  0  0  0  0  0
   -2.3961   -2.5081   -0.8319 C   0  0  0  0  0  0  0  0  0  0  0  0
   -3.2452   -1.9111   -0.4906 H   0  0  0  0  0  0  0  0  0  0  0  0
   -2.4193   -2.5695   -1.9230 H   0  0  0  0  0  0  0  0  0  0  0  0
   -1.0963   -1.8679   -0.3781 C   0  0  0  0  0  0  0  0  0  0  0  0
   -0.3912   -2.4488    0.4297 O   0  0  0  0  0  0  0  0  0  0  0  0
   -0.7620   -0.6223   -0.8622 N   0  0  0  0  0  0  0  0  0  0  0  0
   -1.3446   -0.2831   -1.6273 H   0  0  0  0  0  0  0  0  0  0  0  0
    0.5822   -0.0258   -0.7984 C   0  0  1  0  0  0  0  0  0  0  0  0
    1.2991   -0.6347   -1.3613 H   0  0  0  0  0  0  0  0  0  0  0  0
    0.4019    1.3516   -1.4545 C   0  0  0  0  0  0  0  0  0  0  0  0
   -0.4701    1.8679   -1.0416 H   0  0  0  0  0  0  0  0  0  0  0  0
    1.2785    1.9726   -1.2512 H   0  0  0  0  0  0  0  0  0  0  0  0
    0.2746    1.2197   -2.9648 C   0  0  0  0  0  0  0  0  0  0  0  0
   -0.7978    1.6477   -3.4572 O   0  5  0  0  0  0  0  0  0  0  0  0
    1.1696    0.6242   -3.6083 O   0  0  0  0  0  0  0  0  0  0  0  0
    1.1335    0.1484    0.6372 C   0  0  0  0  0  0  0  0  0  0  0  0
    2.3237   -0.0107    0.8894 O   0  0  0  0  0  0  0  0  0  0  0  0
    0.3071    0.6651    1.6202 N   0  0  0  0  0  0  0  0  0  0  0  0
   -0.6801    0.6957    1.3889 H   0  0  0  0  0  0  0  0  0  0  0  0
    0.7177    0.8338    3.0051 C   0  0  0  0  0  0  0  0  0  0  0  0
    1.5912    1.4907    3.0685 H   0  0  0  0  0  0  0  0  0  0  0  0
   -0.0937    1.2831    3.5849 H   0  0  0  0  0  0  0  0  0  0  0  0
    0.9691   -0.1351    3.4483 H   0  0  0  0  0  0  0  0  0  0  0  0
  1  2  1  0  0  0  0
  2  3  1  0  0  0  0
  2  4  1  0  0  0  0
  2  5  1  0  0  0  0
  5  6  2  0  0  0  0
  5  7  1  0  0  0  0
  7  8  1  0  0  0  0
  7  9  1  0  0  0  0
  9 10  1  0  0  0  0
  9 11  1  0  0  0  0
  9 17  1  0  0  0  0
 11 12  1  0  0  0  0
 11 13  1  0  0  0  0
 11 14  1  0  0  0  0
 14 15  1  0  0  0  0
 14 16  2  0  0  0  0
 17 18  2  0  0  0  0
 17 19  1  0  0  0  0
 19 20  1  0  0  0  0
 19 21  1  0  0  0  0
 21 22  1  0  0  0  0
 21 23  1  0  0  0  0
 21 24  1  0  0  0  0
M  CHG  1  15  -1
M  END
$$$$

  -OEChem-03222214023D

 24 23  0     1  0  0  0  0  0999 V2000
   -2.4779   -3.5322   -0.4080 H   0  0  0  0  0  0  0  0  0  0  0  0
   -2.3931   -2.5254   -0.8262 C   0  0  0  0  0  0  0  0  0  0  0  0
   -3.2528   -1.9338   -0.5023 H   0  0  0  0  0  0  0  0  0  0  0  0
   -2.4001   -2.5969   -1.9170 H   0  0  0  0  0  0  0  0  0  0  0  0
   -1.1061   -1.8687   -0.3600 C   0  0  0  0  0  0  0  0  0  0  0  0
   -0.4123   -2.4328    0.4692 O   0  0  0  0  0  0  0  0  0  0  0  0
   -0.7751   -0.6262   -0.8554 N   0  0  0  0  0  0  0  0  0  0  0  0
   -1.3412   -0.3169   -1.6432 H   0  0  0  0  0  0  0  0  0  0  0  0
    0.5722   -0.0356   -0.7990 C   0  0  1  0  0  0  0  0  0  0  0  0
    1.2844   -0.6573   -1.3534 H   0  0  0  0  0  0  0  0  0  0  0  0
    0.4162    1.3459   -1.4602 C   0  0  0  0  0  0  0  0  0  0  0  0
   -0.4476    1.8715   -1.0422 H   0  0  0  0  0  0  0  0  0  0  0  0
    1.3013    1.9515   -1.2477 H   0  0  0  0  0  0  0  0  0  0  0  0
    0.2861    1.2564   -2.9764 C   0  0  0  0  0  0  0  0  0  0  0  0
   -0.6148    1.9649   -3.4864 O   0  5  0  0  0  0  0  0  0  0  0  0
    0.9646    0.4094   -3.6039 O   0  0  0  0  0  0  0  0  0  0  0  0
    1.1272    0.1440    0.6349 C   0  0  0  0  0  0  0  0  0  0  0  0
    2.3184   -0.0138    0.8834 O   0  0  0  0  0  0  0  0  0  0  0  0
    0.3053    0.6701    1.6166 N   0  0  0  0  0  0  0  0  0  0  0  0
   -0.6828    0.6964    1.3890 H   0  0  0  0  0  0  0  0  0  0  0  0
    0.7186    0.8393    3.0007 C   0  0  0  0  0  0  0  0  0  0  0  0
    1.5965    1.4905    3.0621 H   0  0  0  0  0  0  0  0  0  0  0  0
   -0.0894    1.2952    3.5798 H   0  0  0  0  0  0  0  0  0  0  0  0
    0.9634   -0.1302    3.4462 H   0  0  0  0  0  0  0  0  0  0  0  0
  1  2  1  0  0  0  0
  2  3  1  0  0  0  0
  2  4  1  0  0  0  0
  2  5  1  0  0  0  0
  5  6  2  0  0  0  0
  5  7  1  0  0  0  0
  7  8  1  0  0  0  0
  7  9  1  0  0  0  0
  9 10  1  0  0  0  0
  9 11  1  0  0  0  0
  9 17  1  0  0  0  0
 11 12  1  0  0  0  0
 11 13  1  0  0  0  0
 11 14  1  0  0  0  0
 14 15  1  0  0  0  0
 14 16  2  0  0  0  0
 17 18  2  0  0  0  0
 17 19  1  0  0  0  0
 19 20  1  0  0  0  0
 19 21  1  0  0  0  0
 21 22  1  0  0  0  0
 21 23  1  0  0  0  0
 21 24  1  0  0  0  0
M  CHG  1  15  -1
M  END
$$$$

  -OEChem-03222214023D

 24 23  0     1  0  0  0  0  0999 V2000
   -2.5019   -3.5184   -0.3579 H   0  0  0  0  0  0  0  0  0  0  0  0
   -2.3857   -2.5413   -0.8351 C   0  0  0  0  0  0  0  0  0  0  0  0
   -3.2580   -1.9266   -0.5999 H   0  0  0  0  0  0  0  0  0  0  0  0
   -2.3303   -2.6830   -1.9177 H   0  0  0  0  0  0  0  0  0  0  0  0
   -1.1222   -1.8608   -0.3395 C   0  0  0  0  0  0  0  0  0  0  0  0
   -0.4485   -2.4034    0.5205 O   0  0  0  0  0  0  0  0  0  0  0  0
   -0.7923   -0.6218   -0.8445 N   0  0  0  0  0  0  0  0  0  0  0  0
   -1.3239   -0.3564   -1.6711 H   0  0  0  0  0  0  0  0  0  0  0  0
    0.5598   -0.0430   -0.7965 C   0  0  1  0  0  0  0  0  0  0  0  0
    1.2640   -0.6754   -1.3490 H   0  0  0  0  0  0  0  0  0  0  0  0
    0.4265    1.3424   -1.4602 C   0  0  0  0  0  0  0  0  0  0  0  0
   -0.4283    1.8790   -1.0383 H   0  0  0  0  0  0  0  0  0  0  0  0
    1.3215    1.9319   -1.2437 H   0  0  0  0  0  0  0  0  0  0  0  0
    0.2902    1.2823   -2.9793 C   0  0  0  0  0  0  0  0  0  0  0  0
   -0.3738    2.2097   -3.5002 O   0  5  0  0  0  0  0  0  0  0  0  0
    0.6587    0.2482   -3.5873 O   0  0  0  0  0  0  0  0  0  0  0  0
    1.1217    0.1369    0.6346 C   0  0  0  0  0  0  0  0  0  0  0  0
    2.3144   -0.0233    0.8754 O   0  0  0  0  0  0  0  0  0  0  0  0
    0.3081    0.6735    1.6173 N   0  0  0  0  0  0  0  0  0  0  0  0
   -0.6817    0.6957    1.3961 H   0  0  0  0  0  0  0  0  0  0  0  0
    0.7291    0.8454    2.9985 C   0  0  0  0  0  0  0  0  0  0  0  0
    1.5990    1.5076    3.0538 H   0  0  0  0  0  0  0  0  0  0  0  0
   -0.0805    1.2901    3.5845 H   0  0  0  0  0  0  0  0  0  0  0  0
    0.9896   -0.1217    3.4403 H   0  0  0  0  0  0  0  0  0  0  0  0
  1  2  1  0  0  0  0
  2  3  1  0  0  0  0
  2  4  1  0  0  0  0
  2  5  1  0  0  0  0
  5  6  2  0  0  0  0
  5  7  1  0  0  0  0
  7  8  1  0  0  0  0
  7  9  1  0  0  0  0
  9 10  1  0  0  0  0
  9 11  1  0  0  0  0
  9 17  1  0  0  0  0
 11 12  1  0  0  0  0
 11 13  1  0  0  0  0
 11 14  1  0  0  0  0
 14 15  1  0  0  0  0
 14 16  2  0  0  0  0
 17 18  2  0  0  0  0
 17 19  1  0  0  0  0
 19 20  1  0  0  0  0
 19 21  1  0  0  0  0
 21 22  1  0  0  0  0
 21 23  1  0  0  0  0
 21 24  1  0  0  0  0
M  CHG  1  15  -1
M  END
$$$$

  -OEChem-03222214023D

 24 23  0     1  0  0  0  0  0999 V2000
   -2.4961   -3.5265   -0.3738 H   0  0  0  0  0  0  0  0  0  0  0  0
   -2.3765   -2.5527   -0.8565 C   0  0  0  0  0  0  0  0  0  0  0  0
   -3.2663   -1.9492   -0.6615 H   0  0  0  0  0  0  0  0  0  0  0  0
   -2.2778   -2.7043   -1.9347 H   0  0  0  0  0  0  0  0  0  0  0  0
   -1.1436   -1.8472   -0.3207 C   0  0  0  0  0  0  0  0  0  0  0  0
   -0.5005   -2.3643    0.5779 O   0  0  0  0  0  0  0  0  0  0  0  0
   -0.8108   -0.6122   -0.8327 N   0  0  0  0  0  0  0  0  0  0  0  0
   -1.2993   -0.3914   -1.6996 H   0  0  0  0  0  0  0  0  0  0  0  0
    0.5454   -0.0455   -0.7884 C   0  0  1  0  0  0  0  0  0  0  0  0
    1.2417   -0.6855   -1.3424 H   0  0  0  0  0  0  0  0  0  0  0  0
    0.4259    1.3383   -1.4600 C   0  0  0  0  0  0  0  0  0  0  0  0
   -0.4234    1.8871   -1.0433 H   0  0  0  0  0  0  0  0  0  0  0  0
    1.3278    1.9180   -1.2447 H   0  0  0  0  0  0  0  0  0  0  0  0
    0.2880    1.2781   -2.9794 C   0  0  0  0  0  0  0  0  0  0  0  0
   -0.0983    2.3340   -3.5332 O   0  5  0  0  0  0  0  0  0  0  0  0
    0.3255    0.1563   -3.5447 O   0  0  0  0  0  0  0  0  0  0  0  0
    1.1166    0.1370    0.6386 C   0  0  0  0  0  0  0  0  0  0  0  0
    2.3106   -0.0300    0.8689 O   0  0  0  0  0  0  0  0  0  0  0  0
    0.3153    0.6853    1.6247 N   0  0  0  0  0  0  0  0  0  0  0  0
   -0.6773    0.6997    1.4149 H   0  0  0  0  0  0  0  0  0  0  0  0
    0.7483    0.8523    3.0027 C   0  0  0  0  0  0  0  0  0  0  0  0
    1.6272    1.5032    3.0517 H   0  0  0  0  0  0  0  0  0  0  0  0
   -0.0513    1.3078    3.5938 H   0  0  0  0  0  0  0  0  0  0  0  0
    0.9992   -0.1179    3.4434 H   0  0  0  0  0  0  0  0  0  0  0  0
  1  2  1  0  0  0  0
  2  3  1  0  0  0  0
  2  4  1  0  0  0  0
  2  5  1  0  0  0  0
  5  6  2  0  0  0  0
  5  7  1  0  0  0  0
  7  8  1  0  0  0  0
  7  9  1  0  0  0  0
  9 10  1  0  0  0  0
  9 11  1  0  0  0  0
  9 17  1  0  0  0  0
 11 12  1  0  0  0  0
 11 13  1  0  0  0  0
 11 14  1  0  0  0  0
 14 15  1  0  0  0  0
 14 16  2  0  0  0  0
 17 18  2  0  0  0  0
 17 19  1  0  0  0  0
 19 20  1  0  0  0  0
 19 21  1  0  0  0  0
 21 22  1  0  0  0  0
 21 23  1  0  0  0  0
 21 24  1  0  0  0  0
M  CHG  1  15  -1
M  END
$$$$

  -OEChem-03222214023D

 24 23  0     1  0  0  0  0  0999 V2000
   -2.4332   -3.5951   -0.4522 H   0  0  0  0  0  0  0  0  0  0  0  0
   -2.3830   -2.5798   -0.8548 C   0  0  0  0  0  0  0  0  0  0  0  0
   -3.2972   -2.0452   -0.5864 H   0  0  0  0  0  0  0  0  0  0  0  0
   -2.3111   -2.6366   -1.9444 H   0  0  0  0  0  0  0  0  0  0  0  0
   -1.1742   -1.8509   -0.2962 C   0  0  0  0  0  0  0  0  0  0  0  0
   -0.5332   -2.3565    0.6112 O   0  0  0  0  0  0  0  0  0  0  0  0
   -0.8478   -0.6163   -0.8104 N   0  0  0  0  0  0  0  0  0  0  0  0
   -1.3107   -0.4224   -1.7056 H   0  0  0  0  0  0  0  0  0  0  0  0
    0.5065   -0.0465   -0.7762 C   0  0  1  0  0  0  0  0  0  0  0  0
    1.1832   -0.7014   -1.3358 H   0  0  0  0  0  0  0  0  0  0  0  0
    0.4259    1.3268   -1.4793 C   0  0  0  0  0  0  0  0  0  0  0  0
   -0.2506    1.9822   -0.9242 H   0  0  0  0  0  0  0  0  0  0  0  0
    1.4179    1.7870   -1.4643 H   0  0  0  0  0  0  0  0  0  0  0  0
   -0.0420    1.2867   -2.9357 C   0  0  0  0  0  0  0  0  0  0  0  0
   -0.1119    2.3908   -3.5233 O   0  5  0  0  0  0  0  0  0  0  0  0
   -0.5008    0.2077   -3.3974 O   0  0  0  0  0  0  0  0  0  0  0  0
    1.0980    0.1427    0.6406 C   0  0  0  0  0  0  0  0  0  0  0  0
    2.2958   -0.0260    0.8499 O   0  0  0  0  0  0  0  0  0  0  0  0
    0.3118    0.6921    1.6377 N   0  0  0  0  0  0  0  0  0  0  0  0
   -0.6841    0.7052    1.4427 H   0  0  0  0  0  0  0  0  0  0  0  0
    0.7665    0.8666    3.0080 C   0  0  0  0  0  0  0  0  0  0  0  0
    1.6593    1.4993    3.0382 H   0  0  0  0  0  0  0  0  0  0  0  0
   -0.0152    1.3465    3.6038 H   0  0  0  0  0  0  0  0  0  0  0  0
    1.0033   -0.1031    3.4574 H   0  0  0  0  0  0  0  0  0  0  0  0
  1  2  1  0  0  0  0
  2  3  1  0  0  0  0
  2  4  1  0  0  0  0
  2  5  1  0  0  0  0
  5  6  2  0  0  0  0
  5  7  1  0  0  0  0
  7  8  1  0  0  0  0
  7  9  1  0  0  0  0
  9 10  1  0  0  0  0
  9 11  1  0  0  0  0
  9 17  1  0  0  0  0
 11 12  1  0  0  0  0
 11 13  1  0  0  0  0
 11 14  1  0  0  0  0
 14 15  1  0  0  0  0
 14 16  2  0  0  0  0
 17 18  2  0  0  0  0
 17 19  1  0  0  0  0
 19 20  1  0  0  0  0
 19 21  1  0  0  0  0
 21 22  1  0  0  0  0
 21 23  1  0  0  0  0
 21 24  1  0  0  0  0
M  CHG  1  15  -1
M  END
$$$$

  -OEChem-03222214023D

 24 23  0     1  0  0  0  0  0999 V2000
   -2.4440   -3.5932   -0.4272 H   0  0  0  0  0  0  0  0  0  0  0  0
   -2.3930   -2.5768   -0.8270 C   0  0  0  0  0  0  0  0  0  0  0  0
   -3.2918   -2.0316   -0.5291 H   0  0  0  0  0  0  0  0  0  0  0  0
   -2.3547   -2.6296   -1.9184 H   0  0  0  0  0  0  0  0  0  0  0  0
   -1.1591   -1.8650   -0.3020 C   0  0  0  0  0  0  0  0  0  0  0  0
   -0.4930   -2.3853    0.5786 O   0  0  0  0  0  0  0  0  0  0  0  0
   -0.8379   -0.6276   -0.8122 N   0  0  0  0  0  0  0  0  0  0  0  0
   -1.3239   -0.4119   -1.6916 H   0  0  0  0  0  0  0  0  0  0  0  0
    0.5099   -0.0436   -0.7814 C   0  0  1  0  0  0  0  0  0  0  0  0
    1.1910   -0.6941   -1.3402 H   0  0  0  0  0  0  0  0  0  0  0  0
    0.4252    1.3291   -1.4869 C   0  0  0  0  0  0  0  0  0  0  0  0
   -0.2535    1.9841   -0.9346 H   0  0  0  0  0  0  0  0  0  0  0  0
    1.4167    1.7903   -1.4658 H   0  0  0  0  0  0  0  0  0  0  0  0
   -0.0378    1.2931   -2.9459 C   0  0  0  0  0  0  0  0  0  0  0  0
    0.1615    2.3306   -3.6188 O   0  5  0  0  0  0  0  0  0  0  0  0
   -0.7119    0.3055   -3.3461 O   0  0  0  0  0  0  0  0  0  0  0  0
    1.0982    0.1473    0.6363 C   0  0  0  0  0  0  0  0  0  0  0  0
    2.2970   -0.0106    0.8475 O   0  0  0  0  0  0  0  0  0  0  0  0
    0.3044    0.6852    1.6335 N   0  0  0  0  0  0  0  0  0  0  0  0
   -0.6911    0.6900    1.4357 H   0  0  0  0  0  0  0  0  0  0  0  0
    0.7538    0.8580    3.0057 C   0  0  0  0  0  0  0  0  0  0  0  0
    1.6429    1.4957    3.0404 H   0  0  0  0  0  0  0  0  0  0  0  0
   -0.0325    1.3314    3.6007 H   0  0  0  0  0  0  0  0  0  0  0  0
    0.9946   -0.1119    3.4525 H   0  0  0  0  0  0  0  0  0  0  0  0
  1  2  1  0  0  0  0
  2  3  1  0  0  0  0
  2  4  1  0  0  0  0
  2  5  1  0  0  0  0
  5  6  2  0  0  0  0
  5  7  1  0  0  0  0
  7  8  1  0  0  0  0
  7  9  1  0  0  0  0
  9 10  1  0  0  0  0
  9 11  1  0  0  0  0
  9 17  1  0  0  0  0
 11 12  1  0  0  0  0
 11 13  1  0  0  0  0
 11 14  1  0  0  0  0
 14 15  1  0  0  0  0
 14 16  2  0  0  0  0
 17 18  2  0  0  0  0
 17 19  1  0  0  0  0
 19 20  1  0  0  0  0
 19 21  1  0  0  0  0
 21 22  1  0  0  0  0
 21 23  1  0  0  0  0
 21 24  1  0  0  0  0
M  CHG  1  15  -1
M  END
$$$$

  -OEChem-03222214023D

 24 23  0     1  0  0  0  0  0999 V2000
   -2.4475   -3.5902   -0.4216 H   0  0  0  0  0  0  0  0  0  0  0  0
   -2.3988   -2.5699   -0.8115 C   0  0  0  0  0  0  0  0  0  0  0  0
   -3.2859   -2.0216   -0.4856 H   0  0  0  0  0  0  0  0  0  0  0  0
   -2.3880   -2.6110   -1.9041 H   0  0  0  0  0  0  0  0  0  0  0  0
   -1.1470   -1.8731   -0.3098 C   0  0  0  0  0  0  0  0  0  0  0  0
   -0.4600   -2.4096    0.5447 O   0  0  0  0  0  0  0  0  0  0  0  0
   -0.8294   -0.6326   -0.8143 N   0  0  0  0  0  0  0  0  0  0  0  0
   -1.3457   -0.3851   -1.6687 H   0  0  0  0  0  0  0  0  0  0  0  0
    0.5130   -0.0367   -0.7847 C   0  0  1  0  0  0  0  0  0  0  0  0
    1.1993   -0.6825   -1.3430 H   0  0  0  0  0  0  0  0  0  0  0  0
    0.4240    1.3351   -1.4924 C   0  0  0  0  0  0  0  0  0  0  0  0
   -0.2594    1.9891   -0.9450 H   0  0  0  0  0  0  0  0  0  0  0  0
    1.4141    1.8000   -1.4672 H   0  0  0  0  0  0  0  0  0  0  0  0
   -0.0351    1.2885   -2.9527 C   0  0  0  0  0  0  0  0  0  0  0  0
    0.4028    2.1833   -3.7120 O   0  5  0  0  0  0  0  0  0  0  0  0
   -0.9056    0.4377   -3.2836 O   0  0  0  0  0  0  0  0  0  0  0  0
    1.0985    0.1532    0.6342 C   0  0  0  0  0  0  0  0  0  0  0  0
    2.2974    0.0001    0.8477 O   0  0  0  0  0  0  0  0  0  0  0  0
    0.2992    0.6800    1.6331 N   0  0  0  0  0  0  0  0  0  0  0  0
   -0.6957    0.6824    1.4331 H   0  0  0  0  0  0  0  0  0  0  0  0
    0.7449    0.8478    3.0072 C   0  0  0  0  0  0  0  0  0  0  0  0
    1.6286    1.4927    3.0478 H   0  0  0  0  0  0  0  0  0  0  0  0
   -0.0465    1.3105    3.6041 H   0  0  0  0  0  0  0  0  0  0  0  0
    0.9932   -0.1229    3.4481 H   0  0  0  0  0  0  0  0  0  0  0  0
  1  2  1  0  0  0  0
  2  3  1  0  0  0  0
  2  4  1  0  0  0  0
  2  5  1  0  0  0  0
  5  6  2  0  0  0  0
  5  7  1  0  0  0  0
  7  8  1  0  0  0  0
  7  9  1  0  0  0  0
  9 10  1  0  0  0  0
  9 11  1  0  0  0  0
  9 17  1  0  0  0  0
 11 12  1  0  0  0  0
 11 13  1  0  0  0  0
 11 14  1  0  0  0  0
 14 15  1  0  0  0  0
 14 16  2  0  0  0  0
 17 18  2  0  0  0  0
 17 19  1  0  0  0  0
 19 20  1  0  0  0  0
 19 21  1  0  0  0  0
 21 22  1  0  0  0  0
 21 23  1  0  0  0  0
 21 24  1  0  0  0  0
M  CHG  1  15  -1
M  END
$$$$

  -OEChem-03222214023D

 24 23  0     1  0  0  0  0  0999 V2000
   -2.4764   -3.5665   -0.3920 H   0  0  0  0  0  0  0  0  0  0  0  0
   -2.4067   -2.5559   -0.8038 C   0  0  0  0  0  0  0  0  0  0  0  0
   -3.2765   -1.9794   -0.4798 H   0  0  0  0  0  0  0  0  0  0  0  0
   -2.4089   -2.6190   -1.8953 H   0  0  0  0  0  0  0  0  0  0  0  0
   -1.1328   -1.8799   -0.3297 C   0  0  0  0  0  0  0  0  0  0  0  0
   -0.4242   -2.4387    0.4920 O   0  0  0  0  0  0  0  0  0  0  0  0
   -0.8155   -0.6349   -0.8227 N   0  0  0  0  0  0  0  0  0  0  0  0
   -1.3621   -0.3499   -1.6465 H   0  0  0  0  0  0  0  0  0  0  0  0
    0.5227   -0.0296   -0.7882 C   0  0  1  0  0  0  0  0  0  0  0  0
    1.2147   -0.6669   -1.3490 H   0  0  0  0  0  0  0  0  0  0  0  0
    0.4224    1.3441   -1.4892 C   0  0  0  0  0  0  0  0  0  0  0  0
   -0.2694    1.9913   -0.9442 H   0  0  0  0  0  0  0  0  0  0  0  0
    1.4072    1.8202   -1.4625 H   0  0  0  0  0  0  0  0  0  0  0  0
   -0.0364    1.2765   -2.9476 C   0  0  0  0  0  0  0  0  0  0  0  0
    0.5888    1.9684   -3.7837 O   0  5  0  0  0  0  0  0  0  0  0  0
   -1.0646    0.5944   -3.2111 O   0  0  0  0  0  0  0  0  0  0  0  0
    1.1032    0.1535    0.6335 C   0  0  0  0  0  0  0  0  0  0  0  0
    2.3023    0.0083    0.8508 O   0  0  0  0  0  0  0  0  0  0  0  0
    0.2963    0.6672    1.6331 N   0  0  0  0  0  0  0  0  0  0  0  0
   -0.6975    0.6723    1.4276 H   0  0  0  0  0  0  0  0  0  0  0  0
    0.7370    0.8389    3.0083 C   0  0  0  0  0  0  0  0  0  0  0  0
    1.5994    1.5118    3.0524 H   0  0  0  0  0  0  0  0  0  0  0  0
   -0.0687    1.2712    3.6088 H   0  0  0  0  0  0  0  0  0  0  0  0
    1.0166   -0.1264    3.4422 H   0  0  0  0  0  0  0  0  0  0  0  0
  1  2  1  0  0  0  0
  2  3  1  0  0  0  0
  2  4  1  0  0  0  0
  2  5  1  0  0  0  0
  5  6  2  0  0  0  0
  5  7  1  0  0  0  0
  7  8  1  0  0  0  0
  7  9  1  0  0  0  0
  9 10  1  0  0  0  0
  9 11  1  0  0  0  0
  9 17  1  0  0  0  0
 11 12  1  0  0  0  0
 11 13  1  0  0  0  0
 11 14  1  0  0  0  0
 14 15  1  0  0  0  0
 14 16  2  0  0  0  0
 17 18  2  0  0  0  0
 17 19  1  0  0  0  0
 19 20  1  0  0  0  0
 19 21  1  0  0  0  0
 21 22  1  0  0  0  0
 21 23  1  0  0  0  0
 21 24  1  0  0  0  0
M  CHG  1  15  -1
M  END
$$$$

  -OEChem-03222214023D

 24 23  0     1  0  0  0  0  0999 V2000
   -2.4690   -3.5579   -0.4248 H   0  0  0  0  0  0  0  0  0  0  0  0
   -2.4094   -2.5331   -0.8011 C   0  0  0  0  0  0  0  0  0  0  0  0
   -3.2644   -1.9659   -0.4255 H   0  0  0  0  0  0  0  0  0  0  0  0
   -2.4508   -2.5562   -1.8934 H   0  0  0  0  0  0  0  0  0  0  0  0
   -1.1163   -1.8791   -0.3488 C   0  0  0  0  0  0  0  0  0  0  0  0
   -0.3949   -2.4551    0.4496 O   0  0  0  0  0  0  0  0  0  0  0  0
   -0.7967   -0.6315   -0.8334 N   0  0  0  0  0  0  0  0  0  0  0  0
   -1.3669   -0.3150   -1.6296 H   0  0  0  0  0  0  0  0  0  0  0  0
    0.5381   -0.0193   -0.7914 C   0  0  1  0  0  0  0  0  0  0  0  0
    1.2374   -0.6466   -1.3544 H   0  0  0  0  0  0  0  0  0  0  0  0
    0.4178    1.3536   -1.4863 C   0  0  0  0  0  0  0  0  0  0  0  0
   -0.2859    1.9900   -0.9435 H   0  0  0  0  0  0  0  0  0  0  0  0
    1.3933    1.8487   -1.4648 H   0  0  0  0  0  0  0  0  0  0  0  0
   -0.0431    1.2506   -2.9394 C   0  0  0  0  0  0  0  0  0  0  0  0
    0.7127    1.6956   -3.8333 O   0  5  0  0  0  0  0  0  0  0  0  0
   -1.1782    0.7404   -3.1474 O   0  0  0  0  0  0  0  0  0  0  0  0
    1.1104    0.1602    0.6338 C   0  0  0  0  0  0  0  0  0  0  0  0
    2.3084    0.0183    0.8583 O   0  0  0  0  0  0  0  0  0  0  0  0
    0.2953    0.6651    1.6315 N   0  0  0  0  0  0  0  0  0  0  0  0
   -0.6972    0.6674    1.4196 H   0  0  0  0  0  0  0  0  0  0  0  0
    0.7260    0.8283    3.0110 C   0  0  0  0  0  0  0  0  0  0  0  0
    1.6037    1.4805    3.0644 H   0  0  0  0  0  0  0  0  0  0  0  0
   -0.0752    1.2808    3.6025 H   0  0  0  0  0  0  0  0  0  0  0  0
    0.9782   -0.1430    3.4485 H   0  0  0  0  0  0  0  0  0  0  0  0
  1  2  1  0  0  0  0
  2  3  1  0  0  0  0
  2  4  1  0  0  0  0
  2  5  1  0  0  0  0
  5  6  2  0  0  0  0
  5  7  1  0  0  0  0
  7  8  1  0  0  0  0
  7  9  1  0  0  0  0
  9 10  1  0  0  0  0
  9 11  1  0  0  0  0
  9 17  1  0  0  0  0
 11 12  1  0  0  0  0
 11 13  1  0  0  0  0
 11 14  1  0  0  0  0
 14 15  1  0  0  0  0
 14 16  2  0  0  0  0
 17 18  2  0  0  0  0
 17 19  1  0  0  0  0
 19 20  1  0  0  0  0
 19 21  1  0  0  0  0
 21 22  1  0  0  0  0
 21 23  1  0  0  0  0
 21 24  1  0  0  0  0
M  CHG  1  15  -1
M  END
$$$$

  -OEChem-03222214023D

 24 23  0     1  0  0  0  0  0999 V2000
   -2.4734   -3.5398   -0.4437 H   0  0  0  0  0  0  0  0  0  0  0  0
   -2.4108   -2.5127   -0.8129 C   0  0  0  0  0  0  0  0  0  0  0  0
   -3.2601   -1.9436   -0.4272 H   0  0  0  0  0  0  0  0  0  0  0  0
   -2.4598   -2.5274   -1.9050 H   0  0  0  0  0  0  0  0  0  0  0  0
   -1.1109   -1.8700   -0.3645 C   0  0  0  0  0  0  0  0  0  0  0  0
   -0.3878   -2.4564    0.4246 O   0  0  0  0  0  0  0  0  0  0  0  0
   -0.7867   -0.6206   -0.8412 N   0  0  0  0  0  0  0  0  0  0  0  0
   -1.3721   -0.2796   -1.6159 H   0  0  0  0  0  0  0  0  0  0  0  0
    0.5486   -0.0079   -0.7921 C   0  0  1  0  0  0  0  0  0  0  0  0
    1.2514   -0.6279   -1.3596 H   0  0  0  0  0  0  0  0  0  0  0  0
    0.4124    1.3643   -1.4795 C   0  0  0  0  0  0  0  0  0  0  0  0
   -0.2980    1.9938   -0.9369 H   0  0  0  0  0  0  0  0  0  0  0  0
    1.3810    1.8725   -1.4678 H   0  0  0  0  0  0  0  0  0  0  0  0
   -0.0518    1.2270   -2.9257 C   0  0  0  0  0  0  0  0  0  0  0  0
    0.7821    1.3967   -3.8442 O   0  5  0  0  0  0  0  0  0  0  0  0
   -1.2526    0.8805   -3.0979 O   0  0  0  0  0  0  0  0  0  0  0  0
    1.1180    0.1662    0.6349 C   0  0  0  0  0  0  0  0  0  0  0  0
    2.3158    0.0261    0.8622 O   0  0  0  0  0  0  0  0  0  0  0  0
    0.2996    0.6668    1.6322 N   0  0  0  0  0  0  0  0  0  0  0  0
   -0.6922    0.6707    1.4170 H   0  0  0  0  0  0  0  0  0  0  0  0
    0.7248    0.8194    3.0147 C   0  0  0  0  0  0  0  0  0  0  0  0
    1.6025    1.4709    3.0765 H   0  0  0  0  0  0  0  0  0  0  0  0
   -0.0784    1.2674    3.6066 H   0  0  0  0  0  0  0  0  0  0  0  0
    0.9748   -0.1550    3.4462 H   0  0  0  0  0  0  0  0  0  0  0  0
  1  2  1  0  0  0  0
  2  3  1  0  0  0  0
  2  4  1  0  0  0  0
  2  5  1  0  0  0  0
  5  6  2  0  0  0  0
  5  7  1  0  0  0  0
  7  8  1  0  0  0  0
  7  9  1  0  0  0  0
  9 10  1  0  0  0  0
  9 11  1  0  0  0  0
  9 17  1  0  0  0  0
 11 12  1  0  0  0  0
 11 13  1  0  0  0  0
 11 14  1  0  0  0  0
 14 15  1  0  0  0  0
 14 16  2  0  0  0  0
 17 18  2  0  0  0  0
 17 19  1  0  0  0  0
 19 20  1  0  0  0  0
 19 21  1  0  0  0  0
 21 22  1  0  0  0  0
 21 23  1  0  0  0  0
 21 24  1  0  0  0  0
M  CHG  1  15  -1
M  END
$$$$

  -OEChem-03222214023D

 24 23  0     1  0  0  0  0  0999 V2000
   -2.4881   -3.5163   -0.4482 H   0  0  0  0  0  0  0  0  0  0  0  0
   -2.4135   -2.4931   -0.8259 C   0  0  0  0  0  0  0  0  0  0  0  0
   -3.2554   -1.9110   -0.4439 H   0  0  0  0  0  0  0  0  0  0  0  0
   -2.4639   -2.5163   -1.9177 H   0  0  0  0  0  0  0  0  0  0  0  0
   -1.1059   -1.8619   -0.3837 C   0  0  0  0  0  0  0  0  0  0  0  0
   -0.3816   -2.4577    0.3972 O   0  0  0  0  0  0  0  0  0  0  0  0
   -0.7770   -0.6107   -0.8523 N   0  0  0  0  0  0  0  0  0  0  0  0
   -1.3716   -0.2494   -1.6100 H   0  0  0  0  0  0  0  0  0  0  0  0
    0.5601   -0.0004   -0.7935 C   0  0  1  0  0  0  0  0  0  0  0  0
    1.2657   -0.6134   -1.3653 H   0  0  0  0  0  0  0  0  0  0  0  0
    0.4090    1.3729   -1.4704 C   0  0  0  0  0  0  0  0  0  0  0  0
   -0.3061    1.9947   -0.9250 H   0  0  0  0  0  0  0  0  0  0  0  0
    1.3720    1.8913   -1.4673 H   0  0  0  0  0  0  0  0  0  0  0  0
   -0.0572    1.2111   -2.9107 C   0  0  0  0  0  0  0  0  0  0  0  0
    0.8017    1.0997   -3.8146 O   0  5  0  0  0  0  0  0  0  0  0  0
   -1.2944    1.0252   -3.0660 O   0  0  0  0  0  0  0  0  0  0  0  0
    1.1250    0.1662    0.6359 C   0  0  0  0  0  0  0  0  0  0  0  0
    2.3220    0.0262    0.8677 O   0  0  0  0  0  0  0  0  0  0  0  0
    0.3035    0.6640    1.6321 N   0  0  0  0  0  0  0  0  0  0  0  0
   -0.6874    0.6721    1.4131 H   0  0  0  0  0  0  0  0  0  0  0  0
    0.7255    0.8168    3.0156 C   0  0  0  0  0  0  0  0  0  0  0  0
    1.5976    1.4752    3.0799 H   0  0  0  0  0  0  0  0  0  0  0  0
   -0.0824    1.2565    3.6077 H   0  0  0  0  0  0  0  0  0  0  0  0
    0.9833   -0.1566    3.4448 H   0  0  0  0  0  0  0  0  0  0  0  0
  1  2  1  0  0  0  0
  2  3  1  0  0  0  0
  2  4  1  0  0  0  0
  2  5  1  0  0  0  0
  5  6  2  0  0  0  0
  5  7  1  0  0  0  0
  7  8  1  0  0  0  0
  7  9  1  0  0  0  0
  9 10  1  0  0  0  0
  9 11  1  0  0  0  0
  9 17  1  0  0  0  0
 11 12  1  0  0  0  0
 11 13  1  0  0  0  0
 11 14  1  0  0  0  0
 14 15  1  0  0  0  0
 14 16  2  0  0  0  0
 17 18  2  0  0  0  0
 17 19  1  0  0  0  0
 19 20  1  0  0  0  0
 19 21  1  0  0  0  0
 21 22  1  0  0  0  0
 21 23  1  0  0  0  0
 21 24  1  0  0  0  0
M  CHG  1  15  -1
M  END
$$$$

  -OEChem-03222214023D

 24 23  0     1  0  0  0  0  0999 V2000
   -2.5118   -3.4907   -0.4397 H   0  0  0  0  0  0  0  0  0  0  0  0
   -2.4167   -2.4780   -0.8413 C   0  0  0  0  0  0  0  0  0  0  0  0
   -3.2547   -1.8743   -0.4847 H   0  0  0  0  0  0  0  0  0  0  0  0
   -2.4532   -2.5270   -1.9328 H   0  0  0  0  0  0  0  0  0  0  0  0
   -1.1046   -1.8559   -0.3982 C   0  0  0  0  0  0  0  0  0  0  0  0
   -0.3854   -2.4574    0.3833 O   0  0  0  0  0  0  0  0  0  0  0  0
   -0.7693   -0.6042   -0.8617 N   0  0  0  0  0  0  0  0  0  0  0  0
   -1.3666   -0.2314   -1.6101 H   0  0  0  0  0  0  0  0  0  0  0  0
    0.5707    0.0012   -0.7947 C   0  0  1  0  0  0  0  0  0  0  0  0
    1.2777   -0.6078   -1.3692 H   0  0  0  0  0  0  0  0  0  0  0  0
    0.4100    1.3762   -1.4619 C   0  0  0  0  0  0  0  0  0  0  0  0
   -0.3048    1.9940   -0.9110 H   0  0  0  0  0  0  0  0  0  0  0  0
    1.3710    1.8982   -1.4654 H   0  0  0  0  0  0  0  0  0  0  0  0
   -0.0582    1.2039   -2.8988 C   0  0  0  0  0  0  0  0  0  0  0  0
    0.7663    0.8173   -3.7581 O   0  5  0  0  0  0  0  0  0  0  0  0
   -1.3081    1.1965   -3.0518 O   0  0  0  0  0  0  0  0  0  0  0  0
    1.1318    0.1623    0.6368 C   0  0  0  0  0  0  0  0  0  0  0  0
    2.3286    0.0254    0.8715 O   0  0  0  0  0  0  0  0  0  0  0  0
    0.3087    0.6607    1.6314 N   0  0  0  0  0  0  0  0  0  0  0  0
   -0.6816    0.6709    1.4101 H   0  0  0  0  0  0  0  0  0  0  0  0
    0.7290    0.8195    3.0147 C   0  0  0  0  0  0  0  0  0  0  0  0
    1.5870    1.4963    3.0787 H   0  0  0  0  0  0  0  0  0  0  0  0
   -0.0872    1.2409    3.6085 H   0  0  0  0  0  0  0  0  0  0  0  0
    1.0077   -0.1492    3.4418 H   0  0  0  0  0  0  0  0  0  0  0  0
  1  2  1  0  0  0  0
  2  3  1  0  0  0  0
  2  4  1  0  0  0  0
  2  5  1  0  0  0  0
  5  6  2  0  0  0  0
  5  7  1  0  0  0  0
  7  8  1  0  0  0  0
  7  9  1  0  0  0  0
  9 10  1  0  0  0  0
  9 11  1  0  0  0  0
  9 17  1  0  0  0  0
 11 12  1  0  0  0  0
 11 13  1  0  0  0  0
 11 14  1  0  0  0  0
 14 15  1  0  0  0  0
 14 16  2  0  0  0  0
 17 18  2  0  0  0  0
 17 19  1  0  0  0  0
 19 20  1  0  0  0  0
 19 21  1  0  0  0  0
 21 22  1  0  0  0  0
 21 23  1  0  0  0  0
 21 24  1  0  0  0  0
M  CHG  1  15  -1
M  END
$$$$

  -OEChem-03222214023D

 24 23  0     1  0  0  0  0  0999 V2000
   -2.5067   -3.4911   -0.4530 H   0  0  0  0  0  0  0  0  0  0  0  0
   -2.4139   -2.4759   -0.8485 C   0  0  0  0  0  0  0  0  0  0  0  0
   -3.2543   -1.8767   -0.4897 H   0  0  0  0  0  0  0  0  0  0  0  0
   -2.4486   -2.5189   -1.9403 H   0  0  0  0  0  0  0  0  0  0  0  0
   -1.1047   -1.8529   -0.3991 C   0  0  0  0  0  0  0  0  0  0  0  0
   -0.3924   -2.4508    0.3912 O   0  0  0  0  0  0  0  0  0  0  0  0
   -0.7675   -0.6025   -0.8651 N   0  0  0  0  0  0  0  0  0  0  0  0
   -1.3612   -0.2353   -1.6150 H   0  0  0  0  0  0  0  0  0  0  0  0
    0.5752   -0.0026   -0.7940 C   0  0  1  0  0  0  0  0  0  0  0  0
    1.2821   -0.6153   -1.3648 H   0  0  0  0  0  0  0  0  0  0  0  0
    0.4152    1.3715   -1.4624 C   0  0  0  0  0  0  0  0  0  0  0  0
   -0.2962    1.9902   -0.9077 H   0  0  0  0  0  0  0  0  0  0  0  0
    1.3771    1.8907   -1.4676 H   0  0  0  0  0  0  0  0  0  0  0  0
   -0.0516    1.2049   -2.9013 C   0  0  0  0  0  0  0  0  0  0  0  0
    0.6720    0.5610   -3.6956 O   0  5  0  0  0  0  0  0  0  0  0  0
   -1.2703    1.4473   -3.0890 O   0  0  0  0  0  0  0  0  0  0  0  0
    1.1343    0.1599    0.6384 C   0  0  0  0  0  0  0  0  0  0  0  0
    2.3302    0.0189    0.8754 O   0  0  0  0  0  0  0  0  0  0  0  0
    0.3120    0.6642    1.6308 N   0  0  0  0  0  0  0  0  0  0  0  0
   -0.6778    0.6816    1.4073 H   0  0  0  0  0  0  0  0  0  0  0  0
    0.7302    0.8227    3.0149 C   0  0  0  0  0  0  0  0  0  0  0  0
    1.5986    1.4864    3.0794 H   0  0  0  0  0  0  0  0  0  0  0  0
   -0.0813    1.2597    3.6042 H   0  0  0  0  0  0  0  0  0  0  0  0
    0.9918   -0.1484    3.4474 H   0  0  0  0  0  0  0  0  0  0  0  0
  1  2  1  0  0  0  0
  2  3  1  0  0  0  0
  2  4  1  0  0  0  0
  2  5  1  0  0  0  0
  5  6  2  0  0  0  0
  5  7  1  0  0  0  0
  7  8  1  0  0  0  0
  7  9  1  0  0  0  0
  9 10  1  0  0  0  0
  9 11  1  0  0  0  0
  9 17  1  0  0  0  0
 11 12  1  0  0  0  0
 11 13  1  0  0  0  0
 11 14  1  0  0  0  0
 14 15  1  0  0  0  0
 14 16  2  0  0  0  0
 17 18  2  0  0  0  0
 17 19  1  0  0  0  0
 19 20  1  0  0  0  0
 19 21  1  0  0  0  0
 21 22  1  0  0  0  0
 21 23  1  0  0  0  0
 21 24  1  0  0  0  0
M  CHG  1  15  -1
M  END
$$$$

  -OEChem-03222214023D

 24 23  0     1  0  0  0  0  0999 V2000
   -2.5254   -3.4940   -0.3873 H   0  0  0  0  0  0  0  0  0  0  0  0
   -2.4097   -2.5063   -0.8418 C   0  0  0  0  0  0  0  0  0  0  0  0
   -3.2616   -1.8836   -0.5581 H   0  0  0  0  0  0  0  0  0  0  0  0
   -2.3968   -2.6183   -1.9292 H   0  0  0  0  0  0  0  0  0  0  0  0
   -1.1177   -1.8599   -0.3756 C   0  0  0  0  0  0  0  0  0  0  0  0
   -0.4168   -2.4358    0.4405 O   0  0  0  0  0  0  0  0  0  0  0  0
   -0.7880   -0.6120   -0.8553 N   0  0  0  0  0  0  0  0  0  0  0  0
   -1.3600   -0.2888   -1.6362 H   0  0  0  0  0  0  0  0  0  0  0  0
    0.5583   -0.0188   -0.7936 C   0  0  1  0  0  0  0  0  0  0  0  0
    1.2590   -0.6434   -1.3594 H   0  0  0  0  0  0  0  0  0  0  0  0
    0.4270    1.3597   -1.4637 C   0  0  0  0  0  0  0  0  0  0  0  0
   -0.2706    1.9874   -0.9014 H   0  0  0  0  0  0  0  0  0  0  0  0
    1.4009    1.8565   -1.4613 H   0  0  0  0  0  0  0  0  0  0  0  0
   -0.0409    1.2409   -2.9092 C   0  0  0  0  0  0  0  0  0  0  0  0
    0.4923    0.3772   -3.6446 O   0  5  0  0  0  0  0  0  0  0  0  0
   -1.0951    1.8586   -3.1925 O   0  0  0  0  0  0  0  0  0  0  0  0
    1.1240    0.1493    0.6360 C   0  0  0  0  0  0  0  0  0  0  0  0
    2.3209    0.0063    0.8673 O   0  0  0  0  0  0  0  0  0  0  0  0
    0.3091    0.6640    1.6291 N   0  0  0  0  0  0  0  0  0  0  0  0
   -0.6818    0.6839    1.4115 H   0  0  0  0  0  0  0  0  0  0  0  0
    0.7363    0.8320    3.0091 C   0  0  0  0  0  0  0  0  0  0  0  0
    1.5911    1.5137    3.0649 H   0  0  0  0  0  0  0  0  0  0  0  0
   -0.0789    1.2516    3.6056 H   0  0  0  0  0  0  0  0  0  0  0  0
    1.0224   -0.1331    3.4394 H   0  0  0  0  0  0  0  0  0  0  0  0
  1  2  1  0  0  0  0
  2  3  1  0  0  0  0
  2  4  1  0  0  0  0
  2  5  1  0  0  0  0
  5  6  2  0  0  0  0
  5  7  1  0  0  0  0
  7  8  1  0  0  0  0
  7  9  1  0  0  0  0
  9 10  1  0  0  0  0
  9 11  1  0  0  0  0
  9 17  1  0  0  0  0
 11 12  1  0  0  0  0
 11 13  1  0  0  0  0
 11 14  1  0  0  0  0
 14 15  1  0  0  0  0
 14 16  2  0  0  0  0
 17 18  2  0  0  0  0
 17 19  1  0  0  0  0
 19 20  1  0  0  0  0
 19 21  1  0  0  0  0
 21 22  1  0  0  0  0
 21 23  1  0  0  0  0
 21 24  1  0  0  0  0
M  CHG  1  15  -1
M  END
$$$$

  -OEChem-03222214023D

 24 23  0     1  0  0  0  0  0999 V2000
   -2.5136   -3.5181   -0.3684 H   0  0  0  0  0  0  0  0  0  0  0  0
   -2.3977   -2.5414   -0.8463 C   0  0  0  0  0  0  0  0  0  0  0  0
   -3.2779   -1.9326   -0.6257 H   0  0  0  0  0  0  0  0  0  0  0  0
   -2.3255   -2.6848   -1.9277 H   0  0  0  0  0  0  0  0  0  0  0  0
   -1.1467   -1.8497   -0.3353 C   0  0  0  0  0  0  0  0  0  0  0  0
   -0.4744   -2.3879    0.5291 O   0  0  0  0  0  0  0  0  0  0  0  0
   -0.8220   -0.6078   -0.8352 N   0  0  0  0  0  0  0  0  0  0  0  0
   -1.3454   -0.3552   -1.6730 H   0  0  0  0  0  0  0  0  0  0  0  0
    0.5316   -0.0309   -0.7901 C   0  0  1  0  0  0  0  0  0  0  0  0
    1.2186   -0.6715   -1.3543 H   0  0  0  0  0  0  0  0  0  0  0  0
    0.4301    1.3501   -1.4668 C   0  0  0  0  0  0  0  0  0  0  0  0
   -0.2512    1.9911   -0.8999 H   0  0  0  0  0  0  0  0  0  0  0  0
    1.4161    1.8221   -1.4641 H   0  0  0  0  0  0  0  0  0  0  0  0
   -0.0465    1.2707   -2.9139 C   0  0  0  0  0  0  0  0  0  0  0  0
    0.2274    0.2465   -3.5854 O   0  5  0  0  0  0  0  0  0  0  0  0
   -0.8183    2.1817   -3.2952 O   0  0  0  0  0  0  0  0  0  0  0  0
    1.1117    0.1442    0.6336 C   0  0  0  0  0  0  0  0  0  0  0  0
    2.3085   -0.0158    0.8543 O   0  0  0  0  0  0  0  0  0  0  0  0
    0.3131    0.6782    1.6295 N   0  0  0  0  0  0  0  0  0  0  0  0
   -0.6798    0.7027    1.4218 H   0  0  0  0  0  0  0  0  0  0  0  0
    0.7524    0.8404    3.0062 C   0  0  0  0  0  0  0  0  0  0  0  0
    1.6154    1.5121    3.0562 H   0  0  0  0  0  0  0  0  0  0  0  0
   -0.0535    1.2691    3.6088 H   0  0  0  0  0  0  0  0  0  0  0  0
    1.0305   -0.1280    3.4342 H   0  0  0  0  0  0  0  0  0  0  0  0
  1  2  1  0  0  0  0
  2  3  1  0  0  0  0
  2  4  1  0  0  0  0
  2  5  1  0  0  0  0
  5  6  2  0  0  0  0
  5  7  1  0  0  0  0
  7  8  1  0  0  0  0
  7  9  1  0  0  0  0
  9 10  1  0  0  0  0
  9 11  1  0  0  0  0
  9 17  1  0  0  0  0
 11 12  1  0  0  0  0
 11 13  1  0  0  0  0
 11 14  1  0  0  0  0
 14 15  1  0  0  0  0
 14 16  2  0  0  0  0
 17 18  2  0  0  0  0
 17 19  1  0  0  0  0
 19 20  1  0  0  0  0
 19 21  1  0  0  0  0
 21 22  1  0  0  0  0
 21 23  1  0  0  0  0
 21 24  1  0  0  0  0
M  CHG  1  15  -1
M  END
$$$$

  -OEChem-03222214023D

 24 23  0     1  0  0  0  0  0999 V2000
   -2.5021   -3.5374   -0.3801 H   0  0  0  0  0  0  0  0  0  0  0  0
   -2.3896   -2.5609   -0.8593 C   0  0  0  0  0  0  0  0  0  0  0  0
   -3.2887   -1.9685   -0.6724 H   0  0  0  0  0  0  0  0  0  0  0  0
   -2.2781   -2.7082   -1.9370 H   0  0  0  0  0  0  0  0  0  0  0  0
   -1.1708   -1.8414   -0.3102 C   0  0  0  0  0  0  0  0  0  0  0  0
   -0.5277   -2.3531    0.5919 O   0  0  0  0  0  0  0  0  0  0  0  0
   -0.8446   -0.6043   -0.8207 N   0  0  0  0  0  0  0  0  0  0  0  0
   -1.3226   -0.4015   -1.7006 H   0  0  0  0  0  0  0  0  0  0  0  0
    0.5134   -0.0399   -0.7834 C   0  0  1  0  0  0  0  0  0  0  0  0
    1.1912   -0.6893   -1.3485 H   0  0  0  0  0  0  0  0  0  0  0  0
    0.4252    1.3413   -1.4656 C   0  0  0  0  0  0  0  0  0  0  0  0
   -0.2488    1.9890   -0.8979 H   0  0  0  0  0  0  0  0  0  0  0  0
    1.4170    1.8015   -1.4624 H   0  0  0  0  0  0  0  0  0  0  0  0
   -0.0567    1.2840   -2.9135 C   0  0  0  0  0  0  0  0  0  0  0  0
   -0.0625    0.1766   -3.5081 O   0  5  0  0  0  0  0  0  0  0  0  0
   -0.5218    2.3457   -3.3890 O   0  0  0  0  0  0  0  0  0  0  0  0
    1.1042    0.1396    0.6352 C   0  0  0  0  0  0  0  0  0  0  0  0
    2.3015   -0.0300    0.8466 O   0  0  0  0  0  0  0  0  0  0  0  0
    0.3179    0.6872    1.6332 N   0  0  0  0  0  0  0  0  0  0  0  0
   -0.6778    0.7025    1.4373 H   0  0  0  0  0  0  0  0  0  0  0  0
    0.7708    0.8532    3.0050 C   0  0  0  0  0  0  0  0  0  0  0  0
    1.6456    1.5103    3.0422 H   0  0  0  0  0  0  0  0  0  0  0  0
   -0.0228    1.3013    3.6099 H   0  0  0  0  0  0  0  0  0  0  0  0
    1.0354   -0.1164    3.4389 H   0  0  0  0  0  0  0  0  0  0  0  0
  1  2  1  0  0  0  0
  2  3  1  0  0  0  0
  2  4  1  0  0  0  0
  2  5  1  0  0  0  0
  5  6  2  0  0  0  0
  5  7  1  0  0  0  0
  7  8  1  0  0  0  0
  7  9  1  0  0  0  0
  9 10  1  0  0  0  0
  9 11  1  0  0  0  0
  9 17  1  0  0  0  0
 11 12  1  0  0  0  0
 11 13  1  0  0  0  0
 11 14  1  0  0  0  0
 14 15  1  0  0  0  0
 14 16  2  0  0  0  0
 17 18  2  0  0  0  0
 17 19  1  0  0  0  0
 19 20  1  0  0  0  0
 19 21  1  0  0  0  0
 21 22  1  0  0  0  0
 21 23  1  0  0  0  0
 21 24  1  0  0  0  0
M  CHG  1  15  -1
M  END
$$$$

  -OEChem-03222214023D

 24 23  0     1  0  0  0  0  0999 V2000
   -2.4832   -3.5529   -0.3862 H   0  0  0  0  0  0  0  0  0  0  0  0
   -2.3859   -2.5692   -0.8536 C   0  0  0  0  0  0  0  0  0  0  0  0
   -3.2938   -1.9929   -0.6603 H   0  0  0  0  0  0  0  0  0  0  0  0
   -2.2718   -2.7016   -1.9329 H   0  0  0  0  0  0  0  0  0  0  0  0
   -1.1790   -1.8375   -0.2950 C   0  0  0  0  0  0  0  0  0  0  0  0
   -0.5461   -2.3361    0.6218 O   0  0  0  0  0  0  0  0  0  0  0  0
   -0.8528   -0.6035   -0.8117 N   0  0  0  0  0  0  0  0  0  0  0  0
   -1.3117   -0.4197   -1.7092 H   0  0  0  0  0  0  0  0  0  0  0  0
    0.5048   -0.0401   -0.7806 C   0  0  1  0  0  0  0  0  0  0  0  0
    1.1783   -0.6949   -1.3443 H   0  0  0  0  0  0  0  0  0  0  0  0
    0.4232    1.3368   -1.4750 C   0  0  0  0  0  0  0  0  0  0  0  0
   -0.2516    1.9884   -0.9131 H   0  0  0  0  0  0  0  0  0  0  0  0
    1.4168    1.7935   -1.4671 H   0  0  0  0  0  0  0  0  0  0  0  0
   -0.0557    1.2909   -2.9261 C   0  0  0  0  0  0  0  0  0  0  0  0
   -0.3433    0.1773   -3.4386 O   0  5  0  0  0  0  0  0  0  0  0  0
   -0.2133    2.3949   -3.4967 O   0  0  0  0  0  0  0  0  0  0  0  0
    1.1002    0.1456    0.6351 C   0  0  0  0  0  0  0  0  0  0  0  0
    2.2975   -0.0287    0.8428 O   0  0  0  0  0  0  0  0  0  0  0  0
    0.3184    0.6982    1.6339 N   0  0  0  0  0  0  0  0  0  0  0  0
   -0.6780    0.7084    1.4416 H   0  0  0  0  0  0  0  0  0  0  0  0
    0.7727    0.8491    3.0071 C   0  0  0  0  0  0  0  0  0  0  0  0
    1.6541    1.4970    3.0497 H   0  0  0  0  0  0  0  0  0  0  0  0
   -0.0164    1.3000    3.6158 H   0  0  0  0  0  0  0  0  0  0  0  0
    1.0279   -0.1264    3.4333 H   0  0  0  0  0  0  0  0  0  0  0  0
  1  2  1  0  0  0  0
  2  3  1  0  0  0  0
  2  4  1  0  0  0  0
  2  5  1  0  0  0  0
  5  6  2  0  0  0  0
  5  7  1  0  0  0  0
  7  8  1  0  0  0  0
  7  9  1  0  0  0  0
  9 10  1  0  0  0  0
  9 11  1  0  0  0  0
  9 17  1  0  0  0  0
 11 12  1  0  0  0  0
 11 13  1  0  0  0  0
 11 14  1  0  0  0  0
 14 15  1  0  0  0  0
 14 16  2  0  0  0  0
 17 18  2  0  0  0  0
 17 19  1  0  0  0  0
 19 20  1  0  0  0  0
 19 21  1  0  0  0  0
 21 22  1  0  0  0  0
 21 23  1  0  0  0  0
 21 24  1  0  0  0  0
M  CHG  1  15  -1
M  END
$$$$

  -OEChem-03222214023D

 24 23  0     1  0  0  0  0  0999 V2000
   -2.4763   -3.5630   -0.3847 H   0  0  0  0  0  0  0  0  0  0  0  0
   -2.3928   -2.5691   -0.8328 C   0  0  0  0  0  0  0  0  0  0  0  0
   -3.2938   -1.9969   -0.5989 H   0  0  0  0  0  0  0  0  0  0  0  0
   -2.3117   -2.6772   -1.9177 H   0  0  0  0  0  0  0  0  0  0  0  0
   -1.1693   -1.8492   -0.2951 C   0  0  0  0  0  0  0  0  0  0  0  0
   -0.5166   -2.3600    0.6010 O   0  0  0  0  0  0  0  0  0  0  0  0
   -0.8464   -0.6137   -0.8094 N   0  0  0  0  0  0  0  0  0  0  0  0
   -1.3189   -0.4150   -1.6993 H   0  0  0  0  0  0  0  0  0  0  0  0
    0.5063   -0.0399   -0.7825 C   0  0  1  0  0  0  0  0  0  0  0  0
    1.1821   -0.6940   -1.3440 H   0  0  0  0  0  0  0  0  0  0  0  0
    0.4261    1.3346   -1.4850 C   0  0  0  0  0  0  0  0  0  0  0  0
   -0.2527    1.9859   -0.9282 H   0  0  0  0  0  0  0  0  0  0  0  0
    1.4193    1.7926   -1.4684 H   0  0  0  0  0  0  0  0  0  0  0  0
   -0.0456    1.2977   -2.9408 C   0  0  0  0  0  0  0  0  0  0  0  0
   -0.5999    0.2533   -3.3776 O   0  5  0  0  0  0  0  0  0  0  0  0
    0.0832    2.3572   -3.5966 O   0  0  0  0  0  0  0  0  0  0  0  0
    1.0995    0.1476    0.6338 C   0  0  0  0  0  0  0  0  0  0  0  0
    2.2976   -0.0200    0.8424 O   0  0  0  0  0  0  0  0  0  0  0  0
    0.3121    0.6924    1.6325 N   0  0  0  0  0  0  0  0  0  0  0  0
   -0.6840    0.6979    1.4382 H   0  0  0  0  0  0  0  0  0  0  0  0
    0.7629    0.8461    3.0064 C   0  0  0  0  0  0  0  0  0  0  0  0
    1.6431    1.4956    3.0504 H   0  0  0  0  0  0  0  0  0  0  0  0
   -0.0287    1.2966    3.6120 H   0  0  0  0  0  0  0  0  0  0  0  0
    1.0182   -0.1287    3.4345 H   0  0  0  0  0  0  0  0  0  0  0  0
  1  2  1  0  0  0  0
  2  3  1  0  0  0  0
  2  4  1  0  0  0  0
  2  5  1  0  0  0  0
  5  6  2  0  0  0  0
  5  7  1  0  0  0  0
  7  8  1  0  0  0  0
  7  9  1  0  0  0  0
  9 10  1  0  0  0  0
  9 11  1  0  0  0  0
  9 17  1  0  0  0  0
 11 12  1  0  0  0  0
 11 13  1  0  0  0  0
 11 14  1  0  0  0  0
 14 15  1  0  0  0  0
 14 16  2  0  0  0  0
 17 18  2  0  0  0  0
 17 19  1  0  0  0  0
 19 20  1  0  0  0  0
 19 21  1  0  0  0  0
 21 22  1  0  0  0  0
 21 23  1  0  0  0  0
 21 24  1  0  0  0  0
M  CHG  1  15  -1
M  END
$$$$

  -OEChem-03222214023D

 24 23  0     1  0  0  0  0  0999 V2000
   -2.4721   -3.5692   -0.3902 H   0  0  0  0  0  0  0  0  0  0  0  0
   -2.4009   -2.5642   -0.8149 C   0  0  0  0  0  0  0  0  0  0  0  0
   -3.2894   -1.9948   -0.5316 H   0  0  0  0  0  0  0  0  0  0  0  0
   -2.3621   -2.6440   -1.9047 H   0  0  0  0  0  0  0  0  0  0  0  0
   -1.1541   -1.8639   -0.3058 C   0  0  0  0  0  0  0  0  0  0  0  0
   -0.4778   -2.3932    0.5616 O   0  0  0  0  0  0  0  0  0  0  0  0
   -0.8340   -0.6251   -0.8131 N   0  0  0  0  0  0  0  0  0  0  0  0
   -1.3355   -0.3938   -1.6805 H   0  0  0  0  0  0  0  0  0  0  0  0
    0.5119   -0.0364   -0.7851 C   0  0  1  0  0  0  0  0  0  0  0  0
    1.1944   -0.6852   -1.3442 H   0  0  0  0  0  0  0  0  0  0  0  0
    0.4285    1.3365   -1.4917 C   0  0  0  0  0  0  0  0  0  0  0  0
   -0.2594    1.9835   -0.9416 H   0  0  0  0  0  0  0  0  0  0  0  0
    1.4180    1.8022   -1.4645 H   0  0  0  0  0  0  0  0  0  0  0  0
   -0.0338    1.2954   -2.9515 C   0  0  0  0  0  0  0  0  0  0  0  0
   -0.8231    0.3805   -3.3129 O   0  5  0  0  0  0  0  0  0  0  0  0
    0.3521    2.2294   -3.6916 O   0  0  0  0  0  0  0  0  0  0  0  0
    1.0993    0.1515    0.6333 C   0  0  0  0  0  0  0  0  0  0  0  0
    2.2976   -0.0081    0.8461 O   0  0  0  0  0  0  0  0  0  0  0  0
    0.3036    0.6834    1.6323 N   0  0  0  0  0  0  0  0  0  0  0  0
   -0.6919    0.6828    1.4344 H   0  0  0  0  0  0  0  0  0  0  0  0
    0.7505    0.8421    3.0070 C   0  0  0  0  0  0  0  0  0  0  0  0
    1.6276    1.4954    3.0514 H   0  0  0  0  0  0  0  0  0  0  0  0
   -0.0443    1.2908    3.6097 H   0  0  0  0  0  0  0  0  0  0  0  0
    1.0095   -0.1301    3.4384 H   0  0  0  0  0  0  0  0  0  0  0  0
  1  2  1  0  0  0  0
  2  3  1  0  0  0  0
  2  4  1  0  0  0  0
  2  5  1  0  0  0  0
  5  6  2  0  0  0  0
  5  7  1  0  0  0  0
  7  8  1  0  0  0  0
  7  9  1  0  0  0  0
  9 10  1  0  0  0  0
  9 11  1  0  0  0  0
  9 17  1  0  0  0  0
 11 12  1  0  0  0  0
 11 13  1  0  0  0  0
 11 14  1  0  0  0  0
 14 15  1  0  0  0  0
 14 16  2  0  0  0  0
 17 18  2  0  0  0  0
 17 19  1  0  0  0  0
 19 20  1  0  0  0  0
 19 21  1  0  0  0  0
 21 22  1  0  0  0  0
 21 23  1  0  0  0  0
 21 24  1  0  0  0  0
M  CHG  1  15  -1
M  END
$$$$

  -OEChem-03222214023D

 24 23  0     1  0  0  0  0  0999 V2000
   -2.4832   -3.5569   -0.3780 H   0  0  0  0  0  0  0  0  0  0  0  0
   -2.4068   -2.5517   -0.8016 C   0  0  0  0  0  0  0  0  0  0  0  0
   -3.2790   -1.9694   -0.4949 H   0  0  0  0  0  0  0  0  0  0  0  0
   -2.3964   -2.6282   -1.8923 H   0  0  0  0  0  0  0  0  0  0  0  0
   -1.1371   -1.8719   -0.3216 C   0  0  0  0  0  0  0  0  0  0  0  0
   -0.4363   -2.4227    0.5123 O   0  0  0  0  0  0  0  0  0  0  0  0
   -0.8189   -0.6292   -0.8200 N   0  0  0  0  0  0  0  0  0  0  0  0
   -1.3544   -0.3588   -1.6558 H   0  0  0  0  0  0  0  0  0  0  0  0
    0.5212   -0.0279   -0.7888 C   0  0  1  0  0  0  0  0  0  0  0  0
    1.2103   -0.6700   -1.3476 H   0  0  0  0  0  0  0  0  0  0  0  0
    0.4282    1.3441   -1.4949 C   0  0  0  0  0  0  0  0  0  0  0  0
   -0.2687    1.9864   -0.9505 H   0  0  0  0  0  0  0  0  0  0  0  0
    1.4126    1.8208   -1.4648 H   0  0  0  0  0  0  0  0  0  0  0  0
   -0.0302    1.2801   -2.9545 C   0  0  0  0  0  0  0  0  0  0  0  0
   -1.0137    0.5423   -3.2376 O   0  5  0  0  0  0  0  0  0  0  0  0
    0.5701    2.0077   -3.7787 O   0  0  0  0  0  0  0  0  0  0  0  0
    1.1028    0.1578    0.6323 C   0  0  0  0  0  0  0  0  0  0  0  0
    2.3016    0.0090    0.8489 O   0  0  0  0  0  0  0  0  0  0  0  0
    0.2986    0.6768    1.6315 N   0  0  0  0  0  0  0  0  0  0  0  0
   -0.6957    0.6749    1.4287 H   0  0  0  0  0  0  0  0  0  0  0  0
    0.7383    0.8302    3.0093 C   0  0  0  0  0  0  0  0  0  0  0  0
    1.6034    1.4988    3.0633 H   0  0  0  0  0  0  0  0  0  0  0  0
   -0.0662    1.2582    3.6141 H   0  0  0  0  0  0  0  0  0  0  0  0
    1.0133   -0.1415    3.4320 H   0  0  0  0  0  0  0  0  0  0  0  0
  1  2  1  0  0  0  0
  2  3  1  0  0  0  0
  2  4  1  0  0  0  0
  2  5  1  0  0  0  0
  5  6  2  0  0  0  0
  5  7  1  0  0  0  0
  7  8  1  0  0  0  0
  7  9  1  0  0  0  0
  9 10  1  0  0  0  0
  9 11  1  0  0  0  0
  9 17  1  0  0  0  0
 11 12  1  0  0  0  0
 11 13  1  0  0  0  0
 11 14  1  0  0  0  0
 14 15  1  0  0  0  0
 14 16  2  0  0  0  0
 17 18  2  0  0  0  0
 17 19  1  0  0  0  0
 19 20  1  0  0  0  0
 19 21  1  0  0  0  0
 21 22  1  0  0  0  0
 21 23  1  0  0  0  0
 21 24  1  0  0  0  0
M  CHG  1  15  -1
M  END
$$$$

  -OEChem-03222214023D

 24 23  0     1  0  0  0  0  0999 V2000
   -2.4855   -3.5444   -0.3896 H   0  0  0  0  0  0  0  0  0  0  0  0
   -2.4109   -2.5320   -0.7959 C   0  0  0  0  0  0  0  0  0  0  0  0
   -3.2642   -1.9455   -0.4469 H   0  0  0  0  0  0  0  0  0  0  0  0
   -2.4409   -2.5865   -1.8873 H   0  0  0  0  0  0  0  0  0  0  0  0
   -1.1161   -1.8780   -0.3480 C   0  0  0  0  0  0  0  0  0  0  0  0
   -0.3961   -2.4516    0.4535 O   0  0  0  0  0  0  0  0  0  0  0  0
   -0.7951   -0.6317   -0.8350 N   0  0  0  0  0  0  0  0  0  0  0  0
   -1.3628   -0.3183   -1.6341 H   0  0  0  0  0  0  0  0  0  0  0  0
    0.5406   -0.0206   -0.7934 C   0  0  1  0  0  0  0  0  0  0  0  0
    1.2397   -0.6500   -1.3545 H   0  0  0  0  0  0  0  0  0  0  0  0
    0.4259    1.3526   -1.4888 C   0  0  0  0  0  0  0  0  0  0  0  0
   -0.2822    1.9843   -0.9463 H   0  0  0  0  0  0  0  0  0  0  0  0
    1.4009    1.8482   -1.4628 H   0  0  0  0  0  0  0  0  0  0  0  0
   -0.0332    1.2536   -2.9429 C   0  0  0  0  0  0  0  0  0  0  0  0
   -1.1594    0.7267   -3.1574 O   0  5  0  0  0  0  0  0  0  0  0  0
    0.7174    1.7165   -3.8321 O   0  0  0  0  0  0  0  0  0  0  0  0
    1.1114    0.1607    0.6323 C   0  0  0  0  0  0  0  0  0  0  0  0
    2.3091    0.0182    0.8586 O   0  0  0  0  0  0  0  0  0  0  0  0
    0.2951    0.6680    1.6277 N   0  0  0  0  0  0  0  0  0  0  0  0
   -0.6971    0.6677    1.4145 H   0  0  0  0  0  0  0  0  0  0  0  0
    0.7224    0.8224    3.0091 C   0  0  0  0  0  0  0  0  0  0  0  0
    1.5863    1.4921    3.0704 H   0  0  0  0  0  0  0  0  0  0  0  0
   -0.0879    1.2500    3.6065 H   0  0  0  0  0  0  0  0  0  0  0  0
    0.9944   -0.1489    3.4344 H   0  0  0  0  0  0  0  0  0  0  0  0
  1  2  1  0  0  0  0
  2  3  1  0  0  0  0
  2  4  1  0  0  0  0
  2  5  1  0  0  0  0
  5  6  2  0  0  0  0
  5  7  1  0  0  0  0
  7  8  1  0  0  0  0
  7  9  1  0  0  0  0
  9 10  1  0  0  0  0
  9 11  1  0  0  0  0
  9 17  1  0  0  0  0
 11 12  1  0  0  0  0
 11 13  1  0  0  0  0
 11 14  1  0  0  0  0
 14 15  1  0  0  0  0
 14 16  2  0  0  0  0
 17 18  2  0  0  0  0
 17 19  1  0  0  0  0
 19 20  1  0  0  0  0
 19 21  1  0  0  0  0
 21 22  1  0  0  0  0
 21 23  1  0  0  0  0
 21 24  1  0  0  0  0
M  CHG  1  15  -1
M  END
$$$$

  -OEChem-03222214023D

 24 23  0     1  0  0  0  0  0999 V2000
   -2.4826   -3.5332   -0.4273 H   0  0  0  0  0  0  0  0  0  0  0  0
   -2.4102   -2.5126   -0.8129 C   0  0  0  0  0  0  0  0  0  0  0  0
   -3.2536   -1.9295   -0.4360 H   0  0  0  0  0  0  0  0  0  0  0  0
   -2.4594   -2.5439   -1.9046 H   0  0  0  0  0  0  0  0  0  0  0  0
   -1.1040   -1.8756   -0.3745 C   0  0  0  0  0  0  0  0  0  0  0  0
   -0.3753   -2.4678    0.4051 O   0  0  0  0  0  0  0  0  0  0  0  0
   -0.7785   -0.6255   -0.8486 N   0  0  0  0  0  0  0  0  0  0  0  0
   -1.3698   -0.2738   -1.6138 H   0  0  0  0  0  0  0  0  0  0  0  0
    0.5567   -0.0123   -0.7928 C   0  0  1  0  0  0  0  0  0  0  0  0
    1.2630   -0.6292   -1.3591 H   0  0  0  0  0  0  0  0  0  0  0  0
    0.4163    1.3605   -1.4764 C   0  0  0  0  0  0  0  0  0  0  0  0
   -0.3005    1.9835   -0.9347 H   0  0  0  0  0  0  0  0  0  0  0  0
    1.3815    1.8750   -1.4636 H   0  0  0  0  0  0  0  0  0  0  0  0
   -0.0447    1.2131   -2.9214 C   0  0  0  0  0  0  0  0  0  0  0  0
   -1.2605    0.9233   -3.0906 O   0  5  0  0  0  0  0  0  0  0  0  0
    0.7920    1.3585   -3.8415 O   0  0  0  0  0  0  0  0  0  0  0  0
    1.1198    0.1608    0.6366 C   0  0  0  0  0  0  0  0  0  0  0  0
    2.3163    0.0194    0.8698 O   0  0  0  0  0  0  0  0  0  0  0  0
    0.2973    0.6604    1.6309 N   0  0  0  0  0  0  0  0  0  0  0  0
   -0.6933    0.6721    1.4105 H   0  0  0  0  0  0  0  0  0  0  0  0
    0.7190    0.8232    3.0133 C   0  0  0  0  0  0  0  0  0  0  0  0
    1.5858    1.4890    3.0735 H   0  0  0  0  0  0  0  0  0  0  0  0
   -0.0918    1.2594    3.6039 H   0  0  0  0  0  0  0  0  0  0  0  0
    0.9846   -0.1461    3.4470 H   0  0  0  0  0  0  0  0  0  0  0  0
  1  2  1  0  0  0  0
  2  3  1  0  0  0  0
  2  4  1  0  0  0  0
  2  5  1  0  0  0  0
  5  6  2  0  0  0  0
  5  7  1  0  0  0  0
  7  8  1  0  0  0  0
  7  9  1  0  0  0  0
  9 10  1  0  0  0  0
  9 11  1  0  0  0  0
  9 17  1  0  0  0  0
 11 12  1  0  0  0  0
 11 13  1  0  0  0  0
 11 14  1  0  0  0  0
 14 15  1  0  0  0  0
 14 16  2  0  0  0  0
 17 18  2  0  0  0  0
 17 19  1  0  0  0  0
 19 20  1  0  0  0  0
 19 21  1  0  0  0  0
 21 22  1  0  0  0  0
 21 23  1  0  0  0  0
 21 24  1  0  0  0  0
M  CHG  1  15  -1
M  END
$$$$

  -OEChem-03222214023D

 24 23  0     1  0  0  0  0  0999 V2000
   -2.4855   -3.5172   -0.4491 H   0  0  0  0  0  0  0  0  0  0  0  0
   -2.4087   -2.4938   -0.8262 C   0  0  0  0  0  0  0  0  0  0  0  0
   -3.2436   -1.9076   -0.4352 H   0  0  0  0  0  0  0  0  0  0  0  0
   -2.4696   -2.5151   -1.9175 H   0  0  0  0  0  0  0  0  0  0  0  0
   -1.0929   -1.8713   -0.3955 C   0  0  0  0  0  0  0  0  0  0  0  0
   -0.3628   -2.4743    0.3742 O   0  0  0  0  0  0  0  0  0  0  0  0
   -0.7627   -0.6192   -0.8614 N   0  0  0  0  0  0  0  0  0  0  0  0
   -1.3699   -0.2429   -1.6001 H   0  0  0  0  0  0  0  0  0  0  0  0
    0.5735   -0.0051   -0.7935 C   0  0  1  0  0  0  0  0  0  0  0  0
    1.2862   -0.6116   -1.3638 H   0  0  0  0  0  0  0  0  0  0  0  0
    0.4067    1.3655   -1.4668 C   0  0  0  0  0  0  0  0  0  0  0  0
   -0.3174    1.9788   -0.9229 H   0  0  0  0  0  0  0  0  0  0  0  0
    1.3620    1.8978   -1.4678 H   0  0  0  0  0  0  0  0  0  0  0  0
   -0.0560    1.1777   -2.9032 C   0  0  0  0  0  0  0  0  0  0  0  0
   -1.3038    1.1446   -3.0707 O   0  5  0  0  0  0  0  0  0  0  0  0
    0.7952    0.9992   -3.8037 O   0  0  0  0  0  0  0  0  0  0  0  0
    1.1300    0.1636    0.6389 C   0  0  0  0  0  0  0  0  0  0  0  0
    2.3258    0.0262    0.8776 O   0  0  0  0  0  0  0  0  0  0  0  0
    0.3019    0.6597    1.6304 N   0  0  0  0  0  0  0  0  0  0  0  0
   -0.6873    0.6726    1.4047 H   0  0  0  0  0  0  0  0  0  0  0  0
    0.7166    0.8215    3.0150 C   0  0  0  0  0  0  0  0  0  0  0  0
    1.5880    1.4810    3.0796 H   0  0  0  0  0  0  0  0  0  0  0  0
   -0.0947    1.2643    3.6002 H   0  0  0  0  0  0  0  0  0  0  0  0
    0.9727   -0.1492    3.4512 H   0  0  0  0  0  0  0  0  0  0  0  0
  1  2  1  0  0  0  0
  2  3  1  0  0  0  0
  2  4  1  0  0  0  0
  2  5  1  0  0  0  0
  5  6  2  0  0  0  0
  5  7  1  0  0  0  0
  7  8  1  0  0  0  0
  7  9  1  0  0  0  0
  9 10  1  0  0  0  0
  9 11  1  0  0  0  0
  9 17  1  0  0  0  0
 11 12  1  0  0  0  0
 11 13  1  0  0  0  0
 11 14  1  0  0  0  0
 14 15  1  0  0  0  0
 14 16  2  0  0  0  0
 17 18  2  0  0  0  0
 17 19  1  0  0  0  0
 19 20  1  0  0  0  0
 19 21  1  0  0  0  0
 21 22  1  0  0  0  0
 21 23  1  0  0  0  0
 21 24  1  0  0  0  0
M  CHG  1  15  -1
M  END
$$$$

  -OEChem-03222214023D

 24 23  0     1  0  0  0  0  0999 V2000
   -2.5107   -3.4991   -0.4088 H   0  0  0  0  0  0  0  0  0  0  0  0
   -2.4105   -2.4952   -0.8304 C   0  0  0  0  0  0  0  0  0  0  0  0
   -3.2430   -1.8793   -0.4815 H   0  0  0  0  0  0  0  0  0  0  0  0
   -2.4524   -2.5653   -1.9206 H   0  0  0  0  0  0  0  0  0  0  0  0
   -1.0924   -1.8744   -0.4041 C   0  0  0  0  0  0  0  0  0  0  0  0
   -0.3622   -2.4787    0.3642 O   0  0  0  0  0  0  0  0  0  0  0  0
   -0.7636   -0.6206   -0.8680 N   0  0  0  0  0  0  0  0  0  0  0  0
   -1.3757   -0.2414   -1.5960 H   0  0  0  0  0  0  0  0  0  0  0  0
    0.5748   -0.0094   -0.7951 C   0  0  1  0  0  0  0  0  0  0  0  0
    1.2875   -0.6147   -1.3669 H   0  0  0  0  0  0  0  0  0  0  0  0
    0.4083    1.3642   -1.4598 C   0  0  0  0  0  0  0  0  0  0  0  0
   -0.3125    1.9751   -0.9084 H   0  0  0  0  0  0  0  0  0  0  0  0
    1.3643    1.8949   -1.4620 H   0  0  0  0  0  0  0  0  0  0  0  0
   -0.0544    1.1864   -2.8970 C   0  0  0  0  0  0  0  0  0  0  0  0
   -1.2650    1.4443   -3.1134 O   0  5  0  0  0  0  0  0  0  0  0  0
    0.7375    0.7040   -3.7386 O   0  0  0  0  0  0  0  0  0  0  0  0
    1.1299    0.1550    0.6385 C   0  0  0  0  0  0  0  0  0  0  0  0
    2.3259    0.0212    0.8781 O   0  0  0  0  0  0  0  0  0  0  0  0
    0.3016    0.6509    1.6302 N   0  0  0  0  0  0  0  0  0  0  0  0
   -0.6874    0.6727    1.4039 H   0  0  0  0  0  0  0  0  0  0  0  0
    0.7198    0.8273    3.0120 C   0  0  0  0  0  0  0  0  0  0  0  0
    1.5660    1.5195    3.0705 H   0  0  0  0  0  0  0  0  0  0  0  0
   -0.1034    1.2382    3.6037 H   0  0  0  0  0  0  0  0  0  0  0  0
    1.0158   -0.1331    3.4458 H   0  0  0  0  0  0  0  0  0  0  0  0
  1  2  1  0  0  0  0
  2  3  1  0  0  0  0
  2  4  1  0  0  0  0
  2  5  1  0  0  0  0
  5  6  2  0  0  0  0
  5  7  1  0  0  0  0
  7  8  1  0  0  0  0
  7  9  1  0  0  0  0
  9 10  1  0  0  0  0
  9 11  1  0  0  0  0
  9 17  1  0  0  0  0
 11 12  1  0  0  0  0
 11 13  1  0  0  0  0
 11 14  1  0  0  0  0
 14 15  1  0  0  0  0
 14 16  2  0  0  0  0
 17 18  2  0  0  0  0
 17 19  1  0  0  0  0
 19 20  1  0  0  0  0
 19 21  1  0  0  0  0
 21 22  1  0  0  0  0
 21 23  1  0  0  0  0
 21 24  1  0  0  0  0
M  CHG  1  15  -1
M  END
$$$$

  -OEChem-03222214023D

 24 23  0     1  0  0  0  0  0999 V2000
   -2.5014   -3.5109   -0.3879 H   0  0  0  0  0  0  0  0  0  0  0  0
   -2.4020   -2.5157   -0.8300 C   0  0  0  0  0  0  0  0  0  0  0  0
   -3.2540   -1.9047   -0.5222 H   0  0  0  0  0  0  0  0  0  0  0  0
   -2.4079   -2.6122   -1.9188 H   0  0  0  0  0  0  0  0  0  0  0  0
   -1.1067   -1.8662   -0.3776 C   0  0  0  0  0  0  0  0  0  0  0  0
   -0.3923   -2.4449    0.4244 O   0  0  0  0  0  0  0  0  0  0  0  0
   -0.7843   -0.6158   -0.8565 N   0  0  0  0  0  0  0  0  0  0  0  0
   -1.3730   -0.2797   -1.6196 H   0  0  0  0  0  0  0  0  0  0  0  0
    0.5587   -0.0136   -0.7953 C   0  0  1  0  0  0  0  0  0  0  0  0
    1.2628   -0.6336   -1.3618 H   0  0  0  0  0  0  0  0  0  0  0  0
    0.4184    1.3621   -1.4669 C   0  0  0  0  0  0  0  0  0  0  0  0
   -0.2886    1.9832   -0.9092 H   0  0  0  0  0  0  0  0  0  0  0  0
    1.3843    1.8741   -1.4651 H   0  0  0  0  0  0  0  0  0  0  0  0
   -0.0481    1.2245   -2.9098 C   0  0  0  0  0  0  0  0  0  0  0  0
   -1.1352    1.7834   -3.1920 O   0  5  0  0  0  0  0  0  0  0  0  0
    0.5777    0.4567   -3.6772 O   0  0  0  0  0  0  0  0  0  0  0  0
    1.1225    0.1566    0.6349 C   0  0  0  0  0  0  0  0  0  0  0  0
    2.3190    0.0157    0.8689 O   0  0  0  0  0  0  0  0  0  0  0  0
    0.3034    0.6649    1.6279 N   0  0  0  0  0  0  0  0  0  0  0  0
   -0.6868    0.6852    1.4075 H   0  0  0  0  0  0  0  0  0  0  0  0
    0.7260    0.8256    3.0101 C   0  0  0  0  0  0  0  0  0  0  0  0
    1.5759    1.5127    3.0729 H   0  0  0  0  0  0  0  0  0  0  0  0
   -0.0936    1.2351    3.6076 H   0  0  0  0  0  0  0  0  0  0  0  0
    1.0178   -0.1406    3.4339 H   0  0  0  0  0  0  0  0  0  0  0  0
  1  2  1  0  0  0  0
  2  3  1  0  0  0  0
  2  4  1  0  0  0  0
  2  5  1  0  0  0  0
  5  6  2  0  0  0  0
  5  7  1  0  0  0  0
  7  8  1  0  0  0  0
  7  9  1  0  0  0  0
  9 10  1  0  0  0  0
  9 11  1  0  0  0  0
  9 17  1  0  0  0  0
 11 12  1  0  0  0  0
 11 13  1  0  0  0  0
 11 14  1  0  0  0  0
 14 15  1  0  0  0  0
 14 16  2  0  0  0  0
 17 18  2  0  0  0  0
 17 19  1  0  0  0  0
 19 20  1  0  0  0  0
 19 21  1  0  0  0  0
 21 22  1  0  0  0  0
 21 23  1  0  0  0  0
 21 24  1  0  0  0  0
M  CHG  1  15  -1
M  END
$$$$

  -OEChem-03222214023D

 24 23  0     1  0  0  0  0  0999 V2000
   -2.4946   -3.5289   -0.3878 H   0  0  0  0  0  0  0  0  0  0  0  0
   -2.3928   -2.5410   -0.8455 C   0  0  0  0  0  0  0  0  0  0  0  0
   -3.2675   -1.9389   -0.5876 H   0  0  0  0  0  0  0  0  0  0  0  0
   -2.3494   -2.6591   -1.9314 H   0  0  0  0  0  0  0  0  0  0  0  0
   -1.1296   -1.8591   -0.3510 C   0  0  0  0  0  0  0  0  0  0  0  0
   -0.4460   -2.4062    0.4987 O   0  0  0  0  0  0  0  0  0  0  0  0
   -0.8090   -0.6132   -0.8433 N   0  0  0  0  0  0  0  0  0  0  0  0
   -1.3481   -0.3406   -1.6648 H   0  0  0  0  0  0  0  0  0  0  0  0
    0.5394   -0.0245   -0.7902 C   0  0  1  0  0  0  0  0  0  0  0  0
    1.2345   -0.6581   -1.3524 H   0  0  0  0  0  0  0  0  0  0  0  0
    0.4256    1.3544   -1.4672 C   0  0  0  0  0  0  0  0  0  0  0  0
   -0.2694    1.9845   -0.9045 H   0  0  0  0  0  0  0  0  0  0  0  0
    1.4013    1.8474   -1.4585 H   0  0  0  0  0  0  0  0  0  0  0  0
   -0.0432    1.2607   -2.9159 C   0  0  0  0  0  0  0  0  0  0  0  0
   -0.9307    2.0758   -3.2618 O   0  5  0  0  0  0  0  0  0  0  0  0
    0.3192    0.2760   -3.6033 O   0  0  0  0  0  0  0  0  0  0  0  0
    1.1124    0.1506    0.6361 C   0  0  0  0  0  0  0  0  0  0  0  0
    2.3105    0.0049    0.8597 O   0  0  0  0  0  0  0  0  0  0  0  0
    0.3060    0.6739    1.6317 N   0  0  0  0  0  0  0  0  0  0  0  0
   -0.6871    0.6873    1.4231 H   0  0  0  0  0  0  0  0  0  0  0  0
    0.7429    0.8404    3.0088 C   0  0  0  0  0  0  0  0  0  0  0  0
    1.6074    1.5101    3.0579 H   0  0  0  0  0  0  0  0  0  0  0  0
   -0.0627    1.2737    3.6083 H   0  0  0  0  0  0  0  0  0  0  0  0
    1.0178   -0.1271    3.4408 H   0  0  0  0  0  0  0  0  0  0  0  0
  1  2  1  0  0  0  0
  2  3  1  0  0  0  0
  2  4  1  0  0  0  0
  2  5  1  0  0  0  0
  5  6  2  0  0  0  0
  5  7  1  0  0  0  0
  7  8  1  0  0  0  0
  7  9  1  0  0  0  0
  9 10  1  0  0  0  0
  9 11  1  0  0  0  0
  9 17  1  0  0  0  0
 11 12  1  0  0  0  0
 11 13  1  0  0  0  0
 11 14  1  0  0  0  0
 14 15  1  0  0  0  0
 14 16  2  0  0  0  0
 17 18  2  0  0  0  0
 17 19  1  0  0  0  0
 19 20  1  0  0  0  0
 19 21  1  0  0  0  0
 21 22  1  0  0  0  0
 21 23  1  0  0  0  0
 21 24  1  0  0  0  0
M  CHG  1  15  -1
M  END
$$$$

  -OEChem-03222214023D

 24 23  0     1  0  0  0  0  0999 V2000
   -2.4951   -3.5341   -0.3748 H   0  0  0  0  0  0  0  0  0  0  0  0
   -2.3811   -2.5592   -0.8567 C   0  0  0  0  0  0  0  0  0  0  0  0
   -3.2739   -1.9604   -0.6608 H   0  0  0  0  0  0  0  0  0  0  0  0
   -2.2818   -2.7090   -1.9351 H   0  0  0  0  0  0  0  0  0  0  0  0
   -1.1515   -1.8474   -0.3217 C   0  0  0  0  0  0  0  0  0  0  0  0
   -0.4979   -2.3668    0.5684 O   0  0  0  0  0  0  0  0  0  0  0  0
   -0.8278   -0.6083   -0.8287 N   0  0  0  0  0  0  0  0  0  0  0  0
   -1.3162   -0.3921   -1.6992 H   0  0  0  0  0  0  0  0  0  0  0  0
    0.5265   -0.0357   -0.7860 C   0  0  1  0  0  0  0  0  0  0  0  0
    1.2110   -0.6805   -1.3485 H   0  0  0  0  0  0  0  0  0  0  0  0
    0.4298    1.3440   -1.4691 C   0  0  0  0  0  0  0  0  0  0  0  0
   -0.2535    1.9834   -0.9029 H   0  0  0  0  0  0  0  0  0  0  0  0
    1.4134    1.8210   -1.4602 H   0  0  0  0  0  0  0  0  0  0  0  0
   -0.0468    1.2819   -2.9192 C   0  0  0  0  0  0  0  0  0  0  0  0
   -0.6826    2.2801   -3.3314 O   0  5  0  0  0  0  0  0  0  0  0  0
    0.0054    0.1806   -3.5221 O   0  0  0  0  0  0  0  0  0  0  0  0
    1.1088    0.1448    0.6358 C   0  0  0  0  0  0  0  0  0  0  0  0
    2.3060   -0.0167    0.8538 O   0  0  0  0  0  0  0  0  0  0  0  0
    0.3134    0.6860    1.6303 N   0  0  0  0  0  0  0  0  0  0  0  0
   -0.6804    0.7039    1.4254 H   0  0  0  0  0  0  0  0  0  0  0  0
    0.7549    0.8492    3.0062 C   0  0  0  0  0  0  0  0  0  0  0  0
    1.6249    1.5120    3.0528 H   0  0  0  0  0  0  0  0  0  0  0  0
   -0.0465    1.2889    3.6070 H   0  0  0  0  0  0  0  0  0  0  0  0
    1.0226   -0.1205    3.4380 H   0  0  0  0  0  0  0  0  0  0  0  0
  1  2  1  0  0  0  0
  2  3  1  0  0  0  0
  2  4  1  0  0  0  0
  2  5  1  0  0  0  0
  5  6  2  0  0  0  0
  5  7  1  0  0  0  0
  7  8  1  0  0  0  0
  7  9  1  0  0  0  0
  9 10  1  0  0  0  0
  9 11  1  0  0  0  0
  9 17  1  0  0  0  0
 11 12  1  0  0  0  0
 11 13  1  0  0  0  0
 11 14  1  0  0  0  0
 14 15  1  0  0  0  0
 14 16  2  0  0  0  0
 17 18  2  0  0  0  0
 17 19  1  0  0  0  0
 19 20  1  0  0  0  0
 19 21  1  0  0  0  0
 21 22  1  0  0  0  0
 21 23  1  0  0  0  0
 21 24  1  0  0  0  0
M  CHG  1  15  -1
M  END
$$$$

  -OEChem-03222214023D

 24 23  0     1  0  0  0  0  0999 V2000
   -2.4820   -3.5566   -0.3970 H   0  0  0  0  0  0  0  0  0  0  0  0
   -2.3802   -2.5727   -0.8630 C   0  0  0  0  0  0  0  0  0  0  0  0
   -3.2838   -1.9910   -0.6653 H   0  0  0  0  0  0  0  0  0  0  0  0
   -2.2711   -2.7038   -1.9429 H   0  0  0  0  0  0  0  0  0  0  0  0
   -1.1667   -1.8491   -0.3077 C   0  0  0  0  0  0  0  0  0  0  0  0
   -0.5260   -2.3580    0.5981 O   0  0  0  0  0  0  0  0  0  0  0  0
   -0.8402   -0.6130   -0.8192 N   0  0  0  0  0  0  0  0  0  0  0  0
   -1.3038   -0.4188   -1.7114 H   0  0  0  0  0  0  0  0  0  0  0  0
    0.5151   -0.0451   -0.7798 C   0  0  1  0  0  0  0  0  0  0  0  0
    1.1942   -0.6955   -1.3421 H   0  0  0  0  0  0  0  0  0  0  0  0
    0.4283    1.3329   -1.4702 C   0  0  0  0  0  0  0  0  0  0  0  0
   -0.2501    1.9803   -0.9073 H   0  0  0  0  0  0  0  0  0  0  0  0
    1.4168    1.7996   -1.4579 H   0  0  0  0  0  0  0  0  0  0  0  0
   -0.0453    1.2884   -2.9232 C   0  0  0  0  0  0  0  0  0  0  0  0
   -0.4021    2.3828   -3.4178 O   0  5  0  0  0  0  0  0  0  0  0  0
   -0.2673    0.1679   -3.4520 O   0  0  0  0  0  0  0  0  0  0  0  0
    1.1027    0.1396    0.6392 C   0  0  0  0  0  0  0  0  0  0  0  0
    2.3009   -0.0234    0.8507 O   0  0  0  0  0  0  0  0  0  0  0  0
    0.3135    0.6875    1.6348 N   0  0  0  0  0  0  0  0  0  0  0  0
   -0.6821    0.6974    1.4382 H   0  0  0  0  0  0  0  0  0  0  0  0
    0.7652    0.8639    3.0057 C   0  0  0  0  0  0  0  0  0  0  0  0
    1.6431    1.5169    3.0384 H   0  0  0  0  0  0  0  0  0  0  0  0
   -0.0269    1.3212    3.6055 H   0  0  0  0  0  0  0  0  0  0  0  0
    1.0247   -0.1028    3.4490 H   0  0  0  0  0  0  0  0  0  0  0  0
  1  2  1  0  0  0  0
  2  3  1  0  0  0  0
  2  4  1  0  0  0  0
  2  5  1  0  0  0  0
  5  6  2  0  0  0  0
  5  7  1  0  0  0  0
  7  8  1  0  0  0  0
  7  9  1  0  0  0  0
  9 10  1  0  0  0  0
  9 11  1  0  0  0  0
  9 17  1  0  0  0  0
 11 12  1  0  0  0  0
 11 13  1  0  0  0  0
 11 14  1  0  0  0  0
 14 15  1  0  0  0  0
 14 16  2  0  0  0  0
 17 18  2  0  0  0  0
 17 19  1  0  0  0  0
 19 20  1  0  0  0  0
 19 21  1  0  0  0  0
 21 22  1  0  0  0  0
 21 23  1  0  0  0  0
 21 24  1  0  0  0  0
M  CHG  1  15  -1
M  END
$$$$

  -OEChem-03222214023D

 24 23  0     1  0  0  0  0  0999 V2000
   -2.4359   -3.6252   -0.3913 H   0  0  0  0  0  0  0  0  0  0  0  0
   -2.4007   -2.6058   -0.7852 C   0  0  0  0  0  0  0  0  0  0  0  0
   -3.2910   -2.0655   -0.4548 H   0  0  0  0  0  0  0  0  0  0  0  0
   -2.3975   -2.6503   -1.8777 H   0  0  0  0  0  0  0  0  0  0  0  0
   -1.1528   -1.8939   -0.2949 C   0  0  0  0  0  0  0  0  0  0  0  0
   -0.4514   -2.4229    0.5526 O   0  0  0  0  0  0  0  0  0  0  0  0
   -0.8545   -0.6496   -0.8021 N   0  0  0  0  0  0  0  0  0  0  0  0
   -1.3754   -0.4181   -1.6579 H   0  0  0  0  0  0  0  0  0  0  0  0
    0.4831   -0.0414   -0.7816 C   0  0  1  0  0  0  0  0  0  0  0  0
    1.1591   -0.7006   -1.3362 H   0  0  0  0  0  0  0  0  0  0  0  0
    0.4287    1.3260   -1.5104 C   0  0  0  0  0  0  0  0  0  0  0  0
   -0.0444    2.0562   -0.8483 H   0  0  0  0  0  0  0  0  0  0  0  0
    1.4540    1.6622   -1.6868 H   0  0  0  0  0  0  0  0  0  0  0  0
   -0.3216    1.3917   -2.8468 C   0  0  0  0  0  0  0  0  0  0  0  0
   -0.3419    2.5134   -3.4038 O   0  5  0  0  0  0  0  0  0  0  0  0
   -0.9481    0.3820   -3.2676 O   0  0  0  0  0  0  0  0  0  0  0  0
    1.0805    0.1546    0.6313 C   0  0  0  0  0  0  0  0  0  0  0  0
    2.2839    0.0169    0.8307 O   0  0  0  0  0  0  0  0  0  0  0  0
    0.2862    0.6746    1.6375 N   0  0  0  0  0  0  0  0  0  0  0  0
   -0.7106    0.6748    1.4459 H   0  0  0  0  0  0  0  0  0  0  0  0
    0.7452    0.8588    3.0050 C   0  0  0  0  0  0  0  0  0  0  0  0
    1.6204    1.5160    3.0307 H   0  0  0  0  0  0  0  0  0  0  0  0
   -0.0457    1.3152    3.6073 H   0  0  0  0  0  0  0  0  0  0  0  0
    1.0118   -0.1051    3.4500 H   0  0  0  0  0  0  0  0  0  0  0  0
  1  2  1  0  0  0  0
  2  3  1  0  0  0  0
  2  4  1  0  0  0  0
  2  5  1  0  0  0  0
  5  6  2  0  0  0  0
  5  7  1  0  0  0  0
  7  8  1  0  0  0  0
  7  9  1  0  0  0  0
  9 10  1  0  0  0  0
  9 11  1  0  0  0  0
  9 17  1  0  0  0  0
 11 12  1  0  0  0  0
 11 13  1  0  0  0  0
 11 14  1  0  0  0  0
 14 15  1  0  0  0  0
 14 16  2  0  0  0  0
 17 18  2  0  0  0  0
 17 19  1  0  0  0  0
 19 20  1  0  0  0  0
 19 21  1  0  0  0  0
 21 22  1  0  0  0  0
 21 23  1  0  0  0  0
 21 24  1  0  0  0  0
M  CHG  1  15  -1
M  END
$$$$

  -OEChem-03222214023D

 24 23  0     1  0  0  0  0  0999 V2000
   -2.4410   -3.6258   -0.3636 H   0  0  0  0  0  0  0  0  0  0  0  0
   -2.4071   -2.6050   -0.7540 C   0  0  0  0  0  0  0  0  0  0  0  0
   -3.2795   -2.0565   -0.3911 H   0  0  0  0  0  0  0  0  0  0  0  0
   -2.4411   -2.6436   -1.8462 H   0  0  0  0  0  0  0  0  0  0  0  0
   -1.1354   -1.9098   -0.3025 C   0  0  0  0  0  0  0  0  0  0  0  0
   -0.4043   -2.4571    0.5075 O   0  0  0  0  0  0  0  0  0  0  0  0
   -0.8444   -0.6620   -0.8046 N   0  0  0  0  0  0  0  0  0  0  0  0
   -1.4035   -0.3950   -1.6257 H   0  0  0  0  0  0  0  0  0  0  0  0
    0.4849   -0.0374   -0.7881 C   0  0  1  0  0  0  0  0  0  0  0  0
    1.1662   -0.6929   -1.3404 H   0  0  0  0  0  0  0  0  0  0  0  0
    0.4305    1.3297   -1.5202 C   0  0  0  0  0  0  0  0  0  0  0  0
   -0.0445    2.0618   -0.8619 H   0  0  0  0  0  0  0  0  0  0  0  0
    1.4583    1.6633   -1.6887 H   0  0  0  0  0  0  0  0  0  0  0  0
   -0.3114    1.4030   -2.8625 C   0  0  0  0  0  0  0  0  0  0  0  0
   -0.0873    2.4248   -3.5516 O   0  5  0  0  0  0  0  0  0  0  0  0
   -1.1484    0.5120   -3.1717 O   0  0  0  0  0  0  0  0  0  0  0  0
    1.0787    0.1594    0.6260 C   0  0  0  0  0  0  0  0  0  0  0  0
    2.2829    0.0339    0.8278 O   0  0  0  0  0  0  0  0  0  0  0  0
    0.2766    0.6651    1.6334 N   0  0  0  0  0  0  0  0  0  0  0  0
   -0.7195    0.6618    1.4382 H   0  0  0  0  0  0  0  0  0  0  0  0
    0.7306    0.8479    3.0028 C   0  0  0  0  0  0  0  0  0  0  0  0
    1.5978    1.5155    3.0334 H   0  0  0  0  0  0  0  0  0  0  0  0
   -0.0667    1.2917    3.6060 H   0  0  0  0  0  0  0  0  0  0  0  0
    1.0072   -0.1151    3.4437 H   0  0  0  0  0  0  0  0  0  0  0  0
  1  2  1  0  0  0  0
  2  3  1  0  0  0  0
  2  4  1  0  0  0  0
  2  5  1  0  0  0  0
  5  6  2  0  0  0  0
  5  7  1  0  0  0  0
  7  8  1  0  0  0  0
  7  9  1  0  0  0  0
  9 10  1  0  0  0  0
  9 11  1  0  0  0  0
  9 17  1  0  0  0  0
 11 12  1  0  0  0  0
 11 13  1  0  0  0  0
 11 14  1  0  0  0  0
 14 15  1  0  0  0  0
 14 16  2  0  0  0  0
 17 18  2  0  0  0  0
 17 19  1  0  0  0  0
 19 20  1  0  0  0  0
 19 21  1  0  0  0  0
 21 22  1  0  0  0  0
 21 23  1  0  0  0  0
 21 24  1  0  0  0  0
M  CHG  1  15  -1
M  END
$$$$

  -OEChem-03222214023D

 24 23  0     1  0  0  0  0  0999 V2000
   -2.4667   -3.6061   -0.3257 H   0  0  0  0  0  0  0  0  0  0  0  0
   -2.4161   -2.5926   -0.7331 C   0  0  0  0  0  0  0  0  0  0  0  0
   -3.2653   -2.0161   -0.3582 H   0  0  0  0  0  0  0  0  0  0  0  0
   -2.4773   -2.6467   -1.8234 H   0  0  0  0  0  0  0  0  0  0  0  0
   -1.1163   -1.9237   -0.3236 C   0  0  0  0  0  0  0  0  0  0  0  0
   -0.3586   -2.4951    0.4441 O   0  0  0  0  0  0  0  0  0  0  0  0
   -0.8264   -0.6715   -0.8148 N   0  0  0  0  0  0  0  0  0  0  0  0
   -1.4253   -0.3588   -1.5908 H   0  0  0  0  0  0  0  0  0  0  0  0
    0.4959   -0.0326   -0.7949 C   0  0  1  0  0  0  0  0  0  0  0  0
    1.1844   -0.6800   -1.3476 H   0  0  0  0  0  0  0  0  0  0  0  0
    0.4339    1.3367   -1.5229 C   0  0  0  0  0  0  0  0  0  0  0  0
   -0.0492    2.0650   -0.8664 H   0  0  0  0  0  0  0  0  0  0  0  0
    1.4604    1.6784   -1.6851 H   0  0  0  0  0  0  0  0  0  0  0  0
   -0.3058    1.3995   -2.8667 C   0  0  0  0  0  0  0  0  0  0  0  0
    0.1108    2.2504   -3.6863 O   0  5  0  0  0  0  0  0  0  0  0  0
   -1.3220    0.6761   -3.0533 O   0  0  0  0  0  0  0  0  0  0  0  0
    1.0826    0.1600    0.6229 C   0  0  0  0  0  0  0  0  0  0  0  0
    2.2872    0.0475    0.8293 O   0  0  0  0  0  0  0  0  0  0  0  0
    0.2704    0.6496    1.6303 N   0  0  0  0  0  0  0  0  0  0  0  0
   -0.7244    0.6430    1.4289 H   0  0  0  0  0  0  0  0  0  0  0  0
    0.7168    0.8356    3.0018 C   0  0  0  0  0  0  0  0  0  0  0  0
    1.5591    1.5339    3.0392 H   0  0  0  0  0  0  0  0  0  0  0  0
   -0.0967    1.2441    3.6082 H   0  0  0  0  0  0  0  0  0  0  0  0
    1.0283   -0.1206    3.4342 H   0  0  0  0  0  0  0  0  0  0  0  0
  1  2  1  0  0  0  0
  2  3  1  0  0  0  0
  2  4  1  0  0  0  0
  2  5  1  0  0  0  0
  5  6  2  0  0  0  0
  5  7  1  0  0  0  0
  7  8  1  0  0  0  0
  7  9  1  0  0  0  0
  9 10  1  0  0  0  0
  9 11  1  0  0  0  0
  9 17  1  0  0  0  0
 11 12  1  0  0  0  0
 11 13  1  0  0  0  0
 11 14  1  0  0  0  0
 14 15  1  0  0  0  0
 14 16  2  0  0  0  0
 17 18  2  0  0  0  0
 17 19  1  0  0  0  0
 19 20  1  0  0  0  0
 19 21  1  0  0  0  0
 21 22  1  0  0  0  0
 21 23  1  0  0  0  0
 21 24  1  0  0  0  0
M  CHG  1  15  -1
M  END
$$$$

  -OEChem-03222214023D

 24 23  0     1  0  0  0  0  0999 V2000
   -2.4736   -3.5897   -0.3260 H   0  0  0  0  0  0  0  0  0  0  0  0
   -2.4203   -2.5731   -0.7248 C   0  0  0  0  0  0  0  0  0  0  0  0
   -3.2514   -1.9896   -0.3211 H   0  0  0  0  0  0  0  0  0  0  0  0
   -2.5122   -2.6155   -1.8135 H   0  0  0  0  0  0  0  0  0  0  0  0
   -1.1007   -1.9260   -0.3445 C   0  0  0  0  0  0  0  0  0  0  0  0
   -0.3281   -2.5173    0.3927 O   0  0  0  0  0  0  0  0  0  0  0  0
   -0.8079   -0.6713   -0.8276 N   0  0  0  0  0  0  0  0  0  0  0  0
   -1.4380   -0.3175   -1.5604 H   0  0  0  0  0  0  0  0  0  0  0  0
    0.5109   -0.0252   -0.7996 C   0  0  1  0  0  0  0  0  0  0  0  0
    1.2072   -0.6640   -1.3531 H   0  0  0  0  0  0  0  0  0  0  0  0
    0.4374    1.3451   -1.5216 C   0  0  0  0  0  0  0  0  0  0  0  0
   -0.0579    2.0684   -0.8688 H   0  0  0  0  0  0  0  0  0  0  0  0
    1.4591    1.7013   -1.6842 H   0  0  0  0  0  0  0  0  0  0  0  0
   -0.3061    1.3741   -2.8622 C   0  0  0  0  0  0  0  0  0  0  0  0
    0.2435    1.9940   -3.8016 O   0  5  0  0  0  0  0  0  0  0  0  0
   -1.4488    0.8440   -2.9335 O   0  0  0  0  0  0  0  0  0  0  0  0
    1.0880    0.1642    0.6221 C   0  0  0  0  0  0  0  0  0  0  0  0
    2.2911    0.0525    0.8373 O   0  0  0  0  0  0  0  0  0  0  0  0
    0.2676    0.6451    1.6271 N   0  0  0  0  0  0  0  0  0  0  0  0
   -0.7252    0.6490    1.4161 H   0  0  0  0  0  0  0  0  0  0  0  0
    0.7035    0.8224    3.0032 C   0  0  0  0  0  0  0  0  0  0  0  0
    1.5407    1.5260    3.0519 H   0  0  0  0  0  0  0  0  0  0  0  0
   -0.1167    1.2201    3.6079 H   0  0  0  0  0  0  0  0  0  0  0  0
    1.0188   -0.1354    3.4294 H   0  0  0  0  0  0  0  0  0  0  0  0
  1  2  1  0  0  0  0
  2  3  1  0  0  0  0
  2  4  1  0  0  0  0
  2  5  1  0  0  0  0
  5  6  2  0  0  0  0
  5  7  1  0  0  0  0
  7  8  1  0  0  0  0
  7  9  1  0  0  0  0
  9 10  1  0  0  0  0
  9 11  1  0  0  0  0
  9 17  1  0  0  0  0
 11 12  1  0  0  0  0
 11 13  1  0  0  0  0
 11 14  1  0  0  0  0
 14 15  1  0  0  0  0
 14 16  2  0  0  0  0
 17 18  2  0  0  0  0
 17 19  1  0  0  0  0
 19 20  1  0  0  0  0
 19 21  1  0  0  0  0
 21 22  1  0  0  0  0
 21 23  1  0  0  0  0
 21 24  1  0  0  0  0
M  CHG  1  15  -1
M  END
$$$$

  -OEChem-03222214023D

 24 23  0     1  0  0  0  0  0999 V2000
   -2.4759   -3.5722   -0.3487 H   0  0  0  0  0  0  0  0  0  0  0  0
   -2.4232   -2.5479   -0.7271 C   0  0  0  0  0  0  0  0  0  0  0  0
   -3.2358   -1.9646   -0.2874 H   0  0  0  0  0  0  0  0  0  0  0  0
   -2.5468   -2.5663   -1.8132 H   0  0  0  0  0  0  0  0  0  0  0  0
   -1.0867   -1.9226   -0.3708 C   0  0  0  0  0  0  0  0  0  0  0  0
   -0.3035   -2.5328    0.3390 O   0  0  0  0  0  0  0  0  0  0  0  0
   -0.7895   -0.6649   -0.8425 N   0  0  0  0  0  0  0  0  0  0  0  0
   -1.4421   -0.2754   -1.5365 H   0  0  0  0  0  0  0  0  0  0  0  0
    0.5278   -0.0155   -0.8021 C   0  0  1  0  0  0  0  0  0  0  0  0
    1.2309   -0.6444   -1.3583 H   0  0  0  0  0  0  0  0  0  0  0  0
    0.4367    1.3562   -1.5143 C   0  0  0  0  0  0  0  0  0  0  0  0
   -0.0715    2.0722   -0.8631 H   0  0  0  0  0  0  0  0  0  0  0  0
    1.4503    1.7315   -1.6828 H   0  0  0  0  0  0  0  0  0  0  0  0
   -0.3135    1.3421   -2.8478 C   0  0  0  0  0  0  0  0  0  0  0  0
    0.3136    1.6958   -3.8726 O   0  5  0  0  0  0  0  0  0  0  0  0
   -1.5259    0.9926   -2.8370 O   0  0  0  0  0  0  0  0  0  0  0  0
    1.0964    0.1671    0.6236 C   0  0  0  0  0  0  0  0  0  0  0  0
    2.2981    0.0566    0.8466 O   0  0  0  0  0  0  0  0  0  0  0  0
    0.2681    0.6402    1.6259 N   0  0  0  0  0  0  0  0  0  0  0  0
   -0.7229    0.6492    1.4066 H   0  0  0  0  0  0  0  0  0  0  0  0
    0.6936    0.8127    3.0057 C   0  0  0  0  0  0  0  0  0  0  0  0
    1.5500    1.4923    3.0612 H   0  0  0  0  0  0  0  0  0  0  0  0
   -0.1217    1.2366    3.5992 H   0  0  0  0  0  0  0  0  0  0  0  0
    0.9770   -0.1515    3.4397 H   0  0  0  0  0  0  0  0  0  0  0  0
  1  2  1  0  0  0  0
  2  3  1  0  0  0  0
  2  4  1  0  0  0  0
  2  5  1  0  0  0  0
  5  6  2  0  0  0  0
  5  7  1  0  0  0  0
  7  8  1  0  0  0  0
  7  9  1  0  0  0  0
  9 10  1  0  0  0  0
  9 11  1  0  0  0  0
  9 17  1  0  0  0  0
 11 12  1  0  0  0  0
 11 13  1  0  0  0  0
 11 14  1  0  0  0  0
 14 15  1  0  0  0  0
 14 16  2  0  0  0  0
 17 18  2  0  0  0  0
 17 19  1  0  0  0  0
 19 20  1  0  0  0  0
 19 21  1  0  0  0  0
 21 22  1  0  0  0  0
 21 23  1  0  0  0  0
 21 24  1  0  0  0  0
M  CHG  1  15  -1
M  END
$$$$

  -OEChem-03222214023D

 24 23  0     1  0  0  0  0  0999 V2000
   -2.5001   -3.5406   -0.3582 H   0  0  0  0  0  0  0  0  0  0  0  0
   -2.4295   -2.5207   -0.7458 C   0  0  0  0  0  0  0  0  0  0  0  0
   -3.2332   -1.9197   -0.3137 H   0  0  0  0  0  0  0  0  0  0  0  0
   -2.5504   -2.5465   -1.8320 H   0  0  0  0  0  0  0  0  0  0  0  0
   -1.0836   -1.9141   -0.3930 C   0  0  0  0  0  0  0  0  0  0  0  0
   -0.3023   -2.5383    0.3067 O   0  0  0  0  0  0  0  0  0  0  0  0
   -0.7776   -0.6547   -0.8535 N   0  0  0  0  0  0  0  0  0  0  0  0
   -1.4399   -0.2400   -1.5232 H   0  0  0  0  0  0  0  0  0  0  0  0
    0.5420   -0.0088   -0.8014 C   0  0  1  0  0  0  0  0  0  0  0  0
    1.2474   -0.6303   -1.3634 H   0  0  0  0  0  0  0  0  0  0  0  0
    0.4353    1.3648   -1.5020 C   0  0  0  0  0  0  0  0  0  0  0  0
   -0.0813    2.0732   -0.8491 H   0  0  0  0  0  0  0  0  0  0  0  0
    1.4411    1.7556   -1.6805 H   0  0  0  0  0  0  0  0  0  0  0  0
   -0.3228    1.3134   -2.8266 C   0  0  0  0  0  0  0  0  0  0  0  0
    0.3360    1.3829   -3.8892 O   0  5  0  0  0  0  0  0  0  0  0  0
   -1.5686    1.1251   -2.7660 O   0  0  0  0  0  0  0  0  0  0  0  0
    1.1054    0.1637    0.6274 C   0  0  0  0  0  0  0  0  0  0  0  0
    2.3066    0.0561    0.8543 O   0  0  0  0  0  0  0  0  0  0  0  0
    0.2734    0.6328    1.6285 N   0  0  0  0  0  0  0  0  0  0  0  0
   -0.7167    0.6469    1.4049 H   0  0  0  0  0  0  0  0  0  0  0  0
    0.6959    0.8115    3.0086 C   0  0  0  0  0  0  0  0  0  0  0  0
    1.5360    1.5112    3.0643 H   0  0  0  0  0  0  0  0  0  0  0  0
   -0.1284    1.2145    3.6042 H   0  0  0  0  0  0  0  0  0  0  0  0
    1.0022   -0.1468    3.4400 H   0  0  0  0  0  0  0  0  0  0  0  0
  1  2  1  0  0  0  0
  2  3  1  0  0  0  0
  2  4  1  0  0  0  0
  2  5  1  0  0  0  0
  5  6  2  0  0  0  0
  5  7  1  0  0  0  0
  7  8  1  0  0  0  0
  7  9  1  0  0  0  0
  9 10  1  0  0  0  0
  9 11  1  0  0  0  0
  9 17  1  0  0  0  0
 11 12  1  0  0  0  0
 11 13  1  0  0  0  0
 11 14  1  0  0  0  0
 14 15  1  0  0  0  0
 14 16  2  0  0  0  0
 17 18  2  0  0  0  0
 17 19  1  0  0  0  0
 19 20  1  0  0  0  0
 19 21  1  0  0  0  0
 21 22  1  0  0  0  0
 21 23  1  0  0  0  0
 21 24  1  0  0  0  0
M  CHG  1  15  -1
M  END
$$$$

  -OEChem-03222214023D

 24 23  0     1  0  0  0  0  0999 V2000
   -2.5056   -3.5246   -0.3872 H   0  0  0  0  0  0  0  0  0  0  0  0
   -2.4326   -2.5028   -0.7694 C   0  0  0  0  0  0  0  0  0  0  0  0
   -3.2383   -1.9035   -0.3386 H   0  0  0  0  0  0  0  0  0  0  0  0
   -2.5480   -2.5237   -1.8564 H   0  0  0  0  0  0  0  0  0  0  0  0
   -1.0880   -1.8991   -0.4059 C   0  0  0  0  0  0  0  0  0  0  0  0
   -0.3139   -2.5267    0.2991 O   0  0  0  0  0  0  0  0  0  0  0  0
   -0.7755   -0.6388   -0.8606 N   0  0  0  0  0  0  0  0  0  0  0  0
   -1.4383   -0.2132   -1.5222 H   0  0  0  0  0  0  0  0  0  0  0  0
    0.5488   -0.0001   -0.7998 C   0  0  1  0  0  0  0  0  0  0  0  0
    1.2538   -0.6192   -1.3654 H   0  0  0  0  0  0  0  0  0  0  0  0
    0.4354    1.3738   -1.4942 C   0  0  0  0  0  0  0  0  0  0  0  0
   -0.0837    2.0809   -0.8414 H   0  0  0  0  0  0  0  0  0  0  0  0
    1.4368    1.7706   -1.6824 H   0  0  0  0  0  0  0  0  0  0  0  0
   -0.3270    1.2914   -2.8114 C   0  0  0  0  0  0  0  0  0  0  0  0
    0.3201    1.0689   -3.8598 O   0  5  0  0  0  0  0  0  0  0  0  0
   -1.5840    1.2619   -2.7255 O   0  0  0  0  0  0  0  0  0  0  0  0
    1.1112    0.1651    0.6301 C   0  0  0  0  0  0  0  0  0  0  0  0
    2.3121    0.0549    0.8578 O   0  0  0  0  0  0  0  0  0  0  0  0
    0.2806    0.6359    1.6317 N   0  0  0  0  0  0  0  0  0  0  0  0
   -0.7095    0.6527    1.4085 H   0  0  0  0  0  0  0  0  0  0  0  0
    0.7035    0.8118    3.0121 C   0  0  0  0  0  0  0  0  0  0  0  0
    1.5483    1.5060    3.0685 H   0  0  0  0  0  0  0  0  0  0  0  0
   -0.1184    1.2205    3.6071 H   0  0  0  0  0  0  0  0  0  0  0  0
    1.0034   -0.1484    3.4439 H   0  0  0  0  0  0  0  0  0  0  0  0
  1  2  1  0  0  0  0
  2  3  1  0  0  0  0
  2  4  1  0  0  0  0
  2  5  1  0  0  0  0
  5  6  2  0  0  0  0
  5  7  1  0  0  0  0
  7  8  1  0  0  0  0
  7  9  1  0  0  0  0
  9 10  1  0  0  0  0
  9 11  1  0  0  0  0
  9 17  1  0  0  0  0
 11 12  1  0  0  0  0
 11 13  1  0  0  0  0
 11 14  1  0  0  0  0
 14 15  1  0  0  0  0
 14 16  2  0  0  0  0
 17 18  2  0  0  0  0
 17 19  1  0  0  0  0
 19 20  1  0  0  0  0
 19 21  1  0  0  0  0
 21 22  1  0  0  0  0
 21 23  1  0  0  0  0
 21 24  1  0  0  0  0
M  CHG  1  15  -1
M  END
$$$$

  -OEChem-03222214023D

 24 23  0     1  0  0  0  0  0999 V2000
   -2.5116   -3.5087   -0.4067 H   0  0  0  0  0  0  0  0  0  0  0  0
   -2.4324   -2.4877   -0.7900 C   0  0  0  0  0  0  0  0  0  0  0  0
   -3.2421   -1.8864   -0.3695 H   0  0  0  0  0  0  0  0  0  0  0  0
   -2.5353   -2.5107   -1.8781 H   0  0  0  0  0  0  0  0  0  0  0  0
   -1.0910   -1.8853   -0.4128 C   0  0  0  0  0  0  0  0  0  0  0  0
   -0.3268   -2.5118    0.3039 O   0  0  0  0  0  0  0  0  0  0  0  0
   -0.7730   -0.6256   -0.8653 N   0  0  0  0  0  0  0  0  0  0  0  0
   -1.4287   -0.2018   -1.5331 H   0  0  0  0  0  0  0  0  0  0  0  0
    0.5561    0.0053   -0.7992 C   0  0  1  0  0  0  0  0  0  0  0  0
    1.2592   -0.6134   -1.3675 H   0  0  0  0  0  0  0  0  0  0  0  0
    0.4379    1.3789   -1.4893 C   0  0  0  0  0  0  0  0  0  0  0  0
   -0.0783    2.0868   -0.8348 H   0  0  0  0  0  0  0  0  0  0  0  0
    1.4367    1.7768   -1.6881 H   0  0  0  0  0  0  0  0  0  0  0  0
   -0.3293    1.2749   -2.8005 C   0  0  0  0  0  0  0  0  0  0  0  0
    0.2552    0.7742   -3.7880 O   0  5  0  0  0  0  0  0  0  0  0  0
   -1.5761    1.4212   -2.7108 O   0  0  0  0  0  0  0  0  0  0  0  0
    1.1176    0.1657    0.6314 C   0  0  0  0  0  0  0  0  0  0  0  0
    2.3181    0.0531    0.8604 O   0  0  0  0  0  0  0  0  0  0  0  0
    0.2875    0.6406    1.6315 N   0  0  0  0  0  0  0  0  0  0  0  0
   -0.7022    0.6601    1.4067 H   0  0  0  0  0  0  0  0  0  0  0  0
    0.7085    0.8125    3.0129 C   0  0  0  0  0  0  0  0  0  0  0  0
    1.5595    1.4987    3.0714 H   0  0  0  0  0  0  0  0  0  0  0  0
   -0.1113    1.2290    3.6055 H   0  0  0  0  0  0  0  0  0  0  0  0
    0.9981   -0.1506    3.4454 H   0  0  0  0  0  0  0  0  0  0  0  0
  1  2  1  0  0  0  0
  2  3  1  0  0  0  0
  2  4  1  0  0  0  0
  2  5  1  0  0  0  0
  5  6  2  0  0  0  0
  5  7  1  0  0  0  0
  7  8  1  0  0  0  0
  7  9  1  0  0  0  0
  9 10  1  0  0  0  0
  9 11  1  0  0  0  0
  9 17  1  0  0  0  0
 11 12  1  0  0  0  0
 11 13  1  0  0  0  0
 11 14  1  0  0  0  0
 14 15  1  0  0  0  0
 14 16  2  0  0  0  0
 17 18  2  0  0  0  0
 17 19  1  0  0  0  0
 19 20  1  0  0  0  0
 19 21  1  0  0  0  0
 21 22  1  0  0  0  0
 21 23  1  0  0  0  0
 21 24  1  0  0  0  0
M  CHG  1  15  -1
M  END
$$$$

  -OEChem-03222214023D

 24 23  0     1  0  0  0  0  0999 V2000
   -2.5175   -3.5072   -0.4062 H   0  0  0  0  0  0  0  0  0  0  0  0
   -2.4299   -2.4954   -0.8112 C   0  0  0  0  0  0  0  0  0  0  0  0
   -3.2571   -1.8891   -0.4338 H   0  0  0  0  0  0  0  0  0  0  0  0
   -2.4943   -2.5452   -1.9014 H   0  0  0  0  0  0  0  0  0  0  0  0
   -1.1053   -1.8768   -0.4016 C   0  0  0  0  0  0  0  0  0  0  0  0
   -0.3614   -2.4863    0.3502 O   0  0  0  0  0  0  0  0  0  0  0  0
   -0.7852   -0.6198   -0.8611 N   0  0  0  0  0  0  0  0  0  0  0  0
   -1.4123   -0.2331   -1.5724 H   0  0  0  0  0  0  0  0  0  0  0  0
    0.5505   -0.0006   -0.7953 C   0  0  1  0  0  0  0  0  0  0  0  0
    1.2486   -0.6263   -1.3626 H   0  0  0  0  0  0  0  0  0  0  0  0
    0.4431    1.3736   -1.4853 C   0  0  0  0  0  0  0  0  0  0  0  0
   -0.0625    2.0861   -0.8273 H   0  0  0  0  0  0  0  0  0  0  0  0
    1.4452    1.7601   -1.6884 H   0  0  0  0  0  0  0  0  0  0  0  0
   -0.3259    1.2791   -2.7962 C   0  0  0  0  0  0  0  0  0  0  0  0
    0.1302    0.5310   -3.6916 O   0  5  0  0  0  0  0  0  0  0  0  0
   -1.5107    1.6928   -2.7583 O   0  0  0  0  0  0  0  0  0  0  0  0
    1.1166    0.1614    0.6336 C   0  0  0  0  0  0  0  0  0  0  0  0
    2.3174    0.0423    0.8584 O   0  0  0  0  0  0  0  0  0  0  0  0
    0.2944    0.6482    1.6343 N   0  0  0  0  0  0  0  0  0  0  0  0
   -0.6961    0.6726    1.4133 H   0  0  0  0  0  0  0  0  0  0  0  0
    0.7220    0.8219    3.0134 C   0  0  0  0  0  0  0  0  0  0  0  0
    1.5697    1.5126    3.0674 H   0  0  0  0  0  0  0  0  0  0  0  0
   -0.0966    1.2338    3.6104 H   0  0  0  0  0  0  0  0  0  0  0  0
    1.0189   -0.1397    3.4444 H   0  0  0  0  0  0  0  0  0  0  0  0
  1  2  1  0  0  0  0
  2  3  1  0  0  0  0
  2  4  1  0  0  0  0
  2  5  1  0  0  0  0
  5  6  2  0  0  0  0
  5  7  1  0  0  0  0
  7  8  1  0  0  0  0
  7  9  1  0  0  0  0
  9 10  1  0  0  0  0
  9 11  1  0  0  0  0
  9 17  1  0  0  0  0
 11 12  1  0  0  0  0
 11 13  1  0  0  0  0
 11 14  1  0  0  0  0
 14 15  1  0  0  0  0
 14 16  2  0  0  0  0
 17 18  2  0  0  0  0
 17 19  1  0  0  0  0
 19 20  1  0  0  0  0
 19 21  1  0  0  0  0
 21 22  1  0  0  0  0
 21 23  1  0  0  0  0
 21 24  1  0  0  0  0
M  CHG  1  15  -1
M  END
$$$$

  -OEChem-03222214023D

 24 23  0     1  0  0  0  0  0999 V2000
   -2.5015   -3.5375   -0.3878 H   0  0  0  0  0  0  0  0  0  0  0  0
   -2.4138   -2.5389   -0.8247 C   0  0  0  0  0  0  0  0  0  0  0  0
   -3.2802   -1.9437   -0.5257 H   0  0  0  0  0  0  0  0  0  0  0  0
   -2.4038   -2.6303   -1.9140 H   0  0  0  0  0  0  0  0  0  0  0  0
   -1.1368   -1.8674   -0.3528 C   0  0  0  0  0  0  0  0  0  0  0  0
   -0.4278   -2.4308    0.4654 O   0  0  0  0  0  0  0  0  0  0  0  0
   -0.8254   -0.6165   -0.8371 N   0  0  0  0  0  0  0  0  0  0  0  0
   -1.3840   -0.3305   -1.6430 H   0  0  0  0  0  0  0  0  0  0  0  0
    0.5198   -0.0174   -0.7893 C   0  0  1  0  0  0  0  0  0  0  0  0
    1.2022   -0.6603   -1.3560 H   0  0  0  0  0  0  0  0  0  0  0  0
    0.4435    1.3597   -1.4825 C   0  0  0  0  0  0  0  0  0  0  0  0
   -0.0372    2.0813   -0.8155 H   0  0  0  0  0  0  0  0  0  0  0  0
    1.4557    1.7171   -1.6876 H   0  0  0  0  0  0  0  0  0  0  0  0
   -0.3336    1.3158   -2.7936 C   0  0  0  0  0  0  0  0  0  0  0  0
   -0.0976    0.3750   -3.5889 O   0  5  0  0  0  0  0  0  0  0  0  0
   -1.3006    2.1062   -2.9009 O   0  0  0  0  0  0  0  0  0  0  0  0
    1.1029    0.1528    0.6327 C   0  0  0  0  0  0  0  0  0  0  0  0
    2.3036    0.0117    0.8456 O   0  0  0  0  0  0  0  0  0  0  0  0
    0.2998    0.6636    1.6370 N   0  0  0  0  0  0  0  0  0  0  0  0
   -0.6928    0.6984    1.4274 H   0  0  0  0  0  0  0  0  0  0  0  0
    0.7438    0.8365    3.0108 C   0  0  0  0  0  0  0  0  0  0  0  0
    1.6020    1.5149    3.0529 H   0  0  0  0  0  0  0  0  0  0  0  0
   -0.0628    1.2624    3.6146 H   0  0  0  0  0  0  0  0  0  0  0  0
    1.0312   -0.1276    3.4425 H   0  0  0  0  0  0  0  0  0  0  0  0
  1  2  1  0  0  0  0
  2  3  1  0  0  0  0
  2  4  1  0  0  0  0
  2  5  1  0  0  0  0
  5  6  2  0  0  0  0
  5  7  1  0  0  0  0
  7  8  1  0  0  0  0
  7  9  1  0  0  0  0
  9 10  1  0  0  0  0
  9 11  1  0  0  0  0
  9 17  1  0  0  0  0
 11 12  1  0  0  0  0
 11 13  1  0  0  0  0
 11 14  1  0  0  0  0
 14 15  1  0  0  0  0
 14 16  2  0  0  0  0
 17 18  2  0  0  0  0
 17 19  1  0  0  0  0
 19 20  1  0  0  0  0
 19 21  1  0  0  0  0
 21 22  1  0  0  0  0
 21 23  1  0  0  0  0
 21 24  1  0  0  0  0
M  CHG  1  15  -1
M  END
$$$$

  -OEChem-03222214023D

 24 23  0     1  0  0  0  0  0999 V2000
   -2.4827   -3.5634   -0.3892 H   0  0  0  0  0  0  0  0  0  0  0  0
   -2.4016   -2.5676   -0.8333 C   0  0  0  0  0  0  0  0  0  0  0  0
   -3.2939   -1.9911   -0.5772 H   0  0  0  0  0  0  0  0  0  0  0  0
   -2.3440   -2.6699   -1.9203 H   0  0  0  0  0  0  0  0  0  0  0  0
   -1.1620   -1.8595   -0.3171 C   0  0  0  0  0  0  0  0  0  0  0  0
   -0.4837   -2.3895    0.5481 O   0  0  0  0  0  0  0  0  0  0  0  0
   -0.8516   -0.6149   -0.8178 N   0  0  0  0  0  0  0  0  0  0  0  0
   -1.3525   -0.3968   -1.6832 H   0  0  0  0  0  0  0  0  0  0  0  0
    0.4988   -0.0296   -0.7825 C   0  0  1  0  0  0  0  0  0  0  0  0
    1.1714   -0.6836   -1.3480 H   0  0  0  0  0  0  0  0  0  0  0  0
    0.4352    1.3471   -1.4837 C   0  0  0  0  0  0  0  0  0  0  0  0
   -0.0332    2.0733   -0.8132 H   0  0  0  0  0  0  0  0  0  0  0  0
    1.4526    1.6891   -1.6896 H   0  0  0  0  0  0  0  0  0  0  0  0
   -0.3462    1.3421   -2.7961 C   0  0  0  0  0  0  0  0  0  0  0  0
   -0.3663    0.2864   -3.4781 O   0  5  0  0  0  0  0  0  0  0  0  0
   -1.0193    2.3659   -3.0579 O   0  0  0  0  0  0  0  0  0  0  0  0
    1.0940    0.1486    0.6339 C   0  0  0  0  0  0  0  0  0  0  0  0
    2.2948   -0.0055    0.8377 O   0  0  0  0  0  0  0  0  0  0  0  0
    0.3043    0.6769    1.6394 N   0  0  0  0  0  0  0  0  0  0  0  0
   -0.6912    0.6992    1.4424 H   0  0  0  0  0  0  0  0  0  0  0  0
    0.7600    0.8486    3.0095 C   0  0  0  0  0  0  0  0  0  0  0  0
    1.6310    1.5109    3.0430 H   0  0  0  0  0  0  0  0  0  0  0  0
   -0.0345    1.2933    3.6157 H   0  0  0  0  0  0  0  0  0  0  0  0
    1.0314   -0.1185    3.4447 H   0  0  0  0  0  0  0  0  0  0  0  0
  1  2  1  0  0  0  0
  2  3  1  0  0  0  0
  2  4  1  0  0  0  0
  2  5  1  0  0  0  0
  5  6  2  0  0  0  0
  5  7  1  0  0  0  0
  7  8  1  0  0  0  0
  7  9  1  0  0  0  0
  9 10  1  0  0  0  0
  9 11  1  0  0  0  0
  9 17  1  0  0  0  0
 11 12  1  0  0  0  0
 11 13  1  0  0  0  0
 11 14  1  0  0  0  0
 14 15  1  0  0  0  0
 14 16  2  0  0  0  0
 17 18  2  0  0  0  0
 17 19  1  0  0  0  0
 19 20  1  0  0  0  0
 19 21  1  0  0  0  0
 21 22  1  0  0  0  0
 21 23  1  0  0  0  0
 21 24  1  0  0  0  0
M  CHG  1  15  -1
M  END
$$$$

  -OEChem-03222214023D

 24 23  0     1  0  0  0  0  0999 V2000
   -2.4856   -3.5726   -0.3595 H   0  0  0  0  0  0  0  0  0  0  0  0
   -2.3976   -2.5865   -0.8237 C   0  0  0  0  0  0  0  0  0  0  0  0
   -3.2964   -2.0071   -0.5995 H   0  0  0  0  0  0  0  0  0  0  0  0
   -2.3165   -2.7124   -1.9068 H   0  0  0  0  0  0  0  0  0  0  0  0
   -1.1713   -1.8631   -0.2972 C   0  0  0  0  0  0  0  0  0  0  0  0
   -0.5005   -2.3789    0.5825 O   0  0  0  0  0  0  0  0  0  0  0  0
   -0.8627   -0.6215   -0.8059 N   0  0  0  0  0  0  0  0  0  0  0  0
   -1.3492   -0.4197   -1.6867 H   0  0  0  0  0  0  0  0  0  0  0  0
    0.4863   -0.0360   -0.7796 C   0  0  1  0  0  0  0  0  0  0  0  0
    1.1548   -0.6970   -1.3415 H   0  0  0  0  0  0  0  0  0  0  0  0
    0.4301    1.3368   -1.4934 C   0  0  0  0  0  0  0  0  0  0  0  0
   -0.0357    2.0658   -0.8241 H   0  0  0  0  0  0  0  0  0  0  0  0
    1.4524    1.6693   -1.6911 H   0  0  0  0  0  0  0  0  0  0  0  0
   -0.3431    1.3678   -2.8138 C   0  0  0  0  0  0  0  0  0  0  0  0
   -0.6314    0.2815   -3.3817 O   0  5  0  0  0  0  0  0  0  0  0  0
   -0.7139    2.4946   -3.2162 O   0  0  0  0  0  0  0  0  0  0  0  0
    1.0874    0.1503    0.6331 C   0  0  0  0  0  0  0  0  0  0  0  0
    2.2890   -0.0041    0.8312 O   0  0  0  0  0  0  0  0  0  0  0  0
    0.3028    0.6838    1.6399 N   0  0  0  0  0  0  0  0  0  0  0  0
   -0.6941    0.6976    1.4495 H   0  0  0  0  0  0  0  0  0  0  0  0
    0.7644    0.8508    3.0088 C   0  0  0  0  0  0  0  0  0  0  0  0
    1.6247    1.5271    3.0430 H   0  0  0  0  0  0  0  0  0  0  0  0
   -0.0334    1.2765    3.6241 H   0  0  0  0  0  0  0  0  0  0  0  0
    1.0543   -0.1156    3.4335 H   0  0  0  0  0  0  0  0  0  0  0  0
  1  2  1  0  0  0  0
  2  3  1  0  0  0  0
  2  4  1  0  0  0  0
  2  5  1  0  0  0  0
  5  6  2  0  0  0  0
  5  7  1  0  0  0  0
  7  8  1  0  0  0  0
  7  9  1  0  0  0  0
  9 10  1  0  0  0  0
  9 11  1  0  0  0  0
  9 17  1  0  0  0  0
 11 12  1  0  0  0  0
 11 13  1  0  0  0  0
 11 14  1  0  0  0  0
 14 15  1  0  0  0  0
 14 16  2  0  0  0  0
 17 18  2  0  0  0  0
 17 19  1  0  0  0  0
 19 20  1  0  0  0  0
 19 21  1  0  0  0  0
 21 22  1  0  0  0  0
 21 23  1  0  0  0  0
 21 24  1  0  0  0  0
M  CHG  1  15  -1
M  END
$$$$

  -OEChem-03222214023D

 24 23  0     1  0  0  0  0  0999 V2000
   -2.4763   -3.5920   -0.3494 H   0  0  0  0  0  0  0  0  0  0  0  0
   -2.4037   -2.5959   -0.7942 C   0  0  0  0  0  0  0  0  0  0  0  0
   -3.2945   -2.0221   -0.5271 H   0  0  0  0  0  0  0  0  0  0  0  0
   -2.3597   -2.6975   -1.8819 H   0  0  0  0  0  0  0  0  0  0  0  0
   -1.1603   -1.8831   -0.2940 C   0  0  0  0  0  0  0  0  0  0  0  0
   -0.4669   -2.4098    0.5615 O   0  0  0  0  0  0  0  0  0  0  0  0
   -0.8581   -0.6399   -0.8018 N   0  0  0  0  0  0  0  0  0  0  0  0
   -1.3671   -0.4189   -1.6670 H   0  0  0  0  0  0  0  0  0  0  0  0
    0.4836   -0.0399   -0.7819 C   0  0  1  0  0  0  0  0  0  0  0  0
    1.1556   -0.7010   -1.3391 H   0  0  0  0  0  0  0  0  0  0  0  0
    0.4312    1.3293   -1.5073 C   0  0  0  0  0  0  0  0  0  0  0  0
   -0.0403    2.0579   -0.8422 H   0  0  0  0  0  0  0  0  0  0  0  0
    1.4569    1.6610   -1.6902 H   0  0  0  0  0  0  0  0  0  0  0  0
   -0.3263    1.3893   -2.8391 C   0  0  0  0  0  0  0  0  0  0  0  0
   -0.8733    0.3501   -3.2968 O   0  5  0  0  0  0  0  0  0  0  0  0
   -0.4063    2.5200   -3.3724 O   0  0  0  0  0  0  0  0  0  0  0  0
    1.0833    0.1517    0.6311 C   0  0  0  0  0  0  0  0  0  0  0  0
    2.2865    0.0094    0.8291 O   0  0  0  0  0  0  0  0  0  0  0  0
    0.2931    0.6758    1.6385 N   0  0  0  0  0  0  0  0  0  0  0  0
   -0.7037    0.6823    1.4477 H   0  0  0  0  0  0  0  0  0  0  0  0
    0.7532    0.8529    3.0066 C   0  0  0  0  0  0  0  0  0  0  0  0
    1.6095    1.5343    3.0371 H   0  0  0  0  0  0  0  0  0  0  0  0
   -0.0476    1.2774    3.6190 H   0  0  0  0  0  0  0  0  0  0  0  0
    1.0489   -0.1091    3.4372 H   0  0  0  0  0  0  0  0  0  0  0  0
  1  2  1  0  0  0  0
  2  3  1  0  0  0  0
  2  4  1  0  0  0  0
  2  5  1  0  0  0  0
  5  6  2  0  0  0  0
  5  7  1  0  0  0  0
  7  8  1  0  0  0  0
  7  9  1  0  0  0  0
  9 10  1  0  0  0  0
  9 11  1  0  0  0  0
  9 17  1  0  0  0  0
 11 12  1  0  0  0  0
 11 13  1  0  0  0  0
 11 14  1  0  0  0  0
 14 15  1  0  0  0  0
 14 16  2  0  0  0  0
 17 18  2  0  0  0  0
 17 19  1  0  0  0  0
 19 20  1  0  0  0  0
 19 21  1  0  0  0  0
 21 22  1  0  0  0  0
 21 23  1  0  0  0  0
 21 24  1  0  0  0  0
M  CHG  1  15  -1
M  END
$$$$

  -OEChem-03222214023D

 24 23  0     1  0  0  0  0  0999 V2000
   -2.4473   -3.6204   -0.3730 H   0  0  0  0  0  0  0  0  0  0  0  0
   -2.4095   -2.6011   -0.7669 C   0  0  0  0  0  0  0  0  0  0  0  0
   -3.2884   -2.0531   -0.4193 H   0  0  0  0  0  0  0  0  0  0  0  0
   -2.4268   -2.6440   -1.8593 H   0  0  0  0  0  0  0  0  0  0  0  0
   -1.1461   -1.9017   -0.2989 C   0  0  0  0  0  0  0  0  0  0  0  0
   -0.4269   -2.4440    0.5250 O   0  0  0  0  0  0  0  0  0  0  0  0
   -0.8493   -0.6558   -0.8026 N   0  0  0  0  0  0  0  0  0  0  0  0
   -1.3948   -0.4001   -1.6362 H   0  0  0  0  0  0  0  0  0  0  0  0
    0.4843   -0.0396   -0.7856 C   0  0  1  0  0  0  0  0  0  0  0  0
    1.1621   -0.6984   -1.3383 H   0  0  0  0  0  0  0  0  0  0  0  0
    0.4344    1.3276   -1.5178 C   0  0  0  0  0  0  0  0  0  0  0  0
   -0.0457    2.0545   -0.8576 H   0  0  0  0  0  0  0  0  0  0  0  0
    1.4624    1.6610   -1.6853 H   0  0  0  0  0  0  0  0  0  0  0  0
   -0.3094    1.4010   -2.8587 C   0  0  0  0  0  0  0  0  0  0  0  0
   -1.0891    0.4714   -3.2020 O   0  5  0  0  0  0  0  0  0  0  0  0
   -0.1288    2.4472   -3.5234 O   0  0  0  0  0  0  0  0  0  0  0  0
    1.0804    0.1556    0.6282 C   0  0  0  0  0  0  0  0  0  0  0  0
    2.2843    0.0240    0.8285 O   0  0  0  0  0  0  0  0  0  0  0  0
    0.2822    0.6677    1.6355 N   0  0  0  0  0  0  0  0  0  0  0  0
   -0.7142    0.6660    1.4424 H   0  0  0  0  0  0  0  0  0  0  0  0
    0.7391    0.8521    3.0037 C   0  0  0  0  0  0  0  0  0  0  0  0
    1.6079    1.5175    3.0308 H   0  0  0  0  0  0  0  0  0  0  0  0
   -0.0559    1.2995    3.6074 H   0  0  0  0  0  0  0  0  0  0  0  0
    1.0144   -0.1105    3.4463 H   0  0  0  0  0  0  0  0  0  0  0  0
  1  2  1  0  0  0  0
  2  3  1  0  0  0  0
  2  4  1  0  0  0  0
  2  5  1  0  0  0  0
  5  6  2  0  0  0  0
  5  7  1  0  0  0  0
  7  8  1  0  0  0  0
  7  9  1  0  0  0  0
  9 10  1  0  0  0  0
  9 11  1  0  0  0  0
  9 17  1  0  0  0  0
 11 12  1  0  0  0  0
 11 13  1  0  0  0  0
 11 14  1  0  0  0  0
 14 15  1  0  0  0  0
 14 16  2  0  0  0  0
 17 18  2  0  0  0  0
 17 19  1  0  0  0  0
 19 20  1  0  0  0  0
 19 21  1  0  0  0  0
 21 22  1  0  0  0  0
 21 23  1  0  0  0  0
 21 24  1  0  0  0  0
M  CHG  1  15  -1
M  END
$$$$

  -OEChem-03222214023D

 24 23  0     1  0  0  0  0  0999 V2000
   -2.4612   -3.6105   -0.3420 H   0  0  0  0  0  0  0  0  0  0  0  0
   -2.4163   -2.5933   -0.7404 C   0  0  0  0  0  0  0  0  0  0  0  0
   -3.2726   -2.0270   -0.3662 H   0  0  0  0  0  0  0  0  0  0  0  0
   -2.4703   -2.6388   -1.8314 H   0  0  0  0  0  0  0  0  0  0  0  0
   -1.1245   -1.9177   -0.3168 C   0  0  0  0  0  0  0  0  0  0  0  0
   -0.3760   -2.4834    0.4641 O   0  0  0  0  0  0  0  0  0  0  0  0
   -0.8326   -0.6673   -0.8115 N   0  0  0  0  0  0  0  0  0  0  0  0
   -1.4188   -0.3678   -1.6022 H   0  0  0  0  0  0  0  0  0  0  0  0
    0.4932   -0.0358   -0.7934 C   0  0  1  0  0  0  0  0  0  0  0  0
    1.1780   -0.6872   -1.3461 H   0  0  0  0  0  0  0  0  0  0  0  0
    0.4390    1.3337   -1.5223 C   0  0  0  0  0  0  0  0  0  0  0  0
   -0.0499    2.0559   -0.8636 H   0  0  0  0  0  0  0  0  0  0  0  0
    1.4663    1.6752   -1.6805 H   0  0  0  0  0  0  0  0  0  0  0  0
   -0.3007    1.4036   -2.8661 C   0  0  0  0  0  0  0  0  0  0  0  0
   -1.2727    0.6314   -3.0884 O   0  5  0  0  0  0  0  0  0  0  0  0
    0.0906    2.2874   -3.6631 O   0  0  0  0  0  0  0  0  0  0  0  0
    1.0818    0.1557    0.6237 C   0  0  0  0  0  0  0  0  0  0  0  0
    2.2856    0.0344    0.8299 O   0  0  0  0  0  0  0  0  0  0  0  0
    0.2730    0.6515    1.6308 N   0  0  0  0  0  0  0  0  0  0  0  0
   -0.7217    0.6524    1.4295 H   0  0  0  0  0  0  0  0  0  0  0  0
    0.7217    0.8411    3.0009 C   0  0  0  0  0  0  0  0  0  0  0  0
    1.5758    1.5250    3.0331 H   0  0  0  0  0  0  0  0  0  0  0  0
   -0.0849    1.2687    3.6035 H   0  0  0  0  0  0  0  0  0  0  0  0
    1.0164   -0.1167    3.4413 H   0  0  0  0  0  0  0  0  0  0  0  0
  1  2  1  0  0  0  0
  2  3  1  0  0  0  0
  2  4  1  0  0  0  0
  2  5  1  0  0  0  0
  5  6  2  0  0  0  0
  5  7  1  0  0  0  0
  7  8  1  0  0  0  0
  7  9  1  0  0  0  0
  9 10  1  0  0  0  0
  9 11  1  0  0  0  0
  9 17  1  0  0  0  0
 11 12  1  0  0  0  0
 11 13  1  0  0  0  0
 11 14  1  0  0  0  0
 14 15  1  0  0  0  0
 14 16  2  0  0  0  0
 17 18  2  0  0  0  0
 17 19  1  0  0  0  0
 19 20  1  0  0  0  0
 19 21  1  0  0  0  0
 21 22  1  0  0  0  0
 21 23  1  0  0  0  0
 21 24  1  0  0  0  0
M  CHG  1  15  -1
M  END
$$$$

  -OEChem-03222214023D

 24 23  0     1  0  0  0  0  0999 V2000
   -2.4616   -3.5993   -0.3467 H   0  0  0  0  0  0  0  0  0  0  0  0
   -2.4199   -2.5753   -0.7276 C   0  0  0  0  0  0  0  0  0  0  0  0
   -3.2566   -2.0077   -0.3131 H   0  0  0  0  0  0  0  0  0  0  0  0
   -2.5124   -2.5996   -1.8166 H   0  0  0  0  0  0  0  0  0  0  0  0
   -1.1067   -1.9211   -0.3376 C   0  0  0  0  0  0  0  0  0  0  0  0
   -0.3390   -2.5060    0.4098 O   0  0  0  0  0  0  0  0  0  0  0  0
   -0.8139   -0.6676   -0.8234 N   0  0  0  0  0  0  0  0  0  0  0  0
   -1.4340   -0.3260   -1.5702 H   0  0  0  0  0  0  0  0  0  0  0  0
    0.5065   -0.0250   -0.7980 C   0  0  1  0  0  0  0  0  0  0  0  0
    1.1995   -0.6683   -1.3503 H   0  0  0  0  0  0  0  0  0  0  0  0
    0.4407    1.3437   -1.5245 C   0  0  0  0  0  0  0  0  0  0  0  0
   -0.0614    2.0618   -0.8711 H   0  0  0  0  0  0  0  0  0  0  0  0
    1.4631    1.7002   -1.6805 H   0  0  0  0  0  0  0  0  0  0  0  0
   -0.2998    1.3806   -2.8674 C   0  0  0  0  0  0  0  0  0  0  0  0
   -1.4153    0.8001   -2.9676 O   0  5  0  0  0  0  0  0  0  0  0  0
    0.2461    2.0226   -3.7941 O   0  0  0  0  0  0  0  0  0  0  0  0
    1.0869    0.1653    0.6226 C   0  0  0  0  0  0  0  0  0  0  0  0
    2.2903    0.0520    0.8351 O   0  0  0  0  0  0  0  0  0  0  0  0
    0.2692    0.6499    1.6281 N   0  0  0  0  0  0  0  0  0  0  0  0
   -0.7242    0.6474    1.4203 H   0  0  0  0  0  0  0  0  0  0  0  0
    0.7068    0.8239    3.0042 C   0  0  0  0  0  0  0  0  0  0  0  0
    1.5676    1.4988    3.0506 H   0  0  0  0  0  0  0  0  0  0  0  0
   -0.1009    1.2549    3.6029 H   0  0  0  0  0  0  0  0  0  0  0  0
    0.9873   -0.1407    3.4392 H   0  0  0  0  0  0  0  0  0  0  0  0
  1  2  1  0  0  0  0
  2  3  1  0  0  0  0
  2  4  1  0  0  0  0
  2  5  1  0  0  0  0
  5  6  2  0  0  0  0
  5  7  1  0  0  0  0
  7  8  1  0  0  0  0
  7  9  1  0  0  0  0
  9 10  1  0  0  0  0
  9 11  1  0  0  0  0
  9 17  1  0  0  0  0
 11 12  1  0  0  0  0
 11 13  1  0  0  0  0
 11 14  1  0  0  0  0
 14 15  1  0  0  0  0
 14 16  2  0  0  0  0
 17 18  2  0  0  0  0
 17 19  1  0  0  0  0
 19 20  1  0  0  0  0
 19 21  1  0  0  0  0
 21 22  1  0  0  0  0
 21 23  1  0  0  0  0
 21 24  1  0  0  0  0
M  CHG  1  15  -1
M  END
$$$$

  -OEChem-03222214023D

 24 23  0     1  0  0  0  0  0999 V2000
   -2.4822   -3.5742   -0.3597 H   0  0  0  0  0  0  0  0  0  0  0  0
   -2.4253   -2.5504   -0.7392 C   0  0  0  0  0  0  0  0  0  0  0  0
   -3.2428   -1.9661   -0.3101 H   0  0  0  0  0  0  0  0  0  0  0  0
   -2.5366   -2.5706   -1.8265 H   0  0  0  0  0  0  0  0  0  0  0  0
   -1.0928   -1.9239   -0.3697 C   0  0  0  0  0  0  0  0  0  0  0  0
   -0.3150   -2.5329    0.3473 O   0  0  0  0  0  0  0  0  0  0  0  0
   -0.7929   -0.6665   -0.8401 N   0  0  0  0  0  0  0  0  0  0  0  0
   -1.4408   -0.2789   -1.5397 H   0  0  0  0  0  0  0  0  0  0  0  0
    0.5260   -0.0205   -0.7990 C   0  0  1  0  0  0  0  0  0  0  0  0
    1.2268   -0.6516   -1.3555 H   0  0  0  0  0  0  0  0  0  0  0  0
    0.4406    1.3517   -1.5112 C   0  0  0  0  0  0  0  0  0  0  0  0
   -0.0724    2.0629   -0.8587 H   0  0  0  0  0  0  0  0  0  0  0  0
    1.4545    1.7282   -1.6747 H   0  0  0  0  0  0  0  0  0  0  0  0
   -0.3079    1.3427   -2.8461 C   0  0  0  0  0  0  0  0  0  0  0  0
   -1.5169    0.9819   -2.8426 O   0  5  0  0  0  0  0  0  0  0  0  0
    0.3242    1.6935   -3.8688 O   0  0  0  0  0  0  0  0  0  0  0  0
    1.0954    0.1594    0.6268 C   0  0  0  0  0  0  0  0  0  0  0  0
    2.2978    0.0528    0.8473 O   0  0  0  0  0  0  0  0  0  0  0  0
    0.2687    0.6334    1.6299 N   0  0  0  0  0  0  0  0  0  0  0  0
   -0.7231    0.6392    1.4142 H   0  0  0  0  0  0  0  0  0  0  0  0
    0.7003    0.8238    3.0056 C   0  0  0  0  0  0  0  0  0  0  0  0
    1.5487    1.5142    3.0493 H   0  0  0  0  0  0  0  0  0  0  0  0
   -0.1163    1.2440    3.5998 H   0  0  0  0  0  0  0  0  0  0  0  0
    0.9977   -0.1328    3.4471 H   0  0  0  0  0  0  0  0  0  0  0  0
  1  2  1  0  0  0  0
  2  3  1  0  0  0  0
  2  4  1  0  0  0  0
  2  5  1  0  0  0  0
  5  6  2  0  0  0  0
  5  7  1  0  0  0  0
  7  8  1  0  0  0  0
  7  9  1  0  0  0  0
  9 10  1  0  0  0  0
  9 11  1  0  0  0  0
  9 17  1  0  0  0  0
 11 12  1  0  0  0  0
 11 13  1  0  0  0  0
 11 14  1  0  0  0  0
 14 15  1  0  0  0  0
 14 16  2  0  0  0  0
 17 18  2  0  0  0  0
 17 19  1  0  0  0  0
 19 20  1  0  0  0  0
 19 21  1  0  0  0  0
 21 22  1  0  0  0  0
 21 23  1  0  0  0  0
 21 24  1  0  0  0  0
M  CHG  1  15  -1
M  END
$$$$

  -OEChem-03222214023D

 24 23  0     1  0  0  0  0  0999 V2000
   -2.4901   -3.5445   -0.3740 H   0  0  0  0  0  0  0  0  0  0  0  0
   -2.4239   -2.5199   -0.7494 C   0  0  0  0  0  0  0  0  0  0  0  0
   -3.2260   -1.9259   -0.3051 H   0  0  0  0  0  0  0  0  0  0  0  0
   -2.5514   -2.5330   -1.8350 H   0  0  0  0  0  0  0  0  0  0  0  0
   -1.0769   -1.9152   -0.3972 C   0  0  0  0  0  0  0  0  0  0  0  0
   -0.2950   -2.5416    0.3000 O   0  0  0  0  0  0  0  0  0  0  0  0
   -0.7691   -0.6562   -0.8582 N   0  0  0  0  0  0  0  0  0  0  0  0
   -1.4364   -0.2339   -1.5179 H   0  0  0  0  0  0  0  0  0  0  0  0
    0.5511   -0.0105   -0.8022 C   0  0  1  0  0  0  0  0  0  0  0  0
    1.2593   -0.6295   -1.3633 H   0  0  0  0  0  0  0  0  0  0  0  0
    0.4379    1.3625   -1.5008 C   0  0  0  0  0  0  0  0  0  0  0  0
   -0.0852    2.0667   -0.8483 H   0  0  0  0  0  0  0  0  0  0  0  0
    1.4402    1.7612   -1.6816 H   0  0  0  0  0  0  0  0  0  0  0  0
   -0.3220    1.2924   -2.8217 C   0  0  0  0  0  0  0  0  0  0  0  0
   -1.5749    1.1697   -2.7487 O   0  5  0  0  0  0  0  0  0  0  0  0
    0.3318    1.3155   -3.8892 O   0  0  0  0  0  0  0  0  0  0  0  0
    1.1090    0.1630    0.6283 C   0  0  0  0  0  0  0  0  0  0  0  0
    2.3088    0.0520    0.8609 O   0  0  0  0  0  0  0  0  0  0  0  0
    0.2725    0.6334    1.6249 N   0  0  0  0  0  0  0  0  0  0  0  0
   -0.7162    0.6518    1.3954 H   0  0  0  0  0  0  0  0  0  0  0  0
    0.6880    0.8129    3.0067 C   0  0  0  0  0  0  0  0  0  0  0  0
    1.5404    1.4974    3.0650 H   0  0  0  0  0  0  0  0  0  0  0  0
   -0.1334    1.2347    3.5931 H   0  0  0  0  0  0  0  0  0  0  0  0
    0.9736   -0.1482    3.4459 H   0  0  0  0  0  0  0  0  0  0  0  0
  1  2  1  0  0  0  0
  2  3  1  0  0  0  0
  2  4  1  0  0  0  0
  2  5  1  0  0  0  0
  5  6  2  0  0  0  0
  5  7  1  0  0  0  0
  7  8  1  0  0  0  0
  7  9  1  0  0  0  0
  9 10  1  0  0  0  0
  9 11  1  0  0  0  0
  9 17  1  0  0  0  0
 11 12  1  0  0  0  0
 11 13  1  0  0  0  0
 11 14  1  0  0  0  0
 14 15  1  0  0  0  0
 14 16  2  0  0  0  0
 17 18  2  0  0  0  0
 17 19  1  0  0  0  0
 19 20  1  0  0  0  0
 19 21  1  0  0  0  0
 21 22  1  0  0  0  0
 21 23  1  0  0  0  0
 21 24  1  0  0  0  0
M  CHG  1  15  -1
M  END
$$$$

  -OEChem-03222214023D

 24 23  0     1  0  0  0  0  0999 V2000
   -2.4983   -3.5219   -0.3839 H   0  0  0  0  0  0  0  0  0  0  0  0
   -2.4235   -2.5008   -0.7678 C   0  0  0  0  0  0  0  0  0  0  0  0
   -3.2226   -1.8972   -0.3306 H   0  0  0  0  0  0  0  0  0  0  0  0
   -2.5481   -2.5222   -1.8536 H   0  0  0  0  0  0  0  0  0  0  0  0
   -1.0728   -1.9035   -0.4168 C   0  0  0  0  0  0  0  0  0  0  0  0
   -0.2941   -2.5341    0.2800 O   0  0  0  0  0  0  0  0  0  0  0  0
   -0.7618   -0.6424   -0.8706 N   0  0  0  0  0  0  0  0  0  0  0  0
   -1.4335   -0.2090   -1.5160 H   0  0  0  0  0  0  0  0  0  0  0  0
    0.5622   -0.0001   -0.8011 C   0  0  1  0  0  0  0  0  0  0  0  0
    1.2736   -0.6128   -1.3654 H   0  0  0  0  0  0  0  0  0  0  0  0
    0.4326    1.3711   -1.4928 C   0  0  0  0  0  0  0  0  0  0  0  0
   -0.0970    2.0727   -0.8422 H   0  0  0  0  0  0  0  0  0  0  0  0
    1.4266    1.7830   -1.6870 H   0  0  0  0  0  0  0  0  0  0  0  0
   -0.3303    1.2525   -2.8047 C   0  0  0  0  0  0  0  0  0  0  0  0
   -1.5792    1.3907   -2.7316 O   0  5  0  0  0  0  0  0  0  0  0  0
    0.2956    0.9363   -3.8418 O   0  0  0  0  0  0  0  0  0  0  0  0
    1.1161    0.1677    0.6317 C   0  0  0  0  0  0  0  0  0  0  0  0
    2.3151    0.0555    0.8677 O   0  0  0  0  0  0  0  0  0  0  0  0
    0.2784    0.6377    1.6278 N   0  0  0  0  0  0  0  0  0  0  0  0
   -0.7098    0.6589    1.3968 H   0  0  0  0  0  0  0  0  0  0  0  0
    0.6911    0.8081    3.0117 C   0  0  0  0  0  0  0  0  0  0  0  0
    1.5384    1.4984    3.0772 H   0  0  0  0  0  0  0  0  0  0  0  0
   -0.1338    1.2186    3.6012 H   0  0  0  0  0  0  0  0  0  0  0  0
    0.9829   -0.1551    3.4423 H   0  0  0  0  0  0  0  0  0  0  0  0
  1  2  1  0  0  0  0
  2  3  1  0  0  0  0
  2  4  1  0  0  0  0
  2  5  1  0  0  0  0
  5  6  2  0  0  0  0
  5  7  1  0  0  0  0
  7  8  1  0  0  0  0
  7  9  1  0  0  0  0
  9 10  1  0  0  0  0
  9 11  1  0  0  0  0
  9 17  1  0  0  0  0
 11 12  1  0  0  0  0
 11 13  1  0  0  0  0
 11 14  1  0  0  0  0
 14 15  1  0  0  0  0
 14 16  2  0  0  0  0
 17 18  2  0  0  0  0
 17 19  1  0  0  0  0
 19 20  1  0  0  0  0
 19 21  1  0  0  0  0
 21 22  1  0  0  0  0
 21 23  1  0  0  0  0
 21 24  1  0  0  0  0
M  CHG  1  15  -1
M  END
$$$$

  -OEChem-03222214023D

 24 23  0     1  0  0  0  0  0999 V2000
   -2.5001   -3.5238   -0.3880 H   0  0  0  0  0  0  0  0  0  0  0  0
   -2.4199   -2.5106   -0.7911 C   0  0  0  0  0  0  0  0  0  0  0  0
   -3.2385   -1.9050   -0.3947 H   0  0  0  0  0  0  0  0  0  0  0  0
   -2.5063   -2.5565   -1.8799 H   0  0  0  0  0  0  0  0  0  0  0  0
   -1.0871   -1.8942   -0.4060 C   0  0  0  0  0  0  0  0  0  0  0  0
   -0.3252   -2.5085    0.3231 O   0  0  0  0  0  0  0  0  0  0  0  0
   -0.7783   -0.6333   -0.8640 N   0  0  0  0  0  0  0  0  0  0  0  0
   -1.4258   -0.2352   -1.5492 H   0  0  0  0  0  0  0  0  0  0  0  0
    0.5517   -0.0010   -0.7975 C   0  0  1  0  0  0  0  0  0  0  0  0
    1.2562   -0.6194   -1.3644 H   0  0  0  0  0  0  0  0  0  0  0  0
    0.4337    1.3720   -1.4862 C   0  0  0  0  0  0  0  0  0  0  0  0
   -0.0836    2.0775   -0.8296 H   0  0  0  0  0  0  0  0  0  0  0  0
    1.4303    1.7742   -1.6858 H   0  0  0  0  0  0  0  0  0  0  0  0
   -0.3329    1.2650   -2.7964 C   0  0  0  0  0  0  0  0  0  0  0  0
   -1.5123    1.6952   -2.7858 O   0  5  0  0  0  0  0  0  0  0  0  0
    0.1847    0.6286   -3.7427 O   0  0  0  0  0  0  0  0  0  0  0  0
    1.1135    0.1638    0.6329 C   0  0  0  0  0  0  0  0  0  0  0  0
    2.3135    0.0471    0.8621 O   0  0  0  0  0  0  0  0  0  0  0  0
    0.2846    0.6407    1.6329 N   0  0  0  0  0  0  0  0  0  0  0  0
   -0.7046    0.6707    1.4070 H   0  0  0  0  0  0  0  0  0  0  0  0
    0.7068    0.8154    3.0135 C   0  0  0  0  0  0  0  0  0  0  0  0
    1.5488    1.5127    3.0709 H   0  0  0  0  0  0  0  0  0  0  0  0
   -0.1169    1.2196    3.6091 H   0  0  0  0  0  0  0  0  0  0  0  0
    1.0103   -0.1447    3.4431 H   0  0  0  0  0  0  0  0  0  0  0  0
  1  2  1  0  0  0  0
  2  3  1  0  0  0  0
  2  4  1  0  0  0  0
  2  5  1  0  0  0  0
  5  6  2  0  0  0  0
  5  7  1  0  0  0  0
  7  8  1  0  0  0  0
  7  9  1  0  0  0  0
  9 10  1  0  0  0  0
  9 11  1  0  0  0  0
  9 17  1  0  0  0  0
 11 12  1  0  0  0  0
 11 13  1  0  0  0  0
 11 14  1  0  0  0  0
 14 15  1  0  0  0  0
 14 16  2  0  0  0  0
 17 18  2  0  0  0  0
 17 19  1  0  0  0  0
 19 20  1  0  0  0  0
 19 21  1  0  0  0  0
 21 22  1  0  0  0  0
 21 23  1  0  0  0  0
 21 24  1  0  0  0  0
M  CHG  1  15  -1
M  END
$$$$

  -OEChem-03222214023D

 24 23  0     1  0  0  0  0  0999 V2000
   -2.4878   -3.5423   -0.3877 H   0  0  0  0  0  0  0  0  0  0  0  0
   -2.4059   -2.5410   -0.8194 C   0  0  0  0  0  0  0  0  0  0  0  0
   -3.2665   -1.9467   -0.5027 H   0  0  0  0  0  0  0  0  0  0  0  0
   -2.4136   -2.6257   -1.9093 H   0  0  0  0  0  0  0  0  0  0  0  0
   -1.1202   -1.8746   -0.3638 C   0  0  0  0  0  0  0  0  0  0  0  0
   -0.3981   -2.4458    0.4375 O   0  0  0  0  0  0  0  0  0  0  0  0
   -0.8138   -0.6205   -0.8425 N   0  0  0  0  0  0  0  0  0  0  0  0
   -1.3910   -0.3142   -1.6277 H   0  0  0  0  0  0  0  0  0  0  0  0
    0.5272   -0.0117   -0.7921 C   0  0  1  0  0  0  0  0  0  0  0  0
    1.2150   -0.6483   -1.3595 H   0  0  0  0  0  0  0  0  0  0  0  0
    0.4395    1.3656   -1.4825 C   0  0  0  0  0  0  0  0  0  0  0  0
   -0.0518    2.0795   -0.8148 H   0  0  0  0  0  0  0  0  0  0  0  0
    1.4460    1.7404   -1.6851 H   0  0  0  0  0  0  0  0  0  0  0  0
   -0.3372    1.3104   -2.7926 C   0  0  0  0  0  0  0  0  0  0  0  0
   -1.3626    2.0280   -2.8661 O   0  5  0  0  0  0  0  0  0  0  0  0
   -0.0441    0.4103   -3.6148 O   0  0  0  0  0  0  0  0  0  0  0  0
    1.1054    0.1568    0.6320 C   0  0  0  0  0  0  0  0  0  0  0  0
    2.3063    0.0244    0.8492 O   0  0  0  0  0  0  0  0  0  0  0  0
    0.2943    0.6579    1.6346 N   0  0  0  0  0  0  0  0  0  0  0  0
   -0.6977    0.6831    1.4208 H   0  0  0  0  0  0  0  0  0  0  0  0
    0.7304    0.8311    3.0109 C   0  0  0  0  0  0  0  0  0  0  0  0
    1.5820    1.5172    3.0592 H   0  0  0  0  0  0  0  0  0  0  0  0
   -0.0829    1.2478    3.6120 H   0  0  0  0  0  0  0  0  0  0  0  0
    1.0245   -0.1316    3.4410 H   0  0  0  0  0  0  0  0  0  0  0  0
  1  2  1  0  0  0  0
  2  3  1  0  0  0  0
  2  4  1  0  0  0  0
  2  5  1  0  0  0  0
  5  6  2  0  0  0  0
  5  7  1  0  0  0  0
  7  8  1  0  0  0  0
  7  9  1  0  0  0  0
  9 10  1  0  0  0  0
  9 11  1  0  0  0  0
  9 17  1  0  0  0  0
 11 12  1  0  0  0  0
 11 13  1  0  0  0  0
 11 14  1  0  0  0  0
 14 15  1  0  0  0  0
 14 16  2  0  0  0  0
 17 18  2  0  0  0  0
 17 19  1  0  0  0  0
 19 20  1  0  0  0  0
 19 21  1  0  0  0  0
 21 22  1  0  0  0  0
 21 23  1  0  0  0  0
 21 24  1  0  0  0  0
M  CHG  1  15  -1
M  END
$$$$

  -OEChem-03222214023D

 24 23  0     1  0  0  0  0  0999 V2000
   -2.4937   -3.5514   -0.3773 H   0  0  0  0  0  0  0  0  0  0  0  0
   -2.3943   -2.5677   -0.8443 C   0  0  0  0  0  0  0  0  0  0  0  0
   -3.2827   -1.9745   -0.6139 H   0  0  0  0  0  0  0  0  0  0  0  0
   -2.3240   -2.6968   -1.9277 H   0  0  0  0  0  0  0  0  0  0  0  0
   -1.1524   -1.8627   -0.3294 C   0  0  0  0  0  0  0  0  0  0  0  0
   -0.4688   -2.3990    0.5279 O   0  0  0  0  0  0  0  0  0  0  0  0
   -0.8429   -0.6155   -0.8241 N   0  0  0  0  0  0  0  0  0  0  0  0
   -1.3542   -0.3814   -1.6789 H   0  0  0  0  0  0  0  0  0  0  0  0
    0.5049   -0.0247   -0.7828 C   0  0  1  0  0  0  0  0  0  0  0  0
    1.1815   -0.6751   -1.3478 H   0  0  0  0  0  0  0  0  0  0  0  0
    0.4371    1.3516   -1.4827 C   0  0  0  0  0  0  0  0  0  0  0  0
   -0.0409    2.0715   -0.8119 H   0  0  0  0  0  0  0  0  0  0  0  0
    1.4504    1.7093   -1.6818 H   0  0  0  0  0  0  0  0  0  0  0  0
   -0.3404    1.3386   -2.7975 C   0  0  0  0  0  0  0  0  0  0  0  0
   -1.1510    2.2773   -2.9762 O   0  5  0  0  0  0  0  0  0  0  0  0
   -0.3077    0.2937   -3.4944 O   0  0  0  0  0  0  0  0  0  0  0  0
    1.0958    0.1513    0.6355 C   0  0  0  0  0  0  0  0  0  0  0  0
    2.2976    0.0071    0.8406 O   0  0  0  0  0  0  0  0  0  0  0  0
    0.3019    0.6730    1.6413 N   0  0  0  0  0  0  0  0  0  0  0  0
   -0.6932    0.6957    1.4416 H   0  0  0  0  0  0  0  0  0  0  0  0
    0.7557    0.8475    3.0119 C   0  0  0  0  0  0  0  0  0  0  0  0
    1.6095    1.5317    3.0479 H   0  0  0  0  0  0  0  0  0  0  0  0
   -0.0488    1.2670    3.6228 H   0  0  0  0  0  0  0  0  0  0  0  0
    1.0532   -0.1150    3.4404 H   0  0  0  0  0  0  0  0  0  0  0  0
  1  2  1  0  0  0  0
  2  3  1  0  0  0  0
  2  4  1  0  0  0  0
  2  5  1  0  0  0  0
  5  6  2  0  0  0  0
  5  7  1  0  0  0  0
  7  8  1  0  0  0  0
  7  9  1  0  0  0  0
  9 10  1  0  0  0  0
  9 11  1  0  0  0  0
  9 17  1  0  0  0  0
 11 12  1  0  0  0  0
 11 13  1  0  0  0  0
 11 14  1  0  0  0  0
 14 15  1  0  0  0  0
 14 16  2  0  0  0  0
 17 18  2  0  0  0  0
 17 19  1  0  0  0  0
 19 20  1  0  0  0  0
 19 21  1  0  0  0  0
 21 22  1  0  0  0  0
 21 23  1  0  0  0  0
 21 24  1  0  0  0  0
M  CHG  1  15  -1
M  END
$$$$

  -OEChem-03222214023D

 24 23  0     1  0  0  0  0  0999 V2000
   -2.4657   -3.5815   -0.3949 H   0  0  0  0  0  0  0  0  0  0  0  0
   -2.3900   -2.5842   -0.8367 C   0  0  0  0  0  0  0  0  0  0  0  0
   -3.2911   -2.0175   -0.5903 H   0  0  0  0  0  0  0  0  0  0  0  0
   -2.3190   -2.6843   -1.9231 H   0  0  0  0  0  0  0  0  0  0  0  0
   -1.1637   -1.8635   -0.3063 C   0  0  0  0  0  0  0  0  0  0  0  0
   -0.4924   -2.3839    0.5706 O   0  0  0  0  0  0  0  0  0  0  0  0
   -0.8543   -0.6208   -0.8117 N   0  0  0  0  0  0  0  0  0  0  0  0
   -1.3416   -0.4146   -1.6903 H   0  0  0  0  0  0  0  0  0  0  0  0
    0.4938   -0.0332   -0.7786 C   0  0  1  0  0  0  0  0  0  0  0  0
    1.1662   -0.6917   -1.3389 H   0  0  0  0  0  0  0  0  0  0  0  0
    0.4334    1.3384   -1.4927 C   0  0  0  0  0  0  0  0  0  0  0  0
   -0.0403    2.0638   -0.8252 H   0  0  0  0  0  0  0  0  0  0  0  0
    1.4511    1.6861   -1.6870 H   0  0  0  0  0  0  0  0  0  0  0  0
   -0.3381    1.3537   -2.8142 C   0  0  0  0  0  0  0  0  0  0  0  0
   -0.8989    2.4326   -3.1162 O   0  5  0  0  0  0  0  0  0  0  0  0
   -0.5381    0.2633   -3.4102 O   0  0  0  0  0  0  0  0  0  0  0  0
    1.0898    0.1528    0.6366 C   0  0  0  0  0  0  0  0  0  0  0  0
    2.2915    0.0026    0.8378 O   0  0  0  0  0  0  0  0  0  0  0  0
    0.3017    0.6841    1.6421 N   0  0  0  0  0  0  0  0  0  0  0  0
   -0.6947    0.6990    1.4485 H   0  0  0  0  0  0  0  0  0  0  0  0
    0.7596    0.8539    3.0119 C   0  0  0  0  0  0  0  0  0  0  0  0
    1.6281    1.5194    3.0459 H   0  0  0  0  0  0  0  0  0  0  0  0
   -0.0354    1.2935    3.6212 H   0  0  0  0  0  0  0  0  0  0  0  0
    1.0360   -0.1133    3.4440 H   0  0  0  0  0  0  0  0  0  0  0  0
  1  2  1  0  0  0  0
  2  3  1  0  0  0  0
  2  4  1  0  0  0  0
  2  5  1  0  0  0  0
  5  6  2  0  0  0  0
  5  7  1  0  0  0  0
  7  8  1  0  0  0  0
  7  9  1  0  0  0  0
  9 10  1  0  0  0  0
  9 11  1  0  0  0  0
  9 17  1  0  0  0  0
 11 12  1  0  0  0  0
 11 13  1  0  0  0  0
 11 14  1  0  0  0  0
 14 15  1  0  0  0  0
 14 16  2  0  0  0  0
 17 18  2  0  0  0  0
 17 19  1  0  0  0  0
 19 20  1  0  0  0  0
 19 21  1  0  0  0  0
 21 22  1  0  0  0  0
 21 23  1  0  0  0  0
 21 24  1  0  0  0  0
M  CHG  1  15  -1
M  END
$$$$

  -OEChem-03222214023D

 24 23  0     1  0  0  0  0  0999 V2000
   -2.4686   -3.5934   -0.3715 H   0  0  0  0  0  0  0  0  0  0  0  0
   -2.3958   -2.5959   -0.8136 C   0  0  0  0  0  0  0  0  0  0  0  0
   -3.2912   -2.0260   -0.5541 H   0  0  0  0  0  0  0  0  0  0  0  0
   -2.3406   -2.6947   -1.9011 H   0  0  0  0  0  0  0  0  0  0  0  0
   -1.1602   -1.8796   -0.2997 C   0  0  0  0  0  0  0  0  0  0  0  0
   -0.4769   -2.4028    0.5661 O   0  0  0  0  0  0  0  0  0  0  0  0
   -0.8557   -0.6365   -0.8060 N   0  0  0  0  0  0  0  0  0  0  0  0
   -1.3524   -0.4240   -1.6798 H   0  0  0  0  0  0  0  0  0  0  0  0
    0.4877   -0.0403   -0.7791 C   0  0  1  0  0  0  0  0  0  0  0  0
    1.1610   -0.6991   -1.3374 H   0  0  0  0  0  0  0  0  0  0  0  0
    0.4307    1.3298   -1.4998 C   0  0  0  0  0  0  0  0  0  0  0  0
   -0.0440    2.0558   -0.8337 H   0  0  0  0  0  0  0  0  0  0  0  0
    1.4519    1.6735   -1.6840 H   0  0  0  0  0  0  0  0  0  0  0  0
   -0.3306    1.3753   -2.8288 C   0  0  0  0  0  0  0  0  0  0  0  0
   -0.6213    2.5166   -3.2555 O   0  5  0  0  0  0  0  0  0  0  0  0
   -0.7463    0.3018   -3.3411 O   0  0  0  0  0  0  0  0  0  0  0  0
    1.0849    0.1498    0.6348 C   0  0  0  0  0  0  0  0  0  0  0  0
    2.2880    0.0072    0.8340 O   0  0  0  0  0  0  0  0  0  0  0  0
    0.2944    0.6761    1.6407 N   0  0  0  0  0  0  0  0  0  0  0  0
   -0.7025    0.6831    1.4493 H   0  0  0  0  0  0  0  0  0  0  0  0
    0.7549    0.8585    3.0079 C   0  0  0  0  0  0  0  0  0  0  0  0
    1.6173    1.5323    3.0344 H   0  0  0  0  0  0  0  0  0  0  0  0
   -0.0423    1.2945    3.6169 H   0  0  0  0  0  0  0  0  0  0  0  0
    1.0417   -0.1032    3.4450 H   0  0  0  0  0  0  0  0  0  0  0  0
  1  2  1  0  0  0  0
  2  3  1  0  0  0  0
  2  4  1  0  0  0  0
  2  5  1  0  0  0  0
  5  6  2  0  0  0  0
  5  7  1  0  0  0  0
  7  8  1  0  0  0  0
  7  9  1  0  0  0  0
  9 10  1  0  0  0  0
  9 11  1  0  0  0  0
  9 17  1  0  0  0  0
 11 12  1  0  0  0  0
 11 13  1  0  0  0  0
 11 14  1  0  0  0  0
 14 15  1  0  0  0  0
 14 16  2  0  0  0  0
 17 18  2  0  0  0  0
 17 19  1  0  0  0  0
 19 20  1  0  0  0  0
 19 21  1  0  0  0  0
 21 22  1  0  0  0  0
 21 23  1  0  0  0  0
 21 24  1  0  0  0  0
M  CHG  1  15  -1
M  END
$$$$

  -OEChem-03222214023D

 24 23  0     1  0  0  0  0  0999 V2000
   -2.4345   -3.6535   -0.3245 H   0  0  0  0  0  0  0  0  0  0  0  0
   -2.4086   -2.6330   -0.7162 C   0  0  0  0  0  0  0  0  0  0  0  0
   -3.2654   -2.0797   -0.3243 H   0  0  0  0  0  0  0  0  0  0  0  0
   -2.4798   -2.6715   -1.8066 H   0  0  0  0  0  0  0  0  0  0  0  0
   -1.1188   -1.9440   -0.3084 C   0  0  0  0  0  0  0  0  0  0  0  0
   -0.3476   -2.5075    0.4519 O   0  0  0  0  0  0  0  0  0  0  0  0
   -0.8517   -0.6862   -0.7980 N   0  0  0  0  0  0  0  0  0  0  0  0
   -1.4535   -0.3912   -1.5780 H   0  0  0  0  0  0  0  0  0  0  0  0
    0.4635   -0.0326   -0.7874 C   0  0  1  0  0  0  0  0  0  0  0  0
    1.1462   -0.6878   -1.3382 H   0  0  0  0  0  0  0  0  0  0  0  0
    0.4230    1.3339   -1.5324 C   0  0  0  0  0  0  0  0  0  0  0  0
    0.1825    2.1116   -0.8023 H   0  0  0  0  0  0  0  0  0  0  0  0
    1.4291    1.5448   -1.9047 H   0  0  0  0  0  0  0  0  0  0  0  0
   -0.5583    1.5432   -2.6966 C   0  0  0  0  0  0  0  0  0  0  0  0
   -0.5169    2.6746   -3.2327 O   0  5  0  0  0  0  0  0  0  0  0  0
   -1.3606    0.6321   -3.0366 O   0  0  0  0  0  0  0  0  0  0  0  0
    1.0629    0.1619    0.6251 C   0  0  0  0  0  0  0  0  0  0  0  0
    2.2714    0.0622    0.8164 O   0  0  0  0  0  0  0  0  0  0  0  0
    0.2574    0.6390    1.6437 N   0  0  0  0  0  0  0  0  0  0  0  0
   -0.7394    0.6374    1.4516 H   0  0  0  0  0  0  0  0  0  0  0  0
    0.7207    0.8446    3.0066 C   0  0  0  0  0  0  0  0  0  0  0  0
    1.5630    1.5437    3.0234 H   0  0  0  0  0  0  0  0  0  0  0  0
   -0.0853    1.2617    3.6173 H   0  0  0  0  0  0  0  0  0  0  0  0
    1.0382   -0.1055    3.4480 H   0  0  0  0  0  0  0  0  0  0  0  0
  1  2  1  0  0  0  0
  2  3  1  0  0  0  0
  2  4  1  0  0  0  0
  2  5  1  0  0  0  0
  5  6  2  0  0  0  0
  5  7  1  0  0  0  0
  7  8  1  0  0  0  0
  7  9  1  0  0  0  0
  9 10  1  0  0  0  0
  9 11  1  0  0  0  0
  9 17  1  0  0  0  0
 11 12  1  0  0  0  0
 11 13  1  0  0  0  0
 11 14  1  0  0  0  0
 14 15  1  0  0  0  0
 14 16  2  0  0  0  0
 17 18  2  0  0  0  0
 17 19  1  0  0  0  0
 19 20  1  0  0  0  0
 19 21  1  0  0  0  0
 21 22  1  0  0  0  0
 21 23  1  0  0  0  0
 21 24  1  0  0  0  0
M  CHG  1  15  -1
M  END
$$$$

  -OEChem-03222214023D

 24 23  0     1  0  0  0  0  0999 V2000
   -2.4356   -3.6490   -0.2926 H   0  0  0  0  0  0  0  0  0  0  0  0
   -2.4106   -2.6267   -0.6797 C   0  0  0  0  0  0  0  0  0  0  0  0
   -3.2422   -2.0634   -0.2495 H   0  0  0  0  0  0  0  0  0  0  0  0
   -2.5279   -2.6578   -1.7662 H   0  0  0  0  0  0  0  0  0  0  0  0
   -1.0950   -1.9588   -0.3226 C   0  0  0  0  0  0  0  0  0  0  0  0
   -0.2969   -2.5405    0.3948 O   0  0  0  0  0  0  0  0  0  0  0  0
   -0.8339   -0.6980   -0.8073 N   0  0  0  0  0  0  0  0  0  0  0  0
   -1.4798   -0.3598   -1.5328 H   0  0  0  0  0  0  0  0  0  0  0  0
    0.4718   -0.0272   -0.7976 C   0  0  1  0  0  0  0  0  0  0  0  0
    1.1625   -0.6759   -1.3462 H   0  0  0  0  0  0  0  0  0  0  0  0
    0.4263    1.3394   -1.5438 C   0  0  0  0  0  0  0  0  0  0  0  0
    0.1799    2.1179   -0.8168 H   0  0  0  0  0  0  0  0  0  0  0  0
    1.4353    1.5509   -1.9087 H   0  0  0  0  0  0  0  0  0  0  0  0
   -0.5488    1.5498   -2.7142 C   0  0  0  0  0  0  0  0  0  0  0  0
   -0.3149    2.5513   -3.4293 O   0  5  0  0  0  0  0  0  0  0  0  0
   -1.5349    0.7820   -2.8807 O   0  0  0  0  0  0  0  0  0  0  0  0
    1.0636    0.1691    0.6176 C   0  0  0  0  0  0  0  0  0  0  0  0
    2.2714    0.0774    0.8158 O   0  0  0  0  0  0  0  0  0  0  0  0
    0.2481    0.6315    1.6351 N   0  0  0  0  0  0  0  0  0  0  0  0
   -0.7470    0.6292    1.4349 H   0  0  0  0  0  0  0  0  0  0  0  0
    0.7001    0.8265    3.0035 C   0  0  0  0  0  0  0  0  0  0  0  0
    1.5371    1.5314    3.0340 H   0  0  0  0  0  0  0  0  0  0  0  0
   -0.1133    1.2309    3.6129 H   0  0  0  0  0  0  0  0  0  0  0  0
    1.0214   -0.1257    3.4374 H   0  0  0  0  0  0  0  0  0  0  0  0
  1  2  1  0  0  0  0
  2  3  1  0  0  0  0
  2  4  1  0  0  0  0
  2  5  1  0  0  0  0
  5  6  2  0  0  0  0
  5  7  1  0  0  0  0
  7  8  1  0  0  0  0
  7  9  1  0  0  0  0
  9 10  1  0  0  0  0
  9 11  1  0  0  0  0
  9 17  1  0  0  0  0
 11 12  1  0  0  0  0
 11 13  1  0  0  0  0
 11 14  1  0  0  0  0
 14 15  1  0  0  0  0
 14 16  2  0  0  0  0
 17 18  2  0  0  0  0
 17 19  1  0  0  0  0
 19 20  1  0  0  0  0
 19 21  1  0  0  0  0
 21 22  1  0  0  0  0
 21 23  1  0  0  0  0
 21 24  1  0  0  0  0
M  CHG  1  15  -1
M  END
$$$$

  -OEChem-03222214023D

 24 23  0     1  0  0  0  0  0999 V2000
   -2.4562   -3.6294   -0.2734 H   0  0  0  0  0  0  0  0  0  0  0  0
   -2.4186   -2.6102   -0.6674 C   0  0  0  0  0  0  0  0  0  0  0  0
   -3.2238   -2.0249   -0.2169 H   0  0  0  0  0  0  0  0  0  0  0  0
   -2.5675   -2.6440   -1.7499 H   0  0  0  0  0  0  0  0  0  0  0  0
   -1.0781   -1.9718   -0.3526 C   0  0  0  0  0  0  0  0  0  0  0  0
   -0.2589   -2.5816    0.3161 O   0  0  0  0  0  0  0  0  0  0  0  0
   -0.8141   -0.7068   -0.8237 N   0  0  0  0  0  0  0  0  0  0  0  0
   -1.5005   -0.3139   -1.4814 H   0  0  0  0  0  0  0  0  0  0  0  0
    0.4867   -0.0276   -0.8039 C   0  0  1  0  0  0  0  0  0  0  0  0
    1.1847   -0.6673   -1.3540 H   0  0  0  0  0  0  0  0  0  0  0  0
    0.4342    1.3436   -1.5403 C   0  0  0  0  0  0  0  0  0  0  0  0
    0.1789    2.1190   -0.8133 H   0  0  0  0  0  0  0  0  0  0  0  0
    1.4428    1.5653   -1.9013 H   0  0  0  0  0  0  0  0  0  0  0  0
   -0.5447    1.5354   -2.7097 C   0  0  0  0  0  0  0  0  0  0  0  0
   -0.1826    2.3430   -3.5962 O   0  5  0  0  0  0  0  0  0  0  0  0
   -1.6662    0.9586   -2.6977 O   0  0  0  0  0  0  0  0  0  0  0  0
    1.0680    0.1597    0.6165 C   0  0  0  0  0  0  0  0  0  0  0  0
    2.2750    0.0756    0.8227 O   0  0  0  0  0  0  0  0  0  0  0  0
    0.2421    0.6077    1.6319 N   0  0  0  0  0  0  0  0  0  0  0  0
   -0.7509    0.6197    1.4211 H   0  0  0  0  0  0  0  0  0  0  0  0
    0.6869    0.8220    2.9997 C   0  0  0  0  0  0  0  0  0  0  0  0
    1.4949    1.5601    3.0275 H   0  0  0  0  0  0  0  0  0  0  0  0
   -0.1416    1.1941    3.6092 H   0  0  0  0  0  0  0  0  0  0  0  0
    1.0466   -0.1158    3.4350 H   0  0  0  0  0  0  0  0  0  0  0  0
  1  2  1  0  0  0  0
  2  3  1  0  0  0  0
  2  4  1  0  0  0  0
  2  5  1  0  0  0  0
  5  6  2  0  0  0  0
  5  7  1  0  0  0  0
  7  8  1  0  0  0  0
  7  9  1  0  0  0  0
  9 10  1  0  0  0  0
  9 11  1  0  0  0  0
  9 17  1  0  0  0  0
 11 12  1  0  0  0  0
 11 13  1  0  0  0  0
 11 14  1  0  0  0  0
 14 15  1  0  0  0  0
 14 16  2  0  0  0  0
 17 18  2  0  0  0  0
 17 19  1  0  0  0  0
 19 20  1  0  0  0  0
 19 21  1  0  0  0  0
 21 22  1  0  0  0  0
 21 23  1  0  0  0  0
 21 24  1  0  0  0  0
M  CHG  1  15  -1
M  END
$$$$

  -OEChem-03222214023D

 24 23  0     1  0  0  0  0  0999 V2000
   -2.4709   -3.6040   -0.2753 H   0  0  0  0  0  0  0  0  0  0  0  0
   -2.4251   -2.5836   -0.6652 C   0  0  0  0  0  0  0  0  0  0  0  0
   -3.2080   -1.9862   -0.1916 H   0  0  0  0  0  0  0  0  0  0  0  0
   -2.6025   -2.6092   -1.7435 H   0  0  0  0  0  0  0  0  0  0  0  0
   -1.0652   -1.9717   -0.3819 C   0  0  0  0  0  0  0  0  0  0  0  0
   -0.2349   -2.6053    0.2497 O   0  0  0  0  0  0  0  0  0  0  0  0
   -0.7931   -0.7047   -0.8424 N   0  0  0  0  0  0  0  0  0  0  0  0
   -1.5068   -0.2663   -1.4399 H   0  0  0  0  0  0  0  0  0  0  0  0
    0.5071   -0.0239   -0.8091 C   0  0  1  0  0  0  0  0  0  0  0  0
    1.2119   -0.6547   -1.3611 H   0  0  0  0  0  0  0  0  0  0  0  0
    0.4424    1.3506   -1.5341 C   0  0  0  0  0  0  0  0  0  0  0  0
    0.1747    2.1220   -0.8076 H   0  0  0  0  0  0  0  0  0  0  0  0
    1.4459    1.5896   -1.8981 H   0  0  0  0  0  0  0  0  0  0  0  0
   -0.5488    1.5009   -2.6953 C   0  0  0  0  0  0  0  0  0  0  0  0
   -0.1227    2.0633   -3.7303 O   0  5  0  0  0  0  0  0  0  0  0  0
   -1.7414    1.1217   -2.5346 O   0  0  0  0  0  0  0  0  0  0  0  0
    1.0763    0.1561    0.6169 C   0  0  0  0  0  0  0  0  0  0  0  0
    2.2813    0.0724    0.8338 O   0  0  0  0  0  0  0  0  0  0  0  0
    0.2413    0.5977    1.6278 N   0  0  0  0  0  0  0  0  0  0  0  0
   -0.7487    0.6268    1.4047 H   0  0  0  0  0  0  0  0  0  0  0  0
    0.6741    0.8130    2.9993 C   0  0  0  0  0  0  0  0  0  0  0  0
    1.4757    1.5577    3.0351 H   0  0  0  0  0  0  0  0  0  0  0  0
   -0.1619    1.1766    3.6037 H   0  0  0  0  0  0  0  0  0  0  0  0
    1.0383   -0.1227    3.4354 H   0  0  0  0  0  0  0  0  0  0  0  0
  1  2  1  0  0  0  0
  2  3  1  0  0  0  0
  2  4  1  0  0  0  0
  2  5  1  0  0  0  0
  5  6  2  0  0  0  0
  5  7  1  0  0  0  0
  7  8  1  0  0  0  0
  7  9  1  0  0  0  0
  9 10  1  0  0  0  0
  9 11  1  0  0  0  0
  9 17  1  0  0  0  0
 11 12  1  0  0  0  0
 11 13  1  0  0  0  0
 11 14  1  0  0  0  0
 14 15  1  0  0  0  0
 14 16  2  0  0  0  0
 17 18  2  0  0  0  0
 17 19  1  0  0  0  0
 19 20  1  0  0  0  0
 19 21  1  0  0  0  0
 21 22  1  0  0  0  0
 21 23  1  0  0  0  0
 21 24  1  0  0  0  0
M  CHG  1  15  -1
M  END
$$$$

  -OEChem-03222214023D

 24 23  0     1  0  0  0  0  0999 V2000
   -2.4801   -3.5698   -0.2614 H   0  0  0  0  0  0  0  0  0  0  0  0
   -2.4268   -2.5503   -0.6530 C   0  0  0  0  0  0  0  0  0  0  0  0
   -3.1837   -1.9391   -0.1553 H   0  0  0  0  0  0  0  0  0  0  0  0
   -2.6375   -2.5720   -1.7255 H   0  0  0  0  0  0  0  0  0  0  0  0
   -1.0476   -1.9639   -0.4108 C   0  0  0  0  0  0  0  0  0  0  0  0
   -0.2109   -2.6131    0.1961 O   0  0  0  0  0  0  0  0  0  0  0  0
   -0.7695   -0.6958   -0.8653 N   0  0  0  0  0  0  0  0  0  0  0  0
   -1.4993   -0.2270   -1.4188 H   0  0  0  0  0  0  0  0  0  0  0  0
    0.5321   -0.0157   -0.8187 C   0  0  1  0  0  0  0  0  0  0  0  0
    1.2435   -0.6365   -1.3731 H   0  0  0  0  0  0  0  0  0  0  0  0
    0.4511    1.3634   -1.5286 C   0  0  0  0  0  0  0  0  0  0  0  0
    0.1722    2.1285   -0.7994 H   0  0  0  0  0  0  0  0  0  0  0  0
    1.4464    1.6221   -1.9010 H   0  0  0  0  0  0  0  0  0  0  0  0
   -0.5546    1.4710   -2.6770 C   0  0  0  0  0  0  0  0  0  0  0  0
   -0.1110    1.7612   -3.8116 O   0  5  0  0  0  0  0  0  0  0  0  0
   -1.7715    1.2602   -2.4191 O   0  0  0  0  0  0  0  0  0  0  0  0
    1.0867    0.1584    0.6132 C   0  0  0  0  0  0  0  0  0  0  0  0
    2.2886    0.0702    0.8446 O   0  0  0  0  0  0  0  0  0  0  0  0
    0.2395    0.5972    1.6152 N   0  0  0  0  0  0  0  0  0  0  0  0
   -0.7469    0.6333    1.3772 H   0  0  0  0  0  0  0  0  0  0  0  0
    0.6518    0.7950    2.9957 C   0  0  0  0  0  0  0  0  0  0  0  0
    1.4733    1.5165    3.0510 H   0  0  0  0  0  0  0  0  0  0  0  0
   -0.1854    1.1798    3.5854 H   0  0  0  0  0  0  0  0  0  0  0  0
    0.9810   -0.1526    3.4339 H   0  0  0  0  0  0  0  0  0  0  0  0
  1  2  1  0  0  0  0
  2  3  1  0  0  0  0
  2  4  1  0  0  0  0
  2  5  1  0  0  0  0
  5  6  2  0  0  0  0
  5  7  1  0  0  0  0
  7  8  1  0  0  0  0
  7  9  1  0  0  0  0
  9 10  1  0  0  0  0
  9 11  1  0  0  0  0
  9 17  1  0  0  0  0
 11 12  1  0  0  0  0
 11 13  1  0  0  0  0
 11 14  1  0  0  0  0
 14 15  1  0  0  0  0
 14 16  2  0  0  0  0
 17 18  2  0  0  0  0
 17 19  1  0  0  0  0
 19 20  1  0  0  0  0
 19 21  1  0  0  0  0
 21 22  1  0  0  0  0
 21 23  1  0  0  0  0
 21 24  1  0  0  0  0
M  CHG  1  15  -1
M  END
$$$$

  -OEChem-03222214023D

 24 23  0     1  0  0  0  0  0999 V2000
   -2.5001   -3.5440   -0.2876 H   0  0  0  0  0  0  0  0  0  0  0  0
   -2.4353   -2.5247   -0.6778 C   0  0  0  0  0  0  0  0  0  0  0  0
   -3.1878   -1.9062   -0.1823 H   0  0  0  0  0  0  0  0  0  0  0  0
   -2.6421   -2.5431   -1.7511 H   0  0  0  0  0  0  0  0  0  0  0  0
   -1.0513   -1.9524   -0.4301 C   0  0  0  0  0  0  0  0  0  0  0  0
   -0.2193   -2.6142    0.1698 O   0  0  0  0  0  0  0  0  0  0  0  0
   -0.7629   -0.6831   -0.8745 N   0  0  0  0  0  0  0  0  0  0  0  0
   -1.4957   -0.1951   -1.4067 H   0  0  0  0  0  0  0  0  0  0  0  0
    0.5437   -0.0108   -0.8156 C   0  0  1  0  0  0  0  0  0  0  0  0
    1.2554   -0.6277   -1.3743 H   0  0  0  0  0  0  0  0  0  0  0  0
    0.4549    1.3700   -1.5159 C   0  0  0  0  0  0  0  0  0  0  0  0
    0.1708    2.1335   -0.7867 H   0  0  0  0  0  0  0  0  0  0  0  0
    1.4434    1.6391   -1.8981 H   0  0  0  0  0  0  0  0  0  0  0  0
   -0.5605    1.4397   -2.6544 C   0  0  0  0  0  0  0  0  0  0  0  0
   -0.1292    1.4392   -3.8298 O   0  5  0  0  0  0  0  0  0  0  0  0
   -1.7805    1.3840   -2.3398 O   0  0  0  0  0  0  0  0  0  0  0  0
    1.0950    0.1528    0.6188 C   0  0  0  0  0  0  0  0  0  0  0  0
    2.2962    0.0624    0.8537 O   0  0  0  0  0  0  0  0  0  0  0  0
    0.2467    0.5918    1.6197 N   0  0  0  0  0  0  0  0  0  0  0  0
   -0.7377    0.6453    1.3760 H   0  0  0  0  0  0  0  0  0  0  0  0
    0.6574    0.8004    2.9989 C   0  0  0  0  0  0  0  0  0  0  0  0
    1.4674    1.5350    3.0504 H   0  0  0  0  0  0  0  0  0  0  0  0
   -0.1851    1.1736    3.5882 H   0  0  0  0  0  0  0  0  0  0  0  0
    1.0015   -0.1405    3.4400 H   0  0  0  0  0  0  0  0  0  0  0  0
  1  2  1  0  0  0  0
  2  3  1  0  0  0  0
  2  4  1  0  0  0  0
  2  5  1  0  0  0  0
  5  6  2  0  0  0  0
  5  7  1  0  0  0  0
  7  8  1  0  0  0  0
  7  9  1  0  0  0  0
  9 10  1  0  0  0  0
  9 11  1  0  0  0  0
  9 17  1  0  0  0  0
 11 12  1  0  0  0  0
 11 13  1  0  0  0  0
 11 14  1  0  0  0  0
 14 15  1  0  0  0  0
 14 16  2  0  0  0  0
 17 18  2  0  0  0  0
 17 19  1  0  0  0  0
 19 20  1  0  0  0  0
 19 21  1  0  0  0  0
 21 22  1  0  0  0  0
 21 23  1  0  0  0  0
 21 24  1  0  0  0  0
M  CHG  1  15  -1
M  END
$$$$

  -OEChem-03222214023D

 24 23  0     1  0  0  0  0  0999 V2000
   -2.5115   -3.5246   -0.3137 H   0  0  0  0  0  0  0  0  0  0  0  0
   -2.4400   -2.5051   -0.7021 C   0  0  0  0  0  0  0  0  0  0  0  0
   -3.1953   -1.8851   -0.2131 H   0  0  0  0  0  0  0  0  0  0  0  0
   -2.6362   -2.5219   -1.7774 H   0  0  0  0  0  0  0  0  0  0  0  0
   -1.0570   -1.9373   -0.4399 C   0  0  0  0  0  0  0  0  0  0  0  0
   -0.2346   -2.6018    0.1703 O   0  0  0  0  0  0  0  0  0  0  0  0
   -0.7605   -0.6683   -0.8797 N   0  0  0  0  0  0  0  0  0  0  0  0
   -1.4877   -0.1771   -1.4154 H   0  0  0  0  0  0  0  0  0  0  0  0
    0.5516   -0.0046   -0.8138 C   0  0  1  0  0  0  0  0  0  0  0  0
    1.2609   -0.6212   -1.3758 H   0  0  0  0  0  0  0  0  0  0  0  0
    0.4596    1.3770   -1.5087 C   0  0  0  0  0  0  0  0  0  0  0  0
    0.1754    2.1410   -0.7799 H   0  0  0  0  0  0  0  0  0  0  0  0
    1.4427    1.6501   -1.9015 H   0  0  0  0  0  0  0  0  0  0  0  0
   -0.5631    1.4175   -2.6386 C   0  0  0  0  0  0  0  0  0  0  0  0
   -0.1776    1.1263   -3.7936 O   0  5  0  0  0  0  0  0  0  0  0  0
   -1.7706    1.5155   -2.2935 O   0  0  0  0  0  0  0  0  0  0  0  0
    1.1014    0.1521    0.6217 C   0  0  0  0  0  0  0  0  0  0  0  0
    2.3021    0.0578    0.8578 O   0  0  0  0  0  0  0  0  0  0  0  0
    0.2538    0.5945    1.6217 N   0  0  0  0  0  0  0  0  0  0  0  0
   -0.7295    0.6551    1.3756 H   0  0  0  0  0  0  0  0  0  0  0  0
    0.6634    0.8047    3.0011 C   0  0  0  0  0  0  0  0  0  0  0  0
    1.4772    1.5352    3.0518 H   0  0  0  0  0  0  0  0  0  0  0  0
   -0.1779    1.1839    3.5883 H   0  0  0  0  0  0  0  0  0  0  0  0
    1.0025   -0.1364    3.4454 H   0  0  0  0  0  0  0  0  0  0  0  0
  1  2  1  0  0  0  0
  2  3  1  0  0  0  0
  2  4  1  0  0  0  0
  2  5  1  0  0  0  0
  5  6  2  0  0  0  0
  5  7  1  0  0  0  0
  7  8  1  0  0  0  0
  7  9  1  0  0  0  0
  9 10  1  0  0  0  0
  9 11  1  0  0  0  0
  9 17  1  0  0  0  0
 11 12  1  0  0  0  0
 11 13  1  0  0  0  0
 11 14  1  0  0  0  0
 14 15  1  0  0  0  0
 14 16  2  0  0  0  0
 17 18  2  0  0  0  0
 17 19  1  0  0  0  0
 19 20  1  0  0  0  0
 19 21  1  0  0  0  0
 21 22  1  0  0  0  0
 21 23  1  0  0  0  0
 21 24  1  0  0  0  0
M  CHG  1  15  -1
M  END
$$$$

  -OEChem-03222214023D

 24 23  0     1  0  0  0  0  0999 V2000
   -2.5209   -3.5182   -0.3452 H   0  0  0  0  0  0  0  0  0  0  0  0
   -2.4429   -2.5002   -0.7362 C   0  0  0  0  0  0  0  0  0  0  0  0
   -3.2166   -1.8820   -0.2744 H   0  0  0  0  0  0  0  0  0  0  0  0
   -2.6049   -2.5234   -1.8171 H   0  0  0  0  0  0  0  0  0  0  0  0
   -1.0720   -1.9226   -0.4341 C   0  0  0  0  0  0  0  0  0  0  0  0
   -0.2675   -2.5770    0.2102 O   0  0  0  0  0  0  0  0  0  0  0  0
   -0.7691   -0.6556   -0.8760 N   0  0  0  0  0  0  0  0  0  0  0  0
   -1.4748   -0.1873   -1.4553 H   0  0  0  0  0  0  0  0  0  0  0  0
    0.5502   -0.0034   -0.8087 C   0  0  1  0  0  0  0  0  0  0  0  0
    1.2539   -0.6245   -1.3730 H   0  0  0  0  0  0  0  0  0  0  0  0
    0.4635    1.3778   -1.5023 C   0  0  0  0  0  0  0  0  0  0  0  0
    0.1863    2.1447   -0.7734 H   0  0  0  0  0  0  0  0  0  0  0  0
    1.4439    1.6461   -1.9039 H   0  0  0  0  0  0  0  0  0  0  0  0
   -0.5643    1.4052   -2.6258 C   0  0  0  0  0  0  0  0  0  0  0  0
   -0.2659    0.8409   -3.7031 O   0  5  0  0  0  0  0  0  0  0  0  0
   -1.7378    1.6997   -2.2839 O   0  0  0  0  0  0  0  0  0  0  0  0
    1.1044    0.1512    0.6251 C   0  0  0  0  0  0  0  0  0  0  0  0
    2.3055    0.0506    0.8574 O   0  0  0  0  0  0  0  0  0  0  0  0
    0.2634    0.6031    1.6264 N   0  0  0  0  0  0  0  0  0  0  0  0
   -0.7206    0.6686    1.3840 H   0  0  0  0  0  0  0  0  0  0  0  0
    0.6804    0.8160    3.0030 C   0  0  0  0  0  0  0  0  0  0  0  0
    1.4976    1.5430    3.0478 H   0  0  0  0  0  0  0  0  0  0  0  0
   -0.1566    1.2008    3.5928 H   0  0  0  0  0  0  0  0  0  0  0  0
    1.0177   -0.1253    3.4485 H   0  0  0  0  0  0  0  0  0  0  0  0
  1  2  1  0  0  0  0
  2  3  1  0  0  0  0
  2  4  1  0  0  0  0
  2  5  1  0  0  0  0
  5  6  2  0  0  0  0
  5  7  1  0  0  0  0
  7  8  1  0  0  0  0
  7  9  1  0  0  0  0
  9 10  1  0  0  0  0
  9 11  1  0  0  0  0
  9 17  1  0  0  0  0
 11 12  1  0  0  0  0
 11 13  1  0  0  0  0
 11 14  1  0  0  0  0
 14 15  1  0  0  0  0
 14 16  2  0  0  0  0
 17 18  2  0  0  0  0
 17 19  1  0  0  0  0
 19 20  1  0  0  0  0
 19 21  1  0  0  0  0
 21 22  1  0  0  0  0
 21 23  1  0  0  0  0
 21 24  1  0  0  0  0
M  CHG  1  15  -1
M  END
$$$$

  -OEChem-03222214023D

 24 23  0     1  0  0  0  0  0999 V2000
   -2.5023   -3.5499   -0.3793 H   0  0  0  0  0  0  0  0  0  0  0  0
   -2.4308   -2.5361   -0.7821 C   0  0  0  0  0  0  0  0  0  0  0  0
   -3.2634   -1.9417   -0.3982 H   0  0  0  0  0  0  0  0  0  0  0  0
   -2.5015   -2.5838   -1.8719 H   0  0  0  0  0  0  0  0  0  0  0  0
   -1.1124   -1.9002   -0.3797 C   0  0  0  0  0  0  0  0  0  0  0  0
   -0.3484   -2.5067    0.3542 O   0  0  0  0  0  0  0  0  0  0  0  0
   -0.8131   -0.6396   -0.8438 N   0  0  0  0  0  0  0  0  0  0  0  0
   -1.4388   -0.2832   -1.5702 H   0  0  0  0  0  0  0  0  0  0  0  0
    0.5195   -0.0112   -0.7950 C   0  0  1  0  0  0  0  0  0  0  0  0
    1.2051   -0.6515   -1.3601 H   0  0  0  0  0  0  0  0  0  0  0  0
    0.4593    1.3677   -1.4964 C   0  0  0  0  0  0  0  0  0  0  0  0
    0.2123    2.1441   -0.7662 H   0  0  0  0  0  0  0  0  0  0  0  0
    1.4423    1.6063   -1.9107 H   0  0  0  0  0  0  0  0  0  0  0  0
   -0.5766    1.4210   -2.6121 C   0  0  0  0  0  0  0  0  0  0  0  0
   -0.4422    0.6210   -3.5678 O   0  5  0  0  0  0  0  0  0  0  0  0
   -1.6248    2.0672   -2.3759 O   0  0  0  0  0  0  0  0  0  0  0  0
    1.0968    0.1500    0.6296 C   0  0  0  0  0  0  0  0  0  0  0  0
    2.2997    0.0302    0.8439 O   0  0  0  0  0  0  0  0  0  0  0  0
    0.2794    0.6286    1.6377 N   0  0  0  0  0  0  0  0  0  0  0  0
   -0.7090    0.6918    1.4132 H   0  0  0  0  0  0  0  0  0  0  0  0
    0.7181    0.8345    3.0085 C   0  0  0  0  0  0  0  0  0  0  0  0
    1.5605    1.5329    3.0403 H   0  0  0  0  0  0  0  0  0  0  0  0
   -0.0987    1.2520    3.6043 H   0  0  0  0  0  0  0  0  0  0  0  0
    1.0265   -0.1156    3.4563 H   0  0  0  0  0  0  0  0  0  0  0  0
  1  2  1  0  0  0  0
  2  3  1  0  0  0  0
  2  4  1  0  0  0  0
  2  5  1  0  0  0  0
  5  6  2  0  0  0  0
  5  7  1  0  0  0  0
  7  8  1  0  0  0  0
  7  9  1  0  0  0  0
  9 10  1  0  0  0  0
  9 11  1  0  0  0  0
  9 17  1  0  0  0  0
 11 12  1  0  0  0  0
 11 13  1  0  0  0  0
 11 14  1  0  0  0  0
 14 15  1  0  0  0  0
 14 16  2  0  0  0  0
 17 18  2  0  0  0  0
 17 19  1  0  0  0  0
 19 20  1  0  0  0  0
 19 21  1  0  0  0  0
 21 22  1  0  0  0  0
 21 23  1  0  0  0  0
 21 24  1  0  0  0  0
M  CHG  1  15  -1
M  END
$$$$

  -OEChem-03222214023D

 24 23  0     1  0  0  0  0  0999 V2000
   -2.4652   -3.5894   -0.4006 H   0  0  0  0  0  0  0  0  0  0  0  0
   -2.4122   -2.5746   -0.8041 C   0  0  0  0  0  0  0  0  0  0  0  0
   -3.2902   -2.0146   -0.4730 H   0  0  0  0  0  0  0  0  0  0  0  0
   -2.4163   -2.6286   -1.8961 H   0  0  0  0  0  0  0  0  0  0  0  0
   -1.1477   -1.8829   -0.3276 C   0  0  0  0  0  0  0  0  0  0  0  0
   -0.4260   -2.4400    0.4840 O   0  0  0  0  0  0  0  0  0  0  0  0
   -0.8518   -0.6303   -0.8165 N   0  0  0  0  0  0  0  0  0  0  0  0
   -1.3945   -0.3761   -1.6477 H   0  0  0  0  0  0  0  0  0  0  0  0
    0.4895   -0.0217   -0.7839 C   0  0  1  0  0  0  0  0  0  0  0  0
    1.1614   -0.6777   -1.3474 H   0  0  0  0  0  0  0  0  0  0  0  0
    0.4453    1.3542   -1.4979 C   0  0  0  0  0  0  0  0  0  0  0  0
    0.2208    2.1369   -0.7670 H   0  0  0  0  0  0  0  0  0  0  0  0
    1.4306    1.5696   -1.9190 H   0  0  0  0  0  0  0  0  0  0  0  0
   -0.5937    1.4461   -2.6125 C   0  0  0  0  0  0  0  0  0  0  0  0
   -0.6766    0.4871   -3.4203 O   0  5  0  0  0  0  0  0  0  0  0  0
   -1.3947    2.4086   -2.5738 O   0  0  0  0  0  0  0  0  0  0  0  0
    1.0849    0.1528    0.6328 C   0  0  0  0  0  0  0  0  0  0  0  0
    2.2880    0.0126    0.8329 O   0  0  0  0  0  0  0  0  0  0  0  0
    0.2890    0.6582    1.6450 N   0  0  0  0  0  0  0  0  0  0  0  0
   -0.7043    0.7056    1.4397 H   0  0  0  0  0  0  0  0  0  0  0  0
    0.7445    0.8446    3.0134 C   0  0  0  0  0  0  0  0  0  0  0  0
    1.6110    1.5130    3.0416 H   0  0  0  0  0  0  0  0  0  0  0  0
   -0.0527    1.2892    3.6162 H   0  0  0  0  0  0  0  0  0  0  0  0
    1.0223   -0.1171    3.4567 H   0  0  0  0  0  0  0  0  0  0  0  0
  1  2  1  0  0  0  0
  2  3  1  0  0  0  0
  2  4  1  0  0  0  0
  2  5  1  0  0  0  0
  5  6  2  0  0  0  0
  5  7  1  0  0  0  0
  7  8  1  0  0  0  0
  7  9  1  0  0  0  0
  9 10  1  0  0  0  0
  9 11  1  0  0  0  0
  9 17  1  0  0  0  0
 11 12  1  0  0  0  0
 11 13  1  0  0  0  0
 11 14  1  0  0  0  0
 14 15  1  0  0  0  0
 14 16  2  0  0  0  0
 17 18  2  0  0  0  0
 17 19  1  0  0  0  0
 19 20  1  0  0  0  0
 19 21  1  0  0  0  0
 21 22  1  0  0  0  0
 21 23  1  0  0  0  0
 21 24  1  0  0  0  0
M  CHG  1  15  -1
M  END
$$$$

  -OEChem-03222214023D

 24 23  0     1  0  0  0  0  0999 V2000
   -2.4834   -3.5898   -0.3418 H   0  0  0  0  0  0  0  0  0  0  0  0
   -2.4090   -2.5946   -0.7886 C   0  0  0  0  0  0  0  0  0  0  0  0
   -3.2896   -2.0124   -0.5062 H   0  0  0  0  0  0  0  0  0  0  0  0
   -2.3850   -2.6966   -1.8768 H   0  0  0  0  0  0  0  0  0  0  0  0
   -1.1505   -1.8934   -0.3102 C   0  0  0  0  0  0  0  0  0  0  0  0
   -0.4326   -2.4386    0.5130 O   0  0  0  0  0  0  0  0  0  0  0  0
   -0.8586   -0.6426   -0.8053 N   0  0  0  0  0  0  0  0  0  0  0  0
   -1.3882   -0.4049   -1.6528 H   0  0  0  0  0  0  0  0  0  0  0  0
    0.4789   -0.0297   -0.7811 C   0  0  1  0  0  0  0  0  0  0  0  0
    1.1502   -0.6895   -1.3406 H   0  0  0  0  0  0  0  0  0  0  0  0
    0.4351    1.3426   -1.5068 C   0  0  0  0  0  0  0  0  0  0  0  0
    0.2107    2.1226   -0.7732 H   0  0  0  0  0  0  0  0  0  0  0  0
    1.4261    1.5528   -1.9166 H   0  0  0  0  0  0  0  0  0  0  0  0
   -0.5899    1.4795   -2.6358 C   0  0  0  0  0  0  0  0  0  0  0  0
   -0.9082    0.4554   -3.2960 O   0  5  0  0  0  0  0  0  0  0  0  0
   -1.1141    2.6070   -2.7875 O   0  0  0  0  0  0  0  0  0  0  0  0
    1.0787    0.1532    0.6327 C   0  0  0  0  0  0  0  0  0  0  0  0
    2.2833    0.0186    0.8277 O   0  0  0  0  0  0  0  0  0  0  0  0
    0.2852    0.6598    1.6462 N   0  0  0  0  0  0  0  0  0  0  0  0
   -0.7101    0.6913    1.4484 H   0  0  0  0  0  0  0  0  0  0  0  0
    0.7461    0.8455    3.0126 C   0  0  0  0  0  0  0  0  0  0  0  0
    1.5824    1.5513    3.0416 H   0  0  0  0  0  0  0  0  0  0  0  0
   -0.0639    1.2440    3.6302 H   0  0  0  0  0  0  0  0  0  0  0  0
    1.0714   -0.1093    3.4382 H   0  0  0  0  0  0  0  0  0  0  0  0
  1  2  1  0  0  0  0
  2  3  1  0  0  0  0
  2  4  1  0  0  0  0
  2  5  1  0  0  0  0
  5  6  2  0  0  0  0
  5  7  1  0  0  0  0
  7  8  1  0  0  0  0
  7  9  1  0  0  0  0
  9 10  1  0  0  0  0
  9 11  1  0  0  0  0
  9 17  1  0  0  0  0
 11 12  1  0  0  0  0
 11 13  1  0  0  0  0
 11 14  1  0  0  0  0
 14 15  1  0  0  0  0
 14 16  2  0  0  0  0
 17 18  2  0  0  0  0
 17 19  1  0  0  0  0
 19 20  1  0  0  0  0
 19 21  1  0  0  0  0
 21 22  1  0  0  0  0
 21 23  1  0  0  0  0
 21 24  1  0  0  0  0
M  CHG  1  15  -1
M  END
$$$$

  -OEChem-03222214023D

 24 23  0     1  0  0  0  0  0999 V2000
   -2.4464   -3.6284   -0.3428 H   0  0  0  0  0  0  0  0  0  0  0  0
   -2.4058   -2.6163   -0.7548 C   0  0  0  0  0  0  0  0  0  0  0  0
   -3.2835   -2.0596   -0.4175 H   0  0  0  0  0  0  0  0  0  0  0  0
   -2.4225   -2.6783   -1.8462 H   0  0  0  0  0  0  0  0  0  0  0  0
   -1.1408   -1.9118   -0.2991 C   0  0  0  0  0  0  0  0  0  0  0  0
   -0.4036   -2.4579    0.5061 O   0  0  0  0  0  0  0  0  0  0  0  0
   -0.8607   -0.6593   -0.7962 N   0  0  0  0  0  0  0  0  0  0  0  0
   -1.4170   -0.4043   -1.6225 H   0  0  0  0  0  0  0  0  0  0  0  0
    0.4679   -0.0302   -0.7821 C   0  0  1  0  0  0  0  0  0  0  0  0
    1.1417   -0.6925   -1.3354 H   0  0  0  0  0  0  0  0  0  0  0  0
    0.4309    1.3357   -1.5243 C   0  0  0  0  0  0  0  0  0  0  0  0
    0.2006    2.1168   -0.7939 H   0  0  0  0  0  0  0  0  0  0  0  0
    1.4309    1.5386   -1.9159 H   0  0  0  0  0  0  0  0  0  0  0  0
   -0.5698    1.5133   -2.6740 C   0  0  0  0  0  0  0  0  0  0  0  0
   -1.1297    0.5057   -3.1837 O   0  5  0  0  0  0  0  0  0  0  0  0
   -0.8090    2.6955   -3.0124 O   0  0  0  0  0  0  0  0  0  0  0  0
    1.0700    0.1607    0.6296 C   0  0  0  0  0  0  0  0  0  0  0  0
    2.2765    0.0397    0.8215 O   0  0  0  0  0  0  0  0  0  0  0  0
    0.2726    0.6581    1.6447 N   0  0  0  0  0  0  0  0  0  0  0  0
   -0.7241    0.6667    1.4519 H   0  0  0  0  0  0  0  0  0  0  0  0
    0.7343    0.8437    3.0109 C   0  0  0  0  0  0  0  0  0  0  0  0
    1.5808    1.5372    3.0385 H   0  0  0  0  0  0  0  0  0  0  0  0
   -0.0706    1.2577    3.6252 H   0  0  0  0  0  0  0  0  0  0  0  0
    1.0451   -0.1135    3.4414 H   0  0  0  0  0  0  0  0  0  0  0  0
  1  2  1  0  0  0  0
  2  3  1  0  0  0  0
  2  4  1  0  0  0  0
  2  5  1  0  0  0  0
  5  6  2  0  0  0  0
  5  7  1  0  0  0  0
  7  8  1  0  0  0  0
  7  9  1  0  0  0  0
  9 10  1  0  0  0  0
  9 11  1  0  0  0  0
  9 17  1  0  0  0  0
 11 12  1  0  0  0  0
 11 13  1  0  0  0  0
 11 14  1  0  0  0  0
 14 15  1  0  0  0  0
 14 16  2  0  0  0  0
 17 18  2  0  0  0  0
 17 19  1  0  0  0  0
 19 20  1  0  0  0  0
 19 21  1  0  0  0  0
 21 22  1  0  0  0  0
 21 23  1  0  0  0  0
 21 24  1  0  0  0  0
M  CHG  1  15  -1
M  END
$$$$

  -OEChem-03222214023D

 24 23  0     1  0  0  0  0  0999 V2000
   -2.4368   -3.6488   -0.3269 H   0  0  0  0  0  0  0  0  0  0  0  0
   -2.4097   -2.6289   -0.7202 C   0  0  0  0  0  0  0  0  0  0  0  0
   -3.2686   -2.0756   -0.3329 H   0  0  0  0  0  0  0  0  0  0  0  0
   -2.4762   -2.6693   -1.8106 H   0  0  0  0  0  0  0  0  0  0  0  0
   -1.1219   -1.9387   -0.3082 C   0  0  0  0  0  0  0  0  0  0  0  0
   -0.3546   -2.5006    0.4572 O   0  0  0  0  0  0  0  0  0  0  0  0
   -0.8521   -0.6820   -0.7996 N   0  0  0  0  0  0  0  0  0  0  0  0
   -1.4479   -0.3907   -1.5858 H   0  0  0  0  0  0  0  0  0  0  0  0
    0.4655   -0.0327   -0.7881 C   0  0  1  0  0  0  0  0  0  0  0  0
    1.1468   -0.6903   -1.3378 H   0  0  0  0  0  0  0  0  0  0  0  0
    0.4295    1.3334   -1.5340 C   0  0  0  0  0  0  0  0  0  0  0  0
    0.1883    2.1100   -0.8030 H   0  0  0  0  0  0  0  0  0  0  0  0
    1.4364    1.5385   -1.9072 H   0  0  0  0  0  0  0  0  0  0  0  0
   -0.5517    1.5410   -2.6984 C   0  0  0  0  0  0  0  0  0  0  0  0
   -1.3299    0.6170   -3.0584 O   0  5  0  0  0  0  0  0  0  0  0  0
   -0.5395    2.6844   -3.2099 O   0  0  0  0  0  0  0  0  0  0  0  0
    1.0636    0.1610    0.6250 C   0  0  0  0  0  0  0  0  0  0  0  0
    2.2715    0.0578    0.8175 O   0  0  0  0  0  0  0  0  0  0  0  0
    0.2588    0.6416    1.6425 N   0  0  0  0  0  0  0  0  0  0  0  0
   -0.7377    0.6443    1.4490 H   0  0  0  0  0  0  0  0  0  0  0  0
    0.7206    0.8442    3.0065 C   0  0  0  0  0  0  0  0  0  0  0  0
    1.5665    1.5388    3.0253 H   0  0  0  0  0  0  0  0  0  0  0  0
   -0.0841    1.2652    3.6164 H   0  0  0  0  0  0  0  0  0  0  0  0
    1.0327   -0.1076    3.4484 H   0  0  0  0  0  0  0  0  0  0  0  0
  1  2  1  0  0  0  0
  2  3  1  0  0  0  0
  2  4  1  0  0  0  0
  2  5  1  0  0  0  0
  5  6  2  0  0  0  0
  5  7  1  0  0  0  0
  7  8  1  0  0  0  0
  7  9  1  0  0  0  0
  9 10  1  0  0  0  0
  9 11  1  0  0  0  0
  9 17  1  0  0  0  0
 11 12  1  0  0  0  0
 11 13  1  0  0  0  0
 11 14  1  0  0  0  0
 14 15  1  0  0  0  0
 14 16  2  0  0  0  0
 17 18  2  0  0  0  0
 17 19  1  0  0  0  0
 19 20  1  0  0  0  0
 19 21  1  0  0  0  0
 21 22  1  0  0  0  0
 21 23  1  0  0  0  0
 21 24  1  0  0  0  0
M  CHG  1  15  -1
M  END
$$$$

  -OEChem-03222214023D

 24 23  0     1  0  0  0  0  0999 V2000
   -2.4478   -3.6415   -0.2898 H   0  0  0  0  0  0  0  0  0  0  0  0
   -2.4150   -2.6239   -0.6883 C   0  0  0  0  0  0  0  0  0  0  0  0
   -3.2515   -2.0540   -0.2767 H   0  0  0  0  0  0  0  0  0  0  0  0
   -2.5169   -2.6676   -1.7759 H   0  0  0  0  0  0  0  0  0  0  0  0
   -1.1027   -1.9550   -0.3202 C   0  0  0  0  0  0  0  0  0  0  0  0
   -0.3117   -2.5347    0.4068 O   0  0  0  0  0  0  0  0  0  0  0  0
   -0.8367   -0.6958   -0.8063 N   0  0  0  0  0  0  0  0  0  0  0  0
   -1.4734   -0.3645   -1.5430 H   0  0  0  0  0  0  0  0  0  0  0  0
    0.4722   -0.0308   -0.7964 C   0  0  1  0  0  0  0  0  0  0  0  0
    1.1605   -0.6823   -1.3446 H   0  0  0  0  0  0  0  0  0  0  0  0
    0.4317    1.3360   -1.5431 C   0  0  0  0  0  0  0  0  0  0  0  0
    0.1802    2.1097   -0.8128 H   0  0  0  0  0  0  0  0  0  0  0  0
    1.4415    1.5474   -1.9057 H   0  0  0  0  0  0  0  0  0  0  0  0
   -0.5429    1.5496   -2.7134 C   0  0  0  0  0  0  0  0  0  0  0  0
   -1.5024    0.7558   -2.9105 O   0  5  0  0  0  0  0  0  0  0  0  0
   -0.3293    2.5723   -3.4045 O   0  0  0  0  0  0  0  0  0  0  0  0
    1.0645    0.1645    0.6188 C   0  0  0  0  0  0  0  0  0  0  0  0
    2.2725    0.0725    0.8158 O   0  0  0  0  0  0  0  0  0  0  0  0
    0.2510    0.6316    1.6358 N   0  0  0  0  0  0  0  0  0  0  0  0
   -0.7446    0.6280    1.4381 H   0  0  0  0  0  0  0  0  0  0  0  0
    0.7060    0.8319    3.0024 C   0  0  0  0  0  0  0  0  0  0  0  0
    1.5327    1.5491    3.0296 H   0  0  0  0  0  0  0  0  0  0  0  0
   -0.1107    1.2233    3.6159 H   0  0  0  0  0  0  0  0  0  0  0  0
    1.0431   -0.1159    3.4340 H   0  0  0  0  0  0  0  0  0  0  0  0
  1  2  1  0  0  0  0
  2  3  1  0  0  0  0
  2  4  1  0  0  0  0
  2  5  1  0  0  0  0
  5  6  2  0  0  0  0
  5  7  1  0  0  0  0
  7  8  1  0  0  0  0
  7  9  1  0  0  0  0
  9 10  1  0  0  0  0
  9 11  1  0  0  0  0
  9 17  1  0  0  0  0
 11 12  1  0  0  0  0
 11 13  1  0  0  0  0
 11 14  1  0  0  0  0
 14 15  1  0  0  0  0
 14 16  2  0  0  0  0
 17 18  2  0  0  0  0
 17 19  1  0  0  0  0
 19 20  1  0  0  0  0
 19 21  1  0  0  0  0
 21 22  1  0  0  0  0
 21 23  1  0  0  0  0
 21 24  1  0  0  0  0
M  CHG  1  15  -1
M  END
$$$$

  -OEChem-03222214023D

 24 23  0     1  0  0  0  0  0999 V2000
   -2.4546   -3.6310   -0.2767 H   0  0  0  0  0  0  0  0  0  0  0  0
   -2.4200   -2.6109   -0.6683 C   0  0  0  0  0  0  0  0  0  0  0  0
   -3.2305   -2.0308   -0.2203 H   0  0  0  0  0  0  0  0  0  0  0  0
   -2.5633   -2.6431   -1.7515 H   0  0  0  0  0  0  0  0  0  0  0  0
   -1.0841   -1.9670   -0.3447 C   0  0  0  0  0  0  0  0  0  0  0  0
   -0.2696   -2.5712    0.3347 O   0  0  0  0  0  0  0  0  0  0  0  0
   -0.8189   -0.7038   -0.8202 N   0  0  0  0  0  0  0  0  0  0  0  0
   -1.4948   -0.3242   -1.4962 H   0  0  0  0  0  0  0  0  0  0  0  0
    0.4843   -0.0287   -0.8043 C   0  0  1  0  0  0  0  0  0  0  0  0
    1.1790   -0.6724   -1.3538 H   0  0  0  0  0  0  0  0  0  0  0  0
    0.4379    1.3417   -1.5428 C   0  0  0  0  0  0  0  0  0  0  0  0
    0.1760    2.1106   -0.8114 H   0  0  0  0  0  0  0  0  0  0  0  0
    1.4480    1.5643   -1.8985 H   0  0  0  0  0  0  0  0  0  0  0  0
   -0.5393    1.5427   -2.7126 C   0  0  0  0  0  0  0  0  0  0  0  0
   -1.6344    0.9180   -2.7437 O   0  5  0  0  0  0  0  0  0  0  0  0
   -0.1827    2.3733   -3.5799 O   0  0  0  0  0  0  0  0  0  0  0  0
    1.0681    0.1605    0.6151 C   0  0  0  0  0  0  0  0  0  0  0  0
    2.2753    0.0752    0.8196 O   0  0  0  0  0  0  0  0  0  0  0  0
    0.2446    0.6139    1.6303 N   0  0  0  0  0  0  0  0  0  0  0  0
   -0.7490    0.6204    1.4222 H   0  0  0  0  0  0  0  0  0  0  0  0
    0.6896    0.8234    2.9988 C   0  0  0  0  0  0  0  0  0  0  0  0
    1.5130    1.5443    3.0281 H   0  0  0  0  0  0  0  0  0  0  0  0
   -0.1330    1.2150    3.6044 H   0  0  0  0  0  0  0  0  0  0  0  0
    1.0280   -0.1204    3.4380 H   0  0  0  0  0  0  0  0  0  0  0  0
  1  2  1  0  0  0  0
  2  3  1  0  0  0  0
  2  4  1  0  0  0  0
  2  5  1  0  0  0  0
  5  6  2  0  0  0  0
  5  7  1  0  0  0  0
  7  8  1  0  0  0  0
  7  9  1  0  0  0  0
  9 10  1  0  0  0  0
  9 11  1  0  0  0  0
  9 17  1  0  0  0  0
 11 12  1  0  0  0  0
 11 13  1  0  0  0  0
 11 14  1  0  0  0  0
 14 15  1  0  0  0  0
 14 16  2  0  0  0  0
 17 18  2  0  0  0  0
 17 19  1  0  0  0  0
 19 20  1  0  0  0  0
 19 21  1  0  0  0  0
 21 22  1  0  0  0  0
 21 23  1  0  0  0  0
 21 24  1  0  0  0  0
M  CHG  1  15  -1
M  END
$$$$

  -OEChem-03222214023D

 24 23  0     1  0  0  0  0  0999 V2000
   -2.4734   -3.6074   -0.2759 H   0  0  0  0  0  0  0  0  0  0  0  0
   -2.4278   -2.5878   -0.6679 C   0  0  0  0  0  0  0  0  0  0  0  0
   -3.2159   -1.9921   -0.2010 H   0  0  0  0  0  0  0  0  0  0  0  0
   -2.5971   -2.6161   -1.7474 H   0  0  0  0  0  0  0  0  0  0  0  0
   -1.0718   -1.9710   -0.3760 C   0  0  0  0  0  0  0  0  0  0  0  0
   -0.2465   -2.5993    0.2676 O   0  0  0  0  0  0  0  0  0  0  0  0
   -0.7990   -0.7048   -0.8388 N   0  0  0  0  0  0  0  0  0  0  0  0
   -1.5031   -0.2779   -1.4554 H   0  0  0  0  0  0  0  0  0  0  0  0
    0.5031   -0.0276   -0.8084 C   0  0  1  0  0  0  0  0  0  0  0  0
    1.2047   -0.6615   -1.3608 H   0  0  0  0  0  0  0  0  0  0  0  0
    0.4458    1.3480   -1.5337 C   0  0  0  0  0  0  0  0  0  0  0  0
    0.1734    2.1125   -0.8017 H   0  0  0  0  0  0  0  0  0  0  0  0
    1.4516    1.5864   -1.8913 H   0  0  0  0  0  0  0  0  0  0  0  0
   -0.5420    1.5149   -2.6965 C   0  0  0  0  0  0  0  0  0  0  0  0
   -1.7227    1.0891   -2.5701 O   0  5  0  0  0  0  0  0  0  0  0  0
   -0.1078    2.0901   -3.7209 O   0  0  0  0  0  0  0  0  0  0  0  0
    1.0754    0.1521    0.6166 C   0  0  0  0  0  0  0  0  0  0  0  0
    2.2809    0.0683    0.8310 O   0  0  0  0  0  0  0  0  0  0  0  0
    0.2426    0.5970    1.6279 N   0  0  0  0  0  0  0  0  0  0  0  0
   -0.7478    0.6243    1.4068 H   0  0  0  0  0  0  0  0  0  0  0  0
    0.6784    0.8196    2.9973 C   0  0  0  0  0  0  0  0  0  0  0  0
    1.4814    1.5630    3.0275 H   0  0  0  0  0  0  0  0  0  0  0  0
   -0.1561    1.1885    3.6006 H   0  0  0  0  0  0  0  0  0  0  0  0
    1.0414   -0.1142    3.4383 H   0  0  0  0  0  0  0  0  0  0  0  0
  1  2  1  0  0  0  0
  2  3  1  0  0  0  0
  2  4  1  0  0  0  0
  2  5  1  0  0  0  0
  5  6  2  0  0  0  0
  5  7  1  0  0  0  0
  7  8  1  0  0  0  0
  7  9  1  0  0  0  0
  9 10  1  0  0  0  0
  9 11  1  0  0  0  0
  9 17  1  0  0  0  0
 11 12  1  0  0  0  0
 11 13  1  0  0  0  0
 11 14  1  0  0  0  0
 14 15  1  0  0  0  0
 14 16  2  0  0  0  0
 17 18  2  0  0  0  0
 17 19  1  0  0  0  0
 19 20  1  0  0  0  0
 19 21  1  0  0  0  0
 21 22  1  0  0  0  0
 21 23  1  0  0  0  0
 21 24  1  0  0  0  0
M  CHG  1  15  -1
M  END
$$$$

  -OEChem-03222214023D

 24 23  0     1  0  0  0  0  0999 V2000
   -2.4853   -3.5713   -0.2743 H   0  0  0  0  0  0  0  0  0  0  0  0
   -2.4290   -2.5518   -0.6654 C   0  0  0  0  0  0  0  0  0  0  0  0
   -3.1903   -1.9407   -0.1743 H   0  0  0  0  0  0  0  0  0  0  0  0
   -2.6301   -2.5732   -1.7397 H   0  0  0  0  0  0  0  0  0  0  0  0
   -1.0521   -1.9653   -0.4115 C   0  0  0  0  0  0  0  0  0  0  0  0
   -0.2181   -2.6168    0.1968 O   0  0  0  0  0  0  0  0  0  0  0  0
   -0.7709   -0.6973   -0.8637 N   0  0  0  0  0  0  0  0  0  0  0  0
   -1.4987   -0.2279   -1.4193 H   0  0  0  0  0  0  0  0  0  0  0  0
    0.5314   -0.0191   -0.8150 C   0  0  1  0  0  0  0  0  0  0  0  0
    1.2419   -0.6415   -1.3690 H   0  0  0  0  0  0  0  0  0  0  0  0
    0.4533    1.3591   -1.5267 C   0  0  0  0  0  0  0  0  0  0  0  0
    0.1672    2.1205   -0.7964 H   0  0  0  0  0  0  0  0  0  0  0  0
    1.4493    1.6210   -1.8947 H   0  0  0  0  0  0  0  0  0  0  0  0
   -0.5505    1.4653   -2.6771 C   0  0  0  0  0  0  0  0  0  0  0  0
   -1.7684    1.2581   -2.4208 O   0  5  0  0  0  0  0  0  0  0  0  0
   -0.1021    1.7345   -3.8149 O   0  0  0  0  0  0  0  0  0  0  0  0
    1.0870    0.1537    0.6170 C   0  0  0  0  0  0  0  0  0  0  0  0
    2.2892    0.0652    0.8476 O   0  0  0  0  0  0  0  0  0  0  0  0
    0.2413    0.5934    1.6199 N   0  0  0  0  0  0  0  0  0  0  0  0
   -0.7446    0.6386    1.3816 H   0  0  0  0  0  0  0  0  0  0  0  0
    0.6572    0.8040    2.9973 C   0  0  0  0  0  0  0  0  0  0  0  0
    1.4675    1.5386    3.0447 H   0  0  0  0  0  0  0  0  0  0  0  0
   -0.1831    1.1784    3.5892 H   0  0  0  0  0  0  0  0  0  0  0  0
    1.0031   -0.1362    3.4388 H   0  0  0  0  0  0  0  0  0  0  0  0
  1  2  1  0  0  0  0
  2  3  1  0  0  0  0
  2  4  1  0  0  0  0
  2  5  1  0  0  0  0
  5  6  2  0  0  0  0
  5  7  1  0  0  0  0
  7  8  1  0  0  0  0
  7  9  1  0  0  0  0
  9 10  1  0  0  0  0
  9 11  1  0  0  0  0
  9 17  1  0  0  0  0
 11 12  1  0  0  0  0
 11 13  1  0  0  0  0
 11 14  1  0  0  0  0
 14 15  1  0  0  0  0
 14 16  2  0  0  0  0
 17 18  2  0  0  0  0
 17 19  1  0  0  0  0
 19 20  1  0  0  0  0
 19 21  1  0  0  0  0
 21 22  1  0  0  0  0
 21 23  1  0  0  0  0
 21 24  1  0  0  0  0
M  CHG  1  15  -1
M  END
$$$$

  -OEChem-03222214023D

 24 23  0     1  0  0  0  0  0999 V2000
   -2.5006   -3.5412   -0.2946 H   0  0  0  0  0  0  0  0  0  0  0  0
   -2.4327   -2.5222   -0.6852 C   0  0  0  0  0  0  0  0  0  0  0  0
   -3.1801   -1.9004   -0.1865 H   0  0  0  0  0  0  0  0  0  0  0  0
   -2.6445   -2.5400   -1.7574 H   0  0  0  0  0  0  0  0  0  0  0  0
   -1.0449   -1.9563   -0.4439 C   0  0  0  0  0  0  0  0  0  0  0  0
   -0.2121   -2.6238    0.1484 O   0  0  0  0  0  0  0  0  0  0  0  0
   -0.7538   -0.6862   -0.8843 N   0  0  0  0  0  0  0  0  0  0  0  0
   -1.4913   -0.1883   -1.4000 H   0  0  0  0  0  0  0  0  0  0  0  0
    0.5539   -0.0145   -0.8161 C   0  0  1  0  0  0  0  0  0  0  0  0
    1.2693   -0.6275   -1.3746 H   0  0  0  0  0  0  0  0  0  0  0  0
    0.4581    1.3671   -1.5111 C   0  0  0  0  0  0  0  0  0  0  0  0
    0.1638    2.1259   -0.7810 H   0  0  0  0  0  0  0  0  0  0  0  0
    1.4430    1.6473   -1.8950 H   0  0  0  0  0  0  0  0  0  0  0  0
   -0.5601    1.4123   -2.6460 C   0  0  0  0  0  0  0  0  0  0  0  0
   -1.7758    1.4482   -2.3150 O   0  5  0  0  0  0  0  0  0  0  0  0
   -0.1438    1.3481   -3.8250 O   0  0  0  0  0  0  0  0  0  0  0  0
    1.0975    0.1464    0.6214 C   0  0  0  0  0  0  0  0  0  0  0  0
    2.2971    0.0532    0.8629 O   0  0  0  0  0  0  0  0  0  0  0  0
    0.2444    0.5843    1.6187 N   0  0  0  0  0  0  0  0  0  0  0  0
   -0.7371    0.6531    1.3676 H   0  0  0  0  0  0  0  0  0  0  0  0
    0.6509    0.8058    2.9971 C   0  0  0  0  0  0  0  0  0  0  0  0
    1.4526    1.5498    3.0456 H   0  0  0  0  0  0  0  0  0  0  0  0
   -0.1969    1.1729    3.5828 H   0  0  0  0  0  0  0  0  0  0  0  0
    1.0050   -0.1285    3.4444 H   0  0  0  0  0  0  0  0  0  0  0  0
  1  2  1  0  0  0  0
  2  3  1  0  0  0  0
  2  4  1  0  0  0  0
  2  5  1  0  0  0  0
  5  6  2  0  0  0  0
  5  7  1  0  0  0  0
  7  8  1  0  0  0  0
  7  9  1  0  0  0  0
  9 10  1  0  0  0  0
  9 11  1  0  0  0  0
  9 17  1  0  0  0  0
 11 12  1  0  0  0  0
 11 13  1  0  0  0  0
 11 14  1  0  0  0  0
 14 15  1  0  0  0  0
 14 16  2  0  0  0  0
 17 18  2  0  0  0  0
 17 19  1  0  0  0  0
 19 20  1  0  0  0  0
 19 21  1  0  0  0  0
 21 22  1  0  0  0  0
 21 23  1  0  0  0  0
 21 24  1  0  0  0  0
M  CHG  1  15  -1
M  END
$$$$

  -OEChem-03222214023D

 24 23  0     1  0  0  0  0  0999 V2000
   -2.5073   -3.5388   -0.3431 H   0  0  0  0  0  0  0  0  0  0  0  0
   -2.4359   -2.5191   -0.7313 C   0  0  0  0  0  0  0  0  0  0  0  0
   -3.2062   -1.9048   -0.2587 H   0  0  0  0  0  0  0  0  0  0  0  0
   -2.6103   -2.5393   -1.8103 H   0  0  0  0  0  0  0  0  0  0  0  0
   -1.0623   -1.9403   -0.4437 C   0  0  0  0  0  0  0  0  0  0  0  0
   -0.2452   -2.5991    0.1793 O   0  0  0  0  0  0  0  0  0  0  0  0
   -0.7669   -0.6697   -0.8805 N   0  0  0  0  0  0  0  0  0  0  0  0
   -1.4883   -0.1885   -1.4282 H   0  0  0  0  0  0  0  0  0  0  0  0
    0.5490   -0.0095   -0.8061 C   0  0  1  0  0  0  0  0  0  0  0  0
    1.2591   -0.6247   -1.3691 H   0  0  0  0  0  0  0  0  0  0  0  0
    0.4564    1.3711   -1.4976 C   0  0  0  0  0  0  0  0  0  0  0  0
    0.1666    2.1338   -0.7693 H   0  0  0  0  0  0  0  0  0  0  0  0
    1.4366    1.6505   -1.8931 H   0  0  0  0  0  0  0  0  0  0  0  0
   -0.5674    1.3854   -2.6238 C   0  0  0  0  0  0  0  0  0  0  0  0
   -1.7422    1.6993   -2.3051 O   0  5  0  0  0  0  0  0  0  0  0  0
   -0.2228    0.9651   -3.7516 O   0  0  0  0  0  0  0  0  0  0  0  0
    1.0990    0.1444    0.6297 C   0  0  0  0  0  0  0  0  0  0  0  0
    2.2997    0.0469    0.8643 O   0  0  0  0  0  0  0  0  0  0  0  0
    0.2548    0.5883    1.6320 N   0  0  0  0  0  0  0  0  0  0  0  0
   -0.7274    0.6683    1.3869 H   0  0  0  0  0  0  0  0  0  0  0  0
    0.6749    0.8198    3.0048 C   0  0  0  0  0  0  0  0  0  0  0  0
    1.4672    1.5744    3.0407 H   0  0  0  0  0  0  0  0  0  0  0  0
   -0.1701    1.1775    3.6003 H   0  0  0  0  0  0  0  0  0  0  0  0
    1.0471   -0.1081    3.4506 H   0  0  0  0  0  0  0  0  0  0  0  0
  1  2  1  0  0  0  0
  2  3  1  0  0  0  0
  2  4  1  0  0  0  0
  2  5  1  0  0  0  0
  5  6  2  0  0  0  0
  5  7  1  0  0  0  0
  7  8  1  0  0  0  0
  7  9  1  0  0  0  0
  9 10  1  0  0  0  0
  9 11  1  0  0  0  0
  9 17  1  0  0  0  0
 11 12  1  0  0  0  0
 11 13  1  0  0  0  0
 11 14  1  0  0  0  0
 14 15  1  0  0  0  0
 14 16  2  0  0  0  0
 17 18  2  0  0  0  0
 17 19  1  0  0  0  0
 19 20  1  0  0  0  0
 19 21  1  0  0  0  0
 21 22  1  0  0  0  0
 21 23  1  0  0  0  0
 21 24  1  0  0  0  0
M  CHG  1  15  -1
M  END
$$$$

  -OEChem-03222214023D

 24 23  0     1  0  0  0  0  0999 V2000
   -2.4942   -3.5544   -0.3646 H   0  0  0  0  0  0  0  0  0  0  0  0
   -2.4223   -2.5443   -0.7770 C   0  0  0  0  0  0  0  0  0  0  0  0
   -3.2496   -1.9436   -0.3912 H   0  0  0  0  0  0  0  0  0  0  0  0
   -2.5015   -2.6005   -1.8659 H   0  0  0  0  0  0  0  0  0  0  0  0
   -1.0985   -1.9104   -0.3903 C   0  0  0  0  0  0  0  0  0  0  0  0
   -0.3233   -2.5218    0.3277 O   0  0  0  0  0  0  0  0  0  0  0  0
   -0.8059   -0.6463   -0.8496 N   0  0  0  0  0  0  0  0  0  0  0  0
   -1.4485   -0.2743   -1.5528 H   0  0  0  0  0  0  0  0  0  0  0  0
    0.5226   -0.0087   -0.7972 C   0  0  1  0  0  0  0  0  0  0  0  0
    1.2136   -0.6423   -1.3630 H   0  0  0  0  0  0  0  0  0  0  0  0
    0.4546    1.3720   -1.4941 C   0  0  0  0  0  0  0  0  0  0  0  0
    0.1968    2.1424   -0.7616 H   0  0  0  0  0  0  0  0  0  0  0  0
    1.4357    1.6254   -1.9035 H   0  0  0  0  0  0  0  0  0  0  0  0
   -0.5801    1.4193   -2.6104 C   0  0  0  0  0  0  0  0  0  0  0  0
   -1.6456    2.0338   -2.3658 O   0  5  0  0  0  0  0  0  0  0  0  0
   -0.4097    0.6651   -3.5967 O   0  0  0  0  0  0  0  0  0  0  0  0
    1.0953    0.1510    0.6297 C   0  0  0  0  0  0  0  0  0  0  0  0
    2.2980    0.0356    0.8475 O   0  0  0  0  0  0  0  0  0  0  0  0
    0.2722    0.6202    1.6377 N   0  0  0  0  0  0  0  0  0  0  0  0
   -0.7148    0.6877    1.4088 H   0  0  0  0  0  0  0  0  0  0  0  0
    0.7069    0.8275    3.0094 C   0  0  0  0  0  0  0  0  0  0  0  0
    1.5264    1.5524    3.0453 H   0  0  0  0  0  0  0  0  0  0  0  0
   -0.1219    1.2123    3.6108 H   0  0  0  0  0  0  0  0  0  0  0  0
    1.0471   -0.1160    3.4480 H   0  0  0  0  0  0  0  0  0  0  0  0
  1  2  1  0  0  0  0
  2  3  1  0  0  0  0
  2  4  1  0  0  0  0
  2  5  1  0  0  0  0
  5  6  2  0  0  0  0
  5  7  1  0  0  0  0
  7  8  1  0  0  0  0
  7  9  1  0  0  0  0
  9 10  1  0  0  0  0
  9 11  1  0  0  0  0
  9 17  1  0  0  0  0
 11 12  1  0  0  0  0
 11 13  1  0  0  0  0
 11 14  1  0  0  0  0
 14 15  1  0  0  0  0
 14 16  2  0  0  0  0
 17 18  2  0  0  0  0
 17 19  1  0  0  0  0
 19 20  1  0  0  0  0
 19 21  1  0  0  0  0
 21 22  1  0  0  0  0
 21 23  1  0  0  0  0
 21 24  1  0  0  0  0
M  CHG  1  15  -1
M  END
$$$$

  -OEChem-03222214023D

 24 23  0     1  0  0  0  0  0999 V2000
   -2.4892   -3.5683   -0.3692 H   0  0  0  0  0  0  0  0  0  0  0  0
   -2.4090   -2.5710   -0.8100 C   0  0  0  0  0  0  0  0  0  0  0  0
   -3.2780   -1.9800   -0.5108 H   0  0  0  0  0  0  0  0  0  0  0  0
   -2.4019   -2.6660   -1.8991 H   0  0  0  0  0  0  0  0  0  0  0  0
   -1.1348   -1.8895   -0.3448 C   0  0  0  0  0  0  0  0  0  0  0  0
   -0.4043   -2.4572    0.4517 O   0  0  0  0  0  0  0  0  0  0  0  0
   -0.8390   -0.6339   -0.8255 N   0  0  0  0  0  0  0  0  0  0  0  0
   -1.3959   -0.3586   -1.6401 H   0  0  0  0  0  0  0  0  0  0  0  0
    0.4990   -0.0190   -0.7867 C   0  0  1  0  0  0  0  0  0  0  0  0
    1.1756   -0.6691   -1.3511 H   0  0  0  0  0  0  0  0  0  0  0  0
    0.4474    1.3595   -1.4943 C   0  0  0  0  0  0  0  0  0  0  0  0
    0.2120    2.1343   -0.7585 H   0  0  0  0  0  0  0  0  0  0  0  0
    1.4313    1.5933   -1.9082 H   0  0  0  0  0  0  0  0  0  0  0  0
   -0.5904    1.4476   -2.6102 C   0  0  0  0  0  0  0  0  0  0  0  0
   -1.4865    2.3141   -2.4828 O   0  5  0  0  0  0  0  0  0  0  0  0
   -0.6359    0.5039   -3.4379 O   0  0  0  0  0  0  0  0  0  0  0  0
    1.0889    0.1513    0.6322 C   0  0  0  0  0  0  0  0  0  0  0  0
    2.2926    0.0202    0.8357 O   0  0  0  0  0  0  0  0  0  0  0  0
    0.2860    0.6480    1.6430 N   0  0  0  0  0  0  0  0  0  0  0  0
   -0.7057    0.7019    1.4307 H   0  0  0  0  0  0  0  0  0  0  0  0
    0.7361    0.8414    3.0118 C   0  0  0  0  0  0  0  0  0  0  0  0
    1.5681    1.5520    3.0443 H   0  0  0  0  0  0  0  0  0  0  0  0
   -0.0807    1.2376    3.6219 H   0  0  0  0  0  0  0  0  0  0  0  0
    1.0635   -0.1100    3.4431 H   0  0  0  0  0  0  0  0  0  0  0  0
  1  2  1  0  0  0  0
  2  3  1  0  0  0  0
  2  4  1  0  0  0  0
  2  5  1  0  0  0  0
  5  6  2  0  0  0  0
  5  7  1  0  0  0  0
  7  8  1  0  0  0  0
  7  9  1  0  0  0  0
  9 10  1  0  0  0  0
  9 11  1  0  0  0  0
  9 17  1  0  0  0  0
 11 12  1  0  0  0  0
 11 13  1  0  0  0  0
 11 14  1  0  0  0  0
 14 15  1  0  0  0  0
 14 16  2  0  0  0  0
 17 18  2  0  0  0  0
 17 19  1  0  0  0  0
 19 20  1  0  0  0  0
 19 21  1  0  0  0  0
 21 22  1  0  0  0  0
 21 23  1  0  0  0  0
 21 24  1  0  0  0  0
M  CHG  1  15  -1
M  END
$$$$

  -OEChem-03222214023D

 24 23  0     1  0  0  0  0  0999 V2000
   -2.4720   -3.5943   -0.3750 H   0  0  0  0  0  0  0  0  0  0  0  0
   -2.4051   -2.5909   -0.8044 C   0  0  0  0  0  0  0  0  0  0  0  0
   -3.2843   -2.0162   -0.5029 H   0  0  0  0  0  0  0  0  0  0  0  0
   -2.3915   -2.6734   -1.8945 H   0  0  0  0  0  0  0  0  0  0  0  0
   -1.1440   -1.8949   -0.3253 C   0  0  0  0  0  0  0  0  0  0  0  0
   -0.4245   -2.4466    0.4921 O   0  0  0  0  0  0  0  0  0  0  0  0
   -0.8504   -0.6423   -0.8144 N   0  0  0  0  0  0  0  0  0  0  0  0
   -1.3816   -0.3966   -1.6577 H   0  0  0  0  0  0  0  0  0  0  0  0
    0.4868   -0.0283   -0.7814 C   0  0  1  0  0  0  0  0  0  0  0  0
    1.1616   -0.6840   -1.3417 H   0  0  0  0  0  0  0  0  0  0  0  0
    0.4396    1.3462   -1.5007 C   0  0  0  0  0  0  0  0  0  0  0  0
    0.2049    2.1205   -0.7644 H   0  0  0  0  0  0  0  0  0  0  0  0
    1.4287    1.5738   -1.9058 H   0  0  0  0  0  0  0  0  0  0  0  0
   -0.5880    1.4673   -2.6279 C   0  0  0  0  0  0  0  0  0  0  0  0
   -1.2781    2.5128   -2.6520 O   0  5  0  0  0  0  0  0  0  0  0  0
   -0.8175    0.4538   -3.3377 O   0  0  0  0  0  0  0  0  0  0  0  0
    1.0812    0.1509    0.6350 C   0  0  0  0  0  0  0  0  0  0  0  0
    2.2859    0.0210    0.8329 O   0  0  0  0  0  0  0  0  0  0  0  0
    0.2836    0.6540    1.6472 N   0  0  0  0  0  0  0  0  0  0  0  0
   -0.7109    0.6894    1.4456 H   0  0  0  0  0  0  0  0  0  0  0  0
    0.7426    0.8509    3.0127 C   0  0  0  0  0  0  0  0  0  0  0  0
    1.5897    1.5439    3.0357 H   0  0  0  0  0  0  0  0  0  0  0  0
   -0.0631    1.2706    3.6219 H   0  0  0  0  0  0  0  0  0  0  0  0
    1.0515   -0.1030    3.4520 H   0  0  0  0  0  0  0  0  0  0  0  0
  1  2  1  0  0  0  0
  2  3  1  0  0  0  0
  2  4  1  0  0  0  0
  2  5  1  0  0  0  0
  5  6  2  0  0  0  0
  5  7  1  0  0  0  0
  7  8  1  0  0  0  0
  7  9  1  0  0  0  0
  9 10  1  0  0  0  0
  9 11  1  0  0  0  0
  9 17  1  0  0  0  0
 11 12  1  0  0  0  0
 11 13  1  0  0  0  0
 11 14  1  0  0  0  0
 14 15  1  0  0  0  0
 14 16  2  0  0  0  0
 17 18  2  0  0  0  0
 17 19  1  0  0  0  0
 19 20  1  0  0  0  0
 19 21  1  0  0  0  0
 21 22  1  0  0  0  0
 21 23  1  0  0  0  0
 21 24  1  0  0  0  0
M  CHG  1  15  -1
M  END
$$$$

  -OEChem-03222214023D

 24 23  0     1  0  0  0  0  0999 V2000
   -2.4379   -3.6291   -0.3856 H   0  0  0  0  0  0  0  0  0  0  0  0
   -2.4028   -2.6098   -0.7791 C   0  0  0  0  0  0  0  0  0  0  0  0
   -3.2846   -2.0649   -0.4338 H   0  0  0  0  0  0  0  0  0  0  0  0
   -2.4175   -2.6531   -1.8714 H   0  0  0  0  0  0  0  0  0  0  0  0
   -1.1432   -1.9056   -0.3080 C   0  0  0  0  0  0  0  0  0  0  0  0
   -0.4175   -2.4507    0.5085 O   0  0  0  0  0  0  0  0  0  0  0  0
   -0.8565   -0.6540   -0.8035 N   0  0  0  0  0  0  0  0  0  0  0  0
   -1.3943   -0.4102   -1.6449 H   0  0  0  0  0  0  0  0  0  0  0  0
    0.4764   -0.0327   -0.7805 C   0  0  1  0  0  0  0  0  0  0  0  0
    1.1512   -0.6918   -1.3366 H   0  0  0  0  0  0  0  0  0  0  0  0
    0.4326    1.3368   -1.5129 C   0  0  0  0  0  0  0  0  0  0  0  0
    0.1983    2.1134   -0.7789 H   0  0  0  0  0  0  0  0  0  0  0  0
    1.4271    1.5574   -1.9089 H   0  0  0  0  0  0  0  0  0  0  0  0
   -0.5813    1.4900   -2.6525 C   0  0  0  0  0  0  0  0  0  0  0  0
   -1.0321    2.6431   -2.8435 O   0  5  0  0  0  0  0  0  0  0  0  0
   -0.9930    0.4619   -3.2533 O   0  0  0  0  0  0  0  0  0  0  0  0
    1.0746    0.1553    0.6334 C   0  0  0  0  0  0  0  0  0  0  0  0
    2.2800    0.0286    0.8285 O   0  0  0  0  0  0  0  0  0  0  0  0
    0.2778    0.6579    1.6464 N   0  0  0  0  0  0  0  0  0  0  0  0
   -0.7178    0.6816    1.4490 H   0  0  0  0  0  0  0  0  0  0  0  0
    0.7378    0.8518    3.0121 C   0  0  0  0  0  0  0  0  0  0  0  0
    1.6030    1.5221    3.0339 H   0  0  0  0  0  0  0  0  0  0  0  0
   -0.0582    1.2974    3.6159 H   0  0  0  0  0  0  0  0  0  0  0  0
    1.0197   -0.1070    3.4586 H   0  0  0  0  0  0  0  0  0  0  0  0
  1  2  1  0  0  0  0
  2  3  1  0  0  0  0
  2  4  1  0  0  0  0
  2  5  1  0  0  0  0
  5  6  2  0  0  0  0
  5  7  1  0  0  0  0
  7  8  1  0  0  0  0
  7  9  1  0  0  0  0
  9 10  1  0  0  0  0
  9 11  1  0  0  0  0
  9 17  1  0  0  0  0
 11 12  1  0  0  0  0
 11 13  1  0  0  0  0
 11 14  1  0  0  0  0
 14 15  1  0  0  0  0
 14 16  2  0  0  0  0
 17 18  2  0  0  0  0
 17 19  1  0  0  0  0
 19 20  1  0  0  0  0
 19 21  1  0  0  0  0
 21 22  1  0  0  0  0
 21 23  1  0  0  0  0
 21 24  1  0  0  0  0
M  CHG  1  15  -1
M  END
$$$$

  -OEChem-03222214023D

 24 23  0     1  0  0  0  0  0999 V2000
   -2.4470   -3.6344   -0.3367 H   0  0  0  0  0  0  0  0  0  0  0  0
   -2.4057   -2.6222   -0.7481 C   0  0  0  0  0  0  0  0  0  0  0  0
   -3.2790   -2.0628   -0.4040 H   0  0  0  0  0  0  0  0  0  0  0  0
   -2.4313   -2.6831   -1.8394 H   0  0  0  0  0  0  0  0  0  0  0  0
   -1.1344   -1.9229   -0.3014 C   0  0  0  0  0  0  0  0  0  0  0  0
   -0.3892   -2.4744    0.4928 O   0  0  0  0  0  0  0  0  0  0  0  0
   -0.8569   -0.6693   -0.7964 N   0  0  0  0  0  0  0  0  0  0  0  0
   -1.4214   -0.4070   -1.6147 H   0  0  0  0  0  0  0  0  0  0  0  0
    0.4682   -0.0338   -0.7826 C   0  0  1  0  0  0  0  0  0  0  0  0
    1.1451   -0.6927   -1.3363 H   0  0  0  0  0  0  0  0  0  0  0  0
    0.4261    1.3331   -1.5240 C   0  0  0  0  0  0  0  0  0  0  0  0
    0.1900    2.1104   -0.7917 H   0  0  0  0  0  0  0  0  0  0  0  0
    1.4261    1.5481   -1.9091 H   0  0  0  0  0  0  0  0  0  0  0  0
   -0.5719    1.5187   -2.6759 C   0  0  0  0  0  0  0  0  0  0  0  0
   -0.7701    2.7015   -3.0380 O   0  5  0  0  0  0  0  0  0  0  0  0
   -1.1756    0.5227   -3.1580 O   0  0  0  0  0  0  0  0  0  0  0  0
    1.0695    0.1583    0.6296 C   0  0  0  0  0  0  0  0  0  0  0  0
    2.2763    0.0416    0.8219 O   0  0  0  0  0  0  0  0  0  0  0  0
    0.2698    0.6507    1.6453 N   0  0  0  0  0  0  0  0  0  0  0  0
   -0.7265    0.6604    1.4516 H   0  0  0  0  0  0  0  0  0  0  0  0
    0.7313    0.8477    3.0100 C   0  0  0  0  0  0  0  0  0  0  0  0
    1.5719    1.5486    3.0323 H   0  0  0  0  0  0  0  0  0  0  0  0
   -0.0763    1.2584    3.6228 H   0  0  0  0  0  0  0  0  0  0  0  0
    1.0501   -0.1047    3.4454 H   0  0  0  0  0  0  0  0  0  0  0  0
  1  2  1  0  0  0  0
  2  3  1  0  0  0  0
  2  4  1  0  0  0  0
  2  5  1  0  0  0  0
  5  6  2  0  0  0  0
  5  7  1  0  0  0  0
  7  8  1  0  0  0  0
  7  9  1  0  0  0  0
  9 10  1  0  0  0  0
  9 11  1  0  0  0  0
  9 17  1  0  0  0  0
 11 12  1  0  0  0  0
 11 13  1  0  0  0  0
 11 14  1  0  0  0  0
 14 15  1  0  0  0  0
 14 16  2  0  0  0  0
 17 18  2  0  0  0  0
 17 19  1  0  0  0  0
 19 20  1  0  0  0  0
 19 21  1  0  0  0  0
 21 22  1  0  0  0  0
 21 23  1  0  0  0  0
 21 24  1  0  0  0  0
M  CHG  1  15  -1
M  END
$$$$

  -OEChem-03222214023D

 24 23  0     1  0  0  0  0  0999 V2000
   -2.4225   -3.6671   -0.2555 H   0  0  0  0  0  0  0  0  0  0  0  0
   -2.4037   -2.6455   -0.6444 C   0  0  0  0  0  0  0  0  0  0  0  0
   -3.2141   -2.0753   -0.1840 H   0  0  0  0  0  0  0  0  0  0  0  0
   -2.5618   -2.6760   -1.7256 H   0  0  0  0  0  0  0  0  0  0  0  0
   -1.0702   -1.9882   -0.3374 C   0  0  0  0  0  0  0  0  0  0  0  0
   -0.2365   -2.5897    0.3209 O   0  0  0  0  0  0  0  0  0  0  0  0
   -0.8268   -0.7191   -0.8095 N   0  0  0  0  0  0  0  0  0  0  0  0
   -1.5180   -0.3436   -1.4720 H   0  0  0  0  0  0  0  0  0  0  0  0
    0.4657   -0.0235   -0.8016 C   0  0  1  0  0  0  0  0  0  0  0  0
    1.1652   -0.6633   -1.3495 H   0  0  0  0  0  0  0  0  0  0  0  0
    0.4189    1.3499   -1.5455 C   0  0  0  0  0  0  0  0  0  0  0  0
    0.4415    2.1441   -0.7937 H   0  0  0  0  0  0  0  0  0  0  0  0
    1.3409    1.4414   -2.1257 H   0  0  0  0  0  0  0  0  0  0  0  0
   -0.7462    1.7160   -2.4817 C   0  0  0  0  0  0  0  0  0  0  0  0
   -0.6583    2.8470   -3.0133 O   0  5  0  0  0  0  0  0  0  0  0  0
   -1.7118    0.9273   -2.6670 O   0  0  0  0  0  0  0  0  0  0  0  0
    1.0526    0.1661    0.6170 C   0  0  0  0  0  0  0  0  0  0  0  0
    2.2617    0.0921    0.8153 O   0  0  0  0  0  0  0  0  0  0  0  0
    0.2284    0.6007    1.6397 N   0  0  0  0  0  0  0  0  0  0  0  0
   -0.7653    0.6186    1.4321 H   0  0  0  0  0  0  0  0  0  0  0  0
    0.6789    0.8144    3.0058 C   0  0  0  0  0  0  0  0  0  0  0  0
    1.4832    1.5566    3.0321 H   0  0  0  0  0  0  0  0  0  0  0  0
   -0.1484    1.1807    3.6206 H   0  0  0  0  0  0  0  0  0  0  0  0
    1.0456   -0.1226    3.4370 H   0  0  0  0  0  0  0  0  0  0  0  0
  1  2  1  0  0  0  0
  2  3  1  0  0  0  0
  2  4  1  0  0  0  0
  2  5  1  0  0  0  0
  5  6  2  0  0  0  0
  5  7  1  0  0  0  0
  7  8  1  0  0  0  0
  7  9  1  0  0  0  0
  9 10  1  0  0  0  0
  9 11  1  0  0  0  0
  9 17  1  0  0  0  0
 11 12  1  0  0  0  0
 11 13  1  0  0  0  0
 11 14  1  0  0  0  0
 14 15  1  0  0  0  0
 14 16  2  0  0  0  0
 17 18  2  0  0  0  0
 17 19  1  0  0  0  0
 19 20  1  0  0  0  0
 19 21  1  0  0  0  0
 21 22  1  0  0  0  0
 21 23  1  0  0  0  0
 21 24  1  0  0  0  0
M  CHG  1  15  -1
M  END
$$$$

  -OEChem-03222214023D

 24 23  0     1  0  0  0  0  0999 V2000
   -2.4347   -3.6518   -0.2190 H   0  0  0  0  0  0  0  0  0  0  0  0
   -2.4082   -2.6327   -0.6141 C   0  0  0  0  0  0  0  0  0  0  0  0
   -3.1818   -2.0403   -0.1197 H   0  0  0  0  0  0  0  0  0  0  0  0
   -2.6167   -2.6635   -1.6867 H   0  0  0  0  0  0  0  0  0  0  0  0
   -1.0459   -2.0085   -0.3724 C   0  0  0  0  0  0  0  0  0  0  0  0
   -0.1876   -2.6393    0.2239 O   0  0  0  0  0  0  0  0  0  0  0  0
   -0.8027   -0.7357   -0.8332 N   0  0  0  0  0  0  0  0  0  0  0  0
   -1.5384   -0.3027   -1.4064 H   0  0  0  0  0  0  0  0  0  0  0  0
    0.4835   -0.0301   -0.8160 C   0  0  1  0  0  0  0  0  0  0  0  0
    1.1916   -0.6587   -1.3656 H   0  0  0  0  0  0  0  0  0  0  0  0
    0.4297    1.3519   -1.5436 C   0  0  0  0  0  0  0  0  0  0  0  0
    0.4502    2.1413   -0.7871 H   0  0  0  0  0  0  0  0  0  0  0  0
    1.3521    1.4488   -2.1229 H   0  0  0  0  0  0  0  0  0  0  0  0
   -0.7378    1.7183   -2.4762 C   0  0  0  0  0  0  0  0  0  0  0  0
   -0.5325    2.7055   -3.2195 O   0  5  0  0  0  0  0  0  0  0  0  0
   -1.8317    1.0937   -2.4257 O   0  0  0  0  0  0  0  0  0  0  0  0
    1.0558    0.1508    0.6094 C   0  0  0  0  0  0  0  0  0  0  0  0
    2.2631    0.0844    0.8206 O   0  0  0  0  0  0  0  0  0  0  0  0
    0.2169    0.5699    1.6265 N   0  0  0  0  0  0  0  0  0  0  0  0
   -0.7720    0.6130    1.4005 H   0  0  0  0  0  0  0  0  0  0  0  0
    0.6535    0.8103    2.9924 C   0  0  0  0  0  0  0  0  0  0  0  0
    1.4238    1.5878    3.0165 H   0  0  0  0  0  0  0  0  0  0  0  0
   -0.1912    1.1417    3.6033 H   0  0  0  0  0  0  0  0  0  0  0  0
    1.0605   -0.1070    3.4295 H   0  0  0  0  0  0  0  0  0  0  0  0
  1  2  1  0  0  0  0
  2  3  1  0  0  0  0
  2  4  1  0  0  0  0
  2  5  1  0  0  0  0
  5  6  2  0  0  0  0
  5  7  1  0  0  0  0
  7  8  1  0  0  0  0
  7  9  1  0  0  0  0
  9 10  1  0  0  0  0
  9 11  1  0  0  0  0
  9 17  1  0  0  0  0
 11 12  1  0  0  0  0
 11 13  1  0  0  0  0
 11 14  1  0  0  0  0
 14 15  1  0  0  0  0
 14 16  2  0  0  0  0
 17 18  2  0  0  0  0
 17 19  1  0  0  0  0
 19 20  1  0  0  0  0
 19 21  1  0  0  0  0
 21 22  1  0  0  0  0
 21 23  1  0  0  0  0
 21 24  1  0  0  0  0
M  CHG  1  15  -1
M  END
$$$$

  -OEChem-03222214023D

 24 23  0     1  0  0  0  0  0999 V2000
   -2.4557   -3.6268   -0.2046 H   0  0  0  0  0  0  0  0  0  0  0  0
   -2.4184   -2.6087   -0.6012 C   0  0  0  0  0  0  0  0  0  0  0  0
   -3.1539   -1.9959   -0.0740 H   0  0  0  0  0  0  0  0  0  0  0  0
   -2.6735   -2.6333   -1.6638 H   0  0  0  0  0  0  0  0  0  0  0  0
   -1.0304   -2.0218   -0.4184 C   0  0  0  0  0  0  0  0  0  0  0  0
   -0.1568   -2.6856    0.1166 O   0  0  0  0  0  0  0  0  0  0  0  0
   -0.7786   -0.7452   -0.8637 N   0  0  0  0  0  0  0  0  0  0  0  0
   -1.5461   -0.2545   -1.3409 H   0  0  0  0  0  0  0  0  0  0  0  0
    0.5077   -0.0395   -0.8264 C   0  0  1  0  0  0  0  0  0  0  0  0
    1.2241   -0.6566   -1.3785 H   0  0  0  0  0  0  0  0  0  0  0  0
    0.4468    1.3524   -1.5310 C   0  0  0  0  0  0  0  0  0  0  0  0
    0.4579    2.1357   -0.7685 H   0  0  0  0  0  0  0  0  0  0  0  0
    1.3676    1.4665   -2.1099 H   0  0  0  0  0  0  0  0  0  0  0  0
   -0.7345    1.6933   -2.4525 C   0  0  0  0  0  0  0  0  0  0  0  0
   -0.4842    2.4823   -3.3925 O   0  5  0  0  0  0  0  0  0  0  0  0
   -1.8881    1.2591   -2.1851 O   0  0  0  0  0  0  0  0  0  0  0  0
    1.0611    0.1262    0.6076 C   0  0  0  0  0  0  0  0  0  0  0  0
    2.2652    0.0582    0.8354 O   0  0  0  0  0  0  0  0  0  0  0  0
    0.2077    0.5352    1.6168 N   0  0  0  0  0  0  0  0  0  0  0  0
   -0.7710    0.6342    1.3641 H   0  0  0  0  0  0  0  0  0  0  0  0
    0.6326    0.8145    2.9790 C   0  0  0  0  0  0  0  0  0  0  0  0
    1.3481    1.6427    2.9933 H   0  0  0  0  0  0  0  0  0  0  0  0
   -0.2302    1.0906    3.5920 H   0  0  0  0  0  0  0  0  0  0  0  0
    1.1031   -0.0698    3.4205 H   0  0  0  0  0  0  0  0  0  0  0  0
  1  2  1  0  0  0  0
  2  3  1  0  0  0  0
  2  4  1  0  0  0  0
  2  5  1  0  0  0  0
  5  6  2  0  0  0  0
  5  7  1  0  0  0  0
  7  8  1  0  0  0  0
  7  9  1  0  0  0  0
  9 10  1  0  0  0  0
  9 11  1  0  0  0  0
  9 17  1  0  0  0  0
 11 12  1  0  0  0  0
 11 13  1  0  0  0  0
 11 14  1  0  0  0  0
 14 15  1  0  0  0  0
 14 16  2  0  0  0  0
 17 18  2  0  0  0  0
 17 19  1  0  0  0  0
 19 20  1  0  0  0  0
 19 21  1  0  0  0  0
 21 22  1  0  0  0  0
 21 23  1  0  0  0  0
 21 24  1  0  0  0  0
M  CHG  1  15  -1
M  END
$$$$

  -OEChem-03222214023D

 24 23  0     1  0  0  0  0  0999 V2000
   -2.4676   -3.5943   -0.1990 H   0  0  0  0  0  0  0  0  0  0  0  0
   -2.4225   -2.5749   -0.5920 C   0  0  0  0  0  0  0  0  0  0  0  0
   -3.1264   -1.9498   -0.0369 H   0  0  0  0  0  0  0  0  0  0  0  0
   -2.7142   -2.5881   -1.6453 H   0  0  0  0  0  0  0  0  0  0  0  0
   -1.0168   -2.0183   -0.4545 C   0  0  0  0  0  0  0  0  0  0  0  0
   -0.1372   -2.7057    0.0395 O   0  0  0  0  0  0  0  0  0  0  0  0
   -0.7568   -0.7401   -0.8906 N   0  0  0  0  0  0  0  0  0  0  0  0
   -1.5398   -0.2126   -1.2985 H   0  0  0  0  0  0  0  0  0  0  0  0
    0.5325   -0.0392   -0.8350 C   0  0  1  0  0  0  0  0  0  0  0  0
    1.2552   -0.6475   -1.3888 H   0  0  0  0  0  0  0  0  0  0  0  0
    0.4614    1.3587   -1.5216 C   0  0  0  0  0  0  0  0  0  0  0  0
    0.4599    2.1389   -0.7558 H   0  0  0  0  0  0  0  0  0  0  0  0
    1.3769    1.4924   -2.1048 H   0  0  0  0  0  0  0  0  0  0  0  0
   -0.7380    1.6568   -2.4285 C   0  0  0  0  0  0  0  0  0  0  0  0
   -0.4961    2.2023   -3.5296 O   0  5  0  0  0  0  0  0  0  0  0  0
   -1.8976    1.3965   -2.0047 O   0  0  0  0  0  0  0  0  0  0  0  0
    1.0685    0.1156    0.6067 C   0  0  0  0  0  0  0  0  0  0  0  0
    2.2687    0.0385    0.8513 O   0  0  0  0  0  0  0  0  0  0  0  0
    0.2025    0.5223    1.6063 N   0  0  0  0  0  0  0  0  0  0  0  0
   -0.7673    0.6534    1.3333 H   0  0  0  0  0  0  0  0  0  0  0  0
    0.6116    0.8073    2.9721 C   0  0  0  0  0  0  0  0  0  0  0  0
    1.3276    1.6351    2.9915 H   0  0  0  0  0  0  0  0  0  0  0  0
   -0.2583    1.0864    3.5737 H   0  0  0  0  0  0  0  0  0  0  0  0
    1.0760   -0.0755    3.4230 H   0  0  0  0  0  0  0  0  0  0  0  0
  1  2  1  0  0  0  0
  2  3  1  0  0  0  0
  2  4  1  0  0  0  0
  2  5  1  0  0  0  0
  5  6  2  0  0  0  0
  5  7  1  0  0  0  0
  7  8  1  0  0  0  0
  7  9  1  0  0  0  0
  9 10  1  0  0  0  0
  9 11  1  0  0  0  0
  9 17  1  0  0  0  0
 11 12  1  0  0  0  0
 11 13  1  0  0  0  0
 11 14  1  0  0  0  0
 14 15  1  0  0  0  0
 14 16  2  0  0  0  0
 17 18  2  0  0  0  0
 17 19  1  0  0  0  0
 19 20  1  0  0  0  0
 19 21  1  0  0  0  0
 21 22  1  0  0  0  0
 21 23  1  0  0  0  0
 21 24  1  0  0  0  0
M  CHG  1  15  -1
M  END
$$$$

  -OEChem-03222214023D

 24 23  0     1  0  0  0  0  0999 V2000
   -2.4848   -3.5665   -0.2130 H   0  0  0  0  0  0  0  0  0  0  0  0
   -2.4313   -2.5457   -0.6010 C   0  0  0  0  0  0  0  0  0  0  0  0
   -3.1186   -1.9143   -0.0324 H   0  0  0  0  0  0  0  0  0  0  0  0
   -2.7377   -2.5490   -1.6501 H   0  0  0  0  0  0  0  0  0  0  0  0
   -1.0166   -2.0089   -0.4804 C   0  0  0  0  0  0  0  0  0  0  0  0
   -0.1389   -2.7125   -0.0060 O   0  0  0  0  0  0  0  0  0  0  0  0
   -0.7457   -0.7300   -0.9081 N   0  0  0  0  0  0  0  0  0  0  0  0
   -1.5326   -0.1781   -1.2739 H   0  0  0  0  0  0  0  0  0  0  0  0
    0.5503   -0.0400   -0.8373 C   0  0  1  0  0  0  0  0  0  0  0  0
    1.2741   -0.6437   -1.3946 H   0  0  0  0  0  0  0  0  0  0  0  0
    0.4754    1.3636   -1.5070 C   0  0  0  0  0  0  0  0  0  0  0  0
    0.4667    2.1395   -0.7368 H   0  0  0  0  0  0  0  0  0  0  0  0
    1.3846    1.5126   -2.0965 H   0  0  0  0  0  0  0  0  0  0  0  0
   -0.7388    1.6259   -2.3990 C   0  0  0  0  0  0  0  0  0  0  0  0
   -0.5321    1.9006   -3.6031 O   0  5  0  0  0  0  0  0  0  0  0  0
   -1.8825    1.5169   -1.8774 O   0  0  0  0  0  0  0  0  0  0  0  0
    1.0753    0.1019    0.6095 C   0  0  0  0  0  0  0  0  0  0  0  0
    2.2728    0.0174    0.8646 O   0  0  0  0  0  0  0  0  0  0  0  0
    0.2021    0.5107    1.6022 N   0  0  0  0  0  0  0  0  0  0  0  0
   -0.7582    0.6748    1.3126 H   0  0  0  0  0  0  0  0  0  0  0  0
    0.6042    0.8127    2.9665 C   0  0  0  0  0  0  0  0  0  0  0  0
    1.3062    1.6524    2.9808 H   0  0  0  0  0  0  0  0  0  0  0  0
   -0.2715    1.0811    3.5646 H   0  0  0  0  0  0  0  0  0  0  0  0
    1.0825   -0.0588    3.4247 H   0  0  0  0  0  0  0  0  0  0  0  0
  1  2  1  0  0  0  0
  2  3  1  0  0  0  0
  2  4  1  0  0  0  0
  2  5  1  0  0  0  0
  5  6  2  0  0  0  0
  5  7  1  0  0  0  0
  7  8  1  0  0  0  0
  7  9  1  0  0  0  0
  9 10  1  0  0  0  0
  9 11  1  0  0  0  0
  9 17  1  0  0  0  0
 11 12  1  0  0  0  0
 11 13  1  0  0  0  0
 11 14  1  0  0  0  0
 14 15  1  0  0  0  0
 14 16  2  0  0  0  0
 17 18  2  0  0  0  0
 17 19  1  0  0  0  0
 19 20  1  0  0  0  0
 19 21  1  0  0  0  0
 21 22  1  0  0  0  0
 21 23  1  0  0  0  0
 21 24  1  0  0  0  0
M  CHG  1  15  -1
M  END
$$$$

  -OEChem-03222214023D

 24 23  0     1  0  0  0  0  0999 V2000
   -2.4997   -3.5424   -0.2340 H   0  0  0  0  0  0  0  0  0  0  0  0
   -2.4379   -2.5208   -0.6187 C   0  0  0  0  0  0  0  0  0  0  0  0
   -3.1218   -1.8857   -0.0503 H   0  0  0  0  0  0  0  0  0  0  0  0
   -2.7421   -2.5191   -1.6685 H   0  0  0  0  0  0  0  0  0  0  0  0
   -1.0196   -1.9948   -0.4927 C   0  0  0  0  0  0  0  0  0  0  0  0
   -0.1489   -2.7049   -0.0148 O   0  0  0  0  0  0  0  0  0  0  0  0
   -0.7392   -0.7166   -0.9162 N   0  0  0  0  0  0  0  0  0  0  0  0
   -1.5228   -0.1568   -1.2756 H   0  0  0  0  0  0  0  0  0  0  0  0
    0.5627   -0.0359   -0.8372 C   0  0  1  0  0  0  0  0  0  0  0  0
    1.2860   -0.6375   -1.3973 H   0  0  0  0  0  0  0  0  0  0  0  0
    0.4845    1.3701   -1.4976 C   0  0  0  0  0  0  0  0  0  0  0  0
    0.4735    2.1454   -0.7266 H   0  0  0  0  0  0  0  0  0  0  0  0
    1.3862    1.5282   -2.0958 H   0  0  0  0  0  0  0  0  0  0  0  0
   -0.7416    1.6002   -2.3767 C   0  0  0  0  0  0  0  0  0  0  0  0
   -0.5899    1.5885   -3.6193 O   0  5  0  0  0  0  0  0  0  0  0  0
   -1.8590    1.6307   -1.7937 O   0  0  0  0  0  0  0  0  0  0  0  0
    1.0821    0.0987    0.6121 C   0  0  0  0  0  0  0  0  0  0  0  0
    2.2779    0.0068    0.8727 O   0  0  0  0  0  0  0  0  0  0  0  0
    0.2064    0.5116    1.6006 N   0  0  0  0  0  0  0  0  0  0  0  0
   -0.7484    0.6938    1.3028 H   0  0  0  0  0  0  0  0  0  0  0  0
    0.6046    0.8168    2.9652 C   0  0  0  0  0  0  0  0  0  0  0  0
    1.3110    1.6529    2.9791 H   0  0  0  0  0  0  0  0  0  0  0  0
   -0.2723    1.0924    3.5581 H   0  0  0  0  0  0  0  0  0  0  0  0
    1.0760   -0.0555    3.4292 H   0  0  0  0  0  0  0  0  0  0  0  0
  1  2  1  0  0  0  0
  2  3  1  0  0  0  0
  2  4  1  0  0  0  0
  2  5  1  0  0  0  0
  5  6  2  0  0  0  0
  5  7  1  0  0  0  0
  7  8  1  0  0  0  0
  7  9  1  0  0  0  0
  9 10  1  0  0  0  0
  9 11  1  0  0  0  0
  9 17  1  0  0  0  0
 11 12  1  0  0  0  0
 11 13  1  0  0  0  0
 11 14  1  0  0  0  0
 14 15  1  0  0  0  0
 14 16  2  0  0  0  0
 17 18  2  0  0  0  0
 17 19  1  0  0  0  0
 19 20  1  0  0  0  0
 19 21  1  0  0  0  0
 21 22  1  0  0  0  0
 21 23  1  0  0  0  0
 21 24  1  0  0  0  0
M  CHG  1  15  -1
M  END
$$$$

  -OEChem-03222214023D

 24 23  0     1  0  0  0  0  0999 V2000
   -2.5154   -3.5312   -0.2696 H   0  0  0  0  0  0  0  0  0  0  0  0
   -2.4471   -2.5093   -0.6525 C   0  0  0  0  0  0  0  0  0  0  0  0
   -3.1468   -1.8768   -0.1006 H   0  0  0  0  0  0  0  0  0  0  0  0
   -2.7251   -2.5079   -1.7096 H   0  0  0  0  0  0  0  0  0  0  0  0
   -1.0335   -1.9798   -0.4922 C   0  0  0  0  0  0  0  0  0  0  0  0
   -0.1749   -2.6867    0.0118 O   0  0  0  0  0  0  0  0  0  0  0  0
   -0.7443   -0.7026   -0.9134 N   0  0  0  0  0  0  0  0  0  0  0  0
   -1.5160   -0.1509   -1.3062 H   0  0  0  0  0  0  0  0  0  0  0  0
    0.5641   -0.0316   -0.8310 C   0  0  1  0  0  0  0  0  0  0  0  0
    1.2826   -0.6367   -1.3933 H   0  0  0  0  0  0  0  0  0  0  0  0
    0.4909    1.3736   -1.4902 C   0  0  0  0  0  0  0  0  0  0  0  0
    0.4818    2.1512   -0.7212 H   0  0  0  0  0  0  0  0  0  0  0  0
    1.3875    1.5311   -2.0956 H   0  0  0  0  0  0  0  0  0  0  0  0
   -0.7409    1.5815   -2.3623 C   0  0  0  0  0  0  0  0  0  0  0  0
   -0.6604    1.2823   -3.5752 O   0  5  0  0  0  0  0  0  0  0  0  0
   -1.8233    1.7717   -1.7489 O   0  0  0  0  0  0  0  0  0  0  0  0
    1.0863    0.0985    0.6173 C   0  0  0  0  0  0  0  0  0  0  0  0
    2.2828    0.0031    0.8747 O   0  0  0  0  0  0  0  0  0  0  0  0
    0.2152    0.5175    1.6073 N   0  0  0  0  0  0  0  0  0  0  0  0
   -0.7390    0.7045    1.3108 H   0  0  0  0  0  0  0  0  0  0  0  0
    0.6199    0.8303    2.9681 C   0  0  0  0  0  0  0  0  0  0  0  0
    1.3285    1.6646    2.9734 H   0  0  0  0  0  0  0  0  0  0  0  0
   -0.2536    1.1118    3.5632 H   0  0  0  0  0  0  0  0  0  0  0  0
    1.0917   -0.0400    3.4355 H   0  0  0  0  0  0  0  0  0  0  0  0
  1  2  1  0  0  0  0
  2  3  1  0  0  0  0
  2  4  1  0  0  0  0
  2  5  1  0  0  0  0
  5  6  2  0  0  0  0
  5  7  1  0  0  0  0
  7  8  1  0  0  0  0
  7  9  1  0  0  0  0
  9 10  1  0  0  0  0
  9 11  1  0  0  0  0
  9 17  1  0  0  0  0
 11 12  1  0  0  0  0
 11 13  1  0  0  0  0
 11 14  1  0  0  0  0
 14 15  1  0  0  0  0
 14 16  2  0  0  0  0
 17 18  2  0  0  0  0
 17 19  1  0  0  0  0
 19 20  1  0  0  0  0
 19 21  1  0  0  0  0
 21 22  1  0  0  0  0
 21 23  1  0  0  0  0
 21 24  1  0  0  0  0
M  CHG  1  15  -1
M  END
$$$$

  -OEChem-03222214023D

 24 23  0     1  0  0  0  0  0999 V2000
   -2.5284   -3.5413   -0.3150 H   0  0  0  0  0  0  0  0  0  0  0  0
   -2.4502   -2.5270   -0.7154 C   0  0  0  0  0  0  0  0  0  0  0  0
   -3.2083   -1.8993   -0.2407 H   0  0  0  0  0  0  0  0  0  0  0  0
   -2.6366   -2.5559   -1.7920 H   0  0  0  0  0  0  0  0  0  0  0  0
   -1.0680   -1.9594   -0.4478 C   0  0  0  0  0  0  0  0  0  0  0  0
   -0.2400   -2.6347    0.1432 O   0  0  0  0  0  0  0  0  0  0  0  0
   -0.7736   -0.6874   -0.8815 N   0  0  0  0  0  0  0  0  0  0  0  0
   -1.4931   -0.2131   -1.4342 H   0  0  0  0  0  0  0  0  0  0  0  0
    0.5446   -0.0311   -0.8146 C   0  0  1  0  0  0  0  0  0  0  0  0
    1.2493   -0.6502   -1.3794 H   0  0  0  0  0  0  0  0  0  0  0  0
    0.4851    1.3690   -1.4845 C   0  0  0  0  0  0  0  0  0  0  0  0
    0.4967    2.1537   -0.7224 H   0  0  0  0  0  0  0  0  0  0  0  0
    1.3745    1.5081   -2.1043 H   0  0  0  0  0  0  0  0  0  0  0  0
   -0.7533    1.5756   -2.3451 C   0  0  0  0  0  0  0  0  0  0  0  0
   -0.7869    1.0059   -3.4604 O   0  5  0  0  0  0  0  0  0  0  0  0
   -1.7630    2.0356   -1.7584 O   0  0  0  0  0  0  0  0  0  0  0  0
    1.0887    0.1054    0.6256 C   0  0  0  0  0  0  0  0  0  0  0  0
    2.2889    0.0043    0.8640 O   0  0  0  0  0  0  0  0  0  0  0  0
    0.2380    0.5428    1.6251 N   0  0  0  0  0  0  0  0  0  0  0  0
   -0.7243    0.7164    1.3470 H   0  0  0  0  0  0  0  0  0  0  0  0
    0.6630    0.8519    2.9806 C   0  0  0  0  0  0  0  0  0  0  0  0
    1.3981    1.6629    2.9749 H   0  0  0  0  0  0  0  0  0  0  0  0
   -0.1964    1.1663    3.5798 H   0  0  0  0  0  0  0  0  0  0  0  0
    1.1097   -0.0300    3.4507 H   0  0  0  0  0  0  0  0  0  0  0  0
  1  2  1  0  0  0  0
  2  3  1  0  0  0  0
  2  4  1  0  0  0  0
  2  5  1  0  0  0  0
  5  6  2  0  0  0  0
  5  7  1  0  0  0  0
  7  8  1  0  0  0  0
  7  9  1  0  0  0  0
  9 10  1  0  0  0  0
  9 11  1  0  0  0  0
  9 17  1  0  0  0  0
 11 12  1  0  0  0  0
 11 13  1  0  0  0  0
 11 14  1  0  0  0  0
 14 15  1  0  0  0  0
 14 16  2  0  0  0  0
 17 18  2  0  0  0  0
 17 19  1  0  0  0  0
 19 20  1  0  0  0  0
 19 21  1  0  0  0  0
 21 22  1  0  0  0  0
 21 23  1  0  0  0  0
 21 24  1  0  0  0  0
M  CHG  1  15  -1
M  END
$$$$

  -OEChem-03222214023D

 24 23  0     1  0  0  0  0  0999 V2000
   -2.5079   -3.5663   -0.3218 H   0  0  0  0  0  0  0  0  0  0  0  0
   -2.4307   -2.5646   -0.7533 C   0  0  0  0  0  0  0  0  0  0  0  0
   -3.2580   -1.9544   -0.3826 H   0  0  0  0  0  0  0  0  0  0  0  0
   -2.5058   -2.6416   -1.8411 H   0  0  0  0  0  0  0  0  0  0  0  0
   -1.1072   -1.9262   -0.3719 C   0  0  0  0  0  0  0  0  0  0  0  0
   -0.3264   -2.5372    0.3403 O   0  0  0  0  0  0  0  0  0  0  0  0
   -0.8178   -0.6646   -0.8403 N   0  0  0  0  0  0  0  0  0  0  0  0
   -1.4267   -0.3379   -1.5975 H   0  0  0  0  0  0  0  0  0  0  0  0
    0.5120   -0.0296   -0.8012 C   0  0  1  0  0  0  0  0  0  0  0  0
    1.1998   -0.6682   -1.3650 H   0  0  0  0  0  0  0  0  0  0  0  0
    0.4625    1.3618   -1.4929 C   0  0  0  0  0  0  0  0  0  0  0  0
    0.5048    2.1552   -0.7405 H   0  0  0  0  0  0  0  0  0  0  0  0
    1.3438    1.4742   -2.1294 H   0  0  0  0  0  0  0  0  0  0  0  0
   -0.7836    1.5899   -2.3413 C   0  0  0  0  0  0  0  0  0  0  0  0
   -0.9861    0.8017   -3.2979 O   0  5  0  0  0  0  0  0  0  0  0  0
   -1.6158    2.4313   -1.9297 O   0  0  0  0  0  0  0  0  0  0  0  0
    1.0841    0.1290    0.6269 C   0  0  0  0  0  0  0  0  0  0  0  0
    2.2856    0.0007    0.8446 O   0  0  0  0  0  0  0  0  0  0  0  0
    0.2624    0.6012    1.6343 N   0  0  0  0  0  0  0  0  0  0  0  0
   -0.7152    0.7308    1.3893 H   0  0  0  0  0  0  0  0  0  0  0  0
    0.7023    0.8467    2.9979 C   0  0  0  0  0  0  0  0  0  0  0  0
    1.4990    1.5974    3.0135 H   0  0  0  0  0  0  0  0  0  0  0  0
   -0.1330    1.2156    3.6003 H   0  0  0  0  0  0  0  0  0  0  0  0
    1.0753   -0.0780    3.4498 H   0  0  0  0  0  0  0  0  0  0  0  0
  1  2  1  0  0  0  0
  2  3  1  0  0  0  0
  2  4  1  0  0  0  0
  2  5  1  0  0  0  0
  5  6  2  0  0  0  0
  5  7  1  0  0  0  0
  7  8  1  0  0  0  0
  7  9  1  0  0  0  0
  9 10  1  0  0  0  0
  9 11  1  0  0  0  0
  9 17  1  0  0  0  0
 11 12  1  0  0  0  0
 11 13  1  0  0  0  0
 11 14  1  0  0  0  0
 14 15  1  0  0  0  0
 14 16  2  0  0  0  0
 17 18  2  0  0  0  0
 17 19  1  0  0  0  0
 19 20  1  0  0  0  0
 19 21  1  0  0  0  0
 21 22  1  0  0  0  0
 21 23  1  0  0  0  0
 21 24  1  0  0  0  0
M  CHG  1  15  -1
M  END
$$$$

  -OEChem-03222214023D

 24 23  0     1  0  0  0  0  0999 V2000
   -2.4821   -3.6029   -0.3447 H   0  0  0  0  0  0  0  0  0  0  0  0
   -2.4193   -2.5946   -0.7626 C   0  0  0  0  0  0  0  0  0  0  0  0
   -3.2708   -2.0094   -0.4067 H   0  0  0  0  0  0  0  0  0  0  0  0
   -2.4648   -2.6601   -1.8529 H   0  0  0  0  0  0  0  0  0  0  0  0
   -1.1222   -1.9286   -0.3409 C   0  0  0  0  0  0  0  0  0  0  0  0
   -0.3572   -2.5165    0.4069 O   0  0  0  0  0  0  0  0  0  0  0  0
   -0.8375   -0.6693   -0.8172 N   0  0  0  0  0  0  0  0  0  0  0  0
   -1.4218   -0.3726   -1.6089 H   0  0  0  0  0  0  0  0  0  0  0  0
    0.4897   -0.0340   -0.7880 C   0  0  1  0  0  0  0  0  0  0  0  0
    1.1727   -0.6817   -1.3473 H   0  0  0  0  0  0  0  0  0  0  0  0
    0.4431    1.3493   -1.5008 C   0  0  0  0  0  0  0  0  0  0  0  0
    0.4923    2.1449   -0.7512 H   0  0  0  0  0  0  0  0  0  0  0  0
    1.3309    1.4454   -2.1303 H   0  0  0  0  0  0  0  0  0  0  0  0
   -0.7866    1.6173   -2.3711 C   0  0  0  0  0  0  0  0  0  0  0  0
   -1.1789    0.7076   -3.1484 O   0  5  0  0  0  0  0  0  0  0  0  0
   -1.3919    2.6988   -2.1884 O   0  0  0  0  0  0  0  0  0  0  0  0
    1.0757    0.1361    0.6333 C   0  0  0  0  0  0  0  0  0  0  0  0
    2.2797    0.0106    0.8380 O   0  0  0  0  0  0  0  0  0  0  0  0
    0.2655    0.6144    1.6471 N   0  0  0  0  0  0  0  0  0  0  0  0
   -0.7202    0.7102    1.4222 H   0  0  0  0  0  0  0  0  0  0  0  0
    0.7196    0.8524    3.0075 C   0  0  0  0  0  0  0  0  0  0  0  0
    1.5314    1.5868    3.0168 H   0  0  0  0  0  0  0  0  0  0  0  0
   -0.1035    1.2394    3.6151 H   0  0  0  0  0  0  0  0  0  0  0  0
    1.0767   -0.0791    3.4580 H   0  0  0  0  0  0  0  0  0  0  0  0
  1  2  1  0  0  0  0
  2  3  1  0  0  0  0
  2  4  1  0  0  0  0
  2  5  1  0  0  0  0
  5  6  2  0  0  0  0
  5  7  1  0  0  0  0
  7  8  1  0  0  0  0
  7  9  1  0  0  0  0
  9 10  1  0  0  0  0
  9 11  1  0  0  0  0
  9 17  1  0  0  0  0
 11 12  1  0  0  0  0
 11 13  1  0  0  0  0
 11 14  1  0  0  0  0
 14 15  1  0  0  0  0
 14 16  2  0  0  0  0
 17 18  2  0  0  0  0
 17 19  1  0  0  0  0
 19 20  1  0  0  0  0
 19 21  1  0  0  0  0
 21 22  1  0  0  0  0
 21 23  1  0  0  0  0
 21 24  1  0  0  0  0
M  CHG  1  15  -1
M  END
$$$$

  -OEChem-03222214023D

 24 23  0     1  0  0  0  0  0999 V2000
   -2.4438   -3.6398   -0.3290 H   0  0  0  0  0  0  0  0  0  0  0  0
   -2.4091   -2.6211   -0.7243 C   0  0  0  0  0  0  0  0  0  0  0  0
   -3.2572   -2.0574   -0.3281 H   0  0  0  0  0  0  0  0  0  0  0  0
   -2.4884   -2.6623   -1.8139 H   0  0  0  0  0  0  0  0  0  0  0  0
   -1.1090   -1.9453   -0.3279 C   0  0  0  0  0  0  0  0  0  0  0  0
   -0.3262   -2.5265    0.4066 O   0  0  0  0  0  0  0  0  0  0  0  0
   -0.8417   -0.6834   -0.8069 N   0  0  0  0  0  0  0  0  0  0  0  0
   -1.4503   -0.3767   -1.5773 H   0  0  0  0  0  0  0  0  0  0  0  0
    0.4739   -0.0277   -0.7885 C   0  0  1  0  0  0  0  0  0  0  0  0
    1.1603   -0.6774   -1.3412 H   0  0  0  0  0  0  0  0  0  0  0  0
    0.4322    1.3478   -1.5217 C   0  0  0  0  0  0  0  0  0  0  0  0
    0.4757    2.1449   -0.7733 H   0  0  0  0  0  0  0  0  0  0  0  0
    1.3342    1.4325   -2.1325 H   0  0  0  0  0  0  0  0  0  0  0  0
   -0.7688    1.6602   -2.4247 C   0  0  0  0  0  0  0  0  0  0  0  0
   -1.3667    0.7205   -3.0148 O   0  5  0  0  0  0  0  0  0  0  0  0
   -1.1199    2.8613   -2.4834 O   0  0  0  0  0  0  0  0  0  0  0  0
    1.0642    0.1532    0.6299 C   0  0  0  0  0  0  0  0  0  0  0  0
    2.2711    0.0464    0.8281 O   0  0  0  0  0  0  0  0  0  0  0  0
    0.2525    0.6196    1.6483 N   0  0  0  0  0  0  0  0  0  0  0  0
   -0.7399    0.6666    1.4387 H   0  0  0  0  0  0  0  0  0  0  0  0
    0.7080    0.8375    3.0119 C   0  0  0  0  0  0  0  0  0  0  0  0
    1.5383    1.5507    3.0289 H   0  0  0  0  0  0  0  0  0  0  0  0
   -0.1069    1.2424    3.6188 H   0  0  0  0  0  0  0  0  0  0  0  0
    1.0400   -0.1054    3.4577 H   0  0  0  0  0  0  0  0  0  0  0  0
  1  2  1  0  0  0  0
  2  3  1  0  0  0  0
  2  4  1  0  0  0  0
  2  5  1  0  0  0  0
  5  6  2  0  0  0  0
  5  7  1  0  0  0  0
  7  8  1  0  0  0  0
  7  9  1  0  0  0  0
  9 10  1  0  0  0  0
  9 11  1  0  0  0  0
  9 17  1  0  0  0  0
 11 12  1  0  0  0  0
 11 13  1  0  0  0  0
 11 14  1  0  0  0  0
 14 15  1  0  0  0  0
 14 16  2  0  0  0  0
 17 18  2  0  0  0  0
 17 19  1  0  0  0  0
 19 20  1  0  0  0  0
 19 21  1  0  0  0  0
 21 22  1  0  0  0  0
 21 23  1  0  0  0  0
 21 24  1  0  0  0  0
M  CHG  1  15  -1
M  END
$$$$

  -OEChem-03222214023D

 24 23  0     1  0  0  0  0  0999 V2000
   -2.4368   -3.6555   -0.2865 H   0  0  0  0  0  0  0  0  0  0  0  0
   -2.4074   -2.6380   -0.6858 C   0  0  0  0  0  0  0  0  0  0  0  0
   -3.2402   -2.0679   -0.2670 H   0  0  0  0  0  0  0  0  0  0  0  0
   -2.5185   -2.6809   -1.7725 H   0  0  0  0  0  0  0  0  0  0  0  0
   -1.0921   -1.9694   -0.3291 C   0  0  0  0  0  0  0  0  0  0  0  0
   -0.2854   -2.5585    0.3728 O   0  0  0  0  0  0  0  0  0  0  0  0
   -0.8368   -0.7042   -0.8056 N   0  0  0  0  0  0  0  0  0  0  0  0
   -1.4838   -0.3674   -1.5306 H   0  0  0  0  0  0  0  0  0  0  0  0
    0.4674   -0.0292   -0.7942 C   0  0  1  0  0  0  0  0  0  0  0  0
    1.1589   -0.6756   -1.3441 H   0  0  0  0  0  0  0  0  0  0  0  0
    0.4265    1.3454   -1.5340 C   0  0  0  0  0  0  0  0  0  0  0  0
    0.4621    2.1384   -0.7810 H   0  0  0  0  0  0  0  0  0  0  0  0
    1.3398    1.4285   -2.1285 H   0  0  0  0  0  0  0  0  0  0  0  0
   -0.7516    1.6971   -2.4575 C   0  0  0  0  0  0  0  0  0  0  0  0
   -1.5474    0.8049   -2.8574 O   0  5  0  0  0  0  0  0  0  0  0  0
   -0.8630    2.9115   -2.7442 O   0  0  0  0  0  0  0  0  0  0  0  0
    1.0572    0.1562    0.6238 C   0  0  0  0  0  0  0  0  0  0  0  0
    2.2655    0.0670    0.8211 O   0  0  0  0  0  0  0  0  0  0  0  0
    0.2396    0.6075    1.6444 N   0  0  0  0  0  0  0  0  0  0  0  0
   -0.7532    0.6426    1.4357 H   0  0  0  0  0  0  0  0  0  0  0  0
    0.6941    0.8309    3.0073 C   0  0  0  0  0  0  0  0  0  0  0  0
    1.4978    1.5740    3.0254 H   0  0  0  0  0  0  0  0  0  0  0  0
   -0.1318    1.2009    3.6218 H   0  0  0  0  0  0  0  0  0  0  0  0
    1.0628   -0.1028    3.4440 H   0  0  0  0  0  0  0  0  0  0  0  0
  1  2  1  0  0  0  0
  2  3  1  0  0  0  0
  2  4  1  0  0  0  0
  2  5  1  0  0  0  0
  5  6  2  0  0  0  0
  5  7  1  0  0  0  0
  7  8  1  0  0  0  0
  7  9  1  0  0  0  0
  9 10  1  0  0  0  0
  9 11  1  0  0  0  0
  9 17  1  0  0  0  0
 11 12  1  0  0  0  0
 11 13  1  0  0  0  0
 11 14  1  0  0  0  0
 14 15  1  0  0  0  0
 14 16  2  0  0  0  0
 17 18  2  0  0  0  0
 17 19  1  0  0  0  0
 19 20  1  0  0  0  0
 19 21  1  0  0  0  0
 21 22  1  0  0  0  0
 21 23  1  0  0  0  0
 21 24  1  0  0  0  0
M  CHG  1  15  -1
M  END
$$$$

  -OEChem-03222214023D

 24 23  0     1  0  0  0  0  0999 V2000
   -2.4225   -3.6612   -0.2490 H   0  0  0  0  0  0  0  0  0  0  0  0
   -2.4028   -2.6404   -0.6400 C   0  0  0  0  0  0  0  0  0  0  0  0
   -3.2100   -2.0674   -0.1773 H   0  0  0  0  0  0  0  0  0  0  0  0
   -2.5651   -2.6725   -1.7204 H   0  0  0  0  0  0  0  0  0  0  0  0
   -1.0667   -1.9857   -0.3397 C   0  0  0  0  0  0  0  0  0  0  0  0
   -0.2313   -2.5885    0.3151 O   0  0  0  0  0  0  0  0  0  0  0  0
   -0.8234   -0.7172   -0.8129 N   0  0  0  0  0  0  0  0  0  0  0  0
   -1.5137   -0.3431   -1.4771 H   0  0  0  0  0  0  0  0  0  0  0  0
    0.4695   -0.0225   -0.8049 C   0  0  1  0  0  0  0  0  0  0  0  0
    1.1689   -0.6631   -1.3517 H   0  0  0  0  0  0  0  0  0  0  0  0
    0.4249    1.3506   -1.5492 C   0  0  0  0  0  0  0  0  0  0  0  0
    0.4482    2.1435   -0.7962 H   0  0  0  0  0  0  0  0  0  0  0  0
    1.3463    1.4364   -2.1314 H   0  0  0  0  0  0  0  0  0  0  0  0
   -0.7404    1.7157   -2.4857 C   0  0  0  0  0  0  0  0  0  0  0  0
   -1.6974    0.9196   -2.6838 O   0  5  0  0  0  0  0  0  0  0  0  0
   -0.6646    2.8555   -2.9997 O   0  0  0  0  0  0  0  0  0  0  0  0
    1.0537    0.1665    0.6149 C   0  0  0  0  0  0  0  0  0  0  0  0
    2.2620    0.0893    0.8166 O   0  0  0  0  0  0  0  0  0  0  0  0
    0.2270    0.6018    1.6353 N   0  0  0  0  0  0  0  0  0  0  0  0
   -0.7657    0.6224    1.4236 H   0  0  0  0  0  0  0  0  0  0  0  0
    0.6721    0.8107    3.0039 C   0  0  0  0  0  0  0  0  0  0  0  0
    1.4864    1.5418    3.0348 H   0  0  0  0  0  0  0  0  0  0  0  0
   -0.1539    1.1886    3.6134 H   0  0  0  0  0  0  0  0  0  0  0  0
    1.0231   -0.1310    3.4379 H   0  0  0  0  0  0  0  0  0  0  0  0
  1  2  1  0  0  0  0
  2  3  1  0  0  0  0
  2  4  1  0  0  0  0
  2  5  1  0  0  0  0
  5  6  2  0  0  0  0
  5  7  1  0  0  0  0
  7  8  1  0  0  0  0
  7  9  1  0  0  0  0
  9 10  1  0  0  0  0
  9 11  1  0  0  0  0
  9 17  1  0  0  0  0
 11 12  1  0  0  0  0
 11 13  1  0  0  0  0
 11 14  1  0  0  0  0
 14 15  1  0  0  0  0
 14 16  2  0  0  0  0
 17 18  2  0  0  0  0
 17 19  1  0  0  0  0
 19 20  1  0  0  0  0
 19 21  1  0  0  0  0
 21 22  1  0  0  0  0
 21 23  1  0  0  0  0
 21 24  1  0  0  0  0
M  CHG  1  15  -1
M  END
$$$$

  -OEChem-03222214023D

 24 23  0     1  0  0  0  0  0999 V2000
   -2.4317   -3.6493   -0.2155 H   0  0  0  0  0  0  0  0  0  0  0  0
   -2.4076   -2.6304   -0.6113 C   0  0  0  0  0  0  0  0  0  0  0  0
   -3.1847   -2.0400   -0.1201 H   0  0  0  0  0  0  0  0  0  0  0  0
   -2.6123   -2.6630   -1.6845 H   0  0  0  0  0  0  0  0  0  0  0  0
   -1.0482   -2.0016   -0.3651 C   0  0  0  0  0  0  0  0  0  0  0  0
   -0.1923   -2.6269    0.2403 O   0  0  0  0  0  0  0  0  0  0  0  0
   -0.8051   -0.7301   -0.8299 N   0  0  0  0  0  0  0  0  0  0  0  0
   -1.5331   -0.3085   -1.4211 H   0  0  0  0  0  0  0  0  0  0  0  0
    0.4820   -0.0258   -0.8159 C   0  0  1  0  0  0  0  0  0  0  0  0
    1.1887   -0.6577   -1.3636 H   0  0  0  0  0  0  0  0  0  0  0  0
    0.4308    1.3529   -1.5503 C   0  0  0  0  0  0  0  0  0  0  0  0
    0.4419    2.1401   -0.7916 H   0  0  0  0  0  0  0  0  0  0  0  0
    1.3561    1.4513   -2.1249 H   0  0  0  0  0  0  0  0  0  0  0  0
   -0.7351    1.7186   -2.4861 C   0  0  0  0  0  0  0  0  0  0  0  0
   -1.8098    1.0597   -2.4799 O   0  5  0  0  0  0  0  0  0  0  0  0
   -0.5344    2.7173   -3.2151 O   0  0  0  0  0  0  0  0  0  0  0  0
    1.0562    0.1585    0.6085 C   0  0  0  0  0  0  0  0  0  0  0  0
    2.2632    0.0863    0.8193 O   0  0  0  0  0  0  0  0  0  0  0  0
    0.2193    0.5814    1.6257 N   0  0  0  0  0  0  0  0  0  0  0  0
   -0.7706    0.6162    1.4024 H   0  0  0  0  0  0  0  0  0  0  0  0
    0.6549    0.8044    2.9950 C   0  0  0  0  0  0  0  0  0  0  0  0
    1.4494    1.5569    3.0268 H   0  0  0  0  0  0  0  0  0  0  0  0
   -0.1829    1.1607    3.6013 H   0  0  0  0  0  0  0  0  0  0  0  0
    1.0297   -0.1267    3.4317 H   0  0  0  0  0  0  0  0  0  0  0  0
  1  2  1  0  0  0  0
  2  3  1  0  0  0  0
  2  4  1  0  0  0  0
  2  5  1  0  0  0  0
  5  6  2  0  0  0  0
  5  7  1  0  0  0  0
  7  8  1  0  0  0  0
  7  9  1  0  0  0  0
  9 10  1  0  0  0  0
  9 11  1  0  0  0  0
  9 17  1  0  0  0  0
 11 12  1  0  0  0  0
 11 13  1  0  0  0  0
 11 14  1  0  0  0  0
 14 15  1  0  0  0  0
 14 16  2  0  0  0  0
 17 18  2  0  0  0  0
 17 19  1  0  0  0  0
 19 20  1  0  0  0  0
 19 21  1  0  0  0  0
 21 22  1  0  0  0  0
 21 23  1  0  0  0  0
 21 24  1  0  0  0  0
M  CHG  1  15  -1
M  END
$$$$

  -OEChem-03222214023D

 24 23  0     1  0  0  0  0  0999 V2000
   -2.4456   -3.6257   -0.1930 H   0  0  0  0  0  0  0  0  0  0  0  0
   -2.4133   -2.6084   -0.5925 C   0  0  0  0  0  0  0  0  0  0  0  0
   -3.1574   -1.9994   -0.0730 H   0  0  0  0  0  0  0  0  0  0  0  0
   -2.6595   -2.6380   -1.6571 H   0  0  0  0  0  0  0  0  0  0  0  0
   -1.0315   -2.0104   -0.3999 C   0  0  0  0  0  0  0  0  0  0  0  0
   -0.1609   -2.6619    0.1551 O   0  0  0  0  0  0  0  0  0  0  0  0
   -0.7842   -0.7360   -0.8543 N   0  0  0  0  0  0  0  0  0  0  0  0
   -1.5428   -0.2654   -1.3649 H   0  0  0  0  0  0  0  0  0  0  0  0
    0.5014   -0.0290   -0.8270 C   0  0  1  0  0  0  0  0  0  0  0  0
    1.2153   -0.6513   -1.3764 H   0  0  0  0  0  0  0  0  0  0  0  0
    0.4437    1.3572   -1.5447 C   0  0  0  0  0  0  0  0  0  0  0  0
    0.4447    2.1391   -0.7807 H   0  0  0  0  0  0  0  0  0  0  0  0
    1.3687    1.4705   -2.1172 H   0  0  0  0  0  0  0  0  0  0  0  0
   -0.7328    1.7035   -2.4717 C   0  0  0  0  0  0  0  0  0  0  0  0
   -1.8754    1.2121   -2.2635 O   0  5  0  0  0  0  0  0  0  0  0  0
   -0.4735    2.5004   -3.4027 O   0  0  0  0  0  0  0  0  0  0  0  0
    1.0604    0.1452    0.6043 C   0  0  0  0  0  0  0  0  0  0  0  0
    2.2648    0.0728    0.8289 O   0  0  0  0  0  0  0  0  0  0  0  0
    0.2114    0.5589    1.6153 N   0  0  0  0  0  0  0  0  0  0  0  0
   -0.7728    0.6245    1.3742 H   0  0  0  0  0  0  0  0  0  0  0  0
    0.6350    0.7975    2.9856 C   0  0  0  0  0  0  0  0  0  0  0  0
    1.4061    1.5738    3.0180 H   0  0  0  0  0  0  0  0  0  0  0  0
   -0.2152    1.1292    3.5887 H   0  0  0  0  0  0  0  0  0  0  0  0
    1.0365   -0.1210    3.4253 H   0  0  0  0  0  0  0  0  0  0  0  0
  1  2  1  0  0  0  0
  2  3  1  0  0  0  0
  2  4  1  0  0  0  0
  2  5  1  0  0  0  0
  5  6  2  0  0  0  0
  5  7  1  0  0  0  0
  7  8  1  0  0  0  0
  7  9  1  0  0  0  0
  9 10  1  0  0  0  0
  9 11  1  0  0  0  0
  9 17  1  0  0  0  0
 11 12  1  0  0  0  0
 11 13  1  0  0  0  0
 11 14  1  0  0  0  0
 14 15  1  0  0  0  0
 14 16  2  0  0  0  0
 17 18  2  0  0  0  0
 17 19  1  0  0  0  0
 19 20  1  0  0  0  0
 19 21  1  0  0  0  0
 21 22  1  0  0  0  0
 21 23  1  0  0  0  0
 21 24  1  0  0  0  0
M  CHG  1  15  -1
M  END
$$$$

  -OEChem-03222214023D

 24 23  0     1  0  0  0  0  0999 V2000
   -2.4583   -3.5922   -0.1841 H   0  0  0  0  0  0  0  0  0  0  0  0
   -2.4170   -2.5747   -0.5821 C   0  0  0  0  0  0  0  0  0  0  0  0
   -3.1276   -1.9508   -0.0343 H   0  0  0  0  0  0  0  0  0  0  0  0
   -2.7024   -2.5954   -1.6370 H   0  0  0  0  0  0  0  0  0  0  0  0
   -1.0156   -2.0091   -0.4390 C   0  0  0  0  0  0  0  0  0  0  0  0
   -0.1359   -2.6881    0.0665 O   0  0  0  0  0  0  0  0  0  0  0  0
   -0.7593   -0.7328   -0.8828 N   0  0  0  0  0  0  0  0  0  0  0  0
   -1.5393   -0.2164   -1.3104 H   0  0  0  0  0  0  0  0  0  0  0  0
    0.5289   -0.0299   -0.8367 C   0  0  1  0  0  0  0  0  0  0  0  0
    1.2495   -0.6430   -1.3880 H   0  0  0  0  0  0  0  0  0  0  0  0
    0.4608    1.3628   -1.5357 C   0  0  0  0  0  0  0  0  0  0  0  0
    0.4511    2.1415   -0.7686 H   0  0  0  0  0  0  0  0  0  0  0  0
    1.3802    1.4958   -2.1130 H   0  0  0  0  0  0  0  0  0  0  0  0
   -0.7352    1.6656   -2.4475 C   0  0  0  0  0  0  0  0  0  0  0  0
   -1.8963    1.3668   -2.0544 O   0  5  0  0  0  0  0  0  0  0  0  0
   -0.4820    2.2013   -3.5510 O   0  0  0  0  0  0  0  0  0  0  0  0
    1.0693    0.1320    0.6027 C   0  0  0  0  0  0  0  0  0  0  0  0
    2.2700    0.0549    0.8447 O   0  0  0  0  0  0  0  0  0  0  0  0
    0.2056    0.5416    1.6030 N   0  0  0  0  0  0  0  0  0  0  0  0
   -0.7703    0.6406    1.3394 H   0  0  0  0  0  0  0  0  0  0  0  0
    0.6096    0.7911    2.9772 C   0  0  0  0  0  0  0  0  0  0  0  0
    1.3748    1.5730    3.0151 H   0  0  0  0  0  0  0  0  0  0  0  0
   -0.2509    1.1201    3.5669 H   0  0  0  0  0  0  0  0  0  0  0  0
    1.0114   -0.1220    3.4277 H   0  0  0  0  0  0  0  0  0  0  0  0
  1  2  1  0  0  0  0
  2  3  1  0  0  0  0
  2  4  1  0  0  0  0
  2  5  1  0  0  0  0
  5  6  2  0  0  0  0
  5  7  1  0  0  0  0
  7  8  1  0  0  0  0
  7  9  1  0  0  0  0
  9 10  1  0  0  0  0
  9 11  1  0  0  0  0
  9 17  1  0  0  0  0
 11 12  1  0  0  0  0
 11 13  1  0  0  0  0
 11 14  1  0  0  0  0
 14 15  1  0  0  0  0
 14 16  2  0  0  0  0
 17 18  2  0  0  0  0
 17 19  1  0  0  0  0
 19 20  1  0  0  0  0
 19 21  1  0  0  0  0
 21 22  1  0  0  0  0
 21 23  1  0  0  0  0
 21 24  1  0  0  0  0
M  CHG  1  15  -1
M  END
$$$$

  -OEChem-03222214023D

 24 23  0     1  0  0  0  0  0999 V2000
   -2.4891   -3.5677   -0.2290 H   0  0  0  0  0  0  0  0  0  0  0  0
   -2.4337   -2.5452   -0.6126 C   0  0  0  0  0  0  0  0  0  0  0  0
   -3.1228   -1.9154   -0.0445 H   0  0  0  0  0  0  0  0  0  0  0  0
   -2.7360   -2.5442   -1.6631 H   0  0  0  0  0  0  0  0  0  0  0  0
   -1.0191   -2.0096   -0.4841 C   0  0  0  0  0  0  0  0  0  0  0  0
   -0.1436   -2.7146   -0.0079 O   0  0  0  0  0  0  0  0  0  0  0  0
   -0.7453   -0.7304   -0.9091 N   0  0  0  0  0  0  0  0  0  0  0  0
   -1.5313   -0.1765   -1.2737 H   0  0  0  0  0  0  0  0  0  0  0  0
    0.5514   -0.0418   -0.8337 C   0  0  1  0  0  0  0  0  0  0  0  0
    1.2757   -0.6463   -1.3895 H   0  0  0  0  0  0  0  0  0  0  0  0
    0.4785    1.3601   -1.5062 C   0  0  0  0  0  0  0  0  0  0  0  0
    0.4584    2.1339   -0.7339 H   0  0  0  0  0  0  0  0  0  0  0  0
    1.3897    1.5141   -2.0907 H   0  0  0  0  0  0  0  0  0  0  0  0
   -0.7348    1.6117   -2.4012 C   0  0  0  0  0  0  0  0  0  0  0  0
   -1.8763    1.5323   -1.8701 O   0  5  0  0  0  0  0  0  0  0  0  0
   -0.5314    1.8475   -3.6140 O   0  0  0  0  0  0  0  0  0  0  0  0
    1.0750    0.0992    0.6136 C   0  0  0  0  0  0  0  0  0  0  0  0
    2.2727    0.0165    0.8683 O   0  0  0  0  0  0  0  0  0  0  0  0
    0.2023    0.5082    1.6064 N   0  0  0  0  0  0  0  0  0  0  0  0
   -0.7576    0.6743    1.3169 H   0  0  0  0  0  0  0  0  0  0  0  0
    0.6071    0.8196    2.9677 C   0  0  0  0  0  0  0  0  0  0  0  0
    1.2940    1.6720    2.9764 H   0  0  0  0  0  0  0  0  0  0  0  0
   -0.2695    1.0725    3.5713 H   0  0  0  0  0  0  0  0  0  0  0  0
    1.1044   -0.0422    3.4242 H   0  0  0  0  0  0  0  0  0  0  0  0
  1  2  1  0  0  0  0
  2  3  1  0  0  0  0
  2  4  1  0  0  0  0
  2  5  1  0  0  0  0
  5  6  2  0  0  0  0
  5  7  1  0  0  0  0
  7  8  1  0  0  0  0
  7  9  1  0  0  0  0
  9 10  1  0  0  0  0
  9 11  1  0  0  0  0
  9 17  1  0  0  0  0
 11 12  1  0  0  0  0
 11 13  1  0  0  0  0
 11 14  1  0  0  0  0
 14 15  1  0  0  0  0
 14 16  2  0  0  0  0
 17 18  2  0  0  0  0
 17 19  1  0  0  0  0
 19 20  1  0  0  0  0
 19 21  1  0  0  0  0
 21 22  1  0  0  0  0
 21 23  1  0  0  0  0
 21 24  1  0  0  0  0
M  CHG  1  15  -1
M  END
$$$$

  -OEChem-03222214023D

 24 23  0     1  0  0  0  0  0999 V2000
   -2.4932   -3.5466   -0.2520 H   0  0  0  0  0  0  0  0  0  0  0  0
   -2.4343   -2.5230   -0.6320 C   0  0  0  0  0  0  0  0  0  0  0  0
   -3.1195   -1.8929   -0.0597 H   0  0  0  0  0  0  0  0  0  0  0  0
   -2.7388   -2.5171   -1.6817 H   0  0  0  0  0  0  0  0  0  0  0  0
   -1.0170   -1.9947   -0.5046 C   0  0  0  0  0  0  0  0  0  0  0  0
   -0.1459   -2.7046   -0.0276 O   0  0  0  0  0  0  0  0  0  0  0  0
   -0.7376   -0.7147   -0.9240 N   0  0  0  0  0  0  0  0  0  0  0  0
   -1.5225   -0.1543   -1.2765 H   0  0  0  0  0  0  0  0  0  0  0  0
    0.5660   -0.0348   -0.8341 C   0  0  1  0  0  0  0  0  0  0  0  0
    1.2920   -0.6350   -1.3925 H   0  0  0  0  0  0  0  0  0  0  0  0
    0.4866    1.3690   -1.4948 C   0  0  0  0  0  0  0  0  0  0  0  0
    0.4623    2.1452   -0.7249 H   0  0  0  0  0  0  0  0  0  0  0  0
    1.3870    1.5352   -2.0923 H   0  0  0  0  0  0  0  0  0  0  0  0
   -0.7420    1.5649   -2.3742 C   0  0  0  0  0  0  0  0  0  0  0  0
   -1.8367    1.7353   -1.7759 O   0  5  0  0  0  0  0  0  0  0  0  0
   -0.6168    1.4592   -3.6153 O   0  0  0  0  0  0  0  0  0  0  0  0
    1.0807    0.0975    0.6170 C   0  0  0  0  0  0  0  0  0  0  0  0
    2.2757    0.0022    0.8802 O   0  0  0  0  0  0  0  0  0  0  0  0
    0.2037    0.5095    1.6048 N   0  0  0  0  0  0  0  0  0  0  0  0
   -0.7487    0.7003    1.3051 H   0  0  0  0  0  0  0  0  0  0  0  0
    0.6031    0.8202    2.9678 C   0  0  0  0  0  0  0  0  0  0  0  0
    1.3114    1.6546    2.9776 H   0  0  0  0  0  0  0  0  0  0  0  0
   -0.2727    1.1005    3.5603 H   0  0  0  0  0  0  0  0  0  0  0  0
    1.0729   -0.0512    3.4351 H   0  0  0  0  0  0  0  0  0  0  0  0
  1  2  1  0  0  0  0
  2  3  1  0  0  0  0
  2  4  1  0  0  0  0
  2  5  1  0  0  0  0
  5  6  2  0  0  0  0
  5  7  1  0  0  0  0
  7  8  1  0  0  0  0
  7  9  1  0  0  0  0
  9 10  1  0  0  0  0
  9 11  1  0  0  0  0
  9 17  1  0  0  0  0
 11 12  1  0  0  0  0
 11 13  1  0  0  0  0
 11 14  1  0  0  0  0
 14 15  1  0  0  0  0
 14 16  2  0  0  0  0
 17 18  2  0  0  0  0
 17 19  1  0  0  0  0
 19 20  1  0  0  0  0
 19 21  1  0  0  0  0
 21 22  1  0  0  0  0
 21 23  1  0  0  0  0
 21 24  1  0  0  0  0
M  CHG  1  15  -1
M  END
$$$$

  -OEChem-03222214023D

 24 23  0     1  0  0  0  0  0999 V2000
   -2.5083   -3.5571   -0.3117 H   0  0  0  0  0  0  0  0  0  0  0  0
   -2.4392   -2.5395   -0.7057 C   0  0  0  0  0  0  0  0  0  0  0  0
   -3.1890   -1.9165   -0.2118 H   0  0  0  0  0  0  0  0  0  0  0  0
   -2.6461   -2.5611   -1.7789 H   0  0  0  0  0  0  0  0  0  0  0  0
   -1.0526   -1.9722   -0.4609 C   0  0  0  0  0  0  0  0  0  0  0  0
   -0.2124   -2.6512    0.1078 O   0  0  0  0  0  0  0  0  0  0  0  0
   -0.7668   -0.6963   -0.8898 N   0  0  0  0  0  0  0  0  0  0  0  0
   -1.5035   -0.2086   -1.4061 H   0  0  0  0  0  0  0  0  0  0  0  0
    0.5470   -0.0300   -0.8170 C   0  0  1  0  0  0  0  0  0  0  0  0
    1.2581   -0.6418   -1.3817 H   0  0  0  0  0  0  0  0  0  0  0  0
    0.4800    1.3717   -1.4816 C   0  0  0  0  0  0  0  0  0  0  0  0
    0.4791    2.1526   -0.7154 H   0  0  0  0  0  0  0  0  0  0  0  0
    1.3713    1.5243   -2.0956 H   0  0  0  0  0  0  0  0  0  0  0  0
   -0.7576    1.5686   -2.3443 C   0  0  0  0  0  0  0  0  0  0  0  0
   -1.7714    2.0347   -1.7697 O   0  5  0  0  0  0  0  0  0  0  0  0
   -0.7599    1.0747   -3.4953 O   0  0  0  0  0  0  0  0  0  0  0  0
    1.0855    0.1058    0.6254 C   0  0  0  0  0  0  0  0  0  0  0  0
    2.2847    0.0062    0.8685 O   0  0  0  0  0  0  0  0  0  0  0  0
    0.2287    0.5337    1.6238 N   0  0  0  0  0  0  0  0  0  0  0  0
   -0.7301    0.7169    1.3406 H   0  0  0  0  0  0  0  0  0  0  0  0
    0.6490    0.8415    2.9811 C   0  0  0  0  0  0  0  0  0  0  0  0
    1.3806    1.6558    2.9794 H   0  0  0  0  0  0  0  0  0  0  0  0
   -0.2130    1.1505    3.5795 H   0  0  0  0  0  0  0  0  0  0  0  0
    1.0984   -0.0399    3.4499 H   0  0  0  0  0  0  0  0  0  0  0  0
  1  2  1  0  0  0  0
  2  3  1  0  0  0  0
  2  4  1  0  0  0  0
  2  5  1  0  0  0  0
  5  6  2  0  0  0  0
  5  7  1  0  0  0  0
  7  8  1  0  0  0  0
  7  9  1  0  0  0  0
  9 10  1  0  0  0  0
  9 11  1  0  0  0  0
  9 17  1  0  0  0  0
 11 12  1  0  0  0  0
 11 13  1  0  0  0  0
 11 14  1  0  0  0  0
 14 15  1  0  0  0  0
 14 16  2  0  0  0  0
 17 18  2  0  0  0  0
 17 19  1  0  0  0  0
 19 20  1  0  0  0  0
 19 21  1  0  0  0  0
 21 22  1  0  0  0  0
 21 23  1  0  0  0  0
 21 24  1  0  0  0  0
M  CHG  1  15  -1
M  END
$$$$

  -OEChem-03222214023D

 24 23  0     1  0  0  0  0  0999 V2000
   -2.5036   -3.5716   -0.3460 H   0  0  0  0  0  0  0  0  0  0  0  0
   -2.4261   -2.5673   -0.7714 C   0  0  0  0  0  0  0  0  0  0  0  0
   -3.2525   -1.9588   -0.3957 H   0  0  0  0  0  0  0  0  0  0  0  0
   -2.5023   -2.6369   -1.8597 H   0  0  0  0  0  0  0  0  0  0  0  0
   -1.1012   -1.9332   -0.3877 C   0  0  0  0  0  0  0  0  0  0  0  0
   -0.3169   -2.5529    0.3133 O   0  0  0  0  0  0  0  0  0  0  0  0
   -0.8114   -0.6683   -0.8460 N   0  0  0  0  0  0  0  0  0  0  0  0
   -1.4312   -0.3225   -1.5858 H   0  0  0  0  0  0  0  0  0  0  0  0
    0.5159   -0.0295   -0.8002 C   0  0  1  0  0  0  0  0  0  0  0  0
    1.2063   -0.6630   -1.3666 H   0  0  0  0  0  0  0  0  0  0  0  0
    0.4627    1.3661   -1.4834 C   0  0  0  0  0  0  0  0  0  0  0  0
    0.4968    2.1534   -0.7243 H   0  0  0  0  0  0  0  0  0  0  0  0
    1.3459    1.4918   -2.1145 H   0  0  0  0  0  0  0  0  0  0  0  0
   -0.7821    1.5953   -2.3332 C   0  0  0  0  0  0  0  0  0  0  0  0
   -1.6631    2.3482   -1.8563 O   0  5  0  0  0  0  0  0  0  0  0  0
   -0.9693    0.8166   -3.3002 O   0  0  0  0  0  0  0  0  0  0  0  0
    1.0842    0.1217    0.6298 C   0  0  0  0  0  0  0  0  0  0  0  0
    2.2865    0.0025    0.8487 O   0  0  0  0  0  0  0  0  0  0  0  0
    0.2577    0.5848    1.6374 N   0  0  0  0  0  0  0  0  0  0  0  0
   -0.7171    0.7240    1.3864 H   0  0  0  0  0  0  0  0  0  0  0  0
    0.6986    0.8524    2.9963 C   0  0  0  0  0  0  0  0  0  0  0  0
    1.4795    1.6192    3.0001 H   0  0  0  0  0  0  0  0  0  0  0  0
   -0.1410    1.2100    3.5992 H   0  0  0  0  0  0  0  0  0  0  0  0
    1.0928   -0.0598    3.4553 H   0  0  0  0  0  0  0  0  0  0  0  0
  1  2  1  0  0  0  0
  2  3  1  0  0  0  0
  2  4  1  0  0  0  0
  2  5  1  0  0  0  0
  5  6  2  0  0  0  0
  5  7  1  0  0  0  0
  7  8  1  0  0  0  0
  7  9  1  0  0  0  0
  9 10  1  0  0  0  0
  9 11  1  0  0  0  0
  9 17  1  0  0  0  0
 11 12  1  0  0  0  0
 11 13  1  0  0  0  0
 11 14  1  0  0  0  0
 14 15  1  0  0  0  0
 14 16  2  0  0  0  0
 17 18  2  0  0  0  0
 17 19  1  0  0  0  0
 19 20  1  0  0  0  0
 19 21  1  0  0  0  0
 21 22  1  0  0  0  0
 21 23  1  0  0  0  0
 21 24  1  0  0  0  0
M  CHG  1  15  -1
M  END
$$$$

  -OEChem-03222214023D

 24 23  0     1  0  0  0  0  0999 V2000
   -2.4742   -3.6039   -0.3667 H   0  0  0  0  0  0  0  0  0  0  0  0
   -2.4158   -2.5906   -0.7733 C   0  0  0  0  0  0  0  0  0  0  0  0
   -3.2640   -2.0098   -0.4025 H   0  0  0  0  0  0  0  0  0  0  0  0
   -2.4716   -2.6437   -1.8639 H   0  0  0  0  0  0  0  0  0  0  0  0
   -1.1150   -1.9288   -0.3558 C   0  0  0  0  0  0  0  0  0  0  0  0
   -0.3459   -2.5234    0.3827 O   0  0  0  0  0  0  0  0  0  0  0  0
   -0.8298   -0.6675   -0.8270 N   0  0  0  0  0  0  0  0  0  0  0  0
   -1.4183   -0.3619   -1.6116 H   0  0  0  0  0  0  0  0  0  0  0  0
    0.4976   -0.0314   -0.7911 C   0  0  1  0  0  0  0  0  0  0  0  0
    1.1831   -0.6743   -1.3526 H   0  0  0  0  0  0  0  0  0  0  0  0
    0.4482    1.3552   -1.4956 C   0  0  0  0  0  0  0  0  0  0  0  0
    0.4876    2.1470   -0.7413 H   0  0  0  0  0  0  0  0  0  0  0  0
    1.3360    1.4684   -2.1225 H   0  0  0  0  0  0  0  0  0  0  0  0
   -0.7865    1.6090   -2.3602 C   0  0  0  0  0  0  0  0  0  0  0  0
   -1.5108    2.5828   -2.0486 O   0  5  0  0  0  0  0  0  0  0  0  0
   -1.1123    0.7235   -3.1927 O   0  0  0  0  0  0  0  0  0  0  0  0
    1.0779    0.1338    0.6331 C   0  0  0  0  0  0  0  0  0  0  0  0
    2.2815    0.0091    0.8420 O   0  0  0  0  0  0  0  0  0  0  0  0
    0.2632    0.6082    1.6451 N   0  0  0  0  0  0  0  0  0  0  0  0
   -0.7201    0.7155    1.4132 H   0  0  0  0  0  0  0  0  0  0  0  0
    0.7131    0.8528    3.0056 C   0  0  0  0  0  0  0  0  0  0  0  0
    1.5380    1.5726    3.0120 H   0  0  0  0  0  0  0  0  0  0  0  0
   -0.1065    1.2614    3.6039 H   0  0  0  0  0  0  0  0  0  0  0  0
    1.0508   -0.0801    3.4682 H   0  0  0  0  0  0  0  0  0  0  0  0
  1  2  1  0  0  0  0
  2  3  1  0  0  0  0
  2  4  1  0  0  0  0
  2  5  1  0  0  0  0
  5  6  2  0  0  0  0
  5  7  1  0  0  0  0
  7  8  1  0  0  0  0
  7  9  1  0  0  0  0
  9 10  1  0  0  0  0
  9 11  1  0  0  0  0
  9 17  1  0  0  0  0
 11 12  1  0  0  0  0
 11 13  1  0  0  0  0
 11 14  1  0  0  0  0
 14 15  1  0  0  0  0
 14 16  2  0  0  0  0
 17 18  2  0  0  0  0
 17 19  1  0  0  0  0
 19 20  1  0  0  0  0
 19 21  1  0  0  0  0
 21 22  1  0  0  0  0
 21 23  1  0  0  0  0
 21 24  1  0  0  0  0
M  CHG  1  15  -1
M  END
$$$$

  -OEChem-03222214023D

 24 23  0     1  0  0  0  0  0999 V2000
   -2.4538   -3.6256   -0.3432 H   0  0  0  0  0  0  0  0  0  0  0  0
   -2.4100   -2.6089   -0.7432 C   0  0  0  0  0  0  0  0  0  0  0  0
   -3.2586   -2.0388   -0.3574 H   0  0  0  0  0  0  0  0  0  0  0  0
   -2.4793   -2.6550   -1.8332 H   0  0  0  0  0  0  0  0  0  0  0  0
   -1.1102   -1.9372   -0.3379 C   0  0  0  0  0  0  0  0  0  0  0  0
   -0.3342   -2.5218    0.4013 O   0  0  0  0  0  0  0  0  0  0  0  0
   -0.8354   -0.6761   -0.8158 N   0  0  0  0  0  0  0  0  0  0  0  0
   -1.4287   -0.3771   -1.6004 H   0  0  0  0  0  0  0  0  0  0  0  0
    0.4861   -0.0305   -0.7903 C   0  0  1  0  0  0  0  0  0  0  0  0
    1.1722   -0.6769   -1.3472 H   0  0  0  0  0  0  0  0  0  0  0  0
    0.4383    1.3498   -1.5107 C   0  0  0  0  0  0  0  0  0  0  0  0
    0.4775    2.1424   -0.7572 H   0  0  0  0  0  0  0  0  0  0  0  0
    1.3342    1.4552   -2.1272 H   0  0  0  0  0  0  0  0  0  0  0  0
   -0.7810    1.6339   -2.3939 C   0  0  0  0  0  0  0  0  0  0  0  0
   -1.3133    2.7618   -2.2764 O   0  5  0  0  0  0  0  0  0  0  0  0
   -1.2470    0.7020   -3.1021 O   0  0  0  0  0  0  0  0  0  0  0  0
    1.0716    0.1444    0.6307 C   0  0  0  0  0  0  0  0  0  0  0  0
    2.2766    0.0276    0.8350 O   0  0  0  0  0  0  0  0  0  0  0  0
    0.2581    0.6164    1.6449 N   0  0  0  0  0  0  0  0  0  0  0  0
   -0.7304    0.6904    1.4239 H   0  0  0  0  0  0  0  0  0  0  0  0
    0.7073    0.8423    3.0089 C   0  0  0  0  0  0  0  0  0  0  0  0
    1.5414    1.5511    3.0251 H   0  0  0  0  0  0  0  0  0  0  0  0
   -0.1091    1.2564    3.6077 H   0  0  0  0  0  0  0  0  0  0  0  0
    1.0312   -0.0993    3.4637 H   0  0  0  0  0  0  0  0  0  0  0  0
  1  2  1  0  0  0  0
  2  3  1  0  0  0  0
  2  4  1  0  0  0  0
  2  5  1  0  0  0  0
  5  6  2  0  0  0  0
  5  7  1  0  0  0  0
  7  8  1  0  0  0  0
  7  9  1  0  0  0  0
  9 10  1  0  0  0  0
  9 11  1  0  0  0  0
  9 17  1  0  0  0  0
 11 12  1  0  0  0  0
 11 13  1  0  0  0  0
 11 14  1  0  0  0  0
 14 15  1  0  0  0  0
 14 16  2  0  0  0  0
 17 18  2  0  0  0  0
 17 19  1  0  0  0  0
 19 20  1  0  0  0  0
 19 21  1  0  0  0  0
 21 22  1  0  0  0  0
 21 23  1  0  0  0  0
 21 24  1  0  0  0  0
M  CHG  1  15  -1
M  END
$$$$

  -OEChem-03222214023D

 24 23  0     1  0  0  0  0  0999 V2000
   -2.4406   -3.6474   -0.3262 H   0  0  0  0  0  0  0  0  0  0  0  0
   -2.4072   -2.6285   -0.7215 C   0  0  0  0  0  0  0  0  0  0  0  0
   -3.2558   -2.0659   -0.3249 H   0  0  0  0  0  0  0  0  0  0  0  0
   -2.4866   -2.6691   -1.8111 H   0  0  0  0  0  0  0  0  0  0  0  0
   -1.1080   -1.9511   -0.3251 C   0  0  0  0  0  0  0  0  0  0  0  0
   -0.3246   -2.5312    0.4096 O   0  0  0  0  0  0  0  0  0  0  0  0
   -0.8427   -0.6889   -0.8042 N   0  0  0  0  0  0  0  0  0  0  0  0
   -1.4541   -0.3815   -1.5719 H   0  0  0  0  0  0  0  0  0  0  0  0
    0.4710   -0.0298   -0.7868 C   0  0  1  0  0  0  0  0  0  0  0  0
    1.1587   -0.6780   -1.3397 H   0  0  0  0  0  0  0  0  0  0  0  0
    0.4259    1.3451   -1.5215 C   0  0  0  0  0  0  0  0  0  0  0  0
    0.4581    2.1385   -0.7687 H   0  0  0  0  0  0  0  0  0  0  0  0
    1.3326    1.4453   -2.1230 H   0  0  0  0  0  0  0  0  0  0  0  0
   -0.7725    1.6622   -2.4270 C   0  0  0  0  0  0  0  0  0  0  0  0
   -1.0884    2.8708   -2.5218 O   0  5  0  0  0  0  0  0  0  0  0  0
   -1.3926    0.7238   -2.9962 O   0  0  0  0  0  0  0  0  0  0  0  0
    1.0625    0.1533    0.6307 C   0  0  0  0  0  0  0  0  0  0  0  0
    2.2700    0.0503    0.8273 O   0  0  0  0  0  0  0  0  0  0  0  0
    0.2512    0.6180    1.6502 N   0  0  0  0  0  0  0  0  0  0  0  0
   -0.7415    0.6634    1.4422 H   0  0  0  0  0  0  0  0  0  0  0  0
    0.7090    0.8385    3.0125 C   0  0  0  0  0  0  0  0  0  0  0  0
    1.5340    1.5579    3.0272 H   0  0  0  0  0  0  0  0  0  0  0  0
   -0.1068    1.2369    3.6227 H   0  0  0  0  0  0  0  0  0  0  0  0
    1.0495   -0.1024    3.4563 H   0  0  0  0  0  0  0  0  0  0  0  0
  1  2  1  0  0  0  0
  2  3  1  0  0  0  0
  2  4  1  0  0  0  0
  2  5  1  0  0  0  0
  5  6  2  0  0  0  0
  5  7  1  0  0  0  0
  7  8  1  0  0  0  0
  7  9  1  0  0  0  0
  9 10  1  0  0  0  0
  9 11  1  0  0  0  0
  9 17  1  0  0  0  0
 11 12  1  0  0  0  0
 11 13  1  0  0  0  0
 11 14  1  0  0  0  0
 14 15  1  0  0  0  0
 14 16  2  0  0  0  0
 17 18  2  0  0  0  0
 17 19  1  0  0  0  0
 19 20  1  0  0  0  0
 19 21  1  0  0  0  0
 21 22  1  0  0  0  0
 21 23  1  0  0  0  0
 21 24  1  0  0  0  0
M  CHG  1  15  -1
M  END
$$$$

  -OEChem-03222214023D

 24 23  0     1  0  0  0  0  0999 V2000
   -2.4287   -3.6617   -0.2899 H   0  0  0  0  0  0  0  0  0  0  0  0
   -2.4046   -2.6414   -0.6819 C   0  0  0  0  0  0  0  0  0  0  0  0
   -3.2386   -2.0779   -0.2566 H   0  0  0  0  0  0  0  0  0  0  0  0
   -2.5187   -2.6777   -1.7685 H   0  0  0  0  0  0  0  0  0  0  0  0
   -1.0911   -1.9692   -0.3249 C   0  0  0  0  0  0  0  0  0  0  0  0
   -0.2826   -2.5564    0.3763 O   0  0  0  0  0  0  0  0  0  0  0  0
   -0.8393   -0.7033   -0.8017 N   0  0  0  0  0  0  0  0  0  0  0  0
   -1.4872   -0.3691   -1.5271 H   0  0  0  0  0  0  0  0  0  0  0  0
    0.4637   -0.0260   -0.7925 C   0  0  1  0  0  0  0  0  0  0  0  0
    1.1557   -0.6717   -1.3428 H   0  0  0  0  0  0  0  0  0  0  0  0
    0.4187    1.3470   -1.5350 C   0  0  0  0  0  0  0  0  0  0  0  0
    0.4477    2.1404   -0.7823 H   0  0  0  0  0  0  0  0  0  0  0  0
    1.3334    1.4407   -2.1257 H   0  0  0  0  0  0  0  0  0  0  0  0
   -0.7604    1.6956   -2.4582 C   0  0  0  0  0  0  0  0  0  0  0  0
   -0.8580    2.9050   -2.7697 O   0  5  0  0  0  0  0  0  0  0  0  0
   -1.5545    0.8011   -2.8561 O   0  0  0  0  0  0  0  0  0  0  0  0
    1.0559    0.1603    0.6246 C   0  0  0  0  0  0  0  0  0  0  0  0
    2.2646    0.0721    0.8198 O   0  0  0  0  0  0  0  0  0  0  0  0
    0.2402    0.6098    1.6475 N   0  0  0  0  0  0  0  0  0  0  0  0
   -0.7538    0.6369    1.4427 H   0  0  0  0  0  0  0  0  0  0  0  0
    0.6971    0.8267    3.0110 C   0  0  0  0  0  0  0  0  0  0  0  0
    1.5132    1.5562    3.0298 H   0  0  0  0  0  0  0  0  0  0  0  0
   -0.1229    1.2106    3.6250 H   0  0  0  0  0  0  0  0  0  0  0  0
    1.0498   -0.1127    3.4485 H   0  0  0  0  0  0  0  0  0  0  0  0
  1  2  1  0  0  0  0
  2  3  1  0  0  0  0
  2  4  1  0  0  0  0
  2  5  1  0  0  0  0
  5  6  2  0  0  0  0
  5  7  1  0  0  0  0
  7  8  1  0  0  0  0
  7  9  1  0  0  0  0
  9 10  1  0  0  0  0
  9 11  1  0  0  0  0
  9 17  1  0  0  0  0
 11 12  1  0  0  0  0
 11 13  1  0  0  0  0
 11 14  1  0  0  0  0
 14 15  1  0  0  0  0
 14 16  2  0  0  0  0
 17 18  2  0  0  0  0
 17 19  1  0  0  0  0
 19 20  1  0  0  0  0
 19 21  1  0  0  0  0
 21 22  1  0  0  0  0
 21 23  1  0  0  0  0
 21 24  1  0  0  0  0
M  CHG  1  15  -1
M  END
$$$$

  -OEChem-03222214023D

 24 23  0     1  0  0  0  0  0999 V2000
   -2.4207   -3.6502   -0.1692 H   0  0  0  0  0  0  0  0  0  0  0  0
   -2.3956   -2.6327   -0.5686 C   0  0  0  0  0  0  0  0  0  0  0  0
   -3.1188   -2.0204   -0.0242 H   0  0  0  0  0  0  0  0  0  0  0  0
   -2.6773   -2.6595   -1.6243 H   0  0  0  0  0  0  0  0  0  0  0  0
   -1.0050   -2.0421   -0.4220 C   0  0  0  0  0  0  0  0  0  0  0  0
   -0.1129   -2.7089    0.0780 O   0  0  0  0  0  0  0  0  0  0  0  0
   -0.7709   -0.7620   -0.8674 N   0  0  0  0  0  0  0  0  0  0  0  0
   -1.5523   -0.2734   -1.3228 H   0  0  0  0  0  0  0  0  0  0  0  0
    0.5062   -0.0408   -0.8380 C   0  0  1  0  0  0  0  0  0  0  0  0
    1.2348   -0.6450   -1.3880 H   0  0  0  0  0  0  0  0  0  0  0  0
    0.4381    1.3649   -1.5239 C   0  0  0  0  0  0  0  0  0  0  0  0
    0.7557    2.1233   -0.8023 H   0  0  0  0  0  0  0  0  0  0  0  0
    1.1863    1.3658   -2.3208 H   0  0  0  0  0  0  0  0  0  0  0  0
   -0.8609    1.9006   -2.1528 C   0  0  0  0  0  0  0  0  0  0  0  0
   -0.7635    3.0394   -2.6653 O   0  5  0  0  0  0  0  0  0  0  0  0
   -1.9381    1.2488   -2.0947 O   0  0  0  0  0  0  0  0  0  0  0  0
    1.0470    0.1179    0.6027 C   0  0  0  0  0  0  0  0  0  0  0  0
    2.2495    0.0512    0.8394 O   0  0  0  0  0  0  0  0  0  0  0  0
    0.1824    0.5088    1.6098 N   0  0  0  0  0  0  0  0  0  0  0  0
   -0.7895    0.6353    1.3428 H   0  0  0  0  0  0  0  0  0  0  0  0
    0.5996    0.8039    2.9710 C   0  0  0  0  0  0  0  0  0  0  0  0
    1.2980    1.6467    2.9817 H   0  0  0  0  0  0  0  0  0  0  0  0
   -0.2698    1.0648    3.5814 H   0  0  0  0  0  0  0  0  0  0  0  0
    1.0875   -0.0681    3.4180 H   0  0  0  0  0  0  0  0  0  0  0  0
  1  2  1  0  0  0  0
  2  3  1  0  0  0  0
  2  4  1  0  0  0  0
  2  5  1  0  0  0  0
  5  6  2  0  0  0  0
  5  7  1  0  0  0  0
  7  8  1  0  0  0  0
  7  9  1  0  0  0  0
  9 10  1  0  0  0  0
  9 11  1  0  0  0  0
  9 17  1  0  0  0  0
 11 12  1  0  0  0  0
 11 13  1  0  0  0  0
 11 14  1  0  0  0  0
 14 15  1  0  0  0  0
 14 16  2  0  0  0  0
 17 18  2  0  0  0  0
 17 19  1  0  0  0  0
 19 20  1  0  0  0  0
 19 21  1  0  0  0  0
 21 22  1  0  0  0  0
 21 23  1  0  0  0  0
 21 24  1  0  0  0  0
M  CHG  1  15  -1
M  END
$$$$

  -OEChem-03222214023D

 24 23  0     1  0  0  0  0  0999 V2000
   -2.4169   -3.6262   -0.1309 H   0  0  0  0  0  0  0  0  0  0  0  0
   -2.3919   -2.6089   -0.5307 C   0  0  0  0  0  0  0  0  0  0  0  0
   -3.0679   -1.9813    0.0555 H   0  0  0  0  0  0  0  0  0  0  0  0
   -2.7354   -2.6272   -1.5681 H   0  0  0  0  0  0  0  0  0  0  0  0
   -0.9814   -2.0517   -0.4654 C   0  0  0  0  0  0  0  0  0  0  0  0
   -0.0736   -2.7469   -0.0374 O   0  0  0  0  0  0  0  0  0  0  0  0
   -0.7462   -0.7695   -0.9042 N   0  0  0  0  0  0  0  0  0  0  0  0
   -1.5552   -0.2306   -1.2385 H   0  0  0  0  0  0  0  0  0  0  0  0
    0.5313   -0.0488   -0.8587 C   0  0  1  0  0  0  0  0  0  0  0  0
    1.2685   -0.6426   -1.4089 H   0  0  0  0  0  0  0  0  0  0  0  0
    0.4571    1.3664   -1.5211 C   0  0  0  0  0  0  0  0  0  0  0  0
    0.7723    2.1214   -0.7955 H   0  0  0  0  0  0  0  0  0  0  0  0
    1.2010    1.3786   -2.3222 H   0  0  0  0  0  0  0  0  0  0  0  0
   -0.8541    1.8854   -2.1338 C   0  0  0  0  0  0  0  0  0  0  0  0
   -0.7361    2.8805   -2.8854 O   0  5  0  0  0  0  0  0  0  0  0  0
   -1.9628    1.3913   -1.7914 O   0  0  0  0  0  0  0  0  0  0  0  0
    1.0491    0.0989    0.5914 C   0  0  0  0  0  0  0  0  0  0  0  0
    2.2467    0.0272    0.8499 O   0  0  0  0  0  0  0  0  0  0  0  0
    0.1651    0.4837    1.5839 N   0  0  0  0  0  0  0  0  0  0  0  0
   -0.7930    0.6502    1.2877 H   0  0  0  0  0  0  0  0  0  0  0  0
    0.5591    0.7952    2.9483 C   0  0  0  0  0  0  0  0  0  0  0  0
    1.2350    1.6561    2.9637 H   0  0  0  0  0  0  0  0  0  0  0  0
   -0.3240    1.0351    3.5477 H   0  0  0  0  0  0  0  0  0  0  0  0
    1.0643   -0.0619    3.4048 H   0  0  0  0  0  0  0  0  0  0  0  0
  1  2  1  0  0  0  0
  2  3  1  0  0  0  0
  2  4  1  0  0  0  0
  2  5  1  0  0  0  0
  5  6  2  0  0  0  0
  5  7  1  0  0  0  0
  7  8  1  0  0  0  0
  7  9  1  0  0  0  0
  9 10  1  0  0  0  0
  9 11  1  0  0  0  0
  9 17  1  0  0  0  0
 11 12  1  0  0  0  0
 11 13  1  0  0  0  0
 11 14  1  0  0  0  0
 14 15  1  0  0  0  0
 14 16  2  0  0  0  0
 17 18  2  0  0  0  0
 17 19  1  0  0  0  0
 19 20  1  0  0  0  0
 19 21  1  0  0  0  0
 21 22  1  0  0  0  0
 21 23  1  0  0  0  0
 21 24  1  0  0  0  0
M  CHG  1  15  -1
M  END
$$$$

  -OEChem-03222214023D

 24 23  0     1  0  0  0  0  0999 V2000
   -2.4226   -3.5955   -0.1173 H   0  0  0  0  0  0  0  0  0  0  0  0
   -2.3924   -2.5752   -0.5091 C   0  0  0  0  0  0  0  0  0  0  0  0
   -3.0214   -1.9371    0.1167 H   0  0  0  0  0  0  0  0  0  0  0  0
   -2.7884   -2.5747   -1.5276 H   0  0  0  0  0  0  0  0  0  0  0  0
   -0.9673   -2.0529   -0.5105 C   0  0  0  0  0  0  0  0  0  0  0  0
   -0.0555   -2.7747   -0.1391 O   0  0  0  0  0  0  0  0  0  0  0  0
   -0.7242   -0.7697   -0.9423 N   0  0  0  0  0  0  0  0  0  0  0  0
   -1.5424   -0.1939   -1.1782 H   0  0  0  0  0  0  0  0  0  0  0  0
    0.5593   -0.0592   -0.8738 C   0  0  1  0  0  0  0  0  0  0  0  0
    1.3041   -0.6431   -1.4241 H   0  0  0  0  0  0  0  0  0  0  0  0
    0.4792    1.3669   -1.5072 C   0  0  0  0  0  0  0  0  0  0  0  0
    0.7859    2.1175   -0.7735 H   0  0  0  0  0  0  0  0  0  0  0  0
    1.2179    1.4014   -2.3128 H   0  0  0  0  0  0  0  0  0  0  0  0
   -0.8529    1.8503   -2.0957 C   0  0  0  0  0  0  0  0  0  0  0  0
   -0.7806    2.6554   -3.0522 O   0  5  0  0  0  0  0  0  0  0  0  0
   -1.9323    1.5103   -1.5371 O   0  0  0  0  0  0  0  0  0  0  0  0
    1.0512    0.0745    0.5862 C   0  0  0  0  0  0  0  0  0  0  0  0
    2.2420   -0.0159    0.8691 O   0  0  0  0  0  0  0  0  0  0  0  0
    0.1492    0.4612    1.5619 N   0  0  0  0  0  0  0  0  0  0  0  0
   -0.7867    0.6872    1.2329 H   0  0  0  0  0  0  0  0  0  0  0  0
    0.5264    0.7964    2.9256 C   0  0  0  0  0  0  0  0  0  0  0  0
    1.1839    1.6716    2.9362 H   0  0  0  0  0  0  0  0  0  0  0  0
   -0.3662    1.0237    3.5156 H   0  0  0  0  0  0  0  0  0  0  0  0
    1.0463   -0.0444    3.3957 H   0  0  0  0  0  0  0  0  0  0  0  0
  1  2  1  0  0  0  0
  2  3  1  0  0  0  0
  2  4  1  0  0  0  0
  2  5  1  0  0  0  0
  5  6  2  0  0  0  0
  5  7  1  0  0  0  0
  7  8  1  0  0  0  0
  7  9  1  0  0  0  0
  9 10  1  0  0  0  0
  9 11  1  0  0  0  0
  9 17  1  0  0  0  0
 11 12  1  0  0  0  0
 11 13  1  0  0  0  0
 11 14  1  0  0  0  0
 14 15  1  0  0  0  0
 14 16  2  0  0  0  0
 17 18  2  0  0  0  0
 17 19  1  0  0  0  0
 19 20  1  0  0  0  0
 19 21  1  0  0  0  0
 21 22  1  0  0  0  0
 21 23  1  0  0  0  0
 21 24  1  0  0  0  0
M  CHG  1  15  -1
M  END
$$$$

  -OEChem-03222214023D

 24 23  0     1  0  0  0  0  0999 V2000
   -2.4299   -3.5659   -0.1120 H   0  0  0  0  0  0  0  0  0  0  0  0
   -2.3961   -2.5445   -0.5007 C   0  0  0  0  0  0  0  0  0  0  0  0
   -2.9969   -1.8998    0.1458 H   0  0  0  0  0  0  0  0  0  0  0  0
   -2.8220   -2.5338   -1.5072 H   0  0  0  0  0  0  0  0  0  0  0  0
   -0.9636   -2.0438   -0.5412 C   0  0  0  0  0  0  0  0  0  0  0  0
   -0.0528   -2.7832   -0.2032 O   0  0  0  0  0  0  0  0  0  0  0  0
   -0.7123   -0.7600   -0.9672 N   0  0  0  0  0  0  0  0  0  0  0  0
   -1.5299   -0.1629   -1.1445 H   0  0  0  0  0  0  0  0  0  0  0  0
    0.5790   -0.0620   -0.8812 C   0  0  1  0  0  0  0  0  0  0  0  0
    1.3260   -0.6418   -1.4330 H   0  0  0  0  0  0  0  0  0  0  0  0
    0.5000    1.3712   -1.4932 C   0  0  0  0  0  0  0  0  0  0  0  0
    0.7981    2.1180   -0.7522 H   0  0  0  0  0  0  0  0  0  0  0  0
    1.2347    1.4241   -2.3016 H   0  0  0  0  0  0  0  0  0  0  0  0
   -0.8495    1.8173   -2.0616 C   0  0  0  0  0  0  0  0  0  0  0  0
   -0.8507    2.3899   -3.1752 O   0  5  0  0  0  0  0  0  0  0  0  0
   -1.8814    1.6126   -1.3639 O   0  0  0  0  0  0  0  0  0  0  0  0
    1.0542    0.0588    0.5850 C   0  0  0  0  0  0  0  0  0  0  0  0
    2.2403   -0.0435    0.8836 O   0  0  0  0  0  0  0  0  0  0  0  0
    0.1406    0.4502    1.5483 N   0  0  0  0  0  0  0  0  0  0  0  0
   -0.7774    0.7164    1.1970 H   0  0  0  0  0  0  0  0  0  0  0  0
    0.5069    0.7989    2.9113 C   0  0  0  0  0  0  0  0  0  0  0  0
    1.1594    1.6777    2.9181 H   0  0  0  0  0  0  0  0  0  0  0  0
   -0.3908    1.0261    3.4938 H   0  0  0  0  0  0  0  0  0  0  0  0
    1.0286   -0.0349    3.3921 H   0  0  0  0  0  0  0  0  0  0  0  0
  1  2  1  0  0  0  0
  2  3  1  0  0  0  0
  2  4  1  0  0  0  0
  2  5  1  0  0  0  0
  5  6  2  0  0  0  0
  5  7  1  0  0  0  0
  7  8  1  0  0  0  0
  7  9  1  0  0  0  0
  9 10  1  0  0  0  0
  9 11  1  0  0  0  0
  9 17  1  0  0  0  0
 11 12  1  0  0  0  0
 11 13  1  0  0  0  0
 11 14  1  0  0  0  0
 14 15  1  0  0  0  0
 14 16  2  0  0  0  0
 17 18  2  0  0  0  0
 17 19  1  0  0  0  0
 19 20  1  0  0  0  0
 19 21  1  0  0  0  0
 21 22  1  0  0  0  0
 21 23  1  0  0  0  0
 21 24  1  0  0  0  0
M  CHG  1  15  -1
M  END
$$$$

  -OEChem-03222214023D

 24 23  0     1  0  0  0  0  0999 V2000
   -2.4503   -3.5386   -0.1331 H   0  0  0  0  0  0  0  0  0  0  0  0
   -2.4052   -2.5141   -0.5122 C   0  0  0  0  0  0  0  0  0  0  0  0
   -2.9975   -1.8683    0.1409 H   0  0  0  0  0  0  0  0  0  0  0  0
   -2.8316   -2.4888   -1.5183 H   0  0  0  0  0  0  0  0  0  0  0  0
   -0.9674   -2.0296   -0.5506 C   0  0  0  0  0  0  0  0  0  0  0  0
   -0.0645   -2.7784   -0.2117 O   0  0  0  0  0  0  0  0  0  0  0  0
   -0.7043   -0.7480   -0.9757 N   0  0  0  0  0  0  0  0  0  0  0  0
   -1.5176   -0.1416   -1.1376 H   0  0  0  0  0  0  0  0  0  0  0  0
    0.5941   -0.0616   -0.8821 C   0  0  1  0  0  0  0  0  0  0  0  0
    1.3402   -0.6413   -1.4350 H   0  0  0  0  0  0  0  0  0  0  0  0
    0.5146    1.3737   -1.4845 C   0  0  0  0  0  0  0  0  0  0  0  0
    0.8073    2.1210   -0.7418 H   0  0  0  0  0  0  0  0  0  0  0  0
    1.2426    1.4382   -2.2979 H   0  0  0  0  0  0  0  0  0  0  0  0
   -0.8492    1.7851   -2.0358 C   0  0  0  0  0  0  0  0  0  0  0  0
   -0.9347    2.0916   -3.2467 O   0  5  0  0  0  0  0  0  0  0  0  0
   -1.8307    1.7054   -1.2468 O   0  0  0  0  0  0  0  0  0  0  0  0
    1.0614    0.0542    0.5869 C   0  0  0  0  0  0  0  0  0  0  0  0
    2.2446   -0.0584    0.8932 O   0  0  0  0  0  0  0  0  0  0  0  0
    0.1436    0.4542    1.5427 N   0  0  0  0  0  0  0  0  0  0  0  0
   -0.7636    0.7426    1.1795 H   0  0  0  0  0  0  0  0  0  0  0  0
    0.5034    0.8047    2.9071 C   0  0  0  0  0  0  0  0  0  0  0  0
    1.1394    1.6954    2.9169 H   0  0  0  0  0  0  0  0  0  0  0  0
   -0.3984    1.0123    3.4902 H   0  0  0  0  0  0  0  0  0  0  0  0
    1.0403   -0.0207    3.3855 H   0  0  0  0  0  0  0  0  0  0  0  0
  1  2  1  0  0  0  0
  2  3  1  0  0  0  0
  2  4  1  0  0  0  0
  2  5  1  0  0  0  0
  5  6  2  0  0  0  0
  5  7  1  0  0  0  0
  7  8  1  0  0  0  0
  7  9  1  0  0  0  0
  9 10  1  0  0  0  0
  9 11  1  0  0  0  0
  9 17  1  0  0  0  0
 11 12  1  0  0  0  0
 11 13  1  0  0  0  0
 11 14  1  0  0  0  0
 14 15  1  0  0  0  0
 14 16  2  0  0  0  0
 17 18  2  0  0  0  0
 17 19  1  0  0  0  0
 19 20  1  0  0  0  0
 19 21  1  0  0  0  0
 21 22  1  0  0  0  0
 21 23  1  0  0  0  0
 21 24  1  0  0  0  0
M  CHG  1  15  -1
M  END
$$$$

  -OEChem-03222214023D

 24 23  0     1  0  0  0  0  0999 V2000
   -2.4664   -3.5192   -0.1497 H   0  0  0  0  0  0  0  0  0  0  0  0
   -2.4132   -2.4958   -0.5307 C   0  0  0  0  0  0  0  0  0  0  0  0
   -3.0108   -1.8465    0.1141 H   0  0  0  0  0  0  0  0  0  0  0  0
   -2.8280   -2.4719   -1.5415 H   0  0  0  0  0  0  0  0  0  0  0  0
   -0.9732   -2.0159   -0.5544 C   0  0  0  0  0  0  0  0  0  0  0  0
   -0.0769   -2.7675   -0.2037 O   0  0  0  0  0  0  0  0  0  0  0  0
   -0.7006   -0.7359   -0.9787 N   0  0  0  0  0  0  0  0  0  0  0  0
   -1.5091   -0.1295   -1.1578 H   0  0  0  0  0  0  0  0  0  0  0  0
    0.6032   -0.0574   -0.8814 C   0  0  1  0  0  0  0  0  0  0  0  0
    1.3477   -0.6374   -1.4361 H   0  0  0  0  0  0  0  0  0  0  0  0
    0.5239    1.3795   -1.4776 C   0  0  0  0  0  0  0  0  0  0  0  0
    0.8127    2.1273   -0.7336 H   0  0  0  0  0  0  0  0  0  0  0  0
    1.2455    1.4530   -2.2956 H   0  0  0  0  0  0  0  0  0  0  0  0
   -0.8499    1.7631   -2.0153 C   0  0  0  0  0  0  0  0  0  0  0  0
   -1.0218    1.7900   -3.2549 O   0  5  0  0  0  0  0  0  0  0  0  0
   -1.7791    1.8116   -1.1653 O   0  0  0  0  0  0  0  0  0  0  0  0
    1.0676    0.0555    0.5885 C   0  0  0  0  0  0  0  0  0  0  0  0
    2.2494   -0.0639    0.8986 O   0  0  0  0  0  0  0  0  0  0  0  0
    0.1489    0.4619    1.5407 N   0  0  0  0  0  0  0  0  0  0  0  0
   -0.7510    0.7662    1.1709 H   0  0  0  0  0  0  0  0  0  0  0  0
    0.5076    0.8129    2.9051 C   0  0  0  0  0  0  0  0  0  0  0  0
    1.1662    1.6871    2.9139 H   0  0  0  0  0  0  0  0  0  0  0  0
   -0.3929    1.0478    3.4801 H   0  0  0  0  0  0  0  0  0  0  0  0
    1.0195   -0.0229    3.3928 H   0  0  0  0  0  0  0  0  0  0  0  0
  1  2  1  0  0  0  0
  2  3  1  0  0  0  0
  2  4  1  0  0  0  0
  2  5  1  0  0  0  0
  5  6  2  0  0  0  0
  5  7  1  0  0  0  0
  7  8  1  0  0  0  0
  7  9  1  0  0  0  0
  9 10  1  0  0  0  0
  9 11  1  0  0  0  0
  9 17  1  0  0  0  0
 11 12  1  0  0  0  0
 11 13  1  0  0  0  0
 11 14  1  0  0  0  0
 14 15  1  0  0  0  0
 14 16  2  0  0  0  0
 17 18  2  0  0  0  0
 17 19  1  0  0  0  0
 19 20  1  0  0  0  0
 19 21  1  0  0  0  0
 21 22  1  0  0  0  0
 21 23  1  0  0  0  0
 21 24  1  0  0  0  0
M  CHG  1  15  -1
M  END
$$$$

  -OEChem-03222214023D

 24 23  0     1  0  0  0  0  0999 V2000
   -2.4912   -3.5198   -0.2005 H   0  0  0  0  0  0  0  0  0  0  0  0
   -2.4280   -2.4971   -0.5817 C   0  0  0  0  0  0  0  0  0  0  0  0
   -3.0627   -1.8514    0.0303 H   0  0  0  0  0  0  0  0  0  0  0  0
   -2.7922   -2.4799   -1.6121 H   0  0  0  0  0  0  0  0  0  0  0  0
   -0.9928   -2.0045   -0.5346 C   0  0  0  0  0  0  0  0  0  0  0  0
   -0.1105   -2.7449   -0.1288 O   0  0  0  0  0  0  0  0  0  0  0  0
   -0.7089   -0.7280   -0.9618 N   0  0  0  0  0  0  0  0  0  0  0  0
   -1.5043   -0.1460   -1.2416 H   0  0  0  0  0  0  0  0  0  0  0  0
    0.5997   -0.0557   -0.8698 C   0  0  1  0  0  0  0  0  0  0  0  0
    1.3392   -0.6406   -1.4260 H   0  0  0  0  0  0  0  0  0  0  0  0
    0.5233    1.3786   -1.4698 C   0  0  0  0  0  0  0  0  0  0  0  0
    0.8171    2.1301   -0.7315 H   0  0  0  0  0  0  0  0  0  0  0  0
    1.2365    1.4491   -2.2952 H   0  0  0  0  0  0  0  0  0  0  0  0
   -0.8563    1.7455   -1.9974 C   0  0  0  0  0  0  0  0  0  0  0  0
   -1.1190    1.4902   -3.1947 O   0  5  0  0  0  0  0  0  0  0  0  0
   -1.7240    1.9760   -1.1171 O   0  0  0  0  0  0  0  0  0  0  0  0
    1.0741    0.0627    0.5965 C   0  0  0  0  0  0  0  0  0  0  0  0
    2.2580   -0.0613    0.8976 O   0  0  0  0  0  0  0  0  0  0  0  0
    0.1654    0.4786    1.5539 N   0  0  0  0  0  0  0  0  0  0  0  0
   -0.7342    0.7896    1.1886 H   0  0  0  0  0  0  0  0  0  0  0  0
    0.5378    0.8359    2.9129 C   0  0  0  0  0  0  0  0  0  0  0  0
    1.2120    1.6982    2.9103 H   0  0  0  0  0  0  0  0  0  0  0  0
   -0.3552    1.0924    3.4902 H   0  0  0  0  0  0  0  0  0  0  0  0
    1.0375   -0.0044    3.4054 H   0  0  0  0  0  0  0  0  0  0  0  0
  1  2  1  0  0  0  0
  2  3  1  0  0  0  0
  2  4  1  0  0  0  0
  2  5  1  0  0  0  0
  5  6  2  0  0  0  0
  5  7  1  0  0  0  0
  7  8  1  0  0  0  0
  7  9  1  0  0  0  0
  9 10  1  0  0  0  0
  9 11  1  0  0  0  0
  9 17  1  0  0  0  0
 11 12  1  0  0  0  0
 11 13  1  0  0  0  0
 11 14  1  0  0  0  0
 14 15  1  0  0  0  0
 14 16  2  0  0  0  0
 17 18  2  0  0  0  0
 17 19  1  0  0  0  0
 19 20  1  0  0  0  0
 19 21  1  0  0  0  0
 21 22  1  0  0  0  0
 21 23  1  0  0  0  0
 21 24  1  0  0  0  0
M  CHG  1  15  -1
M  END
$$$$

  -OEChem-03222214023D

 24 23  0     1  0  0  0  0  0999 V2000
   -2.5265   -3.5525   -0.2920 H   0  0  0  0  0  0  0  0  0  0  0  0
   -2.4439   -2.5421   -0.7017 C   0  0  0  0  0  0  0  0  0  0  0  0
   -3.1929   -1.9044   -0.2254 H   0  0  0  0  0  0  0  0  0  0  0  0
   -2.6399   -2.5780   -1.7764 H   0  0  0  0  0  0  0  0  0  0  0  0
   -1.0560   -1.9824   -0.4485 C   0  0  0  0  0  0  0  0  0  0  0  0
   -0.2230   -2.6674    0.1238 O   0  0  0  0  0  0  0  0  0  0  0  0
   -0.7576   -0.7153   -0.8942 N   0  0  0  0  0  0  0  0  0  0  0  0
   -1.4539   -0.2720   -1.5015 H   0  0  0  0  0  0  0  0  0  0  0  0
    0.5636   -0.0635   -0.8323 C   0  0  1  0  0  0  0  0  0  0  0  0
    1.2815   -0.6674   -1.3963 H   0  0  0  0  0  0  0  0  0  0  0  0
    0.4942    1.3624   -1.4526 C   0  0  0  0  0  0  0  0  0  0  0  0
    0.8165    2.1193   -0.7311 H   0  0  0  0  0  0  0  0  0  0  0  0
    1.1878    1.4113   -2.2959 H   0  0  0  0  0  0  0  0  0  0  0  0
   -0.8916    1.7379   -1.9582 C   0  0  0  0  0  0  0  0  0  0  0  0
   -1.2795    1.2163   -3.0315 O   0  5  0  0  0  0  0  0  0  0  0  0
   -1.6401    2.3397   -1.1524 O   0  0  0  0  0  0  0  0  0  0  0  0
    1.0804    0.0696    0.6191 C   0  0  0  0  0  0  0  0  0  0  0  0
    2.2726   -0.0623    0.8826 O   0  0  0  0  0  0  0  0  0  0  0  0
    0.2102    0.5133    1.5988 N   0  0  0  0  0  0  0  0  0  0  0  0
   -0.7081    0.8028    1.2667 H   0  0  0  0  0  0  0  0  0  0  0  0
    0.6283    0.8844    2.9406 C   0  0  0  0  0  0  0  0  0  0  0  0
    1.3214    1.7309    2.9047 H   0  0  0  0  0  0  0  0  0  0  0  0
   -0.2421    1.1719    3.5376 H   0  0  0  0  0  0  0  0  0  0  0  0
    1.1220    0.0408    3.4334 H   0  0  0  0  0  0  0  0  0  0  0  0
  1  2  1  0  0  0  0
  2  3  1  0  0  0  0
  2  4  1  0  0  0  0
  2  5  1  0  0  0  0
  5  6  2  0  0  0  0
  5  7  1  0  0  0  0
  7  8  1  0  0  0  0
  7  9  1  0  0  0  0
  9 10  1  0  0  0  0
  9 11  1  0  0  0  0
  9 17  1  0  0  0  0
 11 12  1  0  0  0  0
 11 13  1  0  0  0  0
 11 14  1  0  0  0  0
 14 15  1  0  0  0  0
 14 16  2  0  0  0  0
 17 18  2  0  0  0  0
 17 19  1  0  0  0  0
 19 20  1  0  0  0  0
 19 21  1  0  0  0  0
 21 22  1  0  0  0  0
 21 23  1  0  0  0  0
 21 24  1  0  0  0  0
M  CHG  1  15  -1
M  END
$$$$

  -OEChem-03222214023D

 24 23  0     1  0  0  0  0  0999 V2000
   -2.5213   -3.5837   -0.3234 H   0  0  0  0  0  0  0  0  0  0  0  0
   -2.4405   -2.5752   -0.7378 C   0  0  0  0  0  0  0  0  0  0  0  0
   -3.2334   -1.9536   -0.3144 H   0  0  0  0  0  0  0  0  0  0  0  0
   -2.5705   -2.6263   -1.8219 H   0  0  0  0  0  0  0  0  0  0  0  0
   -1.0848   -1.9765   -0.4092 C   0  0  0  0  0  0  0  0  0  0  0  0
   -0.2735   -2.6312    0.2262 O   0  0  0  0  0  0  0  0  0  0  0  0
   -0.7893   -0.7106   -0.8603 N   0  0  0  0  0  0  0  0  0  0  0  0
   -1.4409   -0.3199   -1.5526 H   0  0  0  0  0  0  0  0  0  0  0  0
    0.5321   -0.0630   -0.8087 C   0  0  1  0  0  0  0  0  0  0  0  0
    1.2402   -0.6803   -1.3705 H   0  0  0  0  0  0  0  0  0  0  0  0
    0.4698    1.3504   -1.4611 C   0  0  0  0  0  0  0  0  0  0  0  0
    0.8028    2.1132   -0.7506 H   0  0  0  0  0  0  0  0  0  0  0  0
    1.1698    1.3721   -2.2999 H   0  0  0  0  0  0  0  0  0  0  0  0
   -0.9013    1.7587   -1.9959 C   0  0  0  0  0  0  0  0  0  0  0  0
   -1.4206    1.0430   -2.8915 O   0  5  0  0  0  0  0  0  0  0  0  0
   -1.4930    2.6898   -1.4023 O   0  0  0  0  0  0  0  0  0  0  0  0
    1.0746    0.0799    0.6330 C   0  0  0  0  0  0  0  0  0  0  0  0
    2.2722   -0.0494    0.8723 O   0  0  0  0  0  0  0  0  0  0  0  0
    0.2280    0.5311    1.6297 N   0  0  0  0  0  0  0  0  0  0  0  0
   -0.7113    0.7818    1.3313 H   0  0  0  0  0  0  0  0  0  0  0  0
    0.6702    0.8902    2.9671 C   0  0  0  0  0  0  0  0  0  0  0  0
    1.3658    1.7344    2.9259 H   0  0  0  0  0  0  0  0  0  0  0  0
   -0.1887    1.1760    3.5812 H   0  0  0  0  0  0  0  0  0  0  0  0
    1.1690    0.0410    3.4450 H   0  0  0  0  0  0  0  0  0  0  0  0
  1  2  1  0  0  0  0
  2  3  1  0  0  0  0
  2  4  1  0  0  0  0
  2  5  1  0  0  0  0
  5  6  2  0  0  0  0
  5  7  1  0  0  0  0
  7  8  1  0  0  0  0
  7  9  1  0  0  0  0
  9 10  1  0  0  0  0
  9 11  1  0  0  0  0
  9 17  1  0  0  0  0
 11 12  1  0  0  0  0
 11 13  1  0  0  0  0
 11 14  1  0  0  0  0
 14 15  1  0  0  0  0
 14 16  2  0  0  0  0
 17 18  2  0  0  0  0
 17 19  1  0  0  0  0
 19 20  1  0  0  0  0
 19 21  1  0  0  0  0
 21 22  1  0  0  0  0
 21 23  1  0  0  0  0
 21 24  1  0  0  0  0
M  CHG  1  15  -1
M  END
$$$$

  -OEChem-03222214023D

 24 23  0     1  0  0  0  0  0999 V2000
   -2.4879   -3.6196   -0.3006 H   0  0  0  0  0  0  0  0  0  0  0  0
   -2.4261   -2.6085   -0.7121 C   0  0  0  0  0  0  0  0  0  0  0  0
   -3.2243   -2.0003   -0.2796 H   0  0  0  0  0  0  0  0  0  0  0  0
   -2.5654   -2.6579   -1.7952 H   0  0  0  0  0  0  0  0  0  0  0  0
   -1.0763   -1.9912   -0.3935 C   0  0  0  0  0  0  0  0  0  0  0  0
   -0.2539   -2.6323    0.2414 O   0  0  0  0  0  0  0  0  0  0  0  0
   -0.8004   -0.7209   -0.8448 N   0  0  0  0  0  0  0  0  0  0  0  0
   -1.4669   -0.3306   -1.5238 H   0  0  0  0  0  0  0  0  0  0  0  0
    0.5094   -0.0544   -0.8042 C   0  0  1  0  0  0  0  0  0  0  0  0
    1.2179   -0.6751   -1.3619 H   0  0  0  0  0  0  0  0  0  0  0  0
    0.4518    1.3508   -1.4806 C   0  0  0  0  0  0  0  0  0  0  0  0
    0.7884    2.1129   -0.7708 H   0  0  0  0  0  0  0  0  0  0  0  0
    1.1676    1.3520   -2.3062 H   0  0  0  0  0  0  0  0  0  0  0  0
   -0.8924    1.8101   -2.0578 C   0  0  0  0  0  0  0  0  0  0  0  0
   -1.5710    1.0022   -2.7472 O   0  5  0  0  0  0  0  0  0  0  0  0
   -1.2784    2.9578   -1.7374 O   0  0  0  0  0  0  0  0  0  0  0  0
    1.0639    0.0961    0.6325 C   0  0  0  0  0  0  0  0  0  0  0  0
    2.2660   -0.0114    0.8584 O   0  0  0  0  0  0  0  0  0  0  0  0
    0.2231    0.5333    1.6403 N   0  0  0  0  0  0  0  0  0  0  0  0
   -0.7374    0.7235    1.3694 H   0  0  0  0  0  0  0  0  0  0  0  0
    0.6698    0.8714    2.9818 C   0  0  0  0  0  0  0  0  0  0  0  0
    1.3942    1.6914    2.9481 H   0  0  0  0  0  0  0  0  0  0  0  0
   -0.1821    1.1855    3.5920 H   0  0  0  0  0  0  0  0  0  0  0  0
    1.1366    0.0037    3.4586 H   0  0  0  0  0  0  0  0  0  0  0  0
  1  2  1  0  0  0  0
  2  3  1  0  0  0  0
  2  4  1  0  0  0  0
  2  5  1  0  0  0  0
  5  6  2  0  0  0  0
  5  7  1  0  0  0  0
  7  8  1  0  0  0  0
  7  9  1  0  0  0  0
  9 10  1  0  0  0  0
  9 11  1  0  0  0  0
  9 17  1  0  0  0  0
 11 12  1  0  0  0  0
 11 13  1  0  0  0  0
 11 14  1  0  0  0  0
 14 15  1  0  0  0  0
 14 16  2  0  0  0  0
 17 18  2  0  0  0  0
 17 19  1  0  0  0  0
 19 20  1  0  0  0  0
 19 21  1  0  0  0  0
 21 22  1  0  0  0  0
 21 23  1  0  0  0  0
 21 24  1  0  0  0  0
M  CHG  1  15  -1
M  END
$$$$

  -OEChem-03222214023D

 24 23  0     1  0  0  0  0  0999 V2000
   -2.4490   -3.6436   -0.2562 H   0  0  0  0  0  0  0  0  0  0  0  0
   -2.4091   -2.6274   -0.6578 C   0  0  0  0  0  0  0  0  0  0  0  0
   -3.1962   -2.0306   -0.1905 H   0  0  0  0  0  0  0  0  0  0  0  0
   -2.5859   -2.6659   -1.7358 H   0  0  0  0  0  0  0  0  0  0  0  0
   -1.0537   -2.0025   -0.3803 C   0  0  0  0  0  0  0  0  0  0  0  0
   -0.2107   -2.6362    0.2343 O   0  0  0  0  0  0  0  0  0  0  0  0
   -0.7981   -0.7305   -0.8380 N   0  0  0  0  0  0  0  0  0  0  0  0
   -1.4991   -0.3256   -1.4722 H   0  0  0  0  0  0  0  0  0  0  0  0
    0.4976   -0.0398   -0.8120 C   0  0  1  0  0  0  0  0  0  0  0  0
    1.2113   -0.6614   -1.3625 H   0  0  0  0  0  0  0  0  0  0  0  0
    0.4393    1.3575   -1.5108 C   0  0  0  0  0  0  0  0  0  0  0  0
    0.7724    2.1223   -0.8023 H   0  0  0  0  0  0  0  0  0  0  0  0
    1.1695    1.3436   -2.3235 H   0  0  0  0  0  0  0  0  0  0  0  0
   -0.8797    1.8556   -2.1234 C   0  0  0  0  0  0  0  0  0  0  0  0
   -1.7184    1.0345   -2.5833 O   0  5  0  0  0  0  0  0  0  0  0  0
   -1.0591    3.0949   -2.0934 O   0  0  0  0  0  0  0  0  0  0  0  0
    1.0560    0.1255    0.6216 C   0  0  0  0  0  0  0  0  0  0  0  0
    2.2600    0.0357    0.8438 O   0  0  0  0  0  0  0  0  0  0  0  0
    0.2133    0.5495    1.6333 N   0  0  0  0  0  0  0  0  0  0  0  0
   -0.7629    0.6736    1.3827 H   0  0  0  0  0  0  0  0  0  0  0  0
    0.6495    0.8329    2.9908 C   0  0  0  0  0  0  0  0  0  0  0  0
    1.3976    1.6319    2.9930 H   0  0  0  0  0  0  0  0  0  0  0  0
   -0.2015    1.1533    3.5989 H   0  0  0  0  0  0  0  0  0  0  0  0
    1.0839   -0.0627    3.4461 H   0  0  0  0  0  0  0  0  0  0  0  0
  1  2  1  0  0  0  0
  2  3  1  0  0  0  0
  2  4  1  0  0  0  0
  2  5  1  0  0  0  0
  5  6  2  0  0  0  0
  5  7  1  0  0  0  0
  7  8  1  0  0  0  0
  7  9  1  0  0  0  0
  9 10  1  0  0  0  0
  9 11  1  0  0  0  0
  9 17  1  0  0  0  0
 11 12  1  0  0  0  0
 11 13  1  0  0  0  0
 11 14  1  0  0  0  0
 14 15  1  0  0  0  0
 14 16  2  0  0  0  0
 17 18  2  0  0  0  0
 17 19  1  0  0  0  0
 19 20  1  0  0  0  0
 19 21  1  0  0  0  0
 21 22  1  0  0  0  0
 21 23  1  0  0  0  0
 21 24  1  0  0  0  0
M  CHG  1  15  -1
M  END
$$$$

  -OEChem-03222214023D

 24 23  0     1  0  0  0  0  0999 V2000
   -2.4360   -3.6489   -0.2037 H   0  0  0  0  0  0  0  0  0  0  0  0
   -2.4028   -2.6345   -0.6105 C   0  0  0  0  0  0  0  0  0  0  0  0
   -3.1604   -2.0267   -0.1096 H   0  0  0  0  0  0  0  0  0  0  0  0
   -2.6295   -2.6736   -1.6789 H   0  0  0  0  0  0  0  0  0  0  0  0
   -1.0289   -2.0251   -0.3973 C   0  0  0  0  0  0  0  0  0  0  0  0
   -0.1599   -2.6722    0.1650 O   0  0  0  0  0  0  0  0  0  0  0  0
   -0.7864   -0.7486   -0.8486 N   0  0  0  0  0  0  0  0  0  0  0  0
   -1.5275   -0.3077   -1.4086 H   0  0  0  0  0  0  0  0  0  0  0  0
    0.4979   -0.0393   -0.8237 C   0  0  1  0  0  0  0  0  0  0  0  0
    1.2190   -0.6527   -1.3736 H   0  0  0  0  0  0  0  0  0  0  0  0
    0.4362    1.3614   -1.5196 C   0  0  0  0  0  0  0  0  0  0  0  0
    0.7607    2.1214   -0.8022 H   0  0  0  0  0  0  0  0  0  0  0  0
    1.1776    1.3508   -2.3222 H   0  0  0  0  0  0  0  0  0  0  0  0
   -0.8668    1.8882   -2.1474 C   0  0  0  0  0  0  0  0  0  0  0  0
   -1.8405    1.1210   -2.3752 O   0  5  0  0  0  0  0  0  0  0  0  0
   -0.8776    3.1173   -2.3889 O   0  0  0  0  0  0  0  0  0  0  0  0
    1.0499    0.1241    0.6126 C   0  0  0  0  0  0  0  0  0  0  0  0
    2.2542    0.0525    0.8391 O   0  0  0  0  0  0  0  0  0  0  0  0
    0.1972    0.5290    1.6241 N   0  0  0  0  0  0  0  0  0  0  0  0
   -0.7805    0.6369    1.3714 H   0  0  0  0  0  0  0  0  0  0  0  0
    0.6263    0.8192    2.9827 C   0  0  0  0  0  0  0  0  0  0  0  0
    1.3512    1.6394    2.9873 H   0  0  0  0  0  0  0  0  0  0  0  0
   -0.2330    1.1127    3.5927 H   0  0  0  0  0  0  0  0  0  0  0  0
    1.0868   -0.0653    3.4342 H   0  0  0  0  0  0  0  0  0  0  0  0
  1  2  1  0  0  0  0
  2  3  1  0  0  0  0
  2  4  1  0  0  0  0
  2  5  1  0  0  0  0
  5  6  2  0  0  0  0
  5  7  1  0  0  0  0
  7  8  1  0  0  0  0
  7  9  1  0  0  0  0
  9 10  1  0  0  0  0
  9 11  1  0  0  0  0
  9 17  1  0  0  0  0
 11 12  1  0  0  0  0
 11 13  1  0  0  0  0
 11 14  1  0  0  0  0
 14 15  1  0  0  0  0
 14 16  2  0  0  0  0
 17 18  2  0  0  0  0
 17 19  1  0  0  0  0
 19 20  1  0  0  0  0
 19 21  1  0  0  0  0
 21 22  1  0  0  0  0
 21 23  1  0  0  0  0
 21 24  1  0  0  0  0
M  CHG  1  15  -1
M  END
$$$$

  -OEChem-03222214023D

 24 23  0     1  0  0  0  0  0999 V2000
   -2.4249   -3.6491   -0.1763 H   0  0  0  0  0  0  0  0  0  0  0  0
   -2.3994   -2.6320   -0.5768 C   0  0  0  0  0  0  0  0  0  0  0  0
   -3.1315   -2.0220   -0.0421 H   0  0  0  0  0  0  0  0  0  0  0  0
   -2.6681   -2.6614   -1.6358 H   0  0  0  0  0  0  0  0  0  0  0  0
   -1.0128   -2.0361   -0.4140 C   0  0  0  0  0  0  0  0  0  0  0  0
   -0.1259   -2.6981    0.1011 O   0  0  0  0  0  0  0  0  0  0  0  0
   -0.7763   -0.7574   -0.8621 N   0  0  0  0  0  0  0  0  0  0  0  0
   -1.5506   -0.2774   -1.3385 H   0  0  0  0  0  0  0  0  0  0  0  0
    0.5028   -0.0395   -0.8349 C   0  0  1  0  0  0  0  0  0  0  0  0
    1.2291   -0.6479   -1.3839 H   0  0  0  0  0  0  0  0  0  0  0  0
    0.4383    1.3636   -1.5263 C   0  0  0  0  0  0  0  0  0  0  0  0
    0.7551    2.1220   -0.8045 H   0  0  0  0  0  0  0  0  0  0  0  0
    1.1859    1.3566   -2.3237 H   0  0  0  0  0  0  0  0  0  0  0  0
   -0.8589    1.9002   -2.1581 C   0  0  0  0  0  0  0  0  0  0  0  0
   -1.9259    1.2295   -2.1441 O   0  5  0  0  0  0  0  0  0  0  0  0
   -0.7619    3.0432   -2.6614 O   0  0  0  0  0  0  0  0  0  0  0  0
    1.0476    0.1221    0.6044 C   0  0  0  0  0  0  0  0  0  0  0  0
    2.2505    0.0526    0.8381 O   0  0  0  0  0  0  0  0  0  0  0  0
    0.1876    0.5179    1.6136 N   0  0  0  0  0  0  0  0  0  0  0  0
   -0.7870    0.6363    1.3529 H   0  0  0  0  0  0  0  0  0  0  0  0
    0.6085    0.8061    2.9753 C   0  0  0  0  0  0  0  0  0  0  0  0
    1.3130    1.6438    2.9883 H   0  0  0  0  0  0  0  0  0  0  0  0
   -0.2585    1.0721    3.5872 H   0  0  0  0  0  0  0  0  0  0  0  0
    1.0903   -0.0711    3.4193 H   0  0  0  0  0  0  0  0  0  0  0  0
  1  2  1  0  0  0  0
  2  3  1  0  0  0  0
  2  4  1  0  0  0  0
  2  5  1  0  0  0  0
  5  6  2  0  0  0  0
  5  7  1  0  0  0  0
  7  8  1  0  0  0  0
  7  9  1  0  0  0  0
  9 10  1  0  0  0  0
  9 11  1  0  0  0  0
  9 17  1  0  0  0  0
 11 12  1  0  0  0  0
 11 13  1  0  0  0  0
 11 14  1  0  0  0  0
 14 15  1  0  0  0  0
 14 16  2  0  0  0  0
 17 18  2  0  0  0  0
 17 19  1  0  0  0  0
 19 20  1  0  0  0  0
 19 21  1  0  0  0  0
 21 22  1  0  0  0  0
 21 23  1  0  0  0  0
 21 24  1  0  0  0  0
M  CHG  1  15  -1
M  END
$$$$

  -OEChem-03222214023D

 24 23  0     1  0  0  0  0  0999 V2000
   -2.4228   -3.6297   -0.1414 H   0  0  0  0  0  0  0  0  0  0  0  0
   -2.3968   -2.6122   -0.5410 C   0  0  0  0  0  0  0  0  0  0  0  0
   -3.0876   -1.9887    0.0323 H   0  0  0  0  0  0  0  0  0  0  0  0
   -2.7205   -2.6331   -1.5847 H   0  0  0  0  0  0  0  0  0  0  0  0
   -0.9916   -2.0453   -0.4484 C   0  0  0  0  0  0  0  0  0  0  0  0
   -0.0897   -2.7308    0.0064 O   0  0  0  0  0  0  0  0  0  0  0  0
   -0.7549   -0.7645   -0.8903 N   0  0  0  0  0  0  0  0  0  0  0  0
   -1.5553   -0.2420   -1.2682 H   0  0  0  0  0  0  0  0  0  0  0  0
    0.5228   -0.0442   -0.8519 C   0  0  1  0  0  0  0  0  0  0  0  0
    1.2564   -0.6430   -1.4017 H   0  0  0  0  0  0  0  0  0  0  0  0
    0.4515    1.3675   -1.5242 C   0  0  0  0  0  0  0  0  0  0  0  0
    0.7617    2.1213   -0.7951 H   0  0  0  0  0  0  0  0  0  0  0  0
    1.1999    1.3753   -2.3211 H   0  0  0  0  0  0  0  0  0  0  0  0
   -0.8550    1.8945   -2.1430 C   0  0  0  0  0  0  0  0  0  0  0  0
   -1.9624    1.3480   -1.8887 O   0  5  0  0  0  0  0  0  0  0  0  0
   -0.7253    2.8945   -2.8860 O   0  0  0  0  0  0  0  0  0  0  0  0
    1.0498    0.1084    0.5946 C   0  0  0  0  0  0  0  0  0  0  0  0
    2.2494    0.0386    0.8444 O   0  0  0  0  0  0  0  0  0  0  0  0
    0.1739    0.4966    1.5930 N   0  0  0  0  0  0  0  0  0  0  0  0
   -0.7907    0.6455    1.3096 H   0  0  0  0  0  0  0  0  0  0  0  0
    0.5768    0.7944    2.9578 C   0  0  0  0  0  0  0  0  0  0  0  0
    1.2737    1.6385    2.9749 H   0  0  0  0  0  0  0  0  0  0  0  0
   -0.2989    1.0547    3.5593 H   0  0  0  0  0  0  0  0  0  0  0  0
    1.0614   -0.0765    3.4107 H   0  0  0  0  0  0  0  0  0  0  0  0
  1  2  1  0  0  0  0
  2  3  1  0  0  0  0
  2  4  1  0  0  0  0
  2  5  1  0  0  0  0
  5  6  2  0  0  0  0
  5  7  1  0  0  0  0
  7  8  1  0  0  0  0
  7  9  1  0  0  0  0
  9 10  1  0  0  0  0
  9 11  1  0  0  0  0
  9 17  1  0  0  0  0
 11 12  1  0  0  0  0
 11 13  1  0  0  0  0
 11 14  1  0  0  0  0
 14 15  1  0  0  0  0
 14 16  2  0  0  0  0
 17 18  2  0  0  0  0
 17 19  1  0  0  0  0
 19 20  1  0  0  0  0
 19 21  1  0  0  0  0
 21 22  1  0  0  0  0
 21 23  1  0  0  0  0
 21 24  1  0  0  0  0
M  CHG  1  15  -1
M  END
$$$$

  -OEChem-03222214023D

 24 23  0     1  0  0  0  0  0999 V2000
   -2.4305   -3.5993   -0.1202 H   0  0  0  0  0  0  0  0  0  0  0  0
   -2.3989   -2.5811   -0.5169 C   0  0  0  0  0  0  0  0  0  0  0  0
   -3.0432   -1.9431    0.0929 H   0  0  0  0  0  0  0  0  0  0  0  0
   -2.7752   -2.5883   -1.5428 H   0  0  0  0  0  0  0  0  0  0  0  0
   -0.9772   -2.0502   -0.4938 C   0  0  0  0  0  0  0  0  0  0  0  0
   -0.0681   -2.7646   -0.1016 O   0  0  0  0  0  0  0  0  0  0  0  0
   -0.7342   -0.7673   -0.9260 N   0  0  0  0  0  0  0  0  0  0  0  0
   -1.5481   -0.2034   -1.2022 H   0  0  0  0  0  0  0  0  0  0  0  0
    0.5484   -0.0554   -0.8672 C   0  0  1  0  0  0  0  0  0  0  0  0
    1.2881   -0.6446   -1.4188 H   0  0  0  0  0  0  0  0  0  0  0  0
    0.4755    1.3676   -1.5112 C   0  0  0  0  0  0  0  0  0  0  0  0
    0.7766    2.1138   -0.7707 H   0  0  0  0  0  0  0  0  0  0  0  0
    1.2226    1.3971   -2.3092 H   0  0  0  0  0  0  0  0  0  0  0  0
   -0.8477    1.8698   -2.1084 C   0  0  0  0  0  0  0  0  0  0  0  0
   -1.9443    1.4730   -1.6271 O   0  5  0  0  0  0  0  0  0  0  0  0
   -0.7515    2.6753   -3.0625 O   0  0  0  0  0  0  0  0  0  0  0  0
    1.0518    0.0796    0.5890 C   0  0  0  0  0  0  0  0  0  0  0  0
    2.2461    0.0011    0.8607 O   0  0  0  0  0  0  0  0  0  0  0  0
    0.1575    0.4652    1.5723 N   0  0  0  0  0  0  0  0  0  0  0  0
   -0.7883    0.6661    1.2568 H   0  0  0  0  0  0  0  0  0  0  0  0
    0.5433    0.7978    2.9341 C   0  0  0  0  0  0  0  0  0  0  0  0
    1.2001    1.6734    2.9418 H   0  0  0  0  0  0  0  0  0  0  0  0
   -0.3454    1.0234    3.5307 H   0  0  0  0  0  0  0  0  0  0  0  0
    1.0669   -0.0438    3.3989 H   0  0  0  0  0  0  0  0  0  0  0  0
  1  2  1  0  0  0  0
  2  3  1  0  0  0  0
  2  4  1  0  0  0  0
  2  5  1  0  0  0  0
  5  6  2  0  0  0  0
  5  7  1  0  0  0  0
  7  8  1  0  0  0  0
  7  9  1  0  0  0  0
  9 10  1  0  0  0  0
  9 11  1  0  0  0  0
  9 17  1  0  0  0  0
 11 12  1  0  0  0  0
 11 13  1  0  0  0  0
 11 14  1  0  0  0  0
 14 15  1  0  0  0  0
 14 16  2  0  0  0  0
 17 18  2  0  0  0  0
 17 19  1  0  0  0  0
 19 20  1  0  0  0  0
 19 21  1  0  0  0  0
 21 22  1  0  0  0  0
 21 23  1  0  0  0  0
 21 24  1  0  0  0  0
M  CHG  1  15  -1
M  END
$$$$

  -OEChem-03222214023D

 24 23  0     1  0  0  0  0  0999 V2000
   -2.4325   -3.5635   -0.1088 H   0  0  0  0  0  0  0  0  0  0  0  0
   -2.3963   -2.5444   -0.5032 C   0  0  0  0  0  0  0  0  0  0  0  0
   -3.0049   -1.8968    0.1330 H   0  0  0  0  0  0  0  0  0  0  0  0
   -2.8109   -2.5403   -1.5144 H   0  0  0  0  0  0  0  0  0  0  0  0
   -0.9644   -2.0414   -0.5320 C   0  0  0  0  0  0  0  0  0  0  0  0
   -0.0549   -2.7772   -0.1825 O   0  0  0  0  0  0  0  0  0  0  0  0
   -0.7127   -0.7587   -0.9608 N   0  0  0  0  0  0  0  0  0  0  0  0
   -1.5297   -0.1658   -1.1545 H   0  0  0  0  0  0  0  0  0  0  0  0
    0.5777   -0.0596   -0.8803 C   0  0  1  0  0  0  0  0  0  0  0  0
    1.3233   -0.6419   -1.4313 H   0  0  0  0  0  0  0  0  0  0  0  0
    0.4990    1.3709   -1.5005 C   0  0  0  0  0  0  0  0  0  0  0  0
    0.7882    2.1157   -0.7540 H   0  0  0  0  0  0  0  0  0  0  0  0
    1.2388    1.4252   -2.3039 H   0  0  0  0  0  0  0  0  0  0  0  0
   -0.8484    1.8209   -2.0724 C   0  0  0  0  0  0  0  0  0  0  0  0
   -1.8880    1.5984   -1.3920 O   0  5  0  0  0  0  0  0  0  0  0  0
   -0.8440    2.3754   -3.1951 O   0  0  0  0  0  0  0  0  0  0  0  0
    1.0560    0.0643    0.5848 C   0  0  0  0  0  0  0  0  0  0  0  0
    2.2428   -0.0365    0.8810 O   0  0  0  0  0  0  0  0  0  0  0  0
    0.1447    0.4565    1.5498 N   0  0  0  0  0  0  0  0  0  0  0  0
   -0.7780    0.7118    1.2034 H   0  0  0  0  0  0  0  0  0  0  0  0
    0.5102    0.7949    2.9156 C   0  0  0  0  0  0  0  0  0  0  0  0
    1.1794    1.6608    2.9284 H   0  0  0  0  0  0  0  0  0  0  0  0
   -0.3860    1.0384    3.4936 H   0  0  0  0  0  0  0  0  0  0  0  0
    1.0127   -0.0501    3.3973 H   0  0  0  0  0  0  0  0  0  0  0  0
  1  2  1  0  0  0  0
  2  3  1  0  0  0  0
  2  4  1  0  0  0  0
  2  5  1  0  0  0  0
  5  6  2  0  0  0  0
  5  7  1  0  0  0  0
  7  8  1  0  0  0  0
  7  9  1  0  0  0  0
  9 10  1  0  0  0  0
  9 11  1  0  0  0  0
  9 17  1  0  0  0  0
 11 12  1  0  0  0  0
 11 13  1  0  0  0  0
 11 14  1  0  0  0  0
 14 15  1  0  0  0  0
 14 16  2  0  0  0  0
 17 18  2  0  0  0  0
 17 19  1  0  0  0  0
 19 20  1  0  0  0  0
 19 21  1  0  0  0  0
 21 22  1  0  0  0  0
 21 23  1  0  0  0  0
 21 24  1  0  0  0  0
M  CHG  1  15  -1
M  END
$$$$

  -OEChem-03222214023D

 24 23  0     1  0  0  0  0  0999 V2000
   -2.4451   -3.5311   -0.1226 H   0  0  0  0  0  0  0  0  0  0  0  0
   -2.3995   -2.5095   -0.5097 C   0  0  0  0  0  0  0  0  0  0  0  0
   -2.9827   -1.8566    0.1447 H   0  0  0  0  0  0  0  0  0  0  0  0
   -2.8359   -2.4897   -1.5116 H   0  0  0  0  0  0  0  0  0  0  0  0
   -0.9601   -2.0309   -0.5655 C   0  0  0  0  0  0  0  0  0  0  0  0
   -0.0561   -2.7846   -0.2405 O   0  0  0  0  0  0  0  0  0  0  0  0
   -0.6970   -0.7484   -0.9883 N   0  0  0  0  0  0  0  0  0  0  0  0
   -1.5107   -0.1395   -1.1351 H   0  0  0  0  0  0  0  0  0  0  0  0
    0.6025   -0.0633   -0.8865 C   0  0  1  0  0  0  0  0  0  0  0  0
    1.3524   -0.6396   -1.4380 H   0  0  0  0  0  0  0  0  0  0  0  0
    0.5207    1.3741   -1.4824 C   0  0  0  0  0  0  0  0  0  0  0  0
    0.7999    2.1182   -0.7312 H   0  0  0  0  0  0  0  0  0  0  0  0
    1.2500    1.4521   -2.2932 H   0  0  0  0  0  0  0  0  0  0  0  0
   -0.8490    1.7639   -2.0289 C   0  0  0  0  0  0  0  0  0  0  0  0
   -1.8062    1.7490   -1.2078 O   0  5  0  0  0  0  0  0  0  0  0  0
   -0.9623    2.0138   -3.2503 O   0  0  0  0  0  0  0  0  0  0  0  0
    1.0604    0.0489    0.5856 C   0  0  0  0  0  0  0  0  0  0  0  0
    2.2411   -0.0678    0.9003 O   0  0  0  0  0  0  0  0  0  0  0  0
    0.1358    0.4483    1.5350 N   0  0  0  0  0  0  0  0  0  0  0  0
   -0.7638    0.7501    1.1627 H   0  0  0  0  0  0  0  0  0  0  0  0
    0.4897    0.8043    2.8994 C   0  0  0  0  0  0  0  0  0  0  0  0
    1.1439    1.6820    2.9074 H   0  0  0  0  0  0  0  0  0  0  0  0
   -0.4134    1.0363    3.4715 H   0  0  0  0  0  0  0  0  0  0  0  0
    1.0053   -0.0275    3.3900 H   0  0  0  0  0  0  0  0  0  0  0  0
  1  2  1  0  0  0  0
  2  3  1  0  0  0  0
  2  4  1  0  0  0  0
  2  5  1  0  0  0  0
  5  6  2  0  0  0  0
  5  7  1  0  0  0  0
  7  8  1  0  0  0  0
  7  9  1  0  0  0  0
  9 10  1  0  0  0  0
  9 11  1  0  0  0  0
  9 17  1  0  0  0  0
 11 12  1  0  0  0  0
 11 13  1  0  0  0  0
 11 14  1  0  0  0  0
 14 15  1  0  0  0  0
 14 16  2  0  0  0  0
 17 18  2  0  0  0  0
 17 19  1  0  0  0  0
 19 20  1  0  0  0  0
 19 21  1  0  0  0  0
 21 22  1  0  0  0  0
 21 23  1  0  0  0  0
 21 24  1  0  0  0  0
M  CHG  1  15  -1
M  END
$$$$

  -OEChem-03222214023D

 24 23  0     1  0  0  0  0  0999 V2000
   -2.4692   -3.5338   -0.1913 H   0  0  0  0  0  0  0  0  0  0  0  0
   -2.4148   -2.5088   -0.5680 C   0  0  0  0  0  0  0  0  0  0  0  0
   -3.0374   -1.8671    0.0605 H   0  0  0  0  0  0  0  0  0  0  0  0
   -2.8003   -2.4865   -1.5904 H   0  0  0  0  0  0  0  0  0  0  0  0
   -0.9794   -2.0156   -0.5478 C   0  0  0  0  0  0  0  0  0  0  0  0
   -0.0882   -2.7574   -0.1651 O   0  0  0  0  0  0  0  0  0  0  0  0
   -0.7053   -0.7357   -0.9726 N   0  0  0  0  0  0  0  0  0  0  0  0
   -1.5099   -0.1494   -1.2117 H   0  0  0  0  0  0  0  0  0  0  0  0
    0.6010   -0.0577   -0.8736 C   0  0  1  0  0  0  0  0  0  0  0  0
    1.3453   -0.6382   -1.4281 H   0  0  0  0  0  0  0  0  0  0  0  0
    0.5229    1.3777   -1.4699 C   0  0  0  0  0  0  0  0  0  0  0  0
    0.8053    2.1273   -0.7250 H   0  0  0  0  0  0  0  0  0  0  0  0
    1.2406    1.4573   -2.2907 H   0  0  0  0  0  0  0  0  0  0  0  0
   -0.8575    1.7332   -2.0006 C   0  0  0  0  0  0  0  0  0  0  0  0
   -1.7292    1.9863   -1.1306 O   0  5  0  0  0  0  0  0  0  0  0  0
   -1.0892    1.6057   -3.2241 O   0  0  0  0  0  0  0  0  0  0  0  0
    1.0681    0.0582    0.5953 C   0  0  0  0  0  0  0  0  0  0  0  0
    2.2498   -0.0687    0.9030 O   0  0  0  0  0  0  0  0  0  0  0  0
    0.1529    0.4675    1.5494 N   0  0  0  0  0  0  0  0  0  0  0  0
   -0.7418    0.7868    1.1798 H   0  0  0  0  0  0  0  0  0  0  0  0
    0.5195    0.8229    2.9105 C   0  0  0  0  0  0  0  0  0  0  0  0
    1.1767    1.6981    2.9130 H   0  0  0  0  0  0  0  0  0  0  0  0
   -0.3778    1.0585    3.4901 H   0  0  0  0  0  0  0  0  0  0  0  0
    1.0355   -0.0108    3.3974 H   0  0  0  0  0  0  0  0  0  0  0  0
  1  2  1  0  0  0  0
  2  3  1  0  0  0  0
  2  4  1  0  0  0  0
  2  5  1  0  0  0  0
  5  6  2  0  0  0  0
  5  7  1  0  0  0  0
  7  8  1  0  0  0  0
  7  9  1  0  0  0  0
  9 10  1  0  0  0  0
  9 11  1  0  0  0  0
  9 17  1  0  0  0  0
 11 12  1  0  0  0  0
 11 13  1  0  0  0  0
 11 14  1  0  0  0  0
 14 15  1  0  0  0  0
 14 16  2  0  0  0  0
 17 18  2  0  0  0  0
 17 19  1  0  0  0  0
 19 20  1  0  0  0  0
 19 21  1  0  0  0  0
 21 22  1  0  0  0  0
 21 23  1  0  0  0  0
 21 24  1  0  0  0  0
M  CHG  1  15  -1
M  END
$$$$

  -OEChem-03222214023D

 24 23  0     1  0  0  0  0  0999 V2000
   -2.5196   -3.5614   -0.3207 H   0  0  0  0  0  0  0  0  0  0  0  0
   -2.4386   -2.5468   -0.7199 C   0  0  0  0  0  0  0  0  0  0  0  0
   -3.1901   -1.9157   -0.2388 H   0  0  0  0  0  0  0  0  0  0  0  0
   -2.6319   -2.5723   -1.7954 H   0  0  0  0  0  0  0  0  0  0  0  0
   -1.0523   -1.9864   -0.4588 C   0  0  0  0  0  0  0  0  0  0  0  0
   -0.2193   -2.6738    0.1109 O   0  0  0  0  0  0  0  0  0  0  0  0
   -0.7542   -0.7168   -0.8970 N   0  0  0  0  0  0  0  0  0  0  0  0
   -1.4530   -0.2668   -1.4969 H   0  0  0  0  0  0  0  0  0  0  0  0
    0.5651   -0.0622   -0.8305 C   0  0  1  0  0  0  0  0  0  0  0  0
    1.2850   -0.6610   -1.3972 H   0  0  0  0  0  0  0  0  0  0  0  0
    0.4918    1.3675   -1.4427 C   0  0  0  0  0  0  0  0  0  0  0  0
    0.8092    2.1204   -0.7150 H   0  0  0  0  0  0  0  0  0  0  0  0
    1.1880    1.4267   -2.2831 H   0  0  0  0  0  0  0  0  0  0  0  0
   -0.8941    1.7442   -1.9475 C   0  0  0  0  0  0  0  0  0  0  0  0
   -1.6532    2.3026   -1.1204 O   0  5  0  0  0  0  0  0  0  0  0  0
   -1.2831    1.2141   -3.0163 O   0  0  0  0  0  0  0  0  0  0  0  0
    1.0802    0.0650    0.6218 C   0  0  0  0  0  0  0  0  0  0  0  0
    2.2734   -0.0595    0.8850 O   0  0  0  0  0  0  0  0  0  0  0  0
    0.2065    0.5020    1.6015 N   0  0  0  0  0  0  0  0  0  0  0  0
   -0.7094    0.7953    1.2654 H   0  0  0  0  0  0  0  0  0  0  0  0
    0.6246    0.8837    2.9401 C   0  0  0  0  0  0  0  0  0  0  0  0
    1.3078    1.7379    2.8969 H   0  0  0  0  0  0  0  0  0  0  0  0
   -0.2471    1.1639    3.5385 H   0  0  0  0  0  0  0  0  0  0  0  0
    1.1296    0.0481    3.4354 H   0  0  0  0  0  0  0  0  0  0  0  0
  1  2  1  0  0  0  0
  2  3  1  0  0  0  0
  2  4  1  0  0  0  0
  2  5  1  0  0  0  0
  5  6  2  0  0  0  0
  5  7  1  0  0  0  0
  7  8  1  0  0  0  0
  7  9  1  0  0  0  0
  9 10  1  0  0  0  0
  9 11  1  0  0  0  0
  9 17  1  0  0  0  0
 11 12  1  0  0  0  0
 11 13  1  0  0  0  0
 11 14  1  0  0  0  0
 14 15  1  0  0  0  0
 14 16  2  0  0  0  0
 17 18  2  0  0  0  0
 17 19  1  0  0  0  0
 19 20  1  0  0  0  0
 19 21  1  0  0  0  0
 21 22  1  0  0  0  0
 21 23  1  0  0  0  0
 21 24  1  0  0  0  0
M  CHG  1  15  -1
M  END
$$$$

  -OEChem-03222214023D

 24 23  0     1  0  0  0  0  0999 V2000
   -2.5240   -3.5774   -0.3308 H   0  0  0  0  0  0  0  0  0  0  0  0
   -2.4386   -2.5688   -0.7441 C   0  0  0  0  0  0  0  0  0  0  0  0
   -3.2221   -1.9414   -0.3118 H   0  0  0  0  0  0  0  0  0  0  0  0
   -2.5793   -2.6160   -1.8270 H   0  0  0  0  0  0  0  0  0  0  0  0
   -1.0751   -1.9816   -0.4273 C   0  0  0  0  0  0  0  0  0  0  0  0
   -0.2592   -2.6463    0.1916 O   0  0  0  0  0  0  0  0  0  0  0  0
   -0.7779   -0.7138   -0.8717 N   0  0  0  0  0  0  0  0  0  0  0  0
   -1.4380   -0.3088   -1.5467 H   0  0  0  0  0  0  0  0  0  0  0  0
    0.5423   -0.0639   -0.8131 C   0  0  1  0  0  0  0  0  0  0  0  0
    1.2544   -0.6740   -1.3775 H   0  0  0  0  0  0  0  0  0  0  0  0
    0.4752    1.3555   -1.4516 C   0  0  0  0  0  0  0  0  0  0  0  0
    0.8004    2.1138   -0.7326 H   0  0  0  0  0  0  0  0  0  0  0  0
    1.1767    1.3949   -2.2885 H   0  0  0  0  0  0  0  0  0  0  0  0
   -0.9005    1.7544   -1.9780 C   0  0  0  0  0  0  0  0  0  0  0  0
   -1.5499    2.5799   -1.2948 O   0  5  0  0  0  0  0  0  0  0  0  0
   -1.3877    1.0707   -2.9146 O   0  0  0  0  0  0  0  0  0  0  0  0
    1.0758    0.0723    0.6325 C   0  0  0  0  0  0  0  0  0  0  0  0
    2.2726   -0.0524    0.8782 O   0  0  0  0  0  0  0  0  0  0  0  0
    0.2204    0.5173    1.6246 N   0  0  0  0  0  0  0  0  0  0  0  0
   -0.7109    0.7839    1.3131 H   0  0  0  0  0  0  0  0  0  0  0  0
    0.6569    0.8897    2.9604 C   0  0  0  0  0  0  0  0  0  0  0  0
    1.3309    1.7509    2.9152 H   0  0  0  0  0  0  0  0  0  0  0  0
   -0.2074    1.1553    3.5760 H   0  0  0  0  0  0  0  0  0  0  0  0
    1.1782    0.0544    3.4391 H   0  0  0  0  0  0  0  0  0  0  0  0
  1  2  1  0  0  0  0
  2  3  1  0  0  0  0
  2  4  1  0  0  0  0
  2  5  1  0  0  0  0
  5  6  2  0  0  0  0
  5  7  1  0  0  0  0
  7  8  1  0  0  0  0
  7  9  1  0  0  0  0
  9 10  1  0  0  0  0
  9 11  1  0  0  0  0
  9 17  1  0  0  0  0
 11 12  1  0  0  0  0
 11 13  1  0  0  0  0
 11 14  1  0  0  0  0
 14 15  1  0  0  0  0
 14 16  2  0  0  0  0
 17 18  2  0  0  0  0
 17 19  1  0  0  0  0
 19 20  1  0  0  0  0
 19 21  1  0  0  0  0
 21 22  1  0  0  0  0
 21 23  1  0  0  0  0
 21 24  1  0  0  0  0
M  CHG  1  15  -1
M  END
$$$$

  -OEChem-03222214023D

 24 23  0     1  0  0  0  0  0999 V2000
   -2.4957   -3.6053   -0.3221 H   0  0  0  0  0  0  0  0  0  0  0  0
   -2.4277   -2.5928   -0.7290 C   0  0  0  0  0  0  0  0  0  0  0  0
   -3.2257   -1.9830   -0.2980 H   0  0  0  0  0  0  0  0  0  0  0  0
   -2.5612   -2.6369   -1.8130 H   0  0  0  0  0  0  0  0  0  0  0  0
   -1.0775   -1.9814   -0.4009 C   0  0  0  0  0  0  0  0  0  0  0  0
   -0.2619   -2.6256    0.2396 O   0  0  0  0  0  0  0  0  0  0  0  0
   -0.7944   -0.7126   -0.8517 N   0  0  0  0  0  0  0  0  0  0  0  0
   -1.4494   -0.3284   -1.5451 H   0  0  0  0  0  0  0  0  0  0  0  0
    0.5201   -0.0534   -0.8049 C   0  0  1  0  0  0  0  0  0  0  0  0
    1.2293   -0.6719   -1.3644 H   0  0  0  0  0  0  0  0  0  0  0  0
    0.4562    1.3532   -1.4742 C   0  0  0  0  0  0  0  0  0  0  0  0
    0.7813    2.1177   -0.7616 H   0  0  0  0  0  0  0  0  0  0  0  0
    1.1690    1.3744   -2.3021 H   0  0  0  0  0  0  0  0  0  0  0  0
   -0.9042    1.7767   -2.0318 C   0  0  0  0  0  0  0  0  0  0  0  0
   -1.4180    2.8145   -1.5542 O   0  5  0  0  0  0  0  0  0  0  0  0
   -1.4850    1.0042   -2.8396 O   0  0  0  0  0  0  0  0  0  0  0  0
    1.0695    0.0942    0.6339 C   0  0  0  0  0  0  0  0  0  0  0  0
    2.2697   -0.0231    0.8652 O   0  0  0  0  0  0  0  0  0  0  0  0
    0.2271    0.5367    1.6381 N   0  0  0  0  0  0  0  0  0  0  0  0
   -0.7260    0.7515    1.3575 H   0  0  0  0  0  0  0  0  0  0  0  0
    0.6700    0.8699    2.9822 C   0  0  0  0  0  0  0  0  0  0  0  0
    1.3951    1.6894    2.9536 H   0  0  0  0  0  0  0  0  0  0  0  0
   -0.1835    1.1821    3.5911 H   0  0  0  0  0  0  0  0  0  0  0  0
    1.1345    0.0000    3.4575 H   0  0  0  0  0  0  0  0  0  0  0  0
  1  2  1  0  0  0  0
  2  3  1  0  0  0  0
  2  4  1  0  0  0  0
  2  5  1  0  0  0  0
  5  6  2  0  0  0  0
  5  7  1  0  0  0  0
  7  8  1  0  0  0  0
  7  9  1  0  0  0  0
  9 10  1  0  0  0  0
  9 11  1  0  0  0  0
  9 17  1  0  0  0  0
 11 12  1  0  0  0  0
 11 13  1  0  0  0  0
 11 14  1  0  0  0  0
 14 15  1  0  0  0  0
 14 16  2  0  0  0  0
 17 18  2  0  0  0  0
 17 19  1  0  0  0  0
 19 20  1  0  0  0  0
 19 21  1  0  0  0  0
 21 22  1  0  0  0  0
 21 23  1  0  0  0  0
 21 24  1  0  0  0  0
M  CHG  1  15  -1
M  END
$$$$

  -OEChem-03222214023D

 24 23  0     1  0  0  0  0  0999 V2000
   -2.4774   -3.6326   -0.3070 H   0  0  0  0  0  0  0  0  0  0  0  0
   -2.4214   -2.6192   -0.7136 C   0  0  0  0  0  0  0  0  0  0  0  0
   -3.2281   -2.0197   -0.2847 H   0  0  0  0  0  0  0  0  0  0  0  0
   -2.5521   -2.6650   -1.7978 H   0  0  0  0  0  0  0  0  0  0  0  0
   -1.0792   -1.9917   -0.3826 C   0  0  0  0  0  0  0  0  0  0  0  0
   -0.2574   -2.6258    0.2599 O   0  0  0  0  0  0  0  0  0  0  0  0
   -0.8082   -0.7207   -0.8349 N   0  0  0  0  0  0  0  0  0  0  0  0
   -1.4752   -0.3352   -1.5164 H   0  0  0  0  0  0  0  0  0  0  0  0
    0.4997   -0.0511   -0.7984 C   0  0  1  0  0  0  0  0  0  0  0  0
    1.2067   -0.6738   -1.3558 H   0  0  0  0  0  0  0  0  0  0  0  0
    0.4410    1.3499   -1.4843 C   0  0  0  0  0  0  0  0  0  0  0  0
    0.7670    2.1137   -0.7716 H   0  0  0  0  0  0  0  0  0  0  0  0
    1.1660    1.3588   -2.3014 H   0  0  0  0  0  0  0  0  0  0  0  0
   -0.8998    1.8112   -2.0689 C   0  0  0  0  0  0  0  0  0  0  0  0
   -1.2444    2.9898   -1.8219 O   0  5  0  0  0  0  0  0  0  0  0  0
   -1.5949    0.9950   -2.7319 O   0  0  0  0  0  0  0  0  0  0  0  0
    1.0613    0.1027    0.6352 C   0  0  0  0  0  0  0  0  0  0  0  0
    2.2652    0.0005    0.8538 O   0  0  0  0  0  0  0  0  0  0  0  0
    0.2261    0.5385    1.6481 N   0  0  0  0  0  0  0  0  0  0  0  0
   -0.7407    0.7104    1.3885 H   0  0  0  0  0  0  0  0  0  0  0  0
    0.6780    0.8650    2.9908 C   0  0  0  0  0  0  0  0  0  0  0  0
    1.4062    1.6817    2.9603 H   0  0  0  0  0  0  0  0  0  0  0  0
   -0.1703    1.1791    3.6058 H   0  0  0  0  0  0  0  0  0  0  0  0
    1.1422   -0.0083    3.4601 H   0  0  0  0  0  0  0  0  0  0  0  0
  1  2  1  0  0  0  0
  2  3  1  0  0  0  0
  2  4  1  0  0  0  0
  2  5  1  0  0  0  0
  5  6  2  0  0  0  0
  5  7  1  0  0  0  0
  7  8  1  0  0  0  0
  7  9  1  0  0  0  0
  9 10  1  0  0  0  0
  9 11  1  0  0  0  0
  9 17  1  0  0  0  0
 11 12  1  0  0  0  0
 11 13  1  0  0  0  0
 11 14  1  0  0  0  0
 14 15  1  0  0  0  0
 14 16  2  0  0  0  0
 17 18  2  0  0  0  0
 17 19  1  0  0  0  0
 19 20  1  0  0  0  0
 19 21  1  0  0  0  0
 21 22  1  0  0  0  0
 21 23  1  0  0  0  0
 21 24  1  0  0  0  0
M  CHG  1  15  -1
M  END
$$$$

  -OEChem-03222214023D

 24 23  0     1  0  0  0  0  0999 V2000
   -2.4458   -3.6478   -0.2626 H   0  0  0  0  0  0  0  0  0  0  0  0
   -2.4080   -2.6306   -0.6615 C   0  0  0  0  0  0  0  0  0  0  0  0
   -3.2015   -2.0382   -0.1992 H   0  0  0  0  0  0  0  0  0  0  0  0
   -2.5759   -2.6672   -1.7410 H   0  0  0  0  0  0  0  0  0  0  0  0
   -1.0579   -2.0001   -0.3716 C   0  0  0  0  0  0  0  0  0  0  0  0
   -0.2180   -2.6288    0.2525 O   0  0  0  0  0  0  0  0  0  0  0  0
   -0.8039   -0.7280   -0.8298 N   0  0  0  0  0  0  0  0  0  0  0  0
   -1.5002   -0.3309   -1.4741 H   0  0  0  0  0  0  0  0  0  0  0  0
    0.4920   -0.0376   -0.8063 C   0  0  1  0  0  0  0  0  0  0  0  0
    1.2036   -0.6597   -1.3586 H   0  0  0  0  0  0  0  0  0  0  0  0
    0.4294    1.3568   -1.5101 C   0  0  0  0  0  0  0  0  0  0  0  0
    0.7497    2.1232   -0.7975 H   0  0  0  0  0  0  0  0  0  0  0  0
    1.1669    1.3569   -2.3163 H   0  0  0  0  0  0  0  0  0  0  0  0
   -0.8924    1.8482   -2.1219 C   0  0  0  0  0  0  0  0  0  0  0  0
   -1.0605    3.0895   -2.1306 O   0  5  0  0  0  0  0  0  0  0  0  0
   -1.7199    1.0227   -2.5942 O   0  0  0  0  0  0  0  0  0  0  0  0
    1.0566    0.1292    0.6247 C   0  0  0  0  0  0  0  0  0  0  0  0
    2.2617    0.0398    0.8415 O   0  0  0  0  0  0  0  0  0  0  0  0
    0.2188    0.5542    1.6399 N   0  0  0  0  0  0  0  0  0  0  0  0
   -0.7602    0.6691    1.3961 H   0  0  0  0  0  0  0  0  0  0  0  0
    0.6599    0.8298    2.9976 C   0  0  0  0  0  0  0  0  0  0  0  0
    1.4143    1.6229    3.0010 H   0  0  0  0  0  0  0  0  0  0  0  0
   -0.1875    1.1544    3.6085 H   0  0  0  0  0  0  0  0  0  0  0  0
    1.0885   -0.0706    3.4490 H   0  0  0  0  0  0  0  0  0  0  0  0
  1  2  1  0  0  0  0
  2  3  1  0  0  0  0
  2  4  1  0  0  0  0
  2  5  1  0  0  0  0
  5  6  2  0  0  0  0
  5  7  1  0  0  0  0
  7  8  1  0  0  0  0
  7  9  1  0  0  0  0
  9 10  1  0  0  0  0
  9 11  1  0  0  0  0
  9 17  1  0  0  0  0
 11 12  1  0  0  0  0
 11 13  1  0  0  0  0
 11 14  1  0  0  0  0
 14 15  1  0  0  0  0
 14 16  2  0  0  0  0
 17 18  2  0  0  0  0
 17 19  1  0  0  0  0
 19 20  1  0  0  0  0
 19 21  1  0  0  0  0
 21 22  1  0  0  0  0
 21 23  1  0  0  0  0
 21 24  1  0  0  0  0
M  CHG  1  15  -1
M  END
$$$$

  -OEChem-03222214023D

 24 23  0     1  0  0  0  0  0999 V2000
   -2.4260   -3.6527   -0.2033 H   0  0  0  0  0  0  0  0  0  0  0  0
   -2.3977   -2.6363   -0.6052 C   0  0  0  0  0  0  0  0  0  0  0  0
   -3.1614   -2.0357   -0.1049 H   0  0  0  0  0  0  0  0  0  0  0  0
   -2.6198   -2.6721   -1.6748 H   0  0  0  0  0  0  0  0  0  0  0  0
   -1.0285   -2.0193   -0.3844 C   0  0  0  0  0  0  0  0  0  0  0  0
   -0.1599   -2.6605    0.1852 O   0  0  0  0  0  0  0  0  0  0  0  0
   -0.7891   -0.7440   -0.8408 N   0  0  0  0  0  0  0  0  0  0  0  0
   -1.5301   -0.3085   -1.4051 H   0  0  0  0  0  0  0  0  0  0  0  0
    0.4952   -0.0340   -0.8230 C   0  0  1  0  0  0  0  0  0  0  0  0
    1.2145   -0.6490   -1.3737 H   0  0  0  0  0  0  0  0  0  0  0  0
    0.4300    1.3637   -1.5240 C   0  0  0  0  0  0  0  0  0  0  0  0
    0.7526    2.1264   -0.8087 H   0  0  0  0  0  0  0  0  0  0  0  0
    1.1730    1.3591   -2.3255 H   0  0  0  0  0  0  0  0  0  0  0  0
   -0.8754    1.8875   -2.1492 C   0  0  0  0  0  0  0  0  0  0  0  0
   -0.8821    3.1124   -2.4114 O   0  5  0  0  0  0  0  0  0  0  0  0
   -1.8469    1.1170   -2.3757 O   0  0  0  0  0  0  0  0  0  0  0  0
    1.0522    0.1337    0.6109 C   0  0  0  0  0  0  0  0  0  0  0  0
    2.2568    0.0594    0.8353 O   0  0  0  0  0  0  0  0  0  0  0  0
    0.2013    0.5413    1.6228 N   0  0  0  0  0  0  0  0  0  0  0  0
   -0.7791    0.6347    1.3746 H   0  0  0  0  0  0  0  0  0  0  0  0
    0.6267    0.8073    2.9872 C   0  0  0  0  0  0  0  0  0  0  0  0
    1.3659    1.6146    3.0067 H   0  0  0  0  0  0  0  0  0  0  0  0
   -0.2313    1.1083    3.5953 H   0  0  0  0  0  0  0  0  0  0  0  0
    1.0685   -0.0909    3.4304 H   0  0  0  0  0  0  0  0  0  0  0  0
  1  2  1  0  0  0  0
  2  3  1  0  0  0  0
  2  4  1  0  0  0  0
  2  5  1  0  0  0  0
  5  6  2  0  0  0  0
  5  7  1  0  0  0  0
  7  8  1  0  0  0  0
  7  9  1  0  0  0  0
  9 10  1  0  0  0  0
  9 11  1  0  0  0  0
  9 17  1  0  0  0  0
 11 12  1  0  0  0  0
 11 13  1  0  0  0  0
 11 14  1  0  0  0  0
 14 15  1  0  0  0  0
 14 16  2  0  0  0  0
 17 18  2  0  0  0  0
 17 19  1  0  0  0  0
 19 20  1  0  0  0  0
 19 21  1  0  0  0  0
 21 22  1  0  0  0  0
 21 23  1  0  0  0  0
 21 24  1  0  0  0  0
M  CHG  1  15  -1
M  END
$$$$

  -OEChem-03222214023D

 24 23  0     1  0  0  0  0  0999 V2000
   -2.3784   -3.5976   -0.0571 H   0  0  0  0  0  0  0  0  0  0  0  0
   -2.3611   -2.5839   -0.4665 C   0  0  0  0  0  0  0  0  0  0  0  0
   -2.9635   -1.9339    0.1732 H   0  0  0  0  0  0  0  0  0  0  0  0
   -2.7972   -2.5982   -1.4684 H   0  0  0  0  0  0  0  0  0  0  0  0
   -0.9354   -2.0668   -0.5317 C   0  0  0  0  0  0  0  0  0  0  0  0
   -0.0101   -2.7966   -0.2124 O   0  0  0  0  0  0  0  0  0  0  0  0
   -0.7066   -0.7827   -0.9689 N   0  0  0  0  0  0  0  0  0  0  0  0
   -1.5348   -0.2018   -1.1491 H   0  0  0  0  0  0  0  0  0  0  0  0
    0.5708   -0.0618   -0.9007 C   0  0  1  0  0  0  0  0  0  0  0  0
    1.3324   -0.6273   -1.4474 H   0  0  0  0  0  0  0  0  0  0  0  0
    0.4803    1.3807   -1.4959 C   0  0  0  0  0  0  0  0  0  0  0  0
    1.0667    2.0672   -0.8779 H   0  0  0  0  0  0  0  0  0  0  0  0
    0.9734    1.3462   -2.4707 H   0  0  0  0  0  0  0  0  0  0  0  0
   -0.8832    2.0466   -1.7468 C   0  0  0  0  0  0  0  0  0  0  0  0
   -0.8286    3.2012   -2.2283 O   0  5  0  0  0  0  0  0  0  0  0  0
   -1.9509    1.4977   -1.3604 O   0  0  0  0  0  0  0  0  0  0  0  0
    1.0375    0.0676    0.5686 C   0  0  0  0  0  0  0  0  0  0  0  0
    2.2222   -0.0338    0.8733 O   0  0  0  0  0  0  0  0  0  0  0  0
    0.1160    0.4441    1.5301 N   0  0  0  0  0  0  0  0  0  0  0  0
   -0.8051    0.6994    1.1789 H   0  0  0  0  0  0  0  0  0  0  0  0
    0.4713    0.7805    2.8991 C   0  0  0  0  0  0  0  0  0  0  0  0
    1.1449    1.6430    2.9186 H   0  0  0  0  0  0  0  0  0  0  0  0
   -0.4288    1.0286    3.4690 H   0  0  0  0  0  0  0  0  0  0  0  0
    0.9648   -0.0675    3.3844 H   0  0  0  0  0  0  0  0  0  0  0  0
  1  2  1  0  0  0  0
  2  3  1  0  0  0  0
  2  4  1  0  0  0  0
  2  5  1  0  0  0  0
  5  6  2  0  0  0  0
  5  7  1  0  0  0  0
  7  8  1  0  0  0  0
  7  9  1  0  0  0  0
  9 10  1  0  0  0  0
  9 11  1  0  0  0  0
  9 17  1  0  0  0  0
 11 12  1  0  0  0  0
 11 13  1  0  0  0  0
 11 14  1  0  0  0  0
 14 15  1  0  0  0  0
 14 16  2  0  0  0  0
 17 18  2  0  0  0  0
 17 19  1  0  0  0  0
 19 20  1  0  0  0  0
 19 21  1  0  0  0  0
 21 22  1  0  0  0  0
 21 23  1  0  0  0  0
 21 24  1  0  0  0  0
M  CHG  1  15  -1
M  END
$$$$

  -OEChem-03222214023D

 24 23  0     1  0  0  0  0  0999 V2000
   -2.3676   -3.5607   -0.0131 H   0  0  0  0  0  0  0  0  0  0  0  0
   -2.3504   -2.5470   -0.4223 C   0  0  0  0  0  0  0  0  0  0  0  0
   -2.8971   -1.8839    0.2531 H   0  0  0  0  0  0  0  0  0  0  0  0
   -2.8454   -2.5485   -1.3965 H   0  0  0  0  0  0  0  0  0  0  0  0
   -0.9194   -2.0635   -0.5722 C   0  0  0  0  0  0  0  0  0  0  0  0
    0.0067   -2.8181   -0.3194 O   0  0  0  0  0  0  0  0  0  0  0  0
   -0.6885   -0.7802   -1.0114 N   0  0  0  0  0  0  0  0  0  0  0  0
   -1.5143   -0.1734   -1.0812 H   0  0  0  0  0  0  0  0  0  0  0  0
    0.5972   -0.0731   -0.9252 C   0  0  1  0  0  0  0  0  0  0  0  0
    1.3645   -0.6320   -1.4700 H   0  0  0  0  0  0  0  0  0  0  0  0
    0.5066    1.3799   -1.4889 C   0  0  0  0  0  0  0  0  0  0  0  0
    1.0910    2.0636   -0.8662 H   0  0  0  0  0  0  0  0  0  0  0  0
    0.9891    1.3653   -2.4697 H   0  0  0  0  0  0  0  0  0  0  0  0
   -0.8746    2.0134   -1.7051 C   0  0  0  0  0  0  0  0  0  0  0  0
   -0.9030    3.0408   -2.4199 O   0  5  0  0  0  0  0  0  0  0  0  0
   -1.8639    1.5804   -1.0510 O   0  0  0  0  0  0  0  0  0  0  0  0
    1.0344    0.0450    0.5536 C   0  0  0  0  0  0  0  0  0  0  0  0
    2.2085   -0.0834    0.8876 O   0  0  0  0  0  0  0  0  0  0  0  0
    0.0911    0.4299    1.4909 N   0  0  0  0  0  0  0  0  0  0  0  0
   -0.7976    0.7477    1.1022 H   0  0  0  0  0  0  0  0  0  0  0  0
    0.4209    0.7721    2.8647 C   0  0  0  0  0  0  0  0  0  0  0  0
    1.0674    1.6550    2.8937 H   0  0  0  0  0  0  0  0  0  0  0  0
   -0.4928    0.9892    3.4257 H   0  0  0  0  0  0  0  0  0  0  0  0
    0.9355   -0.0616    3.3532 H   0  0  0  0  0  0  0  0  0  0  0  0
  1  2  1  0  0  0  0
  2  3  1  0  0  0  0
  2  4  1  0  0  0  0
  2  5  1  0  0  0  0
  5  6  2  0  0  0  0
  5  7  1  0  0  0  0
  7  8  1  0  0  0  0
  7  9  1  0  0  0  0
  9 10  1  0  0  0  0
  9 11  1  0  0  0  0
  9 17  1  0  0  0  0
 11 12  1  0  0  0  0
 11 13  1  0  0  0  0
 11 14  1  0  0  0  0
 14 15  1  0  0  0  0
 14 16  2  0  0  0  0
 17 18  2  0  0  0  0
 17 19  1  0  0  0  0
 19 20  1  0  0  0  0
 19 21  1  0  0  0  0
 21 22  1  0  0  0  0
 21 23  1  0  0  0  0
 21 24  1  0  0  0  0
M  CHG  1  15  -1
M  END
$$$$

  -OEChem-03222214023D

 24 23  0     1  0  0  0  0  0999 V2000
   -2.3640   -3.5270    0.0111 H   0  0  0  0  0  0  0  0  0  0  0  0
   -2.3468   -2.5148   -0.4019 C   0  0  0  0  0  0  0  0  0  0  0  0
   -2.8598   -1.8421    0.2903 H   0  0  0  0  0  0  0  0  0  0  0  0
   -2.8759   -2.5123   -1.3581 H   0  0  0  0  0  0  0  0  0  0  0  0
   -0.9149   -2.0528   -0.6030 C   0  0  0  0  0  0  0  0  0  0  0  0
    0.0076   -2.8244   -0.3909 O   0  0  0  0  0  0  0  0  0  0  0  0
   -0.6790   -0.7693   -1.0400 N   0  0  0  0  0  0  0  0  0  0  0  0
   -1.4973   -0.1490   -1.0464 H   0  0  0  0  0  0  0  0  0  0  0  0
    0.6156   -0.0769   -0.9359 C   0  0  1  0  0  0  0  0  0  0  0  0
    1.3856   -0.6327   -1.4804 H   0  0  0  0  0  0  0  0  0  0  0  0
    0.5279    1.3825   -1.4774 C   0  0  0  0  0  0  0  0  0  0  0  0
    1.1030    2.0651   -0.8454 H   0  0  0  0  0  0  0  0  0  0  0  0
    1.0082    1.3880   -2.4595 H   0  0  0  0  0  0  0  0  0  0  0  0
   -0.8708    1.9762   -1.6686 C   0  0  0  0  0  0  0  0  0  0  0  0
   -1.0168    2.8255   -2.5764 O   0  5  0  0  0  0  0  0  0  0  0  0
   -1.7733    1.6482   -0.8475 O   0  0  0  0  0  0  0  0  0  0  0  0
    1.0346    0.0302    0.5488 C   0  0  0  0  0  0  0  0  0  0  0  0
    2.2013   -0.1172    0.9007 O   0  0  0  0  0  0  0  0  0  0  0  0
    0.0795    0.4239    1.4703 N   0  0  0  0  0  0  0  0  0  0  0  0
   -0.7833    0.7870    1.0575 H   0  0  0  0  0  0  0  0  0  0  0  0
    0.3956    0.7710    2.8460 C   0  0  0  0  0  0  0  0  0  0  0  0
    1.0529    1.6457    2.8778 H   0  0  0  0  0  0  0  0  0  0  0  0
   -0.5228    1.0033    3.3931 H   0  0  0  0  0  0  0  0  0  0  0  0
    0.8929   -0.0658    3.3470 H   0  0  0  0  0  0  0  0  0  0  0  0
  1  2  1  0  0  0  0
  2  3  1  0  0  0  0
  2  4  1  0  0  0  0
  2  5  1  0  0  0  0
  5  6  2  0  0  0  0
  5  7  1  0  0  0  0
  7  8  1  0  0  0  0
  7  9  1  0  0  0  0
  9 10  1  0  0  0  0
  9 11  1  0  0  0  0
  9 17  1  0  0  0  0
 11 12  1  0  0  0  0
 11 13  1  0  0  0  0
 11 14  1  0  0  0  0
 14 15  1  0  0  0  0
 14 16  2  0  0  0  0
 17 18  2  0  0  0  0
 17 19  1  0  0  0  0
 19 20  1  0  0  0  0
 19 21  1  0  0  0  0
 21 22  1  0  0  0  0
 21 23  1  0  0  0  0
 21 24  1  0  0  0  0
M  CHG  1  15  -1
M  END
$$$$

  -OEChem-03222214023D

 24 23  0     1  0  0  0  0  0999 V2000
   -2.3768   -3.5000    0.0021 H   0  0  0  0  0  0  0  0  0  0  0  0
   -2.3530   -2.4855   -0.4047 C   0  0  0  0  0  0  0  0  0  0  0  0
   -2.8537   -1.8124    0.2961 H   0  0  0  0  0  0  0  0  0  0  0  0
   -2.8897   -2.4718   -1.3566 H   0  0  0  0  0  0  0  0  0  0  0  0
   -0.9184   -2.0368   -0.6146 C   0  0  0  0  0  0  0  0  0  0  0  0
   -0.0015   -2.8173   -0.4105 O   0  0  0  0  0  0  0  0  0  0  0  0
   -0.6739   -0.7542   -1.0495 N   0  0  0  0  0  0  0  0  0  0  0  0
   -1.4863   -0.1272   -1.0370 H   0  0  0  0  0  0  0  0  0  0  0  0
    0.6272   -0.0738   -0.9344 C   0  0  1  0  0  0  0  0  0  0  0  0
    1.3965   -0.6319   -1.4777 H   0  0  0  0  0  0  0  0  0  0  0  0
    0.5430    1.3854   -1.4723 C   0  0  0  0  0  0  0  0  0  0  0  0
    1.1069    2.0724   -0.8349 H   0  0  0  0  0  0  0  0  0  0  0  0
    1.0254    1.3998   -2.4535 H   0  0  0  0  0  0  0  0  0  0  0  0
   -0.8692    1.9426   -1.6534 C   0  0  0  0  0  0  0  0  0  0  0  0
   -1.1329    2.5621   -2.7085 O   0  5  0  0  0  0  0  0  0  0  0  0
   -1.6993    1.7182   -0.7279 O   0  0  0  0  0  0  0  0  0  0  0  0
    1.0384    0.0278    0.5529 C   0  0  0  0  0  0  0  0  0  0  0  0
    2.2010   -0.1345    0.9119 O   0  0  0  0  0  0  0  0  0  0  0  0
    0.0808    0.4297    1.4684 N   0  0  0  0  0  0  0  0  0  0  0  0
   -0.7668    0.8207    1.0462 H   0  0  0  0  0  0  0  0  0  0  0  0
    0.3928    0.7720    2.8462 C   0  0  0  0  0  0  0  0  0  0  0  0
    1.0443    1.6507    2.8829 H   0  0  0  0  0  0  0  0  0  0  0  0
   -0.5278    0.9950    3.3934 H   0  0  0  0  0  0  0  0  0  0  0  0
    0.8949   -0.0640    3.3434 H   0  0  0  0  0  0  0  0  0  0  0  0
  1  2  1  0  0  0  0
  2  3  1  0  0  0  0
  2  4  1  0  0  0  0
  2  5  1  0  0  0  0
  5  6  2  0  0  0  0
  5  7  1  0  0  0  0
  7  8  1  0  0  0  0
  7  9  1  0  0  0  0
  9 10  1  0  0  0  0
  9 11  1  0  0  0  0
  9 17  1  0  0  0  0
 11 12  1  0  0  0  0
 11 13  1  0  0  0  0
 11 14  1  0  0  0  0
 14 15  1  0  0  0  0
 14 16  2  0  0  0  0
 17 18  2  0  0  0  0
 17 19  1  0  0  0  0
 19 20  1  0  0  0  0
 19 21  1  0  0  0  0
 21 22  1  0  0  0  0
 21 23  1  0  0  0  0
 21 24  1  0  0  0  0
M  CHG  1  15  -1
M  END
$$$$

  -OEChem-03222214023D

 24 23  0     1  0  0  0  0  0999 V2000
   -2.4066   -3.4990   -0.0653 H   0  0  0  0  0  0  0  0  0  0  0  0
   -2.3701   -2.4726   -0.4399 C   0  0  0  0  0  0  0  0  0  0  0  0
   -2.8781   -1.8178    0.2729 H   0  0  0  0  0  0  0  0  0  0  0  0
   -2.8911   -2.4264   -1.3993 H   0  0  0  0  0  0  0  0  0  0  0  0
   -0.9298   -2.0259   -0.6132 C   0  0  0  0  0  0  0  0  0  0  0  0
   -0.0197   -2.8084   -0.3870 O   0  0  0  0  0  0  0  0  0  0  0  0
   -0.6736   -0.7446   -1.0451 N   0  0  0  0  0  0  0  0  0  0  0  0
   -1.4839   -0.1162   -1.0512 H   0  0  0  0  0  0  0  0  0  0  0  0
    0.6322   -0.0720   -0.9239 C   0  0  1  0  0  0  0  0  0  0  0  0
    1.3992   -0.6320   -1.4681 H   0  0  0  0  0  0  0  0  0  0  0  0
    0.5488    1.3862   -1.4622 C   0  0  0  0  0  0  0  0  0  0  0  0
    1.1037    2.0779   -0.8219 H   0  0  0  0  0  0  0  0  0  0  0  0
    1.0319    1.4077   -2.4428 H   0  0  0  0  0  0  0  0  0  0  0  0
   -0.8736    1.9123   -1.6357 C   0  0  0  0  0  0  0  0  0  0  0  0
   -1.2473    2.2692   -2.7755 O   0  5  0  0  0  0  0  0  0  0  0  0
   -1.6361    1.7972   -0.6365 O   0  0  0  0  0  0  0  0  0  0  0  0
    1.0460    0.0301    0.5629 C   0  0  0  0  0  0  0  0  0  0  0  0
    2.2091   -0.1362    0.9193 O   0  0  0  0  0  0  0  0  0  0  0  0
    0.0928    0.4395    1.4793 N   0  0  0  0  0  0  0  0  0  0  0  0
   -0.7460    0.8473    1.0534 H   0  0  0  0  0  0  0  0  0  0  0  0
    0.4140    0.7944    2.8516 C   0  0  0  0  0  0  0  0  0  0  0  0
    1.0775    1.6648    2.8754 H   0  0  0  0  0  0  0  0  0  0  0  0
   -0.5016    1.0374    3.3986 H   0  0  0  0  0  0  0  0  0  0  0  0
    0.9061   -0.0422    3.3579 H   0  0  0  0  0  0  0  0  0  0  0  0
  1  2  1  0  0  0  0
  2  3  1  0  0  0  0
  2  4  1  0  0  0  0
  2  5  1  0  0  0  0
  5  6  2  0  0  0  0
  5  7  1  0  0  0  0
  7  8  1  0  0  0  0
  7  9  1  0  0  0  0
  9 10  1  0  0  0  0
  9 11  1  0  0  0  0
  9 17  1  0  0  0  0
 11 12  1  0  0  0  0
 11 13  1  0  0  0  0
 11 14  1  0  0  0  0
 14 15  1  0  0  0  0
 14 16  2  0  0  0  0
 17 18  2  0  0  0  0
 17 19  1  0  0  0  0
 19 20  1  0  0  0  0
 19 21  1  0  0  0  0
 21 22  1  0  0  0  0
 21 23  1  0  0  0  0
 21 24  1  0  0  0  0
M  CHG  1  15  -1
M  END
$$$$

  -OEChem-03222214023D

 24 23  0     1  0  0  0  0  0999 V2000
   -2.4283   -3.4787   -0.0646 H   0  0  0  0  0  0  0  0  0  0  0  0
   -2.3839   -2.4643   -0.4705 C   0  0  0  0  0  0  0  0  0  0  0  0
   -2.9216   -1.7913    0.2023 H   0  0  0  0  0  0  0  0  0  0  0  0
   -2.8699   -2.4516   -1.4493 H   0  0  0  0  0  0  0  0  0  0  0  0
   -0.9405   -2.0135   -0.6044 C   0  0  0  0  0  0  0  0  0  0  0  0
   -0.0356   -2.7910   -0.3422 O   0  0  0  0  0  0  0  0  0  0  0  0
   -0.6744   -0.7348   -1.0380 N   0  0  0  0  0  0  0  0  0  0  0  0
   -1.4851   -0.1139   -1.1127 H   0  0  0  0  0  0  0  0  0  0  0  0
    0.6344   -0.0655   -0.9182 C   0  0  1  0  0  0  0  0  0  0  0  0
    1.3993   -0.6283   -1.4625 H   0  0  0  0  0  0  0  0  0  0  0  0
    0.5519    1.3902   -1.4603 C   0  0  0  0  0  0  0  0  0  0  0  0
    1.1026    2.0864   -0.8210 H   0  0  0  0  0  0  0  0  0  0  0  0
    1.0305    1.4151   -2.4431 H   0  0  0  0  0  0  0  0  0  0  0  0
   -0.8781    1.8910   -1.6248 C   0  0  0  0  0  0  0  0  0  0  0  0
   -1.3561    1.9678   -2.7790 O   0  5  0  0  0  0  0  0  0  0  0  0
   -1.5642    1.9222   -0.5686 O   0  0  0  0  0  0  0  0  0  0  0  0
    1.0523    0.0414    0.5675 C   0  0  0  0  0  0  0  0  0  0  0  0
    2.2153   -0.1331    0.9211 O   0  0  0  0  0  0  0  0  0  0  0  0
    0.1048    0.4571    1.4869 N   0  0  0  0  0  0  0  0  0  0  0  0
   -0.7246    0.8854    1.0616 H   0  0  0  0  0  0  0  0  0  0  0  0
    0.4328    0.8032    2.8600 C   0  0  0  0  0  0  0  0  0  0  0  0
    1.1126    1.6606    2.8859 H   0  0  0  0  0  0  0  0  0  0  0  0
   -0.4780    1.0626    3.4075 H   0  0  0  0  0  0  0  0  0  0  0  0
    0.9091   -0.0435    3.3645 H   0  0  0  0  0  0  0  0  0  0  0  0
  1  2  1  0  0  0  0
  2  3  1  0  0  0  0
  2  4  1  0  0  0  0
  2  5  1  0  0  0  0
  5  6  2  0  0  0  0
  5  7  1  0  0  0  0
  7  8  1  0  0  0  0
  7  9  1  0  0  0  0
  9 10  1  0  0  0  0
  9 11  1  0  0  0  0
  9 17  1  0  0  0  0
 11 12  1  0  0  0  0
 11 13  1  0  0  0  0
 11 14  1  0  0  0  0
 14 15  1  0  0  0  0
 14 16  2  0  0  0  0
 17 18  2  0  0  0  0
 17 19  1  0  0  0  0
 19 20  1  0  0  0  0
 19 21  1  0  0  0  0
 21 22  1  0  0  0  0
 21 23  1  0  0  0  0
 21 24  1  0  0  0  0
M  CHG  1  15  -1
M  END
$$$$

  -OEChem-03222214023D

 24 23  0     1  0  0  0  0  0999 V2000
   -2.4936   -3.5033   -0.1825 H   0  0  0  0  0  0  0  0  0  0  0  0
   -2.4203   -2.4885   -0.5826 C   0  0  0  0  0  0  0  0  0  0  0  0
   -3.0533   -1.8266    0.0139 H   0  0  0  0  0  0  0  0  0  0  0  0
   -2.7783   -2.4871   -1.6150 H   0  0  0  0  0  0  0  0  0  0  0  0
   -0.9821   -2.0061   -0.5347 C   0  0  0  0  0  0  0  0  0  0  0  0
   -0.1049   -2.7540   -0.1316 O   0  0  0  0  0  0  0  0  0  0  0  0
   -0.6873   -0.7392   -0.9828 N   0  0  0  0  0  0  0  0  0  0  0  0
   -1.4707   -0.1770   -1.3255 H   0  0  0  0  0  0  0  0  0  0  0  0
    0.6263   -0.0733   -0.8909 C   0  0  1  0  0  0  0  0  0  0  0  0
    1.3814   -0.6426   -1.4419 H   0  0  0  0  0  0  0  0  0  0  0  0
    0.5315    1.3771   -1.4438 C   0  0  0  0  0  0  0  0  0  0  0  0
    1.0930    2.0823   -0.8237 H   0  0  0  0  0  0  0  0  0  0  0  0
    0.9844    1.3978   -2.4385 H   0  0  0  0  0  0  0  0  0  0  0  0
   -0.9065    1.8570   -1.5756 C   0  0  0  0  0  0  0  0  0  0  0  0
   -1.4999    1.6468   -2.6591 O   0  5  0  0  0  0  0  0  0  0  0  0
   -1.4831    2.1412   -0.4962 O   0  0  0  0  0  0  0  0  0  0  0  0
    1.0714    0.0588    0.5849 C   0  0  0  0  0  0  0  0  0  0  0  0
    2.2414   -0.1165    0.9155 O   0  0  0  0  0  0  0  0  0  0  0  0
    0.1462    0.4946    1.5173 N   0  0  0  0  0  0  0  0  0  0  0  0
   -0.6858    0.9285    1.1038 H   0  0  0  0  0  0  0  0  0  0  0  0
    0.5065    0.8558    2.8781 C   0  0  0  0  0  0  0  0  0  0  0  0
    1.1931    1.7083    2.8784 H   0  0  0  0  0  0  0  0  0  0  0  0
   -0.3902    1.1290    3.4417 H   0  0  0  0  0  0  0  0  0  0  0  0
    0.9870    0.0117    3.3832 H   0  0  0  0  0  0  0  0  0  0  0  0
  1  2  1  0  0  0  0
  2  3  1  0  0  0  0
  2  4  1  0  0  0  0
  2  5  1  0  0  0  0
  5  6  2  0  0  0  0
  5  7  1  0  0  0  0
  7  8  1  0  0  0  0
  7  9  1  0  0  0  0
  9 10  1  0  0  0  0
  9 11  1  0  0  0  0
  9 17  1  0  0  0  0
 11 12  1  0  0  0  0
 11 13  1  0  0  0  0
 11 14  1  0  0  0  0
 14 15  1  0  0  0  0
 14 16  2  0  0  0  0
 17 18  2  0  0  0  0
 17 19  1  0  0  0  0
 19 20  1  0  0  0  0
 19 21  1  0  0  0  0
 21 22  1  0  0  0  0
 21 23  1  0  0  0  0
 21 24  1  0  0  0  0
M  CHG  1  15  -1
M  END
$$$$

  -OEChem-03222214023D

 24 23  0     1  0  0  0  0  0999 V2000
   -2.5187   -3.5330   -0.2583 H   0  0  0  0  0  0  0  0  0  0  0  0
   -2.4345   -2.5190   -0.6585 C   0  0  0  0  0  0  0  0  0  0  0  0
   -3.1335   -1.8690   -0.1261 H   0  0  0  0  0  0  0  0  0  0  0  0
   -2.6997   -2.5328   -1.7185 H   0  0  0  0  0  0  0  0  0  0  0  0
   -1.0182   -2.0007   -0.4872 C   0  0  0  0  0  0  0  0  0  0  0  0
   -0.1678   -2.7184    0.0157 O   0  0  0  0  0  0  0  0  0  0  0  0
   -0.7095   -0.7395   -0.9416 N   0  0  0  0  0  0  0  0  0  0  0  0
   -1.4431   -0.2381   -1.4569 H   0  0  0  0  0  0  0  0  0  0  0  0
    0.6057   -0.0789   -0.8645 C   0  0  1  0  0  0  0  0  0  0  0  0
    1.3516   -0.6570   -1.4186 H   0  0  0  0  0  0  0  0  0  0  0  0
    0.5059    1.3636   -1.4385 C   0  0  0  0  0  0  0  0  0  0  0  0
    1.0779    2.0744   -0.8340 H   0  0  0  0  0  0  0  0  0  0  0  0
    0.9501    1.3679   -2.4371 H   0  0  0  0  0  0  0  0  0  0  0  0
   -0.9301    1.8552   -1.5751 C   0  0  0  0  0  0  0  0  0  0  0  0
   -1.6189    1.3942   -2.5202 O   0  5  0  0  0  0  0  0  0  0  0  0
   -1.4038    2.4547   -0.5810 O   0  0  0  0  0  0  0  0  0  0  0  0
    1.0770    0.0683    0.6017 C   0  0  0  0  0  0  0  0  0  0  0  0
    2.2542   -0.1039    0.9081 O   0  0  0  0  0  0  0  0  0  0  0  0
    0.1753    0.5170    1.5510 N   0  0  0  0  0  0  0  0  0  0  0  0
   -0.6742    0.9315    1.1614 H   0  0  0  0  0  0  0  0  0  0  0  0
    0.5667    0.8871    2.9010 C   0  0  0  0  0  0  0  0  0  0  0  0
    1.2720    1.7240    2.8793 H   0  0  0  0  0  0  0  0  0  0  0  0
   -0.3139    1.1881    3.4760 H   0  0  0  0  0  0  0  0  0  0  0  0
    1.0366    0.0384    3.4083 H   0  0  0  0  0  0  0  0  0  0  0  0
  1  2  1  0  0  0  0
  2  3  1  0  0  0  0
  2  4  1  0  0  0  0
  2  5  1  0  0  0  0
  5  6  2  0  0  0  0
  5  7  1  0  0  0  0
  7  8  1  0  0  0  0
  7  9  1  0  0  0  0
  9 10  1  0  0  0  0
  9 11  1  0  0  0  0
  9 17  1  0  0  0  0
 11 12  1  0  0  0  0
 11 13  1  0  0  0  0
 11 14  1  0  0  0  0
 14 15  1  0  0  0  0
 14 16  2  0  0  0  0
 17 18  2  0  0  0  0
 17 19  1  0  0  0  0
 19 20  1  0  0  0  0
 19 21  1  0  0  0  0
 21 22  1  0  0  0  0
 21 23  1  0  0  0  0
 21 24  1  0  0  0  0
M  CHG  1  15  -1
M  END
$$$$

  -OEChem-03222214023D

 24 23  0     1  0  0  0  0  0999 V2000
   -2.5096   -3.5776   -0.2838 H   0  0  0  0  0  0  0  0  0  0  0  0
   -2.4348   -2.5612   -0.6794 C   0  0  0  0  0  0  0  0  0  0  0  0
   -3.1638   -1.9277   -0.1680 H   0  0  0  0  0  0  0  0  0  0  0  0
   -2.6670   -2.5781   -1.7472 H   0  0  0  0  0  0  0  0  0  0  0  0
   -1.0356   -2.0133   -0.4646 C   0  0  0  0  0  0  0  0  0  0  0  0
   -0.1877   -2.7110    0.0692 O   0  0  0  0  0  0  0  0  0  0  0  0
   -0.7398   -0.7449   -0.9074 N   0  0  0  0  0  0  0  0  0  0  0  0
   -1.4641   -0.2629   -1.4557 H   0  0  0  0  0  0  0  0  0  0  0  0
    0.5678   -0.0755   -0.8357 C   0  0  1  0  0  0  0  0  0  0  0  0
    1.3059   -0.6656   -1.3879 H   0  0  0  0  0  0  0  0  0  0  0  0
    0.4848    1.3534   -1.4501 C   0  0  0  0  0  0  0  0  0  0  0  0
    1.0647    2.0622   -0.8505 H   0  0  0  0  0  0  0  0  0  0  0  0
    0.9532    1.3202   -2.4367 H   0  0  0  0  0  0  0  0  0  0  0  0
   -0.9259    1.9092   -1.6528 C   0  0  0  0  0  0  0  0  0  0  0  0
   -1.7159    1.2817   -2.4072 O   0  5  0  0  0  0  0  0  0  0  0  0
   -1.2627    2.8660   -0.9186 O   0  0  0  0  0  0  0  0  0  0  0  0
    1.0669    0.0681    0.6221 C   0  0  0  0  0  0  0  0  0  0  0  0
    2.2555   -0.0739    0.8968 O   0  0  0  0  0  0  0  0  0  0  0  0
    0.1865    0.5013    1.5980 N   0  0  0  0  0  0  0  0  0  0  0  0
   -0.7111    0.8346    1.2520 H   0  0  0  0  0  0  0  0  0  0  0  0
    0.6058    0.8907    2.9346 C   0  0  0  0  0  0  0  0  0  0  0  0
    1.2630    1.7649    2.8886 H   0  0  0  0  0  0  0  0  0  0  0  0
   -0.2685    1.1425    3.5420 H   0  0  0  0  0  0  0  0  0  0  0  0
    1.1400    0.0694    3.4232 H   0  0  0  0  0  0  0  0  0  0  0  0
  1  2  1  0  0  0  0
  2  3  1  0  0  0  0
  2  4  1  0  0  0  0
  2  5  1  0  0  0  0
  5  6  2  0  0  0  0
  5  7  1  0  0  0  0
  7  8  1  0  0  0  0
  7  9  1  0  0  0  0
  9 10  1  0  0  0  0
  9 11  1  0  0  0  0
  9 17  1  0  0  0  0
 11 12  1  0  0  0  0
 11 13  1  0  0  0  0
 11 14  1  0  0  0  0
 14 15  1  0  0  0  0
 14 16  2  0  0  0  0
 17 18  2  0  0  0  0
 17 19  1  0  0  0  0
 19 20  1  0  0  0  0
 19 21  1  0  0  0  0
 21 22  1  0  0  0  0
 21 23  1  0  0  0  0
 21 24  1  0  0  0  0
M  CHG  1  15  -1
M  END
$$$$

  -OEChem-03222214023D

 24 23  0     1  0  0  0  0  0999 V2000
   -2.4740   -3.6121   -0.2543 H   0  0  0  0  0  0  0  0  0  0  0  0
   -2.4184   -2.5938   -0.6483 C   0  0  0  0  0  0  0  0  0  0  0  0
   -3.1456   -1.9702   -0.1223 H   0  0  0  0  0  0  0  0  0  0  0  0
   -2.6699   -2.6106   -1.7118 H   0  0  0  0  0  0  0  0  0  0  0  0
   -1.0220   -2.0305   -0.4574 C   0  0  0  0  0  0  0  0  0  0  0  0
   -0.1565   -2.7193    0.0592 O   0  0  0  0  0  0  0  0  0  0  0  0
   -0.7495   -0.7551   -0.8945 N   0  0  0  0  0  0  0  0  0  0  0  0
   -1.4968   -0.2665   -1.4046 H   0  0  0  0  0  0  0  0  0  0  0  0
    0.5451   -0.0648   -0.8334 C   0  0  1  0  0  0  0  0  0  0  0  0
    1.2840   -0.6556   -1.3842 H   0  0  0  0  0  0  0  0  0  0  0  0
    0.4681    1.3594   -1.4663 C   0  0  0  0  0  0  0  0  0  0  0  0
    1.0574    2.0615   -0.8680 H   0  0  0  0  0  0  0  0  0  0  0  0
    0.9500    1.3026   -2.4452 H   0  0  0  0  0  0  0  0  0  0  0  0
   -0.9167    1.9739   -1.7145 C   0  0  0  0  0  0  0  0  0  0  0  0
   -1.8256    1.2732   -2.2356 O   0  5  0  0  0  0  0  0  0  0  0  0
   -1.0838    3.1442   -1.3016 O   0  0  0  0  0  0  0  0  0  0  0  0
    1.0559    0.0774    0.6204 C   0  0  0  0  0  0  0  0  0  0  0  0
    2.2506   -0.0336    0.8813 O   0  0  0  0  0  0  0  0  0  0  0  0
    0.1802    0.4879    1.6103 N   0  0  0  0  0  0  0  0  0  0  0  0
   -0.7515    0.7449    1.2952 H   0  0  0  0  0  0  0  0  0  0  0  0
    0.6016    0.8651    2.9499 C   0  0  0  0  0  0  0  0  0  0  0  0
    1.2782    1.7246    2.9095 H   0  0  0  0  0  0  0  0  0  0  0  0
   -0.2692    1.1358    3.5538 H   0  0  0  0  0  0  0  0  0  0  0  0
    1.1152    0.0307    3.4380 H   0  0  0  0  0  0  0  0  0  0  0  0
  1  2  1  0  0  0  0
  2  3  1  0  0  0  0
  2  4  1  0  0  0  0
  2  5  1  0  0  0  0
  5  6  2  0  0  0  0
  5  7  1  0  0  0  0
  7  8  1  0  0  0  0
  7  9  1  0  0  0  0
  9 10  1  0  0  0  0
  9 11  1  0  0  0  0
  9 17  1  0  0  0  0
 11 12  1  0  0  0  0
 11 13  1  0  0  0  0
 11 14  1  0  0  0  0
 14 15  1  0  0  0  0
 14 16  2  0  0  0  0
 17 18  2  0  0  0  0
 17 19  1  0  0  0  0
 19 20  1  0  0  0  0
 19 21  1  0  0  0  0
 21 22  1  0  0  0  0
 21 23  1  0  0  0  0
 21 24  1  0  0  0  0
M  CHG  1  15  -1
M  END
$$$$

  -OEChem-03222214023D

 24 23  0     1  0  0  0  0  0999 V2000
   -2.4477   -3.6256   -0.2043 H   0  0  0  0  0  0  0  0  0  0  0  0
   -2.4045   -2.6074   -0.6002 C   0  0  0  0  0  0  0  0  0  0  0  0
   -3.1099   -1.9821   -0.0473 H   0  0  0  0  0  0  0  0  0  0  0  0
   -2.6955   -2.6237   -1.6536 H   0  0  0  0  0  0  0  0  0  0  0  0
   -1.0007   -2.0464   -0.4622 C   0  0  0  0  0  0  0  0  0  0  0  0
   -0.1146   -2.7390    0.0129 O   0  0  0  0  0  0  0  0  0  0  0  0
   -0.7462   -0.7666   -0.8971 N   0  0  0  0  0  0  0  0  0  0  0  0
   -1.5237   -0.2570   -1.3362 H   0  0  0  0  0  0  0  0  0  0  0  0
    0.5381   -0.0587   -0.8429 C   0  0  1  0  0  0  0  0  0  0  0  0
    1.2814   -0.6456   -1.3920 H   0  0  0  0  0  0  0  0  0  0  0  0
    0.4615    1.3663   -1.4800 C   0  0  0  0  0  0  0  0  0  0  0  0
    1.0547    2.0620   -0.8781 H   0  0  0  0  0  0  0  0  0  0  0  0
    0.9516    1.3001   -2.4542 H   0  0  0  0  0  0  0  0  0  0  0  0
   -0.9034    2.0219   -1.7530 C   0  0  0  0  0  0  0  0  0  0  0  0
   -1.9147    1.3176   -2.0174 O   0  5  0  0  0  0  0  0  0  0  0  0
   -0.9274    3.2708   -1.6644 O   0  0  0  0  0  0  0  0  0  0  0  0
    1.0481    0.0823    0.6113 C   0  0  0  0  0  0  0  0  0  0  0  0
    2.2443   -0.0088    0.8719 O   0  0  0  0  0  0  0  0  0  0  0  0
    0.1670    0.4750    1.6035 N   0  0  0  0  0  0  0  0  0  0  0  0
   -0.7773    0.6925    1.2974 H   0  0  0  0  0  0  0  0  0  0  0  0
    0.5783    0.8381    2.9501 C   0  0  0  0  0  0  0  0  0  0  0  0
    1.2263    1.7200    2.9260 H   0  0  0  0  0  0  0  0  0  0  0  0
   -0.2997    1.0672    3.5610 H   0  0  0  0  0  0  0  0  0  0  0  0
    1.1202    0.0116    3.4205 H   0  0  0  0  0  0  0  0  0  0  0  0
  1  2  1  0  0  0  0
  2  3  1  0  0  0  0
  2  4  1  0  0  0  0
  2  5  1  0  0  0  0
  5  6  2  0  0  0  0
  5  7  1  0  0  0  0
  7  8  1  0  0  0  0
  7  9  1  0  0  0  0
  9 10  1  0  0  0  0
  9 11  1  0  0  0  0
  9 17  1  0  0  0  0
 11 12  1  0  0  0  0
 11 13  1  0  0  0  0
 11 14  1  0  0  0  0
 14 15  1  0  0  0  0
 14 16  2  0  0  0  0
 17 18  2  0  0  0  0
 17 19  1  0  0  0  0
 19 20  1  0  0  0  0
 19 21  1  0  0  0  0
 21 22  1  0  0  0  0
 21 23  1  0  0  0  0
 21 24  1  0  0  0  0
M  CHG  1  15  -1
M  END
$$$$

  -OEChem-03222214023D

 24 23  0     1  0  0  0  0  0999 V2000
   -2.4137   -3.6175   -0.1246 H   0  0  0  0  0  0  0  0  0  0  0  0
   -2.3847   -2.6039   -0.5333 C   0  0  0  0  0  0  0  0  0  0  0  0
   -3.0496   -1.9664    0.0549 H   0  0  0  0  0  0  0  0  0  0  0  0
   -2.7388   -2.6279   -1.5669 H   0  0  0  0  0  0  0  0  0  0  0  0
   -0.9695   -2.0570   -0.4857 C   0  0  0  0  0  0  0  0  0  0  0  0
   -0.0607   -2.7610   -0.0744 O   0  0  0  0  0  0  0  0  0  0  0  0
   -0.7311   -0.7743   -0.9215 N   0  0  0  0  0  0  0  0  0  0  0  0
   -1.5384   -0.2346   -1.2585 H   0  0  0  0  0  0  0  0  0  0  0  0
    0.5466   -0.0548   -0.8682 C   0  0  1  0  0  0  0  0  0  0  0  0
    1.2971   -0.6324   -1.4176 H   0  0  0  0  0  0  0  0  0  0  0  0
    0.4653    1.3774   -1.4908 C   0  0  0  0  0  0  0  0  0  0  0  0
    1.0581    2.0666   -0.8816 H   0  0  0  0  0  0  0  0  0  0  0  0
    0.9576    1.3185   -2.4646 H   0  0  0  0  0  0  0  0  0  0  0  0
   -0.8912    2.0527   -1.7613 C   0  0  0  0  0  0  0  0  0  0  0  0
   -1.9643    1.3918   -1.7584 O   0  5  0  0  0  0  0  0  0  0  0  0
   -0.8344    3.2864   -1.9684 O   0  0  0  0  0  0  0  0  0  0  0  0
    1.0430    0.0818    0.5911 C   0  0  0  0  0  0  0  0  0  0  0  0
    2.2362   -0.0038    0.8659 O   0  0  0  0  0  0  0  0  0  0  0  0
    0.1467    0.4618    1.5746 N   0  0  0  0  0  0  0  0  0  0  0  0
   -0.7975    0.6678    1.2589 H   0  0  0  0  0  0  0  0  0  0  0  0
    0.5340    0.8049    2.9332 C   0  0  0  0  0  0  0  0  0  0  0  0
    1.1941    1.6780    2.9328 H   0  0  0  0  0  0  0  0  0  0  0  0
   -0.3539    1.0397    3.5276 H   0  0  0  0  0  0  0  0  0  0  0  0
    1.0543   -0.0345    3.4056 H   0  0  0  0  0  0  0  0  0  0  0  0
  1  2  1  0  0  0  0
  2  3  1  0  0  0  0
  2  4  1  0  0  0  0
  2  5  1  0  0  0  0
  5  6  2  0  0  0  0
  5  7  1  0  0  0  0
  7  8  1  0  0  0  0
  7  9  1  0  0  0  0
  9 10  1  0  0  0  0
  9 11  1  0  0  0  0
  9 17  1  0  0  0  0
 11 12  1  0  0  0  0
 11 13  1  0  0  0  0
 11 14  1  0  0  0  0
 14 15  1  0  0  0  0
 14 16  2  0  0  0  0
 17 18  2  0  0  0  0
 17 19  1  0  0  0  0
 19 20  1  0  0  0  0
 19 21  1  0  0  0  0
 21 22  1  0  0  0  0
 21 23  1  0  0  0  0
 21 24  1  0  0  0  0
M  CHG  1  15  -1
M  END
$$$$

  -OEChem-03222214023D

 24 23  0     1  0  0  0  0  0999 V2000
   -2.3979   -3.6060   -0.0932 H   0  0  0  0  0  0  0  0  0  0  0  0
   -2.3745   -2.5888   -0.4932 C   0  0  0  0  0  0  0  0  0  0  0  0
   -3.0023   -1.9483    0.1313 H   0  0  0  0  0  0  0  0  0  0  0  0
   -2.7770   -2.5978   -1.5092 H   0  0  0  0  0  0  0  0  0  0  0  0
   -0.9516   -2.0606   -0.5077 C   0  0  0  0  0  0  0  0  0  0  0  0
   -0.0332   -2.7798   -0.1473 O   0  0  0  0  0  0  0  0  0  0  0  0
   -0.7180   -0.7774   -0.9444 N   0  0  0  0  0  0  0  0  0  0  0  0
   -1.5400   -0.2100   -1.1859 H   0  0  0  0  0  0  0  0  0  0  0  0
    0.5592   -0.0570   -0.8852 C   0  0  1  0  0  0  0  0  0  0  0  0
    1.3145   -0.6291   -1.4337 H   0  0  0  0  0  0  0  0  0  0  0  0
    0.4734    1.3804   -1.4951 C   0  0  0  0  0  0  0  0  0  0  0  0
    1.0615    2.0683   -0.8802 H   0  0  0  0  0  0  0  0  0  0  0  0
    0.9667    1.3310   -2.4692 H   0  0  0  0  0  0  0  0  0  0  0  0
   -0.8853    2.0541   -1.7561 C   0  0  0  0  0  0  0  0  0  0  0  0
   -1.9682    1.4685   -1.4846 O   0  5  0  0  0  0  0  0  0  0  0  0
   -0.8192    3.2053   -2.2444 O   0  0  0  0  0  0  0  0  0  0  0  0
    1.0410    0.0756    0.5790 C   0  0  0  0  0  0  0  0  0  0  0  0
    2.2306   -0.0142    0.8679 O   0  0  0  0  0  0  0  0  0  0  0  0
    0.1324    0.4531    1.5525 N   0  0  0  0  0  0  0  0  0  0  0  0
   -0.8029    0.6783    1.2210 H   0  0  0  0  0  0  0  0  0  0  0  0
    0.5035    0.7868    2.9181 C   0  0  0  0  0  0  0  0  0  0  0  0
    1.1637    1.6598    2.9321 H   0  0  0  0  0  0  0  0  0  0  0  0
   -0.3911    1.0171    3.5040 H   0  0  0  0  0  0  0  0  0  0  0  0
    1.0183   -0.0556    3.3909 H   0  0  0  0  0  0  0  0  0  0  0  0
  1  2  1  0  0  0  0
  2  3  1  0  0  0  0
  2  4  1  0  0  0  0
  2  5  1  0  0  0  0
  5  6  2  0  0  0  0
  5  7  1  0  0  0  0
  7  8  1  0  0  0  0
  7  9  1  0  0  0  0
  9 10  1  0  0  0  0
  9 11  1  0  0  0  0
  9 17  1  0  0  0  0
 11 12  1  0  0  0  0
 11 13  1  0  0  0  0
 11 14  1  0  0  0  0
 14 15  1  0  0  0  0
 14 16  2  0  0  0  0
 17 18  2  0  0  0  0
 17 19  1  0  0  0  0
 19 20  1  0  0  0  0
 19 21  1  0  0  0  0
 21 22  1  0  0  0  0
 21 23  1  0  0  0  0
 21 24  1  0  0  0  0
M  CHG  1  15  -1
M  END
$$$$

  -OEChem-03222214023D

 24 23  0     1  0  0  0  0  0999 V2000
   -2.3832   -3.5730   -0.0344 H   0  0  0  0  0  0  0  0  0  0  0  0
   -2.3635   -2.5588   -0.4425 C   0  0  0  0  0  0  0  0  0  0  0  0
   -2.9356   -1.9011    0.2168 H   0  0  0  0  0  0  0  0  0  0  0  0
   -2.8303   -2.5644   -1.4305 H   0  0  0  0  0  0  0  0  0  0  0  0
   -0.9332   -2.0625   -0.5507 C   0  0  0  0  0  0  0  0  0  0  0  0
   -0.0088   -2.8067   -0.2636 O   0  0  0  0  0  0  0  0  0  0  0  0
   -0.6998   -0.7788   -0.9870 N   0  0  0  0  0  0  0  0  0  0  0  0
   -1.5261   -0.1821   -1.1160 H   0  0  0  0  0  0  0  0  0  0  0  0
    0.5838   -0.0684   -0.9119 C   0  0  1  0  0  0  0  0  0  0  0  0
    1.3455   -0.6318   -1.4603 H   0  0  0  0  0  0  0  0  0  0  0  0
    0.4985    1.3817   -1.4875 C   0  0  0  0  0  0  0  0  0  0  0  0
    1.0845    2.0607   -0.8614 H   0  0  0  0  0  0  0  0  0  0  0  0
    0.9865    1.3562   -2.4655 H   0  0  0  0  0  0  0  0  0  0  0  0
   -0.8716    2.0389   -1.7158 C   0  0  0  0  0  0  0  0  0  0  0  0
   -1.9081    1.5493   -1.1884 O   0  5  0  0  0  0  0  0  0  0  0  0
   -0.8696    3.0639   -2.4348 O   0  0  0  0  0  0  0  0  0  0  0  0
    1.0376    0.0503    0.5622 C   0  0  0  0  0  0  0  0  0  0  0  0
    2.2185   -0.0582    0.8788 O   0  0  0  0  0  0  0  0  0  0  0  0
    0.1068    0.4311    1.5135 N   0  0  0  0  0  0  0  0  0  0  0  0
   -0.8014    0.7117    1.1453 H   0  0  0  0  0  0  0  0  0  0  0  0
    0.4528    0.7796    2.8818 C   0  0  0  0  0  0  0  0  0  0  0  0
    1.0946    1.6661    2.8990 H   0  0  0  0  0  0  0  0  0  0  0  0
   -0.4545    0.9941    3.4542 H   0  0  0  0  0  0  0  0  0  0  0  0
    0.9783   -0.0496    3.3664 H   0  0  0  0  0  0  0  0  0  0  0  0
  1  2  1  0  0  0  0
  2  3  1  0  0  0  0
  2  4  1  0  0  0  0
  2  5  1  0  0  0  0
  5  6  2  0  0  0  0
  5  7  1  0  0  0  0
  7  8  1  0  0  0  0
  7  9  1  0  0  0  0
  9 10  1  0  0  0  0
  9 11  1  0  0  0  0
  9 17  1  0  0  0  0
 11 12  1  0  0  0  0
 11 13  1  0  0  0  0
 11 14  1  0  0  0  0
 14 15  1  0  0  0  0
 14 16  2  0  0  0  0
 17 18  2  0  0  0  0
 17 19  1  0  0  0  0
 19 20  1  0  0  0  0
 19 21  1  0  0  0  0
 21 22  1  0  0  0  0
 21 23  1  0  0  0  0
 21 24  1  0  0  0  0
M  CHG  1  15  -1
M  END
$$$$

  -OEChem-03222214023D

 24 23  0     1  0  0  0  0  0999 V2000
   -2.3742   -3.5315    0.0056 H   0  0  0  0  0  0  0  0  0  0  0  0
   -2.3536   -2.5198   -0.4086 C   0  0  0  0  0  0  0  0  0  0  0  0
   -2.8792   -1.8476    0.2747 H   0  0  0  0  0  0  0  0  0  0  0  0
   -2.8678   -2.5198   -1.3728 H   0  0  0  0  0  0  0  0  0  0  0  0
   -0.9206   -2.0534   -0.5886 C   0  0  0  0  0  0  0  0  0  0  0  0
    0.0015   -2.8204   -0.3582 O   0  0  0  0  0  0  0  0  0  0  0  0
   -0.6826   -0.7707   -1.0265 N   0  0  0  0  0  0  0  0  0  0  0  0
   -1.5021   -0.1527   -1.0618 H   0  0  0  0  0  0  0  0  0  0  0  0
    0.6111   -0.0768   -0.9323 C   0  0  1  0  0  0  0  0  0  0  0  0
    1.3773   -0.6360   -1.4788 H   0  0  0  0  0  0  0  0  0  0  0  0
    0.5263    1.3824   -1.4792 C   0  0  0  0  0  0  0  0  0  0  0  0
    1.1026    2.0585   -0.8410 H   0  0  0  0  0  0  0  0  0  0  0  0
    1.0105    1.3838   -2.4596 H   0  0  0  0  0  0  0  0  0  0  0  0
   -0.8648    1.9971   -1.6734 C   0  0  0  0  0  0  0  0  0  0  0  0
   -1.8032    1.6263   -0.9136 O   0  5  0  0  0  0  0  0  0  0  0  0
   -0.9924    2.8375   -2.5925 O   0  0  0  0  0  0  0  0  0  0  0  0
    1.0371    0.0306    0.5506 C   0  0  0  0  0  0  0  0  0  0  0  0
    2.2071   -0.1063    0.8955 O   0  0  0  0  0  0  0  0  0  0  0  0
    0.0862    0.4228    1.4772 N   0  0  0  0  0  0  0  0  0  0  0  0
   -0.7876    0.7655    1.0726 H   0  0  0  0  0  0  0  0  0  0  0  0
    0.4071    0.7747    2.8505 C   0  0  0  0  0  0  0  0  0  0  0  0
    1.0546    1.6568    2.8768 H   0  0  0  0  0  0  0  0  0  0  0  0
   -0.5102    0.9975    3.4034 H   0  0  0  0  0  0  0  0  0  0  0  0
    0.9167   -0.0560    3.3491 H   0  0  0  0  0  0  0  0  0  0  0  0
  1  2  1  0  0  0  0
  2  3  1  0  0  0  0
  2  4  1  0  0  0  0
  2  5  1  0  0  0  0
  5  6  2  0  0  0  0
  5  7  1  0  0  0  0
  7  8  1  0  0  0  0
  7  9  1  0  0  0  0
  9 10  1  0  0  0  0
  9 11  1  0  0  0  0
  9 17  1  0  0  0  0
 11 12  1  0  0  0  0
 11 13  1  0  0  0  0
 11 14  1  0  0  0  0
 14 15  1  0  0  0  0
 14 16  2  0  0  0  0
 17 18  2  0  0  0  0
 17 19  1  0  0  0  0
 19 20  1  0  0  0  0
 19 21  1  0  0  0  0
 21 22  1  0  0  0  0
 21 23  1  0  0  0  0
 21 24  1  0  0  0  0
M  CHG  1  15  -1
M  END
$$$$

  -OEChem-03222214023D

 24 23  0     1  0  0  0  0  0999 V2000
   -2.3826   -3.5005   -0.0102 H   0  0  0  0  0  0  0  0  0  0  0  0
   -2.3547   -2.4839   -0.4118 C   0  0  0  0  0  0  0  0  0  0  0  0
   -2.8552   -1.8127    0.2909 H   0  0  0  0  0  0  0  0  0  0  0  0
   -2.8892   -2.4634   -1.3647 H   0  0  0  0  0  0  0  0  0  0  0  0
   -0.9186   -2.0372   -0.6157 C   0  0  0  0  0  0  0  0  0  0  0  0
   -0.0032   -2.8176   -0.4049 O   0  0  0  0  0  0  0  0  0  0  0  0
   -0.6718   -0.7551   -1.0507 N   0  0  0  0  0  0  0  0  0  0  0  0
   -1.4840   -0.1278   -1.0420 H   0  0  0  0  0  0  0  0  0  0  0  0
    0.6299   -0.0756   -0.9342 C   0  0  1  0  0  0  0  0  0  0  0  0
    1.3992   -0.6343   -1.4768 H   0  0  0  0  0  0  0  0  0  0  0  0
    0.5454    1.3835   -1.4735 C   0  0  0  0  0  0  0  0  0  0  0  0
    1.1006    2.0683   -0.8261 H   0  0  0  0  0  0  0  0  0  0  0  0
    1.0333    1.4043   -2.4517 H   0  0  0  0  0  0  0  0  0  0  0  0
   -0.8697    1.9327   -1.6536 C   0  0  0  0  0  0  0  0  0  0  0  0
   -1.6883    1.7262   -0.7139 O   0  5  0  0  0  0  0  0  0  0  0  0
   -1.1517    2.5135   -2.7257 O   0  0  0  0  0  0  0  0  0  0  0  0
    1.0397    0.0265    0.5538 C   0  0  0  0  0  0  0  0  0  0  0  0
    2.2025   -0.1336    0.9134 O   0  0  0  0  0  0  0  0  0  0  0  0
    0.0814    0.4296    1.4677 N   0  0  0  0  0  0  0  0  0  0  0  0
   -0.7642    0.8223    1.0428 H   0  0  0  0  0  0  0  0  0  0  0  0
    0.3920    0.7758    2.8446 C   0  0  0  0  0  0  0  0  0  0  0  0
    1.0475    1.6516    2.8795 H   0  0  0  0  0  0  0  0  0  0  0  0
   -0.5290    1.0056    3.3885 H   0  0  0  0  0  0  0  0  0  0  0  0
    0.8888   -0.0605    3.3468 H   0  0  0  0  0  0  0  0  0  0  0  0
  1  2  1  0  0  0  0
  2  3  1  0  0  0  0
  2  4  1  0  0  0  0
  2  5  1  0  0  0  0
  5  6  2  0  0  0  0
  5  7  1  0  0  0  0
  7  8  1  0  0  0  0
  7  9  1  0  0  0  0
  9 10  1  0  0  0  0
  9 11  1  0  0  0  0
  9 17  1  0  0  0  0
 11 12  1  0  0  0  0
 11 13  1  0  0  0  0
 11 14  1  0  0  0  0
 14 15  1  0  0  0  0
 14 16  2  0  0  0  0
 17 18  2  0  0  0  0
 17 19  1  0  0  0  0
 19 20  1  0  0  0  0
 19 21  1  0  0  0  0
 21 22  1  0  0  0  0
 21 23  1  0  0  0  0
 21 24  1  0  0  0  0
M  CHG  1  15  -1
M  END
$$$$

  -OEChem-03222214023D

 24 23  0     1  0  0  0  0  0999 V2000
   -2.4075   -3.4936   -0.0656 H   0  0  0  0  0  0  0  0  0  0  0  0
   -2.3693   -2.4732   -0.4566 C   0  0  0  0  0  0  0  0  0  0  0  0
   -2.8911   -1.8093    0.2375 H   0  0  0  0  0  0  0  0  0  0  0  0
   -2.8753   -2.4445   -1.4248 H   0  0  0  0  0  0  0  0  0  0  0  0
   -0.9284   -2.0226   -0.6145 C   0  0  0  0  0  0  0  0  0  0  0  0
   -0.0184   -2.8015   -0.3764 O   0  0  0  0  0  0  0  0  0  0  0  0
   -0.6724   -0.7415   -1.0477 N   0  0  0  0  0  0  0  0  0  0  0  0
   -1.4863   -0.1211   -1.0782 H   0  0  0  0  0  0  0  0  0  0  0  0
    0.6338   -0.0675   -0.9221 C   0  0  1  0  0  0  0  0  0  0  0  0
    1.4027   -0.6283   -1.4630 H   0  0  0  0  0  0  0  0  0  0  0  0
    0.5510    1.3875   -1.4662 C   0  0  0  0  0  0  0  0  0  0  0  0
    1.0916    2.0840   -0.8187 H   0  0  0  0  0  0  0  0  0  0  0  0
    1.0375    1.4161   -2.4449 H   0  0  0  0  0  0  0  0  0  0  0  0
   -0.8802    1.8805   -1.6383 C   0  0  0  0  0  0  0  0  0  0  0  0
   -1.5824    1.9017   -0.5919 O   0  5  0  0  0  0  0  0  0  0  0  0
   -1.3106    2.1165   -2.7894 O   0  0  0  0  0  0  0  0  0  0  0  0
    1.0450    0.0387    0.5656 C   0  0  0  0  0  0  0  0  0  0  0  0
    2.2053   -0.1402    0.9251 O   0  0  0  0  0  0  0  0  0  0  0  0
    0.0919    0.4499    1.4813 N   0  0  0  0  0  0  0  0  0  0  0  0
   -0.7335    0.8837    1.0543 H   0  0  0  0  0  0  0  0  0  0  0  0
    0.4132    0.7887    2.8577 C   0  0  0  0  0  0  0  0  0  0  0  0
    1.0904    1.6479    2.8914 H   0  0  0  0  0  0  0  0  0  0  0  0
   -0.5007    1.0419    3.4030 H   0  0  0  0  0  0  0  0  0  0  0  0
    0.8899   -0.0597    3.3591 H   0  0  0  0  0  0  0  0  0  0  0  0
  1  2  1  0  0  0  0
  2  3  1  0  0  0  0
  2  4  1  0  0  0  0
  2  5  1  0  0  0  0
  5  6  2  0  0  0  0
  5  7  1  0  0  0  0
  7  8  1  0  0  0  0
  7  9  1  0  0  0  0
  9 10  1  0  0  0  0
  9 11  1  0  0  0  0
  9 17  1  0  0  0  0
 11 12  1  0  0  0  0
 11 13  1  0  0  0  0
 11 14  1  0  0  0  0
 14 15  1  0  0  0  0
 14 16  2  0  0  0  0
 17 18  2  0  0  0  0
 17 19  1  0  0  0  0
 19 20  1  0  0  0  0
 19 21  1  0  0  0  0
 21 22  1  0  0  0  0
 21 23  1  0  0  0  0
 21 24  1  0  0  0  0
M  CHG  1  15  -1
M  END
$$$$

  -OEChem-03222214023D

 24 23  0     1  0  0  0  0  0999 V2000
   -2.4913   -3.5128   -0.2100 H   0  0  0  0  0  0  0  0  0  0  0  0
   -2.4179   -2.4958   -0.6048 C   0  0  0  0  0  0  0  0  0  0  0  0
   -3.0594   -1.8389   -0.0116 H   0  0  0  0  0  0  0  0  0  0  0  0
   -2.7656   -2.4911   -1.6409 H   0  0  0  0  0  0  0  0  0  0  0  0
   -0.9821   -2.0078   -0.5399 C   0  0  0  0  0  0  0  0  0  0  0  0
   -0.1065   -2.7534   -0.1291 O   0  0  0  0  0  0  0  0  0  0  0  0
   -0.6868   -0.7391   -0.9828 N   0  0  0  0  0  0  0  0  0  0  0  0
   -1.4659   -0.1821   -1.3444 H   0  0  0  0  0  0  0  0  0  0  0  0
    0.6260   -0.0720   -0.8879 C   0  0  1  0  0  0  0  0  0  0  0  0
    1.3816   -0.6383   -1.4412 H   0  0  0  0  0  0  0  0  0  0  0  0
    0.5287    1.3809   -1.4345 C   0  0  0  0  0  0  0  0  0  0  0  0
    1.0874    2.0832   -0.8085 H   0  0  0  0  0  0  0  0  0  0  0  0
    0.9822    1.4097   -2.4287 H   0  0  0  0  0  0  0  0  0  0  0  0
   -0.9111    1.8569   -1.5629 C   0  0  0  0  0  0  0  0  0  0  0  0
   -1.4816    2.1557   -0.4844 O   0  5  0  0  0  0  0  0  0  0  0  0
   -1.5102    1.6337   -2.6407 O   0  0  0  0  0  0  0  0  0  0  0  0
    1.0709    0.0558    0.5886 C   0  0  0  0  0  0  0  0  0  0  0  0
    2.2421   -0.1154    0.9175 O   0  0  0  0  0  0  0  0  0  0  0  0
    0.1451    0.4876    1.5225 N   0  0  0  0  0  0  0  0  0  0  0  0
   -0.6876    0.9204    1.1097 H   0  0  0  0  0  0  0  0  0  0  0  0
    0.5064    0.8523    2.8821 C   0  0  0  0  0  0  0  0  0  0  0  0
    1.1873    1.7092    2.8797 H   0  0  0  0  0  0  0  0  0  0  0  0
   -0.3909    1.1205    3.4474 H   0  0  0  0  0  0  0  0  0  0  0  0
    0.9938    0.0121    3.3869 H   0  0  0  0  0  0  0  0  0  0  0  0
  1  2  1  0  0  0  0
  2  3  1  0  0  0  0
  2  4  1  0  0  0  0
  2  5  1  0  0  0  0
  5  6  2  0  0  0  0
  5  7  1  0  0  0  0
  7  8  1  0  0  0  0
  7  9  1  0  0  0  0
  9 10  1  0  0  0  0
  9 11  1  0  0  0  0
  9 17  1  0  0  0  0
 11 12  1  0  0  0  0
 11 13  1  0  0  0  0
 11 14  1  0  0  0  0
 14 15  1  0  0  0  0
 14 16  2  0  0  0  0
 17 18  2  0  0  0  0
 17 19  1  0  0  0  0
 19 20  1  0  0  0  0
 19 21  1  0  0  0  0
 21 22  1  0  0  0  0
 21 23  1  0  0  0  0
 21 24  1  0  0  0  0
M  CHG  1  15  -1
M  END
$$$$

  -OEChem-03222214023D

 24 23  0     1  0  0  0  0  0999 V2000
   -2.5133   -3.5413   -0.2786 H   0  0  0  0  0  0  0  0  0  0  0  0
   -2.4306   -2.5252   -0.6739 C   0  0  0  0  0  0  0  0  0  0  0  0
   -3.1335   -1.8798   -0.1410 H   0  0  0  0  0  0  0  0  0  0  0  0
   -2.6925   -2.5352   -1.7350 H   0  0  0  0  0  0  0  0  0  0  0  0
   -1.0161   -2.0036   -0.4956 C   0  0  0  0  0  0  0  0  0  0  0  0
   -0.1645   -2.7218    0.0044 O   0  0  0  0  0  0  0  0  0  0  0  0
   -0.7095   -0.7395   -0.9435 N   0  0  0  0  0  0  0  0  0  0  0  0
   -1.4433   -0.2379   -1.4576 H   0  0  0  0  0  0  0  0  0  0  0  0
    0.6051   -0.0773   -0.8620 C   0  0  1  0  0  0  0  0  0  0  0  0
    1.3519   -0.6514   -1.4188 H   0  0  0  0  0  0  0  0  0  0  0  0
    0.5043    1.3679   -1.4290 C   0  0  0  0  0  0  0  0  0  0  0  0
    1.0720    2.0759   -0.8171 H   0  0  0  0  0  0  0  0  0  0  0  0
    0.9518    1.3813   -2.4260 H   0  0  0  0  0  0  0  0  0  0  0  0
   -0.9329    1.8558   -1.5634 C   0  0  0  0  0  0  0  0  0  0  0  0
   -1.4112    2.4458   -0.5658 O   0  5  0  0  0  0  0  0  0  0  0  0
   -1.6161    1.4080   -2.5187 O   0  0  0  0  0  0  0  0  0  0  0  0
    1.0756    0.0634    0.6051 C   0  0  0  0  0  0  0  0  0  0  0  0
    2.2535   -0.1048    0.9107 O   0  0  0  0  0  0  0  0  0  0  0  0
    0.1720    0.5062    1.5553 N   0  0  0  0  0  0  0  0  0  0  0  0
   -0.6788    0.9178    1.1659 H   0  0  0  0  0  0  0  0  0  0  0  0
    0.5637    0.8829    2.9033 C   0  0  0  0  0  0  0  0  0  0  0  0
    1.2558    1.7306    2.8775 H   0  0  0  0  0  0  0  0  0  0  0  0
   -0.3190    1.1702    3.4821 H   0  0  0  0  0  0  0  0  0  0  0  0
    1.0491    0.0425    3.4097 H   0  0  0  0  0  0  0  0  0  0  0  0
  1  2  1  0  0  0  0
  2  3  1  0  0  0  0
  2  4  1  0  0  0  0
  2  5  1  0  0  0  0
  5  6  2  0  0  0  0
  5  7  1  0  0  0  0
  7  8  1  0  0  0  0
  7  9  1  0  0  0  0
  9 10  1  0  0  0  0
  9 11  1  0  0  0  0
  9 17  1  0  0  0  0
 11 12  1  0  0  0  0
 11 13  1  0  0  0  0
 11 14  1  0  0  0  0
 14 15  1  0  0  0  0
 14 16  2  0  0  0  0
 17 18  2  0  0  0  0
 17 19  1  0  0  0  0
 19 20  1  0  0  0  0
 19 21  1  0  0  0  0
 21 22  1  0  0  0  0
 21 23  1  0  0  0  0
 21 24  1  0  0  0  0
M  CHG  1  15  -1
M  END
$$$$

  -OEChem-03222214023D

 24 23  0     1  0  0  0  0  0999 V2000
   -2.5029   -3.5735   -0.2967 H   0  0  0  0  0  0  0  0  0  0  0  0
   -2.4289   -2.5551   -0.6877 C   0  0  0  0  0  0  0  0  0  0  0  0
   -3.1585   -1.9242   -0.1737 H   0  0  0  0  0  0  0  0  0  0  0  0
   -2.6609   -2.5679   -1.7556 H   0  0  0  0  0  0  0  0  0  0  0  0
   -1.0301   -2.0072   -0.4702 C   0  0  0  0  0  0  0  0  0  0  0  0
   -0.1827   -2.7056    0.0636 O   0  0  0  0  0  0  0  0  0  0  0  0
   -0.7326   -0.7398   -0.9152 N   0  0  0  0  0  0  0  0  0  0  0  0
   -1.4539   -0.2605   -1.4692 H   0  0  0  0  0  0  0  0  0  0  0  0
    0.5775   -0.0729   -0.8411 C   0  0  1  0  0  0  0  0  0  0  0  0
    1.3181   -0.6573   -1.3958 H   0  0  0  0  0  0  0  0  0  0  0  0
    0.4844    1.3598   -1.4420 C   0  0  0  0  0  0  0  0  0  0  0  0
    1.0566    2.0712   -0.8385 H   0  0  0  0  0  0  0  0  0  0  0  0
    0.9458    1.3464   -2.4326 H   0  0  0  0  0  0  0  0  0  0  0  0
   -0.9394    1.8831   -1.6178 C   0  0  0  0  0  0  0  0  0  0  0  0
   -1.3312    2.7427   -0.7955 O   0  5  0  0  0  0  0  0  0  0  0  0
   -1.6815    1.3120   -2.4593 O   0  0  0  0  0  0  0  0  0  0  0  0
    1.0699    0.0702    0.6187 C   0  0  0  0  0  0  0  0  0  0  0  0
    2.2551   -0.0836    0.9017 O   0  0  0  0  0  0  0  0  0  0  0  0
    0.1849    0.5067    1.5888 N   0  0  0  0  0  0  0  0  0  0  0  0
   -0.6992    0.8671    1.2325 H   0  0  0  0  0  0  0  0  0  0  0  0
    0.5976    0.8814    2.9314 C   0  0  0  0  0  0  0  0  0  0  0  0
    1.2980    1.7218    2.8951 H   0  0  0  0  0  0  0  0  0  0  0  0
   -0.2745    1.1795    3.5208 H   0  0  0  0  0  0  0  0  0  0  0  0
    1.0810    0.0365    3.4323 H   0  0  0  0  0  0  0  0  0  0  0  0
  1  2  1  0  0  0  0
  2  3  1  0  0  0  0
  2  4  1  0  0  0  0
  2  5  1  0  0  0  0
  5  6  2  0  0  0  0
  5  7  1  0  0  0  0
  7  8  1  0  0  0  0
  7  9  1  0  0  0  0
  9 10  1  0  0  0  0
  9 11  1  0  0  0  0
  9 17  1  0  0  0  0
 11 12  1  0  0  0  0
 11 13  1  0  0  0  0
 11 14  1  0  0  0  0
 14 15  1  0  0  0  0
 14 16  2  0  0  0  0
 17 18  2  0  0  0  0
 17 19  1  0  0  0  0
 19 20  1  0  0  0  0
 19 21  1  0  0  0  0
 21 22  1  0  0  0  0
 21 23  1  0  0  0  0
 21 24  1  0  0  0  0
M  CHG  1  15  -1
M  END
$$$$

  -OEChem-03222214023D

 24 23  0     1  0  0  0  0  0999 V2000
   -2.4948   -3.5989   -0.2926 H   0  0  0  0  0  0  0  0  0  0  0  0
   -2.4274   -2.5798   -0.6830 C   0  0  0  0  0  0  0  0  0  0  0  0
   -3.1667   -1.9560   -0.1743 H   0  0  0  0  0  0  0  0  0  0  0  0
   -2.6515   -2.5947   -1.7527 H   0  0  0  0  0  0  0  0  0  0  0  0
   -1.0353   -2.0188   -0.4562 C   0  0  0  0  0  0  0  0  0  0  0  0
   -0.1849   -2.7084    0.0839 O   0  0  0  0  0  0  0  0  0  0  0  0
   -0.7489   -0.7467   -0.8946 N   0  0  0  0  0  0  0  0  0  0  0  0
   -1.4739   -0.2728   -1.4493 H   0  0  0  0  0  0  0  0  0  0  0  0
    0.5547   -0.0706   -0.8275 C   0  0  1  0  0  0  0  0  0  0  0  0
    1.2914   -0.6604   -1.3821 H   0  0  0  0  0  0  0  0  0  0  0  0
    0.4707    1.3554   -1.4499 C   0  0  0  0  0  0  0  0  0  0  0  0
    1.0480    2.0634   -0.8470 H   0  0  0  0  0  0  0  0  0  0  0  0
    0.9475    1.3233   -2.4325 H   0  0  0  0  0  0  0  0  0  0  0  0
   -0.9350    1.9228   -1.6643 C   0  0  0  0  0  0  0  0  0  0  0  0
   -1.2130    2.9877   -1.0669 O   0  5  0  0  0  0  0  0  0  0  0  0
   -1.7506    1.2699   -2.3689 O   0  0  0  0  0  0  0  0  0  0  0  0
    1.0626    0.0693    0.6275 C   0  0  0  0  0  0  0  0  0  0  0  0
    2.2551   -0.0579    0.8914 O   0  0  0  0  0  0  0  0  0  0  0  0
    0.1882    0.4926    1.6132 N   0  0  0  0  0  0  0  0  0  0  0  0
   -0.7292    0.7867    1.2866 H   0  0  0  0  0  0  0  0  0  0  0  0
    0.6154    0.8805    2.9477 C   0  0  0  0  0  0  0  0  0  0  0  0
    1.2912    1.7401    2.8971 H   0  0  0  0  0  0  0  0  0  0  0  0
   -0.2528    1.1555    3.5535 H   0  0  0  0  0  0  0  0  0  0  0  0
    1.1315    0.0506    3.4407 H   0  0  0  0  0  0  0  0  0  0  0  0
  1  2  1  0  0  0  0
  2  3  1  0  0  0  0
  2  4  1  0  0  0  0
  2  5  1  0  0  0  0
  5  6  2  0  0  0  0
  5  7  1  0  0  0  0
  7  8  1  0  0  0  0
  7  9  1  0  0  0  0
  9 10  1  0  0  0  0
  9 11  1  0  0  0  0
  9 17  1  0  0  0  0
 11 12  1  0  0  0  0
 11 13  1  0  0  0  0
 11 14  1  0  0  0  0
 14 15  1  0  0  0  0
 14 16  2  0  0  0  0
 17 18  2  0  0  0  0
 17 19  1  0  0  0  0
 19 20  1  0  0  0  0
 19 21  1  0  0  0  0
 21 22  1  0  0  0  0
 21 23  1  0  0  0  0
 21 24  1  0  0  0  0
M  CHG  1  15  -1
M  END
$$$$

  -OEChem-03222214023D

 24 23  0     1  0  0  0  0  0999 V2000
   -2.4727   -3.6198   -0.2581 H   0  0  0  0  0  0  0  0  0  0  0  0
   -2.4187   -2.6012   -0.6517 C   0  0  0  0  0  0  0  0  0  0  0  0
   -3.1537   -1.9814   -0.1320 H   0  0  0  0  0  0  0  0  0  0  0  0
   -2.6599   -2.6198   -1.7176 H   0  0  0  0  0  0  0  0  0  0  0  0
   -1.0267   -2.0307   -0.4489 C   0  0  0  0  0  0  0  0  0  0  0  0
   -0.1621   -2.7154    0.0744 O   0  0  0  0  0  0  0  0  0  0  0  0
   -0.7570   -0.7540   -0.8844 N   0  0  0  0  0  0  0  0  0  0  0  0
   -1.5014   -0.2716   -1.4049 H   0  0  0  0  0  0  0  0  0  0  0  0
    0.5379   -0.0636   -0.8267 C   0  0  1  0  0  0  0  0  0  0  0  0
    1.2738   -0.6554   -1.3799 H   0  0  0  0  0  0  0  0  0  0  0  0
    0.4608    1.3591   -1.4634 C   0  0  0  0  0  0  0  0  0  0  0  0
    1.0433    2.0612   -0.8584 H   0  0  0  0  0  0  0  0  0  0  0  0
    0.9508    1.3120   -2.4387 H   0  0  0  0  0  0  0  0  0  0  0  0
   -0.9241    1.9726   -1.7115 C   0  0  0  0  0  0  0  0  0  0  0  0
   -1.0696    3.1699   -1.3746 O   0  5  0  0  0  0  0  0  0  0  0  0
   -1.8312    1.2710   -2.2350 O   0  0  0  0  0  0  0  0  0  0  0  0
    1.0551    0.0757    0.6251 C   0  0  0  0  0  0  0  0  0  0  0  0
    2.2517   -0.0292    0.8795 O   0  0  0  0  0  0  0  0  0  0  0  0
    0.1839    0.4837    1.6198 N   0  0  0  0  0  0  0  0  0  0  0  0
   -0.7542    0.7262    1.3132 H   0  0  0  0  0  0  0  0  0  0  0  0
    0.6108    0.8624    2.9571 C   0  0  0  0  0  0  0  0  0  0  0  0
    1.2691    1.7358    2.9140 H   0  0  0  0  0  0  0  0  0  0  0  0
   -0.2593    1.1118    3.5713 H   0  0  0  0  0  0  0  0  0  0  0  0
    1.1463    0.0365    3.4361 H   0  0  0  0  0  0  0  0  0  0  0  0
  1  2  1  0  0  0  0
  2  3  1  0  0  0  0
  2  4  1  0  0  0  0
  2  5  1  0  0  0  0
  5  6  2  0  0  0  0
  5  7  1  0  0  0  0
  7  8  1  0  0  0  0
  7  9  1  0  0  0  0
  9 10  1  0  0  0  0
  9 11  1  0  0  0  0
  9 17  1  0  0  0  0
 11 12  1  0  0  0  0
 11 13  1  0  0  0  0
 11 14  1  0  0  0  0
 14 15  1  0  0  0  0
 14 16  2  0  0  0  0
 17 18  2  0  0  0  0
 17 19  1  0  0  0  0
 19 20  1  0  0  0  0
 19 21  1  0  0  0  0
 21 22  1  0  0  0  0
 21 23  1  0  0  0  0
 21 24  1  0  0  0  0
M  CHG  1  15  -1
M  END
$$$$

  -OEChem-03222214023D

 24 23  0     1  0  0  0  0  0999 V2000
   -2.4415   -3.6279   -0.2021 H   0  0  0  0  0  0  0  0  0  0  0  0
   -2.4007   -2.6095   -0.5977 C   0  0  0  0  0  0  0  0  0  0  0  0
   -3.1109   -1.9871   -0.0475 H   0  0  0  0  0  0  0  0  0  0  0  0
   -2.6870   -2.6268   -1.6524 H   0  0  0  0  0  0  0  0  0  0  0  0
   -0.9997   -2.0434   -0.4538 C   0  0  0  0  0  0  0  0  0  0  0  0
   -0.1138   -2.7315    0.0277 O   0  0  0  0  0  0  0  0  0  0  0  0
   -0.7483   -0.7638   -0.8907 N   0  0  0  0  0  0  0  0  0  0  0  0
   -1.5254   -0.2596   -1.3366 H   0  0  0  0  0  0  0  0  0  0  0  0
    0.5350   -0.0541   -0.8408 C   0  0  1  0  0  0  0  0  0  0  0  0
    1.2770   -0.6412   -1.3913 H   0  0  0  0  0  0  0  0  0  0  0  0
    0.4533    1.3683   -1.4829 C   0  0  0  0  0  0  0  0  0  0  0  0
    1.0381    2.0669   -0.8764 H   0  0  0  0  0  0  0  0  0  0  0  0
    0.9520    1.3122   -2.4535 H   0  0  0  0  0  0  0  0  0  0  0  0
   -0.9141    2.0186   -1.7553 C   0  0  0  0  0  0  0  0  0  0  0  0
   -0.9363    3.2694   -1.6995 O   0  5  0  0  0  0  0  0  0  0  0  0
   -1.9208    1.3102   -2.0263 O   0  0  0  0  0  0  0  0  0  0  0  0
    1.0497    0.0897    0.6118 C   0  0  0  0  0  0  0  0  0  0  0  0
    2.2464   -0.0032    0.8691 O   0  0  0  0  0  0  0  0  0  0  0  0
    0.1719    0.4826    1.6069 N   0  0  0  0  0  0  0  0  0  0  0  0
   -0.7768    0.6898    1.3073 H   0  0  0  0  0  0  0  0  0  0  0  0
    0.5834    0.8276    2.9581 C   0  0  0  0  0  0  0  0  0  0  0  0
    1.2535    1.6930    2.9436 H   0  0  0  0  0  0  0  0  0  0  0  0
   -0.2925    1.0755    3.5647 H   0  0  0  0  0  0  0  0  0  0  0  0
    1.1010   -0.0155    3.4266 H   0  0  0  0  0  0  0  0  0  0  0  0
  1  2  1  0  0  0  0
  2  3  1  0  0  0  0
  2  4  1  0  0  0  0
  2  5  1  0  0  0  0
  5  6  2  0  0  0  0
  5  7  1  0  0  0  0
  7  8  1  0  0  0  0
  7  9  1  0  0  0  0
  9 10  1  0  0  0  0
  9 11  1  0  0  0  0
  9 17  1  0  0  0  0
 11 12  1  0  0  0  0
 11 13  1  0  0  0  0
 11 14  1  0  0  0  0
 14 15  1  0  0  0  0
 14 16  2  0  0  0  0
 17 18  2  0  0  0  0
 17 19  1  0  0  0  0
 19 20  1  0  0  0  0
 19 21  1  0  0  0  0
 21 22  1  0  0  0  0
 21 23  1  0  0  0  0
 21 24  1  0  0  0  0
M  CHG  1  15  -1
M  END
$$$$

  -OEChem-03222214023D

 24 23  0     1  0  0  0  0  0999 V2000
   -2.4072   -3.6238   -0.1283 H   0  0  0  0  0  0  0  0  0  0  0  0
   -2.3814   -2.6071   -0.5296 C   0  0  0  0  0  0  0  0  0  0  0  0
   -3.0419   -1.9738    0.0680 H   0  0  0  0  0  0  0  0  0  0  0  0
   -2.7429   -2.6237   -1.5607 H   0  0  0  0  0  0  0  0  0  0  0  0
   -0.9661   -2.0600   -0.4877 C   0  0  0  0  0  0  0  0  0  0  0  0
   -0.0549   -2.7653   -0.0840 O   0  0  0  0  0  0  0  0  0  0  0  0
   -0.7301   -0.7769   -0.9235 N   0  0  0  0  0  0  0  0  0  0  0  0
   -1.5409   -0.2338   -1.2457 H   0  0  0  0  0  0  0  0  0  0  0  0
    0.5462   -0.0551   -0.8684 C   0  0  1  0  0  0  0  0  0  0  0  0
    1.2980   -0.6315   -1.4170 H   0  0  0  0  0  0  0  0  0  0  0  0
    0.4626    1.3764   -1.4927 C   0  0  0  0  0  0  0  0  0  0  0  0
    1.0493    2.0669   -0.8790 H   0  0  0  0  0  0  0  0  0  0  0  0
    0.9639    1.3259   -2.4624 H   0  0  0  0  0  0  0  0  0  0  0  0
   -0.8936    2.0510   -1.7673 C   0  0  0  0  0  0  0  0  0  0  0  0
   -0.8344    3.2825   -1.9863 O   0  5  0  0  0  0  0  0  0  0  0  0
   -1.9715    1.4000   -1.7168 O   0  0  0  0  0  0  0  0  0  0  0  0
    1.0410    0.0832    0.5913 C   0  0  0  0  0  0  0  0  0  0  0  0
    2.2337   -0.0062    0.8676 O   0  0  0  0  0  0  0  0  0  0  0  0
    0.1436    0.4623    1.5744 N   0  0  0  0  0  0  0  0  0  0  0  0
   -0.7966    0.6818    1.2555 H   0  0  0  0  0  0  0  0  0  0  0  0
    0.5312    0.8018    2.9342 C   0  0  0  0  0  0  0  0  0  0  0  0
    1.1869    1.6783    2.9368 H   0  0  0  0  0  0  0  0  0  0  0  0
   -0.3569    1.0291    3.5310 H   0  0  0  0  0  0  0  0  0  0  0  0
    1.0567   -0.0367    3.4023 H   0  0  0  0  0  0  0  0  0  0  0  0
  1  2  1  0  0  0  0
  2  3  1  0  0  0  0
  2  4  1  0  0  0  0
  2  5  1  0  0  0  0
  5  6  2  0  0  0  0
  5  7  1  0  0  0  0
  7  8  1  0  0  0  0
  7  9  1  0  0  0  0
  9 10  1  0  0  0  0
  9 11  1  0  0  0  0
  9 17  1  0  0  0  0
 11 12  1  0  0  0  0
 11 13  1  0  0  0  0
 11 14  1  0  0  0  0
 14 15  1  0  0  0  0
 14 16  2  0  0  0  0
 17 18  2  0  0  0  0
 17 19  1  0  0  0  0
 19 20  1  0  0  0  0
 19 21  1  0  0  0  0
 21 22  1  0  0  0  0
 21 23  1  0  0  0  0
 21 24  1  0  0  0  0
M  CHG  1  15  -1
M  END
$$$$

  -OEChem-03222214023D

 24 23  0     1  0  0  0  0  0999 V2000
   -2.3437   -3.5310    0.0033 H   0  0  0  0  0  0  0  0  0  0  0  0
   -2.3329   -2.5138   -0.3972 C   0  0  0  0  0  0  0  0  0  0  0  0
   -2.8255   -1.8482    0.3165 H   0  0  0  0  0  0  0  0  0  0  0  0
   -2.8859   -2.4971   -1.3394 H   0  0  0  0  0  0  0  0  0  0  0  0
   -0.9047   -2.0543   -0.6283 C   0  0  0  0  0  0  0  0  0  0  0  0
    0.0199   -2.8324   -0.4518 O   0  0  0  0  0  0  0  0  0  0  0  0
   -0.6752   -0.7678   -1.0595 N   0  0  0  0  0  0  0  0  0  0  0  0
   -1.4914   -0.1461   -1.0256 H   0  0  0  0  0  0  0  0  0  0  0  0
    0.6157   -0.0740   -0.9398 C   0  0  1  0  0  0  0  0  0  0  0  0
    1.3933   -0.6220   -1.4814 H   0  0  0  0  0  0  0  0  0  0  0  0
    0.5233    1.3860   -1.4719 C   0  0  0  0  0  0  0  0  0  0  0  0
    1.2950    1.9999   -0.9978 H   0  0  0  0  0  0  0  0  0  0  0  0
    0.7567    1.3543   -2.5391 H   0  0  0  0  0  0  0  0  0  0  0  0
   -0.8175    2.1262   -1.3520 C   0  0  0  0  0  0  0  0  0  0  0  0
   -0.8355    3.2951   -1.7984 O   0  5  0  0  0  0  0  0  0  0  0  0
   -1.7624    1.6079   -0.6934 O   0  0  0  0  0  0  0  0  0  0  0  0
    1.0243    0.0293    0.5488 C   0  0  0  0  0  0  0  0  0  0  0  0
    2.1879   -0.1295    0.9064 O   0  0  0  0  0  0  0  0  0  0  0  0
    0.0648    0.4175    1.4682 N   0  0  0  0  0  0  0  0  0  0  0  0
   -0.7930    0.7920    1.0511 H   0  0  0  0  0  0  0  0  0  0  0  0
    0.3794    0.7718    2.8422 C   0  0  0  0  0  0  0  0  0  0  0  0
    1.0329    1.6494    2.8697 H   0  0  0  0  0  0  0  0  0  0  0  0
   -0.5398    1.0037    3.3879 H   0  0  0  0  0  0  0  0  0  0  0  0
    0.8805   -0.0603    3.3470 H   0  0  0  0  0  0  0  0  0  0  0  0
  1  2  1  0  0  0  0
  2  3  1  0  0  0  0
  2  4  1  0  0  0  0
  2  5  1  0  0  0  0
  5  6  2  0  0  0  0
  5  7  1  0  0  0  0
  7  8  1  0  0  0  0
  7  9  1  0  0  0  0
  9 10  1  0  0  0  0
  9 11  1  0  0  0  0
  9 17  1  0  0  0  0
 11 12  1  0  0  0  0
 11 13  1  0  0  0  0
 11 14  1  0  0  0  0
 14 15  1  0  0  0  0
 14 16  2  0  0  0  0
 17 18  2  0  0  0  0
 17 19  1  0  0  0  0
 19 20  1  0  0  0  0
 19 21  1  0  0  0  0
 21 22  1  0  0  0  0
 21 23  1  0  0  0  0
 21 24  1  0  0  0  0
M  CHG  1  15  -1
M  END
$$$$

  -OEChem-03222214023D

 24 23  0     1  0  0  0  0  0999 V2000
   -2.3492   -3.5067    0.0017 H   0  0  0  0  0  0  0  0  0  0  0  0
   -2.3356   -2.4883   -0.3957 C   0  0  0  0  0  0  0  0  0  0  0  0
   -2.8140   -1.8215    0.3264 H   0  0  0  0  0  0  0  0  0  0  0  0
   -2.9006   -2.4640   -1.3306 H   0  0  0  0  0  0  0  0  0  0  0  0
   -0.9071   -2.0389   -0.6437 C   0  0  0  0  0  0  0  0  0  0  0  0
    0.0137   -2.8254   -0.4858 O   0  0  0  0  0  0  0  0  0  0  0  0
   -0.6738   -0.7505   -1.0670 N   0  0  0  0  0  0  0  0  0  0  0  0
   -1.4839   -0.1241   -0.9986 H   0  0  0  0  0  0  0  0  0  0  0  0
    0.6206   -0.0660   -0.9284 C   0  0  1  0  0  0  0  0  0  0  0  0
    1.3990   -0.6175   -1.4654 H   0  0  0  0  0  0  0  0  0  0  0  0
    0.5294    1.3858   -1.4768 C   0  0  0  0  0  0  0  0  0  0  0  0
    1.2851    2.0149   -0.9981 H   0  0  0  0  0  0  0  0  0  0  0  0
    0.7772    1.3455   -2.5407 H   0  0  0  0  0  0  0  0  0  0  0  0
   -0.8277    2.0942   -1.3724 C   0  0  0  0  0  0  0  0  0  0  0  0
   -0.9750    3.1273   -2.0631 O   0  5  0  0  0  0  0  0  0  0  0  0
   -1.6874    1.6574   -0.5558 O   0  0  0  0  0  0  0  0  0  0  0  0
    1.0268    0.0324    0.5615 C   0  0  0  0  0  0  0  0  0  0  0  0
    2.1884   -0.1390    0.9197 O   0  0  0  0  0  0  0  0  0  0  0  0
    0.0716    0.4240    1.4833 N   0  0  0  0  0  0  0  0  0  0  0  0
   -0.7757    0.8238    1.0648 H   0  0  0  0  0  0  0  0  0  0  0  0
    0.3877    0.7593    2.8618 C   0  0  0  0  0  0  0  0  0  0  0  0
    1.0408    1.6367    2.9012 H   0  0  0  0  0  0  0  0  0  0  0  0
   -0.5312    0.9823    3.4120 H   0  0  0  0  0  0  0  0  0  0  0  0
    0.8894   -0.0795    3.3546 H   0  0  0  0  0  0  0  0  0  0  0  0
  1  2  1  0  0  0  0
  2  3  1  0  0  0  0
  2  4  1  0  0  0  0
  2  5  1  0  0  0  0
  5  6  2  0  0  0  0
  5  7  1  0  0  0  0
  7  8  1  0  0  0  0
  7  9  1  0  0  0  0
  9 10  1  0  0  0  0
  9 11  1  0  0  0  0
  9 17  1  0  0  0  0
 11 12  1  0  0  0  0
 11 13  1  0  0  0  0
 11 14  1  0  0  0  0
 14 15  1  0  0  0  0
 14 16  2  0  0  0  0
 17 18  2  0  0  0  0
 17 19  1  0  0  0  0
 19 20  1  0  0  0  0
 19 21  1  0  0  0  0
 21 22  1  0  0  0  0
 21 23  1  0  0  0  0
 21 24  1  0  0  0  0
M  CHG  1  15  -1
M  END
$$$$

  -OEChem-03222214023D

 24 23  0     1  0  0  0  0  0999 V2000
   -2.3679   -3.4909   -0.0260 H   0  0  0  0  0  0  0  0  0  0  0  0
   -2.3477   -2.4695   -0.4156 C   0  0  0  0  0  0  0  0  0  0  0  0
   -2.8287   -1.8059    0.3078 H   0  0  0  0  0  0  0  0  0  0  0  0
   -2.9058   -2.4360   -1.3545 H   0  0  0  0  0  0  0  0  0  0  0  0
   -0.9160   -2.0238   -0.6500 C   0  0  0  0  0  0  0  0  0  0  0  0
    0.0010   -2.8141   -0.4875 O   0  0  0  0  0  0  0  0  0  0  0  0
   -0.6762   -0.7337   -1.0644 N   0  0  0  0  0  0  0  0  0  0  0  0
   -1.4834   -0.1051   -0.9898 H   0  0  0  0  0  0  0  0  0  0  0  0
    0.6210   -0.0573   -0.9113 C   0  0  1  0  0  0  0  0  0  0  0  0
    1.3976   -0.6146   -1.4451 H   0  0  0  0  0  0  0  0  0  0  0  0
    0.5326    1.3863   -1.4778 C   0  0  0  0  0  0  0  0  0  0  0  0
    1.2730    2.0295   -0.9940 H   0  0  0  0  0  0  0  0  0  0  0  0
    0.7953    1.3378   -2.5381 H   0  0  0  0  0  0  0  0  0  0  0  0
   -0.8391    2.0646   -1.3876 C   0  0  0  0  0  0  0  0  0  0  0  0
   -1.1235    2.9021   -2.2730 O   0  5  0  0  0  0  0  0  0  0  0  0
   -1.6202    1.7205   -0.4563 O   0  0  0  0  0  0  0  0  0  0  0  0
    1.0322    0.0380    0.5778 C   0  0  0  0  0  0  0  0  0  0  0  0
    2.1945   -0.1424    0.9297 O   0  0  0  0  0  0  0  0  0  0  0  0
    0.0862    0.4326    1.5069 N   0  0  0  0  0  0  0  0  0  0  0  0
   -0.7538    0.8531    1.0920 H   0  0  0  0  0  0  0  0  0  0  0  0
    0.4138    0.7601    2.8845 C   0  0  0  0  0  0  0  0  0  0  0  0
    1.0747    1.6317    2.9225 H   0  0  0  0  0  0  0  0  0  0  0  0
   -0.4998    0.9896    3.4408 H   0  0  0  0  0  0  0  0  0  0  0  0
    0.9108   -0.0851    3.3714 H   0  0  0  0  0  0  0  0  0  0  0  0
  1  2  1  0  0  0  0
  2  3  1  0  0  0  0
  2  4  1  0  0  0  0
  2  5  1  0  0  0  0
  5  6  2  0  0  0  0
  5  7  1  0  0  0  0
  7  8  1  0  0  0  0
  7  9  1  0  0  0  0
  9 10  1  0  0  0  0
  9 11  1  0  0  0  0
  9 17  1  0  0  0  0
 11 12  1  0  0  0  0
 11 13  1  0  0  0  0
 11 14  1  0  0  0  0
 14 15  1  0  0  0  0
 14 16  2  0  0  0  0
 17 18  2  0  0  0  0
 17 19  1  0  0  0  0
 19 20  1  0  0  0  0
 19 21  1  0  0  0  0
 21 22  1  0  0  0  0
 21 23  1  0  0  0  0
 21 24  1  0  0  0  0
M  CHG  1  15  -1
M  END
$$$$

  -OEChem-03222214023D

 24 23  0     1  0  0  0  0  0999 V2000
   -2.3901   -3.4867   -0.0755 H   0  0  0  0  0  0  0  0  0  0  0  0
   -2.3637   -2.4580   -0.4449 C   0  0  0  0  0  0  0  0  0  0  0  0
   -2.8518   -1.8078    0.2858 H   0  0  0  0  0  0  0  0  0  0  0  0
   -2.9104   -2.4055   -1.3896 H   0  0  0  0  0  0  0  0  0  0  0  0
   -0.9284   -2.0105   -0.6541 C   0  0  0  0  0  0  0  0  0  0  0  0
   -0.0141   -2.8010   -0.4778 O   0  0  0  0  0  0  0  0  0  0  0  0
   -0.6815   -0.7188   -1.0595 N   0  0  0  0  0  0  0  0  0  0  0  0
   -1.4882   -0.0900   -1.0000 H   0  0  0  0  0  0  0  0  0  0  0  0
    0.6182   -0.0493   -0.8937 C   0  0  1  0  0  0  0  0  0  0  0  0
    1.3928   -0.6122   -1.4246 H   0  0  0  0  0  0  0  0  0  0  0  0
    0.5361    1.3866   -1.4769 C   0  0  0  0  0  0  0  0  0  0  0  0
    1.2623    2.0404   -0.9867 H   0  0  0  0  0  0  0  0  0  0  0  0
    0.8148    1.3322   -2.5328 H   0  0  0  0  0  0  0  0  0  0  0  0
   -0.8476    2.0379   -1.3994 C   0  0  0  0  0  0  0  0  0  0  0  0
   -1.2642    2.6344   -2.4178 O   0  5  0  0  0  0  0  0  0  0  0  0
   -1.5482    1.8068   -0.3757 O   0  0  0  0  0  0  0  0  0  0  0  0
    1.0348    0.0432    0.5947 C   0  0  0  0  0  0  0  0  0  0  0  0
    2.1990   -0.1420    0.9385 O   0  0  0  0  0  0  0  0  0  0  0  0
    0.0988    0.4398    1.5325 N   0  0  0  0  0  0  0  0  0  0  0  0
   -0.7340    0.8793    1.1218 H   0  0  0  0  0  0  0  0  0  0  0  0
    0.4447    0.7731    2.9044 C   0  0  0  0  0  0  0  0  0  0  0  0
    1.1122    1.6401    2.9295 H   0  0  0  0  0  0  0  0  0  0  0  0
   -0.4606    1.0125    3.4697 H   0  0  0  0  0  0  0  0  0  0  0  0
    0.9414   -0.0725    3.3909 H   0  0  0  0  0  0  0  0  0  0  0  0
  1  2  1  0  0  0  0
  2  3  1  0  0  0  0
  2  4  1  0  0  0  0
  2  5  1  0  0  0  0
  5  6  2  0  0  0  0
  5  7  1  0  0  0  0
  7  8  1  0  0  0  0
  7  9  1  0  0  0  0
  9 10  1  0  0  0  0
  9 11  1  0  0  0  0
  9 17  1  0  0  0  0
 11 12  1  0  0  0  0
 11 13  1  0  0  0  0
 11 14  1  0  0  0  0
 14 15  1  0  0  0  0
 14 16  2  0  0  0  0
 17 18  2  0  0  0  0
 17 19  1  0  0  0  0
 19 20  1  0  0  0  0
 19 21  1  0  0  0  0
 21 22  1  0  0  0  0
 21 23  1  0  0  0  0
 21 24  1  0  0  0  0
M  CHG  1  15  -1
M  END
$$$$

  -OEChem-03222214023D

 24 23  0     1  0  0  0  0  0999 V2000
   -2.4222   -3.4822   -0.1254 H   0  0  0  0  0  0  0  0  0  0  0  0
   -2.3842   -2.4508   -0.4864 C   0  0  0  0  0  0  0  0  0  0  0  0
   -2.9006   -1.8063    0.2298 H   0  0  0  0  0  0  0  0  0  0  0  0
   -2.8955   -2.3931   -1.4504 H   0  0  0  0  0  0  0  0  0  0  0  0
   -0.9431   -1.9992   -0.6388 C   0  0  0  0  0  0  0  0  0  0  0  0
   -0.0347   -2.7858   -0.4206 O   0  0  0  0  0  0  0  0  0  0  0  0
   -0.6849   -0.7098   -1.0442 N   0  0  0  0  0  0  0  0  0  0  0  0
   -1.4947   -0.0848   -1.0438 H   0  0  0  0  0  0  0  0  0  0  0  0
    0.6167   -0.0423   -0.8781 C   0  0  1  0  0  0  0  0  0  0  0  0
    1.3884   -0.6116   -1.4064 H   0  0  0  0  0  0  0  0  0  0  0  0
    0.5357    1.3845   -1.4809 C   0  0  0  0  0  0  0  0  0  0  0  0
    1.2512    2.0502   -0.9908 H   0  0  0  0  0  0  0  0  0  0  0  0
    0.8210    1.3247   -2.5348 H   0  0  0  0  0  0  0  0  0  0  0  0
   -0.8584    2.0083   -1.4061 C   0  0  0  0  0  0  0  0  0  0  0  0
   -1.4072    2.3291   -2.4842 O   0  5  0  0  0  0  0  0  0  0  0  0
   -1.4607    1.9342   -0.3025 O   0  0  0  0  0  0  0  0  0  0  0  0
    1.0422    0.0582    0.6076 C   0  0  0  0  0  0  0  0  0  0  0  0
    2.2076   -0.1358    0.9430 O   0  0  0  0  0  0  0  0  0  0  0  0
    0.1172    0.4612    1.5531 N   0  0  0  0  0  0  0  0  0  0  0  0
   -0.7041    0.9263    1.1472 H   0  0  0  0  0  0  0  0  0  0  0  0
    0.4783    0.7865    2.9229 C   0  0  0  0  0  0  0  0  0  0  0  0
    1.1486    1.6513    2.9454 H   0  0  0  0  0  0  0  0  0  0  0  0
   -0.4204    1.0256    3.4989 H   0  0  0  0  0  0  0  0  0  0  0  0
    0.9773   -0.0631    3.3997 H   0  0  0  0  0  0  0  0  0  0  0  0
  1  2  1  0  0  0  0
  2  3  1  0  0  0  0
  2  4  1  0  0  0  0
  2  5  1  0  0  0  0
  5  6  2  0  0  0  0
  5  7  1  0  0  0  0
  7  8  1  0  0  0  0
  7  9  1  0  0  0  0
  9 10  1  0  0  0  0
  9 11  1  0  0  0  0
  9 17  1  0  0  0  0
 11 12  1  0  0  0  0
 11 13  1  0  0  0  0
 11 14  1  0  0  0  0
 14 15  1  0  0  0  0
 14 16  2  0  0  0  0
 17 18  2  0  0  0  0
 17 19  1  0  0  0  0
 19 20  1  0  0  0  0
 19 21  1  0  0  0  0
 21 22  1  0  0  0  0
 21 23  1  0  0  0  0
 21 24  1  0  0  0  0
M  CHG  1  15  -1
M  END
$$$$

  -OEChem-03222214023D

 24 23  0     1  0  0  0  0  0999 V2000
   -2.4743   -3.4780   -0.1728 H   0  0  0  0  0  0  0  0  0  0  0  0
   -2.4120   -2.4586   -0.5630 C   0  0  0  0  0  0  0  0  0  0  0  0
   -2.9972   -1.7976    0.0816 H   0  0  0  0  0  0  0  0  0  0  0  0
   -2.8339   -2.4376   -1.5708 H   0  0  0  0  0  0  0  0  0  0  0  0
   -0.9668   -1.9958   -0.5988 C   0  0  0  0  0  0  0  0  0  0  0  0
   -0.0738   -2.7685   -0.2876 O   0  0  0  0  0  0  0  0  0  0  0  0
   -0.6863   -0.7140   -1.0124 N   0  0  0  0  0  0  0  0  0  0  0  0
   -1.4917   -0.1107   -1.1907 H   0  0  0  0  0  0  0  0  0  0  0  0
    0.6177   -0.0449   -0.8607 C   0  0  1  0  0  0  0  0  0  0  0  0
    1.3860   -0.6166   -1.3908 H   0  0  0  0  0  0  0  0  0  0  0  0
    0.5216    1.3761   -1.4728 C   0  0  0  0  0  0  0  0  0  0  0  0
    1.2348    2.0530   -0.9944 H   0  0  0  0  0  0  0  0  0  0  0  0
    0.7910    1.3169   -2.5309 H   0  0  0  0  0  0  0  0  0  0  0  0
   -0.8821    1.9675   -1.3727 C   0  0  0  0  0  0  0  0  0  0  0  0
   -1.5665    2.0016   -2.4207 O   0  5  0  0  0  0  0  0  0  0  0  0
   -1.3526    2.1263   -0.2185 O   0  0  0  0  0  0  0  0  0  0  0  0
    1.0571    0.0758    0.6199 C   0  0  0  0  0  0  0  0  0  0  0  0
    2.2249   -0.1253    0.9444 O   0  0  0  0  0  0  0  0  0  0  0  0
    0.1453    0.4919    1.5726 N   0  0  0  0  0  0  0  0  0  0  0  0
   -0.6649    0.9807    1.1719 H   0  0  0  0  0  0  0  0  0  0  0  0
    0.5276    0.8198    2.9361 C   0  0  0  0  0  0  0  0  0  0  0  0
    1.2192    1.6681    2.9454 H   0  0  0  0  0  0  0  0  0  0  0  0
   -0.3594    1.0854    3.5186 H   0  0  0  0  0  0  0  0  0  0  0  0
    1.0104   -0.0377    3.4154 H   0  0  0  0  0  0  0  0  0  0  0  0
  1  2  1  0  0  0  0
  2  3  1  0  0  0  0
  2  4  1  0  0  0  0
  2  5  1  0  0  0  0
  5  6  2  0  0  0  0
  5  7  1  0  0  0  0
  7  8  1  0  0  0  0
  7  9  1  0  0  0  0
  9 10  1  0  0  0  0
  9 11  1  0  0  0  0
  9 17  1  0  0  0  0
 11 12  1  0  0  0  0
 11 13  1  0  0  0  0
 11 14  1  0  0  0  0
 14 15  1  0  0  0  0
 14 16  2  0  0  0  0
 17 18  2  0  0  0  0
 17 19  1  0  0  0  0
 19 20  1  0  0  0  0
 19 21  1  0  0  0  0
 21 22  1  0  0  0  0
 21 23  1  0  0  0  0
 21 24  1  0  0  0  0
M  CHG  1  15  -1
M  END
$$$$

  -OEChem-03222214023D

 24 23  0     1  0  0  0  0  0999 V2000
   -2.5245   -3.4962   -0.2660 H   0  0  0  0  0  0  0  0  0  0  0  0
   -2.4385   -2.4765   -0.6509 C   0  0  0  0  0  0  0  0  0  0  0  0
   -3.0919   -1.8219   -0.0684 H   0  0  0  0  0  0  0  0  0  0  0  0
   -2.7612   -2.4630   -1.6950 H   0  0  0  0  0  0  0  0  0  0  0  0
   -1.0031   -1.9935   -0.5472 C   0  0  0  0  0  0  0  0  0  0  0  0
   -0.1388   -2.7452   -0.1237 O   0  0  0  0  0  0  0  0  0  0  0  0
   -0.6931   -0.7242   -0.9768 N   0  0  0  0  0  0  0  0  0  0  0  0
   -1.4607   -0.1603   -1.3567 H   0  0  0  0  0  0  0  0  0  0  0  0
    0.6173   -0.0621   -0.8459 C   0  0  1  0  0  0  0  0  0  0  0  0
    1.3799   -0.6344   -1.3832 H   0  0  0  0  0  0  0  0  0  0  0  0
    0.5031    1.3602   -1.4514 C   0  0  0  0  0  0  0  0  0  0  0  0
    1.2245    2.0407   -0.9901 H   0  0  0  0  0  0  0  0  0  0  0  0
    0.7412    1.3092   -2.5171 H   0  0  0  0  0  0  0  0  0  0  0  0
   -0.9044    1.9296   -1.3066 C   0  0  0  0  0  0  0  0  0  0  0  0
   -1.7106    1.6977   -2.2401 O   0  5  0  0  0  0  0  0  0  0  0  0
   -1.2366    2.3503   -0.1724 O   0  0  0  0  0  0  0  0  0  0  0  0
    1.0715    0.0826    0.6279 C   0  0  0  0  0  0  0  0  0  0  0  0
    2.2408   -0.1266    0.9421 O   0  0  0  0  0  0  0  0  0  0  0  0
    0.1724    0.5235    1.5824 N   0  0  0  0  0  0  0  0  0  0  0  0
   -0.6280    1.0278    1.1829 H   0  0  0  0  0  0  0  0  0  0  0  0
    0.5774    0.8718    2.9342 C   0  0  0  0  0  0  0  0  0  0  0  0
    1.2709    1.7185    2.9186 H   0  0  0  0  0  0  0  0  0  0  0  0
   -0.2997    1.1495    3.5261 H   0  0  0  0  0  0  0  0  0  0  0  0
    1.0660    0.0210    3.4197 H   0  0  0  0  0  0  0  0  0  0  0  0
  1  2  1  0  0  0  0
  2  3  1  0  0  0  0
  2  4  1  0  0  0  0
  2  5  1  0  0  0  0
  5  6  2  0  0  0  0
  5  7  1  0  0  0  0
  7  8  1  0  0  0  0
  7  9  1  0  0  0  0
  9 10  1  0  0  0  0
  9 11  1  0  0  0  0
  9 17  1  0  0  0  0
 11 12  1  0  0  0  0
 11 13  1  0  0  0  0
 11 14  1  0  0  0  0
 14 15  1  0  0  0  0
 14 16  2  0  0  0  0
 17 18  2  0  0  0  0
 17 19  1  0  0  0  0
 19 20  1  0  0  0  0
 19 21  1  0  0  0  0
 21 22  1  0  0  0  0
 21 23  1  0  0  0  0
 21 24  1  0  0  0  0
M  CHG  1  15  -1
M  END
$$$$

  -OEChem-03222214023D

 24 23  0     1  0  0  0  0  0999 V2000
   -2.5098   -3.5050   -0.2286 H   0  0  0  0  0  0  0  0  0  0  0  0
   -2.4272   -2.4908   -0.6285 C   0  0  0  0  0  0  0  0  0  0  0  0
   -3.0791   -1.8294   -0.0523 H   0  0  0  0  0  0  0  0  0  0  0  0
   -2.7549   -2.4918   -1.6710 H   0  0  0  0  0  0  0  0  0  0  0  0
   -0.9922   -2.0040   -0.5391 C   0  0  0  0  0  0  0  0  0  0  0  0
   -0.1247   -2.7496   -0.1115 O   0  0  0  0  0  0  0  0  0  0  0  0
   -0.6863   -0.7387   -0.9831 N   0  0  0  0  0  0  0  0  0  0  0  0
   -1.4565   -0.1769   -1.3671 H   0  0  0  0  0  0  0  0  0  0  0  0
    0.6188   -0.0693   -0.8654 C   0  0  1  0  0  0  0  0  0  0  0  0
    1.3842   -0.6375   -1.4027 H   0  0  0  0  0  0  0  0  0  0  0  0
    0.5043    1.3623   -1.4535 C   0  0  0  0  0  0  0  0  0  0  0  0
    1.2430    2.0302   -1.0000 H   0  0  0  0  0  0  0  0  0  0  0  0
    0.7261    1.3161   -2.5228 H   0  0  0  0  0  0  0  0  0  0  0  0
   -0.8935    1.9586   -1.2998 C   0  0  0  0  0  0  0  0  0  0  0  0
   -1.7972    1.5328   -2.0647 O   0  5  0  0  0  0  0  0  0  0  0  0
   -1.1075    2.6046   -0.2474 O   0  0  0  0  0  0  0  0  0  0  0  0
    1.0667    0.0888    0.6087 C   0  0  0  0  0  0  0  0  0  0  0  0
    2.2310   -0.1299    0.9343 O   0  0  0  0  0  0  0  0  0  0  0  0
    0.1591    0.5337    1.5543 N   0  0  0  0  0  0  0  0  0  0  0  0
   -0.6316    1.0474    1.1531 H   0  0  0  0  0  0  0  0  0  0  0  0
    0.5513    0.8664    2.9139 C   0  0  0  0  0  0  0  0  0  0  0  0
    1.2770    1.6858    2.9128 H   0  0  0  0  0  0  0  0  0  0  0  0
   -0.3252    1.1774    3.4895 H   0  0  0  0  0  0  0  0  0  0  0  0
    0.9972   -0.0031    3.4075 H   0  0  0  0  0  0  0  0  0  0  0  0
  1  2  1  0  0  0  0
  2  3  1  0  0  0  0
  2  4  1  0  0  0  0
  2  5  1  0  0  0  0
  5  6  2  0  0  0  0
  5  7  1  0  0  0  0
  7  8  1  0  0  0  0
  7  9  1  0  0  0  0
  9 10  1  0  0  0  0
  9 11  1  0  0  0  0
  9 17  1  0  0  0  0
 11 12  1  0  0  0  0
 11 13  1  0  0  0  0
 11 14  1  0  0  0  0
 14 15  1  0  0  0  0
 14 16  2  0  0  0  0
 17 18  2  0  0  0  0
 17 19  1  0  0  0  0
 19 20  1  0  0  0  0
 19 21  1  0  0  0  0
 21 22  1  0  0  0  0
 21 23  1  0  0  0  0
 21 24  1  0  0  0  0
M  CHG  1  15  -1
M  END
$$$$

  -OEChem-03222214023D

 24 23  0     1  0  0  0  0  0999 V2000
   -2.4886   -3.5436   -0.2189 H   0  0  0  0  0  0  0  0  0  0  0  0
   -2.4189   -2.5268   -0.6148 C   0  0  0  0  0  0  0  0  0  0  0  0
   -3.0760   -1.8745   -0.0339 H   0  0  0  0  0  0  0  0  0  0  0  0
   -2.7507   -2.5278   -1.6561 H   0  0  0  0  0  0  0  0  0  0  0  0
   -0.9890   -2.0248   -0.5294 C   0  0  0  0  0  0  0  0  0  0  0  0
   -0.1117   -2.7605   -0.1051 O   0  0  0  0  0  0  0  0  0  0  0  0
   -0.6994   -0.7534   -0.9664 N   0  0  0  0  0  0  0  0  0  0  0  0
   -1.4801   -0.1932   -1.3324 H   0  0  0  0  0  0  0  0  0  0  0  0
    0.5974   -0.0711   -0.8619 C   0  0  1  0  0  0  0  0  0  0  0  0
    1.3594   -0.6424   -1.4014 H   0  0  0  0  0  0  0  0  0  0  0  0
    0.4991    1.3609   -1.4574 C   0  0  0  0  0  0  0  0  0  0  0  0
    1.2581    2.0095   -1.0086 H   0  0  0  0  0  0  0  0  0  0  0  0
    0.7268    1.2957   -2.5242 H   0  0  0  0  0  0  0  0  0  0  0  0
   -0.8743    2.0294   -1.3420 C   0  0  0  0  0  0  0  0  0  0  0  0
   -1.8656    1.4783   -1.8906 O   0  5  0  0  0  0  0  0  0  0  0  0
   -0.9581    2.9907   -0.5448 O   0  0  0  0  0  0  0  0  0  0  0  0
    1.0573    0.0774    0.6087 C   0  0  0  0  0  0  0  0  0  0  0  0
    2.2319   -0.1033    0.9188 O   0  0  0  0  0  0  0  0  0  0  0  0
    0.1528    0.5018    1.5669 N   0  0  0  0  0  0  0  0  0  0  0  0
   -0.7000    0.9162    1.1924 H   0  0  0  0  0  0  0  0  0  0  0  0
    0.5505    0.8635    2.9177 C   0  0  0  0  0  0  0  0  0  0  0  0
    1.2344    1.7180    2.8985 H   0  0  0  0  0  0  0  0  0  0  0  0
   -0.3307    1.1352    3.5063 H   0  0  0  0  0  0  0  0  0  0  0  0
    1.0471    0.0209    3.4095 H   0  0  0  0  0  0  0  0  0  0  0  0
  1  2  1  0  0  0  0
  2  3  1  0  0  0  0
  2  4  1  0  0  0  0
  2  5  1  0  0  0  0
  5  6  2  0  0  0  0
  5  7  1  0  0  0  0
  7  8  1  0  0  0  0
  7  9  1  0  0  0  0
  9 10  1  0  0  0  0
  9 11  1  0  0  0  0
  9 17  1  0  0  0  0
 11 12  1  0  0  0  0
 11 13  1  0  0  0  0
 11 14  1  0  0  0  0
 14 15  1  0  0  0  0
 14 16  2  0  0  0  0
 17 18  2  0  0  0  0
 17 19  1  0  0  0  0
 19 20  1  0  0  0  0
 19 21  1  0  0  0  0
 21 22  1  0  0  0  0
 21 23  1  0  0  0  0
 21 24  1  0  0  0  0
M  CHG  1  15  -1
M  END
$$$$

  -OEChem-03222214023D

 24 23  0     1  0  0  0  0  0999 V2000
   -2.4585   -3.5702   -0.1863 H   0  0  0  0  0  0  0  0  0  0  0  0
   -2.4050   -2.5521   -0.5814 C   0  0  0  0  0  0  0  0  0  0  0  0
   -3.0499   -1.9051    0.0186 H   0  0  0  0  0  0  0  0  0  0  0  0
   -2.7642   -2.5525   -1.6136 H   0  0  0  0  0  0  0  0  0  0  0  0
   -0.9759   -2.0425   -0.5326 C   0  0  0  0  0  0  0  0  0  0  0  0
   -0.0830   -2.7764   -0.1391 O   0  0  0  0  0  0  0  0  0  0  0  0
   -0.7061   -0.7631   -0.9591 N   0  0  0  0  0  0  0  0  0  0  0  0
   -1.5041   -0.1940   -1.2694 H   0  0  0  0  0  0  0  0  0  0  0  0
    0.5825   -0.0670   -0.8637 C   0  0  1  0  0  0  0  0  0  0  0  0
    1.3433   -0.6366   -1.4069 H   0  0  0  0  0  0  0  0  0  0  0  0
    0.4938    1.3682   -1.4603 C   0  0  0  0  0  0  0  0  0  0  0  0
    1.2678    1.9988   -1.0115 H   0  0  0  0  0  0  0  0  0  0  0  0
    0.7268    1.2905   -2.5248 H   0  0  0  0  0  0  0  0  0  0  0  0
   -0.8555    2.0975   -1.3756 C   0  0  0  0  0  0  0  0  0  0  0  0
   -1.9177    1.4864   -1.6697 O   0  5  0  0  0  0  0  0  0  0  0  0
   -0.8215    3.2696   -0.9379 O   0  0  0  0  0  0  0  0  0  0  0  0
    1.0485    0.0653    0.6057 C   0  0  0  0  0  0  0  0  0  0  0  0
    2.2315   -0.0715    0.9047 O   0  0  0  0  0  0  0  0  0  0  0  0
    0.1419    0.4642    1.5726 N   0  0  0  0  0  0  0  0  0  0  0  0
   -0.7597    0.7790    1.2209 H   0  0  0  0  0  0  0  0  0  0  0  0
    0.5346    0.8463    2.9195 C   0  0  0  0  0  0  0  0  0  0  0  0
    1.1768    1.7324    2.8923 H   0  0  0  0  0  0  0  0  0  0  0  0
   -0.3525    1.0764    3.5169 H   0  0  0  0  0  0  0  0  0  0  0  0
    1.0762    0.0292    3.4069 H   0  0  0  0  0  0  0  0  0  0  0  0
  1  2  1  0  0  0  0
  2  3  1  0  0  0  0
  2  4  1  0  0  0  0
  2  5  1  0  0  0  0
  5  6  2  0  0  0  0
  5  7  1  0  0  0  0
  7  8  1  0  0  0  0
  7  9  1  0  0  0  0
  9 10  1  0  0  0  0
  9 11  1  0  0  0  0
  9 17  1  0  0  0  0
 11 12  1  0  0  0  0
 11 13  1  0  0  0  0
 11 14  1  0  0  0  0
 14 15  1  0  0  0  0
 14 16  2  0  0  0  0
 17 18  2  0  0  0  0
 17 19  1  0  0  0  0
 19 20  1  0  0  0  0
 19 21  1  0  0  0  0
 21 22  1  0  0  0  0
 21 23  1  0  0  0  0
 21 24  1  0  0  0  0
M  CHG  1  15  -1
M  END
$$$$

  -OEChem-03222214023D

 24 23  0     1  0  0  0  0  0999 V2000
   -2.4190   -3.5705   -0.1129 H   0  0  0  0  0  0  0  0  0  0  0  0
   -2.3823   -2.5548   -0.5161 C   0  0  0  0  0  0  0  0  0  0  0  0
   -2.9892   -1.9013    0.1159 H   0  0  0  0  0  0  0  0  0  0  0  0
   -2.7987   -2.5585   -1.5265 H   0  0  0  0  0  0  0  0  0  0  0  0
   -0.9500   -2.0530   -0.5497 C   0  0  0  0  0  0  0  0  0  0  0  0
   -0.0389   -2.7934   -0.2139 O   0  0  0  0  0  0  0  0  0  0  0  0
   -0.6988   -0.7698   -0.9771 N   0  0  0  0  0  0  0  0  0  0  0  0
   -1.5149   -0.1837   -1.1936 H   0  0  0  0  0  0  0  0  0  0  0  0
    0.5852   -0.0642   -0.8870 C   0  0  1  0  0  0  0  0  0  0  0  0
    1.3497   -0.6265   -1.4327 H   0  0  0  0  0  0  0  0  0  0  0  0
    0.4973    1.3795   -1.4672 C   0  0  0  0  0  0  0  0  0  0  0  0
    1.2797    1.9969   -1.0145 H   0  0  0  0  0  0  0  0  0  0  0  0
    0.7277    1.3068   -2.5327 H   0  0  0  0  0  0  0  0  0  0  0  0
   -0.8359    2.1421   -1.3829 C   0  0  0  0  0  0  0  0  0  0  0  0
   -1.9326    1.5212   -1.4000 O   0  5  0  0  0  0  0  0  0  0  0  0
   -0.7408    3.3858   -1.2784 O   0  0  0  0  0  0  0  0  0  0  0  0
    1.0419    0.0592    0.5859 C   0  0  0  0  0  0  0  0  0  0  0  0
    2.2238   -0.0622    0.8947 O   0  0  0  0  0  0  0  0  0  0  0  0
    0.1213    0.4446    1.5453 N   0  0  0  0  0  0  0  0  0  0  0  0
   -0.7893    0.7282    1.1891 H   0  0  0  0  0  0  0  0  0  0  0  0
    0.4887    0.8134    2.9028 C   0  0  0  0  0  0  0  0  0  0  0  0
    1.1215    1.7066    2.8970 H   0  0  0  0  0  0  0  0  0  0  0  0
   -0.4101    1.0262    3.4890 H   0  0  0  0  0  0  0  0  0  0  0  0
    1.0314   -0.0041    3.3882 H   0  0  0  0  0  0  0  0  0  0  0  0
  1  2  1  0  0  0  0
  2  3  1  0  0  0  0
  2  4  1  0  0  0  0
  2  5  1  0  0  0  0
  5  6  2  0  0  0  0
  5  7  1  0  0  0  0
  7  8  1  0  0  0  0
  7  9  1  0  0  0  0
  9 10  1  0  0  0  0
  9 11  1  0  0  0  0
  9 17  1  0  0  0  0
 11 12  1  0  0  0  0
 11 13  1  0  0  0  0
 11 14  1  0  0  0  0
 14 15  1  0  0  0  0
 14 16  2  0  0  0  0
 17 18  2  0  0  0  0
 17 19  1  0  0  0  0
 19 20  1  0  0  0  0
 19 21  1  0  0  0  0
 21 22  1  0  0  0  0
 21 23  1  0  0  0  0
 21 24  1  0  0  0  0
M  CHG  1  15  -1
M  END
$$$$

  -OEChem-03222214023D

 24 23  0     1  0  0  0  0  0999 V2000
   -2.3826   -3.5557   -0.0442 H   0  0  0  0  0  0  0  0  0  0  0  0
   -2.3587   -2.5434   -0.4566 C   0  0  0  0  0  0  0  0  0  0  0  0
   -2.9267   -1.8806    0.2012 H   0  0  0  0  0  0  0  0  0  0  0  0
   -2.8268   -2.5513   -1.4439 H   0  0  0  0  0  0  0  0  0  0  0  0
   -0.9265   -2.0537   -0.5689 C   0  0  0  0  0  0  0  0  0  0  0  0
   -0.0045   -2.8049   -0.2923 O   0  0  0  0  0  0  0  0  0  0  0  0
   -0.6888   -0.7699   -1.0021 N   0  0  0  0  0  0  0  0  0  0  0  0
   -1.5130   -0.1676   -1.1179 H   0  0  0  0  0  0  0  0  0  0  0  0
    0.5951   -0.0630   -0.9121 C   0  0  1  0  0  0  0  0  0  0  0  0
    1.3633   -0.6194   -1.4583 H   0  0  0  0  0  0  0  0  0  0  0  0
    0.5032    1.3881   -1.4742 C   0  0  0  0  0  0  0  0  0  0  0  0
    1.2866    2.0007   -1.0173 H   0  0  0  0  0  0  0  0  0  0  0  0
    0.7292    1.3262   -2.5415 H   0  0  0  0  0  0  0  0  0  0  0  0
   -0.8246    2.1588   -1.3758 C   0  0  0  0  0  0  0  0  0  0  0  0
   -1.9021    1.5600   -1.1105 O   0  5  0  0  0  0  0  0  0  0  0  0
   -0.7436    3.3915   -1.5777 O   0  0  0  0  0  0  0  0  0  0  0  0
    1.0375    0.0556    0.5653 C   0  0  0  0  0  0  0  0  0  0  0  0
    2.2136   -0.0756    0.8911 O   0  0  0  0  0  0  0  0  0  0  0  0
    0.1023    0.4387    1.5115 N   0  0  0  0  0  0  0  0  0  0  0  0
   -0.7985    0.7375    1.1385 H   0  0  0  0  0  0  0  0  0  0  0  0
    0.4438    0.7811    2.8824 C   0  0  0  0  0  0  0  0  0  0  0  0
    1.1005    1.6566    2.9053 H   0  0  0  0  0  0  0  0  0  0  0  0
   -0.4642    1.0111    3.4474 H   0  0  0  0  0  0  0  0  0  0  0  0
    0.9510   -0.0571    3.3708 H   0  0  0  0  0  0  0  0  0  0  0  0
  1  2  1  0  0  0  0
  2  3  1  0  0  0  0
  2  4  1  0  0  0  0
  2  5  1  0  0  0  0
  5  6  2  0  0  0  0
  5  7  1  0  0  0  0
  7  8  1  0  0  0  0
  7  9  1  0  0  0  0
  9 10  1  0  0  0  0
  9 11  1  0  0  0  0
  9 17  1  0  0  0  0
 11 12  1  0  0  0  0
 11 13  1  0  0  0  0
 11 14  1  0  0  0  0
 14 15  1  0  0  0  0
 14 16  2  0  0  0  0
 17 18  2  0  0  0  0
 17 19  1  0  0  0  0
 19 20  1  0  0  0  0
 19 21  1  0  0  0  0
 21 22  1  0  0  0  0
 21 23  1  0  0  0  0
 21 24  1  0  0  0  0
M  CHG  1  15  -1
M  END
$$$$

  -OEChem-03222214023D

 24 23  0     1  0  0  0  0  0999 V2000
   -2.3606   -3.5391   -0.0101 H   0  0  0  0  0  0  0  0  0  0  0  0
   -2.3445   -2.5225   -0.4122 C   0  0  0  0  0  0  0  0  0  0  0  0
   -2.8615   -1.8584    0.2855 H   0  0  0  0  0  0  0  0  0  0  0  0
   -2.8703   -2.5107   -1.3699 H   0  0  0  0  0  0  0  0  0  0  0  0
   -0.9133   -2.0546   -0.6038 C   0  0  0  0  0  0  0  0  0  0  0  0
    0.0111   -2.8245   -0.3941 O   0  0  0  0  0  0  0  0  0  0  0  0
   -0.6797   -0.7698   -1.0373 N   0  0  0  0  0  0  0  0  0  0  0  0
   -1.4995   -0.1514   -1.0531 H   0  0  0  0  0  0  0  0  0  0  0  0
    0.6102   -0.0727   -0.9332 C   0  0  1  0  0  0  0  0  0  0  0  0
    1.3827   -0.6233   -1.4794 H   0  0  0  0  0  0  0  0  0  0  0  0
    0.5206    1.3880   -1.4667 C   0  0  0  0  0  0  0  0  0  0  0  0
    1.3012    1.9946   -0.9979 H   0  0  0  0  0  0  0  0  0  0  0  0
    0.7450    1.3484   -2.5355 H   0  0  0  0  0  0  0  0  0  0  0  0
   -0.8106    2.1465   -1.3422 C   0  0  0  0  0  0  0  0  0  0  0  0
   -1.8137    1.5931   -0.8125 O   0  5  0  0  0  0  0  0  0  0  0  0
   -0.8148    3.3113   -1.7999 O   0  0  0  0  0  0  0  0  0  0  0  0
    1.0308    0.0337    0.5515 C   0  0  0  0  0  0  0  0  0  0  0  0
    2.1999   -0.1074    0.8979 O   0  0  0  0  0  0  0  0  0  0  0  0
    0.0783    0.4207    1.4789 N   0  0  0  0  0  0  0  0  0  0  0  0
   -0.7968    0.7639    1.0758 H   0  0  0  0  0  0  0  0  0  0  0  0
    0.4015    0.7781    2.8503 C   0  0  0  0  0  0  0  0  0  0  0  0
    1.0521    1.6581    2.8722 H   0  0  0  0  0  0  0  0  0  0  0  0
   -0.5143    1.0072    3.4028 H   0  0  0  0  0  0  0  0  0  0  0  0
    0.9090   -0.0515    3.3526 H   0  0  0  0  0  0  0  0  0  0  0  0
  1  2  1  0  0  0  0
  2  3  1  0  0  0  0
  2  4  1  0  0  0  0
  2  5  1  0  0  0  0
  5  6  2  0  0  0  0
  5  7  1  0  0  0  0
  7  8  1  0  0  0  0
  7  9  1  0  0  0  0
  9 10  1  0  0  0  0
  9 11  1  0  0  0  0
  9 17  1  0  0  0  0
 11 12  1  0  0  0  0
 11 13  1  0  0  0  0
 11 14  1  0  0  0  0
 14 15  1  0  0  0  0
 14 16  2  0  0  0  0
 17 18  2  0  0  0  0
 17 19  1  0  0  0  0
 19 20  1  0  0  0  0
 19 21  1  0  0  0  0
 21 22  1  0  0  0  0
 21 23  1  0  0  0  0
 21 24  1  0  0  0  0
M  CHG  1  15  -1
M  END
$$$$

  -OEChem-03222214023D

 24 23  0     1  0  0  0  0  0999 V2000
   -2.3543   -3.5089    0.0057 H   0  0  0  0  0  0  0  0  0  0  0  0
   -2.3392   -2.4934   -0.3992 C   0  0  0  0  0  0  0  0  0  0  0  0
   -2.8276   -1.8225    0.3124 H   0  0  0  0  0  0  0  0  0  0  0  0
   -2.8938   -2.4775   -1.3405 H   0  0  0  0  0  0  0  0  0  0  0  0
   -0.9094   -2.0414   -0.6350 C   0  0  0  0  0  0  0  0  0  0  0  0
    0.0119   -2.8252   -0.4657 O   0  0  0  0  0  0  0  0  0  0  0  0
   -0.6750   -0.7539   -1.0604 N   0  0  0  0  0  0  0  0  0  0  0  0
   -1.4870   -0.1278   -1.0097 H   0  0  0  0  0  0  0  0  0  0  0  0
    0.6194   -0.0680   -0.9309 C   0  0  1  0  0  0  0  0  0  0  0  0
    1.3960   -0.6194   -1.4708 H   0  0  0  0  0  0  0  0  0  0  0  0
    0.5293    1.3876   -1.4721 C   0  0  0  0  0  0  0  0  0  0  0  0
    1.2890    2.0074   -0.9876 H   0  0  0  0  0  0  0  0  0  0  0  0
    0.7743    1.3511   -2.5368 H   0  0  0  0  0  0  0  0  0  0  0  0
   -0.8211    2.1094   -1.3580 C   0  0  0  0  0  0  0  0  0  0  0  0
   -1.7125    1.6413   -0.5945 O   0  5  0  0  0  0  0  0  0  0  0  0
   -0.9642    3.1365   -2.0584 O   0  0  0  0  0  0  0  0  0  0  0  0
    1.0290    0.0302    0.5581 C   0  0  0  0  0  0  0  0  0  0  0  0
    2.1926   -0.1326    0.9138 O   0  0  0  0  0  0  0  0  0  0  0  0
    0.0742    0.4212    1.4806 N   0  0  0  0  0  0  0  0  0  0  0  0
   -0.7804    0.8065    1.0647 H   0  0  0  0  0  0  0  0  0  0  0  0
    0.3929    0.7657    2.8563 C   0  0  0  0  0  0  0  0  0  0  0  0
    1.0622    1.6312    2.8875 H   0  0  0  0  0  0  0  0  0  0  0  0
   -0.5231    1.0124    3.4012 H   0  0  0  0  0  0  0  0  0  0  0  0
    0.8776   -0.0772    3.3595 H   0  0  0  0  0  0  0  0  0  0  0  0
  1  2  1  0  0  0  0
  2  3  1  0  0  0  0
  2  4  1  0  0  0  0
  2  5  1  0  0  0  0
  5  6  2  0  0  0  0
  5  7  1  0  0  0  0
  7  8  1  0  0  0  0
  7  9  1  0  0  0  0
  9 10  1  0  0  0  0
  9 11  1  0  0  0  0
  9 17  1  0  0  0  0
 11 12  1  0  0  0  0
 11 13  1  0  0  0  0
 11 14  1  0  0  0  0
 14 15  1  0  0  0  0
 14 16  2  0  0  0  0
 17 18  2  0  0  0  0
 17 19  1  0  0  0  0
 19 20  1  0  0  0  0
 19 21  1  0  0  0  0
 21 22  1  0  0  0  0
 21 23  1  0  0  0  0
 21 24  1  0  0  0  0
M  CHG  1  15  -1
M  END
$$$$

  -OEChem-03222214023D

 24 23  0     1  0  0  0  0  0999 V2000
   -2.3673   -3.4884   -0.0247 H   0  0  0  0  0  0  0  0  0  0  0  0
   -2.3478   -2.4694   -0.4202 C   0  0  0  0  0  0  0  0  0  0  0  0
   -2.8318   -1.8029    0.2985 H   0  0  0  0  0  0  0  0  0  0  0  0
   -2.9035   -2.4426   -1.3606 H   0  0  0  0  0  0  0  0  0  0  0  0
   -0.9163   -2.0222   -0.6535 C   0  0  0  0  0  0  0  0  0  0  0  0
    0.0013   -2.8118   -0.4911 O   0  0  0  0  0  0  0  0  0  0  0  0
   -0.6772   -0.7316   -1.0670 N   0  0  0  0  0  0  0  0  0  0  0  0
   -1.4844   -0.1036   -0.9909 H   0  0  0  0  0  0  0  0  0  0  0  0
    0.6200   -0.0557   -0.9100 C   0  0  1  0  0  0  0  0  0  0  0  0
    1.3972   -0.6145   -1.4411 H   0  0  0  0  0  0  0  0  0  0  0  0
    0.5334    1.3852   -1.4837 C   0  0  0  0  0  0  0  0  0  0  0  0
    1.2646    2.0288   -0.9869 H   0  0  0  0  0  0  0  0  0  0  0  0
    0.8067    1.3379   -2.5413 H   0  0  0  0  0  0  0  0  0  0  0  0
   -0.8426    2.0551   -1.3996 C   0  0  0  0  0  0  0  0  0  0  0  0
   -1.6078    1.7354   -0.4469 O   0  5  0  0  0  0  0  0  0  0  0  0
   -1.1455    2.8617   -2.3072 O   0  0  0  0  0  0  0  0  0  0  0  0
    1.0301    0.0400    0.5798 C   0  0  0  0  0  0  0  0  0  0  0  0
    2.1918   -0.1438    0.9319 O   0  0  0  0  0  0  0  0  0  0  0  0
    0.0851    0.4350    1.5097 N   0  0  0  0  0  0  0  0  0  0  0  0
   -0.7528    0.8606    1.0954 H   0  0  0  0  0  0  0  0  0  0  0  0
    0.4148    0.7601    2.8876 C   0  0  0  0  0  0  0  0  0  0  0  0
    1.0906    1.6203    2.9261 H   0  0  0  0  0  0  0  0  0  0  0  0
   -0.4961    1.0062    3.4410 H   0  0  0  0  0  0  0  0  0  0  0  0
    0.8960   -0.0926    3.3774 H   0  0  0  0  0  0  0  0  0  0  0  0
  1  2  1  0  0  0  0
  2  3  1  0  0  0  0
  2  4  1  0  0  0  0
  2  5  1  0  0  0  0
  5  6  2  0  0  0  0
  5  7  1  0  0  0  0
  7  8  1  0  0  0  0
  7  9  1  0  0  0  0
  9 10  1  0  0  0  0
  9 11  1  0  0  0  0
  9 17  1  0  0  0  0
 11 12  1  0  0  0  0
 11 13  1  0  0  0  0
 11 14  1  0  0  0  0
 14 15  1  0  0  0  0
 14 16  2  0  0  0  0
 17 18  2  0  0  0  0
 17 19  1  0  0  0  0
 19 20  1  0  0  0  0
 19 21  1  0  0  0  0
 21 22  1  0  0  0  0
 21 23  1  0  0  0  0
 21 24  1  0  0  0  0
M  CHG  1  15  -1
M  END
$$$$

  -OEChem-03222214023D

 24 23  0     1  0  0  0  0  0999 V2000
   -2.3994   -3.4970   -0.1216 H   0  0  0  0  0  0  0  0  0  0  0  0
   -2.3687   -2.4603   -0.4675 C   0  0  0  0  0  0  0  0  0  0  0  0
   -2.8653   -1.8265    0.2717 H   0  0  0  0  0  0  0  0  0  0  0  0
   -2.9049   -2.3872   -1.4170 H   0  0  0  0  0  0  0  0  0  0  0  0
   -0.9314   -2.0083   -0.6505 C   0  0  0  0  0  0  0  0  0  0  0  0
   -0.0178   -2.7953   -0.4574 O   0  0  0  0  0  0  0  0  0  0  0  0
   -0.6831   -0.7170   -1.0568 N   0  0  0  0  0  0  0  0  0  0  0  0
   -1.4937   -0.0937   -1.0169 H   0  0  0  0  0  0  0  0  0  0  0  0
    0.6162   -0.0458   -0.8858 C   0  0  1  0  0  0  0  0  0  0  0  0
    1.3920   -0.6126   -1.4106 H   0  0  0  0  0  0  0  0  0  0  0  0
    0.5354    1.3818   -1.4871 C   0  0  0  0  0  0  0  0  0  0  0  0
    1.2455    2.0443   -0.9850 H   0  0  0  0  0  0  0  0  0  0  0  0
    0.8274    1.3267   -2.5394 H   0  0  0  0  0  0  0  0  0  0  0  0
   -0.8587    2.0052   -1.4184 C   0  0  0  0  0  0  0  0  0  0  0  0
   -1.4913    1.8953   -0.3340 O   0  5  0  0  0  0  0  0  0  0  0  0
   -1.3299    2.5067   -2.4636 O   0  0  0  0  0  0  0  0  0  0  0  0
    1.0340    0.0539    0.6023 C   0  0  0  0  0  0  0  0  0  0  0  0
    2.1962   -0.1440    0.9458 O   0  0  0  0  0  0  0  0  0  0  0  0
    0.1016    0.4534    1.5423 N   0  0  0  0  0  0  0  0  0  0  0  0
   -0.7184    0.9177    1.1327 H   0  0  0  0  0  0  0  0  0  0  0  0
    0.4522    0.7738    2.9160 C   0  0  0  0  0  0  0  0  0  0  0  0
    1.1249    1.6367    2.9476 H   0  0  0  0  0  0  0  0  0  0  0  0
   -0.4506    1.0140    3.4849 H   0  0  0  0  0  0  0  0  0  0  0  0
    0.9444   -0.0788    3.3945 H   0  0  0  0  0  0  0  0  0  0  0  0
  1  2  1  0  0  0  0
  2  3  1  0  0  0  0
  2  4  1  0  0  0  0
  2  5  1  0  0  0  0
  5  6  2  0  0  0  0
  5  7  1  0  0  0  0
  7  8  1  0  0  0  0
  7  9  1  0  0  0  0
  9 10  1  0  0  0  0
  9 11  1  0  0  0  0
  9 17  1  0  0  0  0
 11 12  1  0  0  0  0
 11 13  1  0  0  0  0
 11 14  1  0  0  0  0
 14 15  1  0  0  0  0
 14 16  2  0  0  0  0
 17 18  2  0  0  0  0
 17 19  1  0  0  0  0
 19 20  1  0  0  0  0
 19 21  1  0  0  0  0
 21 22  1  0  0  0  0
 21 23  1  0  0  0  0
 21 24  1  0  0  0  0
M  CHG  1  15  -1
M  END
$$$$

  -OEChem-03222214023D

 24 23  0     1  0  0  0  0  0999 V2000
   -2.4546   -3.4860   -0.1668 H   0  0  0  0  0  0  0  0  0  0  0  0
   -2.4023   -2.4655   -0.5558 C   0  0  0  0  0  0  0  0  0  0  0  0
   -2.9799   -1.8083    0.0991 H   0  0  0  0  0  0  0  0  0  0  0  0
   -2.8397   -2.4444   -1.5571 H   0  0  0  0  0  0  0  0  0  0  0  0
   -0.9595   -1.9972   -0.6121 C   0  0  0  0  0  0  0  0  0  0  0  0
   -0.0597   -2.7699   -0.3212 O   0  0  0  0  0  0  0  0  0  0  0  0
   -0.6874   -0.7122   -1.0224 N   0  0  0  0  0  0  0  0  0  0  0  0
   -1.4972   -0.1057   -1.1637 H   0  0  0  0  0  0  0  0  0  0  0  0
    0.6156   -0.0418   -0.8650 C   0  0  1  0  0  0  0  0  0  0  0  0
    1.3857   -0.6120   -1.3945 H   0  0  0  0  0  0  0  0  0  0  0  0
    0.5256    1.3814   -1.4730 C   0  0  0  0  0  0  0  0  0  0  0  0
    1.2354    2.0535   -0.9828 H   0  0  0  0  0  0  0  0  0  0  0  0
    0.8039    1.3280   -2.5292 H   0  0  0  0  0  0  0  0  0  0  0  0
   -0.8770    1.9754   -1.3782 C   0  0  0  0  0  0  0  0  0  0  0  0
   -1.3621    2.1146   -0.2272 O   0  5  0  0  0  0  0  0  0  0  0  0
   -1.5381    2.0712   -2.4370 O   0  0  0  0  0  0  0  0  0  0  0  0
    1.0503    0.0724    0.6176 C   0  0  0  0  0  0  0  0  0  0  0  0
    2.2162   -0.1318    0.9459 O   0  0  0  0  0  0  0  0  0  0  0  0
    0.1340    0.4828    1.5688 N   0  0  0  0  0  0  0  0  0  0  0  0
   -0.6739    0.9747    1.1673 H   0  0  0  0  0  0  0  0  0  0  0  0
    0.5097    0.8025    2.9361 C   0  0  0  0  0  0  0  0  0  0  0  0
    1.2070    1.6459    2.9533 H   0  0  0  0  0  0  0  0  0  0  0  0
   -0.3794    1.0723    3.5134 H   0  0  0  0  0  0  0  0  0  0  0  0
    0.9830   -0.0604    3.4153 H   0  0  0  0  0  0  0  0  0  0  0  0
  1  2  1  0  0  0  0
  2  3  1  0  0  0  0
  2  4  1  0  0  0  0
  2  5  1  0  0  0  0
  5  6  2  0  0  0  0
  5  7  1  0  0  0  0
  7  8  1  0  0  0  0
  7  9  1  0  0  0  0
  9 10  1  0  0  0  0
  9 11  1  0  0  0  0
  9 17  1  0  0  0  0
 11 12  1  0  0  0  0
 11 13  1  0  0  0  0
 11 14  1  0  0  0  0
 14 15  1  0  0  0  0
 14 16  2  0  0  0  0
 17 18  2  0  0  0  0
 17 19  1  0  0  0  0
 19 20  1  0  0  0  0
 19 21  1  0  0  0  0
 21 22  1  0  0  0  0
 21 23  1  0  0  0  0
 21 24  1  0  0  0  0
M  CHG  1  15  -1
M  END
$$$$

  -OEChem-03222214023D

 24 23  0     1  0  0  0  0  0999 V2000
   -2.5183   -3.4982   -0.2792 H   0  0  0  0  0  0  0  0  0  0  0  0
   -2.4340   -2.4773   -0.6611 C   0  0  0  0  0  0  0  0  0  0  0  0
   -3.0882   -1.8258   -0.0759 H   0  0  0  0  0  0  0  0  0  0  0  0
   -2.7574   -2.4606   -1.7049 H   0  0  0  0  0  0  0  0  0  0  0  0
   -0.9993   -1.9923   -0.5574 C   0  0  0  0  0  0  0  0  0  0  0  0
   -0.1335   -2.7453   -0.1392 O   0  0  0  0  0  0  0  0  0  0  0  0
   -0.6909   -0.7205   -0.9809 N   0  0  0  0  0  0  0  0  0  0  0  0
   -1.4594   -0.1534   -1.3551 H   0  0  0  0  0  0  0  0  0  0  0  0
    0.6178   -0.0573   -0.8458 C   0  0  1  0  0  0  0  0  0  0  0  0
    1.3814   -0.6269   -1.3842 H   0  0  0  0  0  0  0  0  0  0  0  0
    0.5034    1.3675   -1.4469 C   0  0  0  0  0  0  0  0  0  0  0  0
    1.2229    2.0449   -0.9780 H   0  0  0  0  0  0  0  0  0  0  0  0
    0.7465    1.3224   -2.5117 H   0  0  0  0  0  0  0  0  0  0  0  0
   -0.9038    1.9396   -1.3051 C   0  0  0  0  0  0  0  0  0  0  0  0
   -1.2420    2.3355   -0.1636 O   0  5  0  0  0  0  0  0  0  0  0  0
   -1.7124    1.6827   -2.2304 O   0  0  0  0  0  0  0  0  0  0  0  0
    1.0697    0.0810    0.6293 C   0  0  0  0  0  0  0  0  0  0  0  0
    2.2390   -0.1270    0.9447 O   0  0  0  0  0  0  0  0  0  0  0  0
    0.1679    0.5160    1.5838 N   0  0  0  0  0  0  0  0  0  0  0  0
   -0.6321    1.0210    1.1839 H   0  0  0  0  0  0  0  0  0  0  0  0
    0.5690    0.8602    2.9378 C   0  0  0  0  0  0  0  0  0  0  0  0
    1.2723    1.6989    2.9260 H   0  0  0  0  0  0  0  0  0  0  0  0
   -0.3081    1.1483    3.5245 H   0  0  0  0  0  0  0  0  0  0  0  0
    1.0447    0.0038    3.4260 H   0  0  0  0  0  0  0  0  0  0  0  0
  1  2  1  0  0  0  0
  2  3  1  0  0  0  0
  2  4  1  0  0  0  0
  2  5  1  0  0  0  0
  5  6  2  0  0  0  0
  5  7  1  0  0  0  0
  7  8  1  0  0  0  0
  7  9  1  0  0  0  0
  9 10  1  0  0  0  0
  9 11  1  0  0  0  0
  9 17  1  0  0  0  0
 11 12  1  0  0  0  0
 11 13  1  0  0  0  0
 11 14  1  0  0  0  0
 14 15  1  0  0  0  0
 14 16  2  0  0  0  0
 17 18  2  0  0  0  0
 17 19  1  0  0  0  0
 19 20  1  0  0  0  0
 19 21  1  0  0  0  0
 21 22  1  0  0  0  0
 21 23  1  0  0  0  0
 21 24  1  0  0  0  0
M  CHG  1  15  -1
M  END
$$$$

  -OEChem-03222214023D

 24 23  0     1  0  0  0  0  0999 V2000
   -2.5119   -3.5094   -0.2560 H   0  0  0  0  0  0  0  0  0  0  0  0
   -2.4278   -2.4929   -0.6495 C   0  0  0  0  0  0  0  0  0  0  0  0
   -3.0864   -1.8359   -0.0757 H   0  0  0  0  0  0  0  0  0  0  0  0
   -2.7455   -2.4895   -1.6951 H   0  0  0  0  0  0  0  0  0  0  0  0
   -0.9946   -2.0040   -0.5434 C   0  0  0  0  0  0  0  0  0  0  0  0
   -0.1307   -2.7488   -0.1075 O   0  0  0  0  0  0  0  0  0  0  0  0
   -0.6862   -0.7375   -0.9820 N   0  0  0  0  0  0  0  0  0  0  0  0
   -1.4523   -0.1794   -1.3789 H   0  0  0  0  0  0  0  0  0  0  0  0
    0.6202   -0.0695   -0.8600 C   0  0  1  0  0  0  0  0  0  0  0  0
    1.3860   -0.6348   -1.3998 H   0  0  0  0  0  0  0  0  0  0  0  0
    0.5009    1.3633   -1.4434 C   0  0  0  0  0  0  0  0  0  0  0  0
    1.2337    2.0333   -0.9833 H   0  0  0  0  0  0  0  0  0  0  0  0
    0.7241    1.3272   -2.5128 H   0  0  0  0  0  0  0  0  0  0  0  0
   -0.9017    1.9433   -1.2810 C   0  0  0  0  0  0  0  0  0  0  0  0
   -1.1284    2.5849   -0.2285 O   0  5  0  0  0  0  0  0  0  0  0  0
   -1.7896    1.5568   -2.0837 O   0  0  0  0  0  0  0  0  0  0  0  0
    1.0681    0.0837    0.6148 C   0  0  0  0  0  0  0  0  0  0  0  0
    2.2332   -0.1338    0.9387 O   0  0  0  0  0  0  0  0  0  0  0  0
    0.1608    0.5267    1.5617 N   0  0  0  0  0  0  0  0  0  0  0  0
   -0.6317    1.0387    1.1615 H   0  0  0  0  0  0  0  0  0  0  0  0
    0.5548    0.8626    2.9199 C   0  0  0  0  0  0  0  0  0  0  0  0
    1.2701    1.6911    2.9165 H   0  0  0  0  0  0  0  0  0  0  0  0
   -0.3233    1.1619    3.4996 H   0  0  0  0  0  0  0  0  0  0  0  0
    1.0136   -0.0018    3.4105 H   0  0  0  0  0  0  0  0  0  0  0  0
  1  2  1  0  0  0  0
  2  3  1  0  0  0  0
  2  4  1  0  0  0  0
  2  5  1  0  0  0  0
  5  6  2  0  0  0  0
  5  7  1  0  0  0  0
  7  8  1  0  0  0  0
  7  9  1  0  0  0  0
  9 10  1  0  0  0  0
  9 11  1  0  0  0  0
  9 17  1  0  0  0  0
 11 12  1  0  0  0  0
 11 13  1  0  0  0  0
 11 14  1  0  0  0  0
 14 15  1  0  0  0  0
 14 16  2  0  0  0  0
 17 18  2  0  0  0  0
 17 19  1  0  0  0  0
 19 20  1  0  0  0  0
 19 21  1  0  0  0  0
 21 22  1  0  0  0  0
 21 23  1  0  0  0  0
 21 24  1  0  0  0  0
M  CHG  1  15  -1
M  END
$$$$

  -OEChem-03222214023D

 24 23  0     1  0  0  0  0  0999 V2000
   -2.4991   -3.5363   -0.2473 H   0  0  0  0  0  0  0  0  0  0  0  0
   -2.4232   -2.5190   -0.6407 C   0  0  0  0  0  0  0  0  0  0  0  0
   -3.0911   -1.8681   -0.0707 H   0  0  0  0  0  0  0  0  0  0  0  0
   -2.7359   -2.5188   -1.6879 H   0  0  0  0  0  0  0  0  0  0  0  0
   -0.9952   -2.0164   -0.5288 C   0  0  0  0  0  0  0  0  0  0  0  0
   -0.1269   -2.7512   -0.0853 O   0  0  0  0  0  0  0  0  0  0  0  0
   -0.6958   -0.7474   -0.9670 N   0  0  0  0  0  0  0  0  0  0  0  0
   -1.4655   -0.1950   -1.3663 H   0  0  0  0  0  0  0  0  0  0  0  0
    0.6056   -0.0717   -0.8566 C   0  0  1  0  0  0  0  0  0  0  0  0
    1.3688   -0.6397   -1.3977 H   0  0  0  0  0  0  0  0  0  0  0  0
    0.4948    1.3603   -1.4458 C   0  0  0  0  0  0  0  0  0  0  0  0
    1.2412    2.0203   -0.9928 H   0  0  0  0  0  0  0  0  0  0  0  0
    0.7183    1.3127   -2.5144 H   0  0  0  0  0  0  0  0  0  0  0  0
   -0.8947    1.9816   -1.3024 C   0  0  0  0  0  0  0  0  0  0  0  0
   -1.0334    2.8643   -0.4256 O   0  5  0  0  0  0  0  0  0  0  0  0
   -1.8387    1.4970   -1.9805 O   0  0  0  0  0  0  0  0  0  0  0  0
    1.0630    0.0800    0.6146 C   0  0  0  0  0  0  0  0  0  0  0  0
    2.2341   -0.1171    0.9282 O   0  0  0  0  0  0  0  0  0  0  0  0
    0.1598    0.5137    1.5699 N   0  0  0  0  0  0  0  0  0  0  0  0
   -0.6720    0.9659    1.1890 H   0  0  0  0  0  0  0  0  0  0  0  0
    0.5600    0.8621    2.9234 C   0  0  0  0  0  0  0  0  0  0  0  0
    1.2645    1.6998    2.9096 H   0  0  0  0  0  0  0  0  0  0  0  0
   -0.3169    1.1534    3.5090 H   0  0  0  0  0  0  0  0  0  0  0  0
    1.0342    0.0064    3.4146 H   0  0  0  0  0  0  0  0  0  0  0  0
  1  2  1  0  0  0  0
  2  3  1  0  0  0  0
  2  4  1  0  0  0  0
  2  5  1  0  0  0  0
  5  6  2  0  0  0  0
  5  7  1  0  0  0  0
  7  8  1  0  0  0  0
  7  9  1  0  0  0  0
  9 10  1  0  0  0  0
  9 11  1  0  0  0  0
  9 17  1  0  0  0  0
 11 12  1  0  0  0  0
 11 13  1  0  0  0  0
 11 14  1  0  0  0  0
 14 15  1  0  0  0  0
 14 16  2  0  0  0  0
 17 18  2  0  0  0  0
 17 19  1  0  0  0  0
 19 20  1  0  0  0  0
 19 21  1  0  0  0  0
 21 22  1  0  0  0  0
 21 23  1  0  0  0  0
 21 24  1  0  0  0  0
M  CHG  1  15  -1
M  END
$$$$

  -OEChem-03222214023D

 24 23  0     1  0  0  0  0  0999 V2000
   -2.4821   -3.5619   -0.2325 H   0  0  0  0  0  0  0  0  0  0  0  0
   -2.4175   -2.5434   -0.6246 C   0  0  0  0  0  0  0  0  0  0  0  0
   -3.0863   -1.8993   -0.0481 H   0  0  0  0  0  0  0  0  0  0  0  0
   -2.7386   -2.5442   -1.6691 H   0  0  0  0  0  0  0  0  0  0  0  0
   -0.9928   -2.0295   -0.5227 C   0  0  0  0  0  0  0  0  0  0  0  0
   -0.1152   -2.7578   -0.0871 O   0  0  0  0  0  0  0  0  0  0  0  0
   -0.7080   -0.7538   -0.9510 N   0  0  0  0  0  0  0  0  0  0  0  0
   -1.4871   -0.1996   -1.3295 H   0  0  0  0  0  0  0  0  0  0  0  0
    0.5871   -0.0681   -0.8506 C   0  0  1  0  0  0  0  0  0  0  0  0
    1.3461   -0.6393   -1.3944 H   0  0  0  0  0  0  0  0  0  0  0  0
    0.4891    1.3624   -1.4511 C   0  0  0  0  0  0  0  0  0  0  0  0
    1.2485    2.0077   -0.9986 H   0  0  0  0  0  0  0  0  0  0  0  0
    0.7231    1.2994   -2.5165 H   0  0  0  0  0  0  0  0  0  0  0  0
   -0.8804    2.0418   -1.3434 C   0  0  0  0  0  0  0  0  0  0  0  0
   -0.9279    3.1182   -0.7067 O   0  5  0  0  0  0  0  0  0  0  0  0
   -1.8834    1.4760   -1.8552 O   0  0  0  0  0  0  0  0  0  0  0  0
    1.0570    0.0704    0.6176 C   0  0  0  0  0  0  0  0  0  0  0  0
    2.2386   -0.0844    0.9142 O   0  0  0  0  0  0  0  0  0  0  0  0
    0.1585    0.4833    1.5863 N   0  0  0  0  0  0  0  0  0  0  0  0
   -0.7282    0.8365    1.2325 H   0  0  0  0  0  0  0  0  0  0  0  0
    0.5628    0.8578    2.9320 C   0  0  0  0  0  0  0  0  0  0  0  0
    1.2367    1.7199    2.9020 H   0  0  0  0  0  0  0  0  0  0  0  0
   -0.3163    1.1228    3.5266 H   0  0  0  0  0  0  0  0  0  0  0  0
    1.0735    0.0239    3.4240 H   0  0  0  0  0  0  0  0  0  0  0  0
  1  2  1  0  0  0  0
  2  3  1  0  0  0  0
  2  4  1  0  0  0  0
  2  5  1  0  0  0  0
  5  6  2  0  0  0  0
  5  7  1  0  0  0  0
  7  8  1  0  0  0  0
  7  9  1  0  0  0  0
  9 10  1  0  0  0  0
  9 11  1  0  0  0  0
  9 17  1  0  0  0  0
 11 12  1  0  0  0  0
 11 13  1  0  0  0  0
 11 14  1  0  0  0  0
 14 15  1  0  0  0  0
 14 16  2  0  0  0  0
 17 18  2  0  0  0  0
 17 19  1  0  0  0  0
 19 20  1  0  0  0  0
 19 21  1  0  0  0  0
 21 22  1  0  0  0  0
 21 23  1  0  0  0  0
 21 24  1  0  0  0  0
M  CHG  1  15  -1
M  END
$$$$

  -OEChem-03222214023D

 24 23  0     1  0  0  0  0  0999 V2000
   -2.4484   -3.5761   -0.1767 H   0  0  0  0  0  0  0  0  0  0  0  0
   -2.3999   -2.5586   -0.5741 C   0  0  0  0  0  0  0  0  0  0  0  0
   -3.0465   -1.9132    0.0259 H   0  0  0  0  0  0  0  0  0  0  0  0
   -2.7612   -2.5625   -1.6056 H   0  0  0  0  0  0  0  0  0  0  0  0
   -0.9725   -2.0434   -0.5293 C   0  0  0  0  0  0  0  0  0  0  0  0
   -0.0757   -2.7745   -0.1395 O   0  0  0  0  0  0  0  0  0  0  0  0
   -0.7072   -0.7626   -0.9552 N   0  0  0  0  0  0  0  0  0  0  0  0
   -1.5078   -0.1937   -1.2593 H   0  0  0  0  0  0  0  0  0  0  0  0
    0.5809   -0.0645   -0.8640 C   0  0  1  0  0  0  0  0  0  0  0  0
    1.3411   -0.6321   -1.4102 H   0  0  0  0  0  0  0  0  0  0  0  0
    0.4890    1.3714   -1.4591 C   0  0  0  0  0  0  0  0  0  0  0  0
    1.2605    2.0004   -1.0037 H   0  0  0  0  0  0  0  0  0  0  0  0
    0.7278    1.3044   -2.5230 H   0  0  0  0  0  0  0  0  0  0  0  0
   -0.8590    2.1031   -1.3711 C   0  0  0  0  0  0  0  0  0  0  0  0
   -0.8146    3.2989   -1.0040 O   0  5  0  0  0  0  0  0  0  0  0  0
   -1.9254    1.4893   -1.6439 O   0  0  0  0  0  0  0  0  0  0  0  0
    1.0496    0.0646    0.6048 C   0  0  0  0  0  0  0  0  0  0  0  0
    2.2333   -0.0679    0.9026 O   0  0  0  0  0  0  0  0  0  0  0  0
    0.1423    0.4598    1.5726 N   0  0  0  0  0  0  0  0  0  0  0  0
   -0.7639    0.7632    1.2235 H   0  0  0  0  0  0  0  0  0  0  0  0
    0.5310    0.8354    2.9222 C   0  0  0  0  0  0  0  0  0  0  0  0
    1.1853    1.7128    2.9001 H   0  0  0  0  0  0  0  0  0  0  0  0
   -0.3573    1.0774    3.5131 H   0  0  0  0  0  0  0  0  0  0  0  0
    1.0580    0.0106    3.4125 H   0  0  0  0  0  0  0  0  0  0  0  0
  1  2  1  0  0  0  0
  2  3  1  0  0  0  0
  2  4  1  0  0  0  0
  2  5  1  0  0  0  0
  5  6  2  0  0  0  0
  5  7  1  0  0  0  0
  7  8  1  0  0  0  0
  7  9  1  0  0  0  0
  9 10  1  0  0  0  0
  9 11  1  0  0  0  0
  9 17  1  0  0  0  0
 11 12  1  0  0  0  0
 11 13  1  0  0  0  0
 11 14  1  0  0  0  0
 14 15  1  0  0  0  0
 14 16  2  0  0  0  0
 17 18  2  0  0  0  0
 17 19  1  0  0  0  0
 19 20  1  0  0  0  0
 19 21  1  0  0  0  0
 21 22  1  0  0  0  0
 21 23  1  0  0  0  0
 21 24  1  0  0  0  0
M  CHG  1  15  -1
M  END
$$$$

  -OEChem-03222214023D

 24 23  0     1  0  0  0  0  0999 V2000
   -2.4061   -3.5721   -0.1006 H   0  0  0  0  0  0  0  0  0  0  0  0
   -2.3734   -2.5567   -0.5049 C   0  0  0  0  0  0  0  0  0  0  0  0
   -2.9762   -1.9034    0.1310 H   0  0  0  0  0  0  0  0  0  0  0  0
   -2.7974   -2.5615   -1.5120 H   0  0  0  0  0  0  0  0  0  0  0  0
   -0.9421   -2.0533   -0.5505 C   0  0  0  0  0  0  0  0  0  0  0  0
   -0.0269   -2.7940   -0.2268 O   0  0  0  0  0  0  0  0  0  0  0  0
   -0.6967   -0.7699   -0.9803 N   0  0  0  0  0  0  0  0  0  0  0  0
   -1.5170   -0.1823   -1.1751 H   0  0  0  0  0  0  0  0  0  0  0  0
    0.5851   -0.0605   -0.8906 C   0  0  1  0  0  0  0  0  0  0  0  0
    1.3518   -0.6217   -1.4340 H   0  0  0  0  0  0  0  0  0  0  0  0
    0.4936    1.3817   -1.4744 C   0  0  0  0  0  0  0  0  0  0  0  0
    1.2711    2.0006   -1.0153 H   0  0  0  0  0  0  0  0  0  0  0  0
    0.7349    1.3160   -2.5379 H   0  0  0  0  0  0  0  0  0  0  0  0
   -0.8394    2.1462   -1.3961 C   0  0  0  0  0  0  0  0  0  0  0  0
   -0.7410    3.3916   -1.3174 O   0  5  0  0  0  0  0  0  0  0  0  0
   -1.9351    1.5253   -1.3489 O   0  0  0  0  0  0  0  0  0  0  0  0
    1.0393    0.0658    0.5829 C   0  0  0  0  0  0  0  0  0  0  0  0
    2.2194   -0.0629    0.8953 O   0  0  0  0  0  0  0  0  0  0  0  0
    0.1171    0.4496    1.5413 N   0  0  0  0  0  0  0  0  0  0  0  0
   -0.7913    0.7400    1.1842 H   0  0  0  0  0  0  0  0  0  0  0  0
    0.4797    0.7988    2.9054 C   0  0  0  0  0  0  0  0  0  0  0  0
    1.1333    1.6768    2.9139 H   0  0  0  0  0  0  0  0  0  0  0  0
   -0.4196    1.0276    3.4848 H   0  0  0  0  0  0  0  0  0  0  0  0
    0.9984   -0.0354    3.3885 H   0  0  0  0  0  0  0  0  0  0  0  0
  1  2  1  0  0  0  0
  2  3  1  0  0  0  0
  2  4  1  0  0  0  0
  2  5  1  0  0  0  0
  5  6  2  0  0  0  0
  5  7  1  0  0  0  0
  7  8  1  0  0  0  0
  7  9  1  0  0  0  0
  9 10  1  0  0  0  0
  9 11  1  0  0  0  0
  9 17  1  0  0  0  0
 11 12  1  0  0  0  0
 11 13  1  0  0  0  0
 11 14  1  0  0  0  0
 14 15  1  0  0  0  0
 14 16  2  0  0  0  0
 17 18  2  0  0  0  0
 17 19  1  0  0  0  0
 19 20  1  0  0  0  0
 19 21  1  0  0  0  0
 21 22  1  0  0  0  0
 21 23  1  0  0  0  0
 21 24  1  0  0  0  0
M  CHG  1  15  -1
M  END
$$$$

  -OEChem-03222214023D

 24 23  0     1  0  0  0  0  0999 V2000
   -2.3641   -3.5578   -0.0372 H   0  0  0  0  0  0  0  0  0  0  0  0
   -2.3469   -2.5394   -0.4347 C   0  0  0  0  0  0  0  0  0  0  0  0
   -2.8827   -1.8819    0.2549 H   0  0  0  0  0  0  0  0  0  0  0  0
   -2.8531   -2.5275   -1.4032 H   0  0  0  0  0  0  0  0  0  0  0  0
   -0.9154   -2.0608   -0.5943 C   0  0  0  0  0  0  0  0  0  0  0  0
    0.0099   -2.8225   -0.3604 O   0  0  0  0  0  0  0  0  0  0  0  0
   -0.6824   -0.7762   -1.0276 N   0  0  0  0  0  0  0  0  0  0  0  0
   -1.5061   -0.1650   -1.0824 H   0  0  0  0  0  0  0  0  0  0  0  0
    0.6029   -0.0720   -0.9265 C   0  0  1  0  0  0  0  0  0  0  0  0
    1.3764   -0.6237   -1.4703 H   0  0  0  0  0  0  0  0  0  0  0  0
    0.5112    1.3846   -1.4725 C   0  0  0  0  0  0  0  0  0  0  0  0
    1.2926    1.9931   -1.0065 H   0  0  0  0  0  0  0  0  0  0  0  0
    0.7430    1.3414   -2.5396 H   0  0  0  0  0  0  0  0  0  0  0  0
   -0.8180    2.1515   -1.3653 C   0  0  0  0  0  0  0  0  0  0  0  0
   -0.7377    3.3864   -1.5523 O   0  5  0  0  0  0  0  0  0  0  0  0
   -1.8623    1.5703   -0.9619 O   0  0  0  0  0  0  0  0  0  0  0  0
    1.0284    0.0410    0.5564 C   0  0  0  0  0  0  0  0  0  0  0  0
    2.1995   -0.0981    0.8972 O   0  0  0  0  0  0  0  0  0  0  0  0
    0.0801    0.4246    1.4895 N   0  0  0  0  0  0  0  0  0  0  0  0
   -0.8022    0.7549    1.0950 H   0  0  0  0  0  0  0  0  0  0  0  0
    0.4107    0.7865    2.8580 C   0  0  0  0  0  0  0  0  0  0  0  0
    1.0502    1.6748    2.8738 H   0  0  0  0  0  0  0  0  0  0  0  0
   -0.5033    1.0039    3.4184 H   0  0  0  0  0  0  0  0  0  0  0  0
    0.9331   -0.0365    3.3562 H   0  0  0  0  0  0  0  0  0  0  0  0
  1  2  1  0  0  0  0
  2  3  1  0  0  0  0
  2  4  1  0  0  0  0
  2  5  1  0  0  0  0
  5  6  2  0  0  0  0
  5  7  1  0  0  0  0
  7  8  1  0  0  0  0
  7  9  1  0  0  0  0
  9 10  1  0  0  0  0
  9 11  1  0  0  0  0
  9 17  1  0  0  0  0
 11 12  1  0  0  0  0
 11 13  1  0  0  0  0
 11 14  1  0  0  0  0
 14 15  1  0  0  0  0
 14 16  2  0  0  0  0
 17 18  2  0  0  0  0
 17 19  1  0  0  0  0
 19 20  1  0  0  0  0
 19 21  1  0  0  0  0
 21 22  1  0  0  0  0
 21 23  1  0  0  0  0
 21 24  1  0  0  0  0
M  CHG  1  15  -1
M  END
$$$$

  -OEChem-03222214023D

 24 23  0     1  0  0  0  0  0999 V2000
   -2.3684   -3.4943   -0.0636 H   0  0  0  0  0  0  0  0  0  0  0  0
   -2.3486   -2.4668   -0.4371 C   0  0  0  0  0  0  0  0  0  0  0  0
   -2.8252   -1.8145    0.2995 H   0  0  0  0  0  0  0  0  0  0  0  0
   -2.9115   -2.4178   -1.3724 H   0  0  0  0  0  0  0  0  0  0  0  0
   -0.9171   -2.0192   -0.6714 C   0  0  0  0  0  0  0  0  0  0  0  0
   -0.0008   -2.8134   -0.5260 O   0  0  0  0  0  0  0  0  0  0  0  0
   -0.6761   -0.7240   -1.0689 N   0  0  0  0  0  0  0  0  0  0  0  0
   -1.4797   -0.0927   -0.9755 H   0  0  0  0  0  0  0  0  0  0  0  0
    0.6173   -0.0507   -0.8912 C   0  0  1  0  0  0  0  0  0  0  0  0
    1.3955   -0.6086   -1.4220 H   0  0  0  0  0  0  0  0  0  0  0  0
    0.5248    1.3799   -1.4810 C   0  0  0  0  0  0  0  0  0  0  0  0
    1.4037    1.9523   -1.1710 H   0  0  0  0  0  0  0  0  0  0  0  0
    0.5587    1.2988   -2.5703 H   0  0  0  0  0  0  0  0  0  0  0  0
   -0.7280    2.1971   -1.1323 C   0  0  0  0  0  0  0  0  0  0  0  0
   -0.7884    3.3494   -1.6161 O   0  5  0  0  0  0  0  0  0  0  0  0
   -1.6185    1.6908   -0.3928 O   0  0  0  0  0  0  0  0  0  0  0  0
    1.0317    0.0394    0.5979 C   0  0  0  0  0  0  0  0  0  0  0  0
    2.1955   -0.1453    0.9420 O   0  0  0  0  0  0  0  0  0  0  0  0
    0.0940    0.4279    1.5376 N   0  0  0  0  0  0  0  0  0  0  0  0
   -0.7547    0.8415    1.1338 H   0  0  0  0  0  0  0  0  0  0  0  0
    0.4369    0.7642    2.9094 C   0  0  0  0  0  0  0  0  0  0  0  0
    1.1076    1.6289    2.9342 H   0  0  0  0  0  0  0  0  0  0  0  0
   -0.4696    1.0091    3.4706 H   0  0  0  0  0  0  0  0  0  0  0  0
    0.9286   -0.0816    3.4002 H   0  0  0  0  0  0  0  0  0  0  0  0
  1  2  1  0  0  0  0
  2  3  1  0  0  0  0
  2  4  1  0  0  0  0
  2  5  1  0  0  0  0
  5  6  2  0  0  0  0
  5  7  1  0  0  0  0
  7  8  1  0  0  0  0
  7  9  1  0  0  0  0
  9 10  1  0  0  0  0
  9 11  1  0  0  0  0
  9 17  1  0  0  0  0
 11 12  1  0  0  0  0
 11 13  1  0  0  0  0
 11 14  1  0  0  0  0
 14 15  1  0  0  0  0
 14 16  2  0  0  0  0
 17 18  2  0  0  0  0
 17 19  1  0  0  0  0
 19 20  1  0  0  0  0
 19 21  1  0  0  0  0
 21 22  1  0  0  0  0
 21 23  1  0  0  0  0
 21 24  1  0  0  0  0
M  CHG  1  15  -1
M  END
$$$$

  -OEChem-03222214023D

 24 23  0     1  0  0  0  0  0999 V2000
   -2.3851   -3.4899   -0.1074 H   0  0  0  0  0  0  0  0  0  0  0  0
   -2.3604   -2.4554   -0.4607 C   0  0  0  0  0  0  0  0  0  0  0  0
   -2.8411   -1.8166    0.2848 H   0  0  0  0  0  0  0  0  0  0  0  0
   -2.9155   -2.3873   -1.3995 H   0  0  0  0  0  0  0  0  0  0  0  0
   -0.9264   -2.0064   -0.6749 C   0  0  0  0  0  0  0  0  0  0  0  0
   -0.0120   -2.8019   -0.5245 O   0  0  0  0  0  0  0  0  0  0  0  0
   -0.6819   -0.7083   -1.0601 N   0  0  0  0  0  0  0  0  0  0  0  0
   -1.4843   -0.0776   -0.9619 H   0  0  0  0  0  0  0  0  0  0  0  0
    0.6110   -0.0390   -0.8671 C   0  0  1  0  0  0  0  0  0  0  0  0
    1.3882   -0.6035   -1.3927 H   0  0  0  0  0  0  0  0  0  0  0  0
    0.5223    1.3777   -1.4863 C   0  0  0  0  0  0  0  0  0  0  0  0
    1.3898    1.9652   -1.1738 H   0  0  0  0  0  0  0  0  0  0  0  0
    0.5750    1.2731   -2.5732 H   0  0  0  0  0  0  0  0  0  0  0  0
   -0.7454    2.1827   -1.1698 C   0  0  0  0  0  0  0  0  0  0  0  0
   -0.9577    3.1879   -1.8841 O   0  5  0  0  0  0  0  0  0  0  0  0
   -1.5498    1.7508   -0.2974 O   0  0  0  0  0  0  0  0  0  0  0  0
    1.0353    0.0492    0.6204 C   0  0  0  0  0  0  0  0  0  0  0  0
    2.2024   -0.1391    0.9519 O   0  0  0  0  0  0  0  0  0  0  0  0
    0.1120    0.4357    1.5742 N   0  0  0  0  0  0  0  0  0  0  0  0
   -0.7327    0.8677    1.1803 H   0  0  0  0  0  0  0  0  0  0  0  0
    0.4740    0.7595    2.9444 C   0  0  0  0  0  0  0  0  0  0  0  0
    1.1473    1.6222    2.9681 H   0  0  0  0  0  0  0  0  0  0  0  0
   -0.4242    1.0012    3.5201 H   0  0  0  0  0  0  0  0  0  0  0  0
    0.9698   -0.0921    3.4210 H   0  0  0  0  0  0  0  0  0  0  0  0
  1  2  1  0  0  0  0
  2  3  1  0  0  0  0
  2  4  1  0  0  0  0
  2  5  1  0  0  0  0
  5  6  2  0  0  0  0
  5  7  1  0  0  0  0
  7  8  1  0  0  0  0
  7  9  1  0  0  0  0
  9 10  1  0  0  0  0
  9 11  1  0  0  0  0
  9 17  1  0  0  0  0
 11 12  1  0  0  0  0
 11 13  1  0  0  0  0
 11 14  1  0  0  0  0
 14 15  1  0  0  0  0
 14 16  2  0  0  0  0
 17 18  2  0  0  0  0
 17 19  1  0  0  0  0
 19 20  1  0  0  0  0
 19 21  1  0  0  0  0
 21 22  1  0  0  0  0
 21 23  1  0  0  0  0
 21 24  1  0  0  0  0
M  CHG  1  15  -1
M  END
$$$$

  -OEChem-03222214023D

 24 23  0     1  0  0  0  0  0999 V2000
   -2.3987   -3.4819   -0.1305 H   0  0  0  0  0  0  0  0  0  0  0  0
   -2.3736   -2.4474   -0.4838 C   0  0  0  0  0  0  0  0  0  0  0  0
   -2.8691   -1.8108    0.2538 H   0  0  0  0  0  0  0  0  0  0  0  0
   -2.9148   -2.3828   -1.4309 H   0  0  0  0  0  0  0  0  0  0  0  0
   -0.9384   -1.9917   -0.6765 C   0  0  0  0  0  0  0  0  0  0  0  0
   -0.0241   -2.7858   -0.5185 O   0  0  0  0  0  0  0  0  0  0  0  0
   -0.6919   -0.6903   -1.0505 N   0  0  0  0  0  0  0  0  0  0  0  0
   -1.4956   -0.0618   -0.9641 H   0  0  0  0  0  0  0  0  0  0  0  0
    0.6014   -0.0246   -0.8459 C   0  0  1  0  0  0  0  0  0  0  0  0
    1.3756   -0.5976   -1.3667 H   0  0  0  0  0  0  0  0  0  0  0  0
    0.5228    1.3783   -1.4939 C   0  0  0  0  0  0  0  0  0  0  0  0
    1.3809    1.9768   -1.1772 H   0  0  0  0  0  0  0  0  0  0  0  0
    0.5962    1.2526   -2.5776 H   0  0  0  0  0  0  0  0  0  0  0  0
   -0.7566    2.1729   -1.2056 C   0  0  0  0  0  0  0  0  0  0  0  0
   -1.1252    2.9745   -2.0933 O   0  5  0  0  0  0  0  0  0  0  0  0
   -1.4620    1.8491   -0.2116 O   0  0  0  0  0  0  0  0  0  0  0  0
    1.0370    0.0604    0.6393 C   0  0  0  0  0  0  0  0  0  0  0  0
    2.2065   -0.1365    0.9581 O   0  0  0  0  0  0  0  0  0  0  0  0
    0.1279    0.4440    1.6072 N   0  0  0  0  0  0  0  0  0  0  0  0
   -0.7082    0.9011    1.2231 H   0  0  0  0  0  0  0  0  0  0  0  0
    0.5091    0.7547    2.9750 C   0  0  0  0  0  0  0  0  0  0  0  0
    1.1807    1.6186    2.9971 H   0  0  0  0  0  0  0  0  0  0  0  0
   -0.3812    0.9889    3.5659 H   0  0  0  0  0  0  0  0  0  0  0  0
    1.0137   -0.1004    3.4359 H   0  0  0  0  0  0  0  0  0  0  0  0
  1  2  1  0  0  0  0
  2  3  1  0  0  0  0
  2  4  1  0  0  0  0
  2  5  1  0  0  0  0
  5  6  2  0  0  0  0
  5  7  1  0  0  0  0
  7  8  1  0  0  0  0
  7  9  1  0  0  0  0
  9 10  1  0  0  0  0
  9 11  1  0  0  0  0
  9 17  1  0  0  0  0
 11 12  1  0  0  0  0
 11 13  1  0  0  0  0
 11 14  1  0  0  0  0
 14 15  1  0  0  0  0
 14 16  2  0  0  0  0
 17 18  2  0  0  0  0
 17 19  1  0  0  0  0
 19 20  1  0  0  0  0
 19 21  1  0  0  0  0
 21 22  1  0  0  0  0
 21 23  1  0  0  0  0
 21 24  1  0  0  0  0
M  CHG  1  15  -1
M  END
$$$$

  -OEChem-03222214023D

 24 23  0     1  0  0  0  0  0999 V2000
   -2.4210   -3.4684   -0.1525 H   0  0  0  0  0  0  0  0  0  0  0  0
   -2.3887   -2.4383   -0.5178 C   0  0  0  0  0  0  0  0  0  0  0  0
   -2.9108   -1.7948    0.1950 H   0  0  0  0  0  0  0  0  0  0  0  0
   -2.8984   -2.3877   -1.4831 H   0  0  0  0  0  0  0  0  0  0  0  0
   -0.9498   -1.9792   -0.6686 C   0  0  0  0  0  0  0  0  0  0  0  0
   -0.0388   -2.7703   -0.4802 O   0  0  0  0  0  0  0  0  0  0  0  0
   -0.6971   -0.6775   -1.0367 N   0  0  0  0  0  0  0  0  0  0  0  0
   -1.5057   -0.0535   -1.0004 H   0  0  0  0  0  0  0  0  0  0  0  0
    0.5956   -0.0121   -0.8266 C   0  0  1  0  0  0  0  0  0  0  0  0
    1.3683   -0.5928   -1.3411 H   0  0  0  0  0  0  0  0  0  0  0  0
    0.5190    1.3759   -1.5048 C   0  0  0  0  0  0  0  0  0  0  0  0
    1.3668    1.9890   -1.1883 H   0  0  0  0  0  0  0  0  0  0  0  0
    0.6072    1.2306   -2.5853 H   0  0  0  0  0  0  0  0  0  0  0  0
   -0.7744    2.1524   -1.2356 C   0  0  0  0  0  0  0  0  0  0  0  0
   -1.3071    2.7033   -2.2255 O   0  5  0  0  0  0  0  0  0  0  0  0
   -1.3529    1.9881   -0.1300 O   0  0  0  0  0  0  0  0  0  0  0  0
    1.0404    0.0765    0.6568 C   0  0  0  0  0  0  0  0  0  0  0  0
    2.2101   -0.1357    0.9659 O   0  0  0  0  0  0  0  0  0  0  0  0
    0.1446    0.4599    1.6368 N   0  0  0  0  0  0  0  0  0  0  0  0
   -0.6768    0.9502    1.2617 H   0  0  0  0  0  0  0  0  0  0  0  0
    0.5455    0.7546    3.0029 C   0  0  0  0  0  0  0  0  0  0  0  0
    1.2257    1.6119    3.0249 H   0  0  0  0  0  0  0  0  0  0  0  0
   -0.3352    0.9918    3.6069 H   0  0  0  0  0  0  0  0  0  0  0  0
    1.0473   -0.1092    3.4504 H   0  0  0  0  0  0  0  0  0  0  0  0
  1  2  1  0  0  0  0
  2  3  1  0  0  0  0
  2  4  1  0  0  0  0
  2  5  1  0  0  0  0
  5  6  2  0  0  0  0
  5  7  1  0  0  0  0
  7  8  1  0  0  0  0
  7  9  1  0  0  0  0
  9 10  1  0  0  0  0
  9 11  1  0  0  0  0
  9 17  1  0  0  0  0
 11 12  1  0  0  0  0
 11 13  1  0  0  0  0
 11 14  1  0  0  0  0
 14 15  1  0  0  0  0
 14 16  2  0  0  0  0
 17 18  2  0  0  0  0
 17 19  1  0  0  0  0
 19 20  1  0  0  0  0
 19 21  1  0  0  0  0
 21 22  1  0  0  0  0
 21 23  1  0  0  0  0
 21 24  1  0  0  0  0
M  CHG  1  15  -1
M  END
$$$$

  -OEChem-03222214023D

 24 23  0     1  0  0  0  0  0999 V2000
   -2.4600   -3.4746   -0.2128 H   0  0  0  0  0  0  0  0  0  0  0  0
   -2.4104   -2.4462   -0.5805 C   0  0  0  0  0  0  0  0  0  0  0  0
   -2.9872   -1.8040    0.0900 H   0  0  0  0  0  0  0  0  0  0  0  0
   -2.8509   -2.4049   -1.5797 H   0  0  0  0  0  0  0  0  0  0  0  0
   -0.9682   -1.9751   -0.6320 C   0  0  0  0  0  0  0  0  0  0  0  0
   -0.0668   -2.7549   -0.3669 O   0  0  0  0  0  0  0  0  0  0  0  0
   -0.7005   -0.6785   -1.0075 N   0  0  0  0  0  0  0  0  0  0  0  0
   -1.5108   -0.0652   -1.1004 H   0  0  0  0  0  0  0  0  0  0  0  0
    0.5938   -0.0096   -0.8089 C   0  0  1  0  0  0  0  0  0  0  0  0
    1.3640   -0.5950   -1.3215 H   0  0  0  0  0  0  0  0  0  0  0  0
    0.5040    1.3656   -1.5087 C   0  0  0  0  0  0  0  0  0  0  0  0
    1.3450    1.9941   -1.2042 H   0  0  0  0  0  0  0  0  0  0  0  0
    0.5868    1.2103   -2.5883 H   0  0  0  0  0  0  0  0  0  0  0  0
   -0.7996    2.1157   -1.2286 C   0  0  0  0  0  0  0  0  0  0  0  0
   -1.5061    2.3918   -2.2248 O   0  5  0  0  0  0  0  0  0  0  0  0
   -1.1997    2.1983   -0.0414 O   0  0  0  0  0  0  0  0  0  0  0  0
    1.0515    0.0977    0.6699 C   0  0  0  0  0  0  0  0  0  0  0  0
    2.2211   -0.1304    0.9694 O   0  0  0  0  0  0  0  0  0  0  0  0
    0.1685    0.4918    1.6573 N   0  0  0  0  0  0  0  0  0  0  0  0
   -0.6299    1.0225    1.2875 H   0  0  0  0  0  0  0  0  0  0  0  0
    0.5885    0.7743    3.0202 C   0  0  0  0  0  0  0  0  0  0  0  0
    1.3033    1.6031    3.0362 H   0  0  0  0  0  0  0  0  0  0  0  0
   -0.2786    1.0494    3.6276 H   0  0  0  0  0  0  0  0  0  0  0  0
    1.0567   -0.1081    3.4677 H   0  0  0  0  0  0  0  0  0  0  0  0
  1  2  1  0  0  0  0
  2  3  1  0  0  0  0
  2  4  1  0  0  0  0
  2  5  1  0  0  0  0
  5  6  2  0  0  0  0
  5  7  1  0  0  0  0
  7  8  1  0  0  0  0
  7  9  1  0  0  0  0
  9 10  1  0  0  0  0
  9 11  1  0  0  0  0
  9 17  1  0  0  0  0
 11 12  1  0  0  0  0
 11 13  1  0  0  0  0
 11 14  1  0  0  0  0
 14 15  1  0  0  0  0
 14 16  2  0  0  0  0
 17 18  2  0  0  0  0
 17 19  1  0  0  0  0
 19 20  1  0  0  0  0
 19 21  1  0  0  0  0
 21 22  1  0  0  0  0
 21 23  1  0  0  0  0
 21 24  1  0  0  0  0
M  CHG  1  15  -1
M  END
$$$$

  -OEChem-03222214023D

 24 23  0     1  0  0  0  0  0999 V2000
   -2.5079   -3.4785   -0.2816 H   0  0  0  0  0  0  0  0  0  0  0  0
   -2.4335   -2.4524   -0.6516 C   0  0  0  0  0  0  0  0  0  0  0  0
   -3.0659   -1.8083   -0.0354 H   0  0  0  0  0  0  0  0  0  0  0  0
   -2.7915   -2.4211   -1.6836 H   0  0  0  0  0  0  0  0  0  0  0  0
   -0.9944   -1.9730   -0.5883 C   0  0  0  0  0  0  0  0  0  0  0  0
   -0.1166   -2.7397   -0.2246 O   0  0  0  0  0  0  0  0  0  0  0  0
   -0.6979   -0.6881   -0.9812 N   0  0  0  0  0  0  0  0  0  0  0  0
   -1.4850   -0.0949   -1.2535 H   0  0  0  0  0  0  0  0  0  0  0  0
    0.6023   -0.0233   -0.7983 C   0  0  1  0  0  0  0  0  0  0  0  0
    1.3703   -0.6083   -1.3144 H   0  0  0  0  0  0  0  0  0  0  0  0
    0.4861    1.3485   -1.4975 C   0  0  0  0  0  0  0  0  0  0  0  0
    1.3227    1.9899   -1.2082 H   0  0  0  0  0  0  0  0  0  0  0  0
    0.5439    1.2027   -2.5797 H   0  0  0  0  0  0  0  0  0  0  0  0
   -0.8260    2.0573   -1.1683 C   0  0  0  0  0  0  0  0  0  0  0  0
   -1.6935    2.0589   -2.0730 O   0  5  0  0  0  0  0  0  0  0  0  0
   -1.0384    2.4177    0.0138 O   0  0  0  0  0  0  0  0  0  0  0  0
    1.0663    0.1099    0.6761 C   0  0  0  0  0  0  0  0  0  0  0  0
    2.2328   -0.1361    0.9741 O   0  0  0  0  0  0  0  0  0  0  0  0
    0.1913    0.5297    1.6606 N   0  0  0  0  0  0  0  0  0  0  0  0
   -0.5828    1.0934    1.2889 H   0  0  0  0  0  0  0  0  0  0  0  0
    0.6259    0.8153    3.0183 C   0  0  0  0  0  0  0  0  0  0  0  0
    1.3549    1.6319    3.0225 H   0  0  0  0  0  0  0  0  0  0  0  0
   -0.2318    1.1100    3.6300 H   0  0  0  0  0  0  0  0  0  0  0  0
    1.0825   -0.0716    3.4690 H   0  0  0  0  0  0  0  0  0  0  0  0
  1  2  1  0  0  0  0
  2  3  1  0  0  0  0
  2  4  1  0  0  0  0
  2  5  1  0  0  0  0
  5  6  2  0  0  0  0
  5  7  1  0  0  0  0
  7  8  1  0  0  0  0
  7  9  1  0  0  0  0
  9 10  1  0  0  0  0
  9 11  1  0  0  0  0
  9 17  1  0  0  0  0
 11 12  1  0  0  0  0
 11 13  1  0  0  0  0
 11 14  1  0  0  0  0
 14 15  1  0  0  0  0
 14 16  2  0  0  0  0
 17 18  2  0  0  0  0
 17 19  1  0  0  0  0
 19 20  1  0  0  0  0
 19 21  1  0  0  0  0
 21 22  1  0  0  0  0
 21 23  1  0  0  0  0
 21 24  1  0  0  0  0
M  CHG  1  15  -1
M  END
$$$$

  -OEChem-03222214023D

 24 23  0     1  0  0  0  0  0999 V2000
   -2.5216   -3.4674   -0.2742 H   0  0  0  0  0  0  0  0  0  0  0  0
   -2.4341   -2.4464   -0.6555 C   0  0  0  0  0  0  0  0  0  0  0  0
   -3.0726   -1.7904   -0.0582 H   0  0  0  0  0  0  0  0  0  0  0  0
   -2.7746   -2.4244   -1.6936 H   0  0  0  0  0  0  0  0  0  0  0  0
   -0.9934   -1.9750   -0.5745 C   0  0  0  0  0  0  0  0  0  0  0  0
   -0.1265   -2.7398   -0.1815 O   0  0  0  0  0  0  0  0  0  0  0  0
   -0.6834   -0.6994   -0.9852 N   0  0  0  0  0  0  0  0  0  0  0  0
   -1.4615   -0.1073   -1.2979 H   0  0  0  0  0  0  0  0  0  0  0  0
    0.6184   -0.0353   -0.8141 C   0  0  1  0  0  0  0  0  0  0  0  0
    1.3884   -0.6150   -1.3330 H   0  0  0  0  0  0  0  0  0  0  0  0
    0.4839    1.3454   -1.4944 C   0  0  0  0  0  0  0  0  0  0  0  0
    1.3226    1.9888   -1.2142 H   0  0  0  0  0  0  0  0  0  0  0  0
    0.5148    1.2178   -2.5799 H   0  0  0  0  0  0  0  0  0  0  0  0
   -0.8296    2.0280   -1.1205 C   0  0  0  0  0  0  0  0  0  0  0  0
   -1.8099    1.7885   -1.8688 O   0  5  0  0  0  0  0  0  0  0  0  0
   -0.9107    2.5990   -0.0079 O   0  0  0  0  0  0  0  0  0  0  0  0
    1.0746    0.1168    0.6603 C   0  0  0  0  0  0  0  0  0  0  0  0
    2.2341   -0.1439    0.9724 O   0  0  0  0  0  0  0  0  0  0  0  0
    0.1910    0.5542    1.6305 N   0  0  0  0  0  0  0  0  0  0  0  0
   -0.5626    1.1380    1.2499 H   0  0  0  0  0  0  0  0  0  0  0  0
    0.6121    0.8304    2.9943 C   0  0  0  0  0  0  0  0  0  0  0  0
    1.3575    1.6318    3.0096 H   0  0  0  0  0  0  0  0  0  0  0  0
   -0.2483    1.1424    3.5936 H   0  0  0  0  0  0  0  0  0  0  0  0
    1.0437   -0.0660    3.4510 H   0  0  0  0  0  0  0  0  0  0  0  0
  1  2  1  0  0  0  0
  2  3  1  0  0  0  0
  2  4  1  0  0  0  0
  2  5  1  0  0  0  0
  5  6  2  0  0  0  0
  5  7  1  0  0  0  0
  7  8  1  0  0  0  0
  7  9  1  0  0  0  0
  9 10  1  0  0  0  0
  9 11  1  0  0  0  0
  9 17  1  0  0  0  0
 11 12  1  0  0  0  0
 11 13  1  0  0  0  0
 11 14  1  0  0  0  0
 14 15  1  0  0  0  0
 14 16  2  0  0  0  0
 17 18  2  0  0  0  0
 17 19  1  0  0  0  0
 19 20  1  0  0  0  0
 19 21  1  0  0  0  0
 21 22  1  0  0  0  0
 21 23  1  0  0  0  0
 21 24  1  0  0  0  0
M  CHG  1  15  -1
M  END
$$$$

  -OEChem-03222214023D

 24 23  0     1  0  0  0  0  0999 V2000
   -2.4997   -3.4701   -0.2086 H   0  0  0  0  0  0  0  0  0  0  0  0
   -2.4199   -2.4562   -0.6096 C   0  0  0  0  0  0  0  0  0  0  0  0
   -3.0340   -1.7866   -0.0019 H   0  0  0  0  0  0  0  0  0  0  0  0
   -2.7953   -2.4493   -1.6358 H   0  0  0  0  0  0  0  0  0  0  0  0
   -0.9747   -1.9926   -0.5854 C   0  0  0  0  0  0  0  0  0  0  0  0
   -0.0974   -2.7610   -0.2233 O   0  0  0  0  0  0  0  0  0  0  0  0
   -0.6729   -0.7196   -1.0090 N   0  0  0  0  0  0  0  0  0  0  0  0
   -1.4638   -0.1160   -1.2679 H   0  0  0  0  0  0  0  0  0  0  0  0
    0.6240   -0.0482   -0.8463 C   0  0  1  0  0  0  0  0  0  0  0  0
    1.3990   -0.6193   -1.3670 H   0  0  0  0  0  0  0  0  0  0  0  0
    0.4981    1.3541   -1.4892 C   0  0  0  0  0  0  0  0  0  0  0  0
    1.3527    1.9762   -1.2076 H   0  0  0  0  0  0  0  0  0  0  0  0
    0.5127    1.2499   -2.5771 H   0  0  0  0  0  0  0  0  0  0  0  0
   -0.8002    2.0609   -1.0985 C   0  0  0  0  0  0  0  0  0  0  0  0
   -1.8600    1.6624   -1.6482 O   0  5  0  0  0  0  0  0  0  0  0  0
   -0.7662    2.8082   -0.0944 O   0  0  0  0  0  0  0  0  0  0  0  0
    1.0637    0.1108    0.6315 C   0  0  0  0  0  0  0  0  0  0  0  0
    2.2176   -0.1518    0.9617 O   0  0  0  0  0  0  0  0  0  0  0  0
    0.1624    0.5490    1.5863 N   0  0  0  0  0  0  0  0  0  0  0  0
   -0.5917    1.1230    1.1980 H   0  0  0  0  0  0  0  0  0  0  0  0
    0.5635    0.8311    2.9550 C   0  0  0  0  0  0  0  0  0  0  0  0
    1.3144    1.6273    2.9770 H   0  0  0  0  0  0  0  0  0  0  0  0
   -0.3036    1.1536    3.5385 H   0  0  0  0  0  0  0  0  0  0  0  0
    0.9816   -0.0653    3.4243 H   0  0  0  0  0  0  0  0  0  0  0  0
  1  2  1  0  0  0  0
  2  3  1  0  0  0  0
  2  4  1  0  0  0  0
  2  5  1  0  0  0  0
  5  6  2  0  0  0  0
  5  7  1  0  0  0  0
  7  8  1  0  0  0  0
  7  9  1  0  0  0  0
  9 10  1  0  0  0  0
  9 11  1  0  0  0  0
  9 17  1  0  0  0  0
 11 12  1  0  0  0  0
 11 13  1  0  0  0  0
 11 14  1  0  0  0  0
 14 15  1  0  0  0  0
 14 16  2  0  0  0  0
 17 18  2  0  0  0  0
 17 19  1  0  0  0  0
 19 20  1  0  0  0  0
 19 21  1  0  0  0  0
 21 22  1  0  0  0  0
 21 23  1  0  0  0  0
 21 24  1  0  0  0  0
M  CHG  1  15  -1
M  END
$$$$

  -OEChem-03222214023D

 24 23  0     1  0  0  0  0  0999 V2000
   -2.4794   -3.5017   -0.1918 H   0  0  0  0  0  0  0  0  0  0  0  0
   -2.4125   -2.4819   -0.5805 C   0  0  0  0  0  0  0  0  0  0  0  0
   -3.0102   -1.8217    0.0533 H   0  0  0  0  0  0  0  0  0  0  0  0
   -2.8166   -2.4616   -1.5955 H   0  0  0  0  0  0  0  0  0  0  0  0
   -0.9678   -2.0160   -0.5915 C   0  0  0  0  0  0  0  0  0  0  0  0
   -0.0792   -2.7852   -0.2603 O   0  0  0  0  0  0  0  0  0  0  0  0
   -0.6794   -0.7382   -1.0104 N   0  0  0  0  0  0  0  0  0  0  0  0
   -1.4805   -0.1257   -1.2108 H   0  0  0  0  0  0  0  0  0  0  0  0
    0.6153   -0.0624   -0.8617 C   0  0  1  0  0  0  0  0  0  0  0  0
    1.3864   -0.6317   -1.3903 H   0  0  0  0  0  0  0  0  0  0  0  0
    0.5129    1.3575   -1.4738 C   0  0  0  0  0  0  0  0  0  0  0  0
    1.3932    1.9435   -1.1925 H   0  0  0  0  0  0  0  0  0  0  0  0
    0.5173    1.2665   -2.5627 H   0  0  0  0  0  0  0  0  0  0  0  0
   -0.7548    2.1250   -1.0838 C   0  0  0  0  0  0  0  0  0  0  0  0
   -1.8730    1.6336   -1.3923 O   0  5  0  0  0  0  0  0  0  0  0  0
   -0.6073    3.1206   -0.3410 O   0  0  0  0  0  0  0  0  0  0  0  0
    1.0526    0.0756    0.6173 C   0  0  0  0  0  0  0  0  0  0  0  0
    2.2172   -0.1368    0.9438 O   0  0  0  0  0  0  0  0  0  0  0  0
    0.1397    0.4956    1.5700 N   0  0  0  0  0  0  0  0  0  0  0  0
   -0.6933    0.9441    1.1892 H   0  0  0  0  0  0  0  0  0  0  0  0
    0.5327    0.8481    2.9247 C   0  0  0  0  0  0  0  0  0  0  0  0
    1.1966    1.7184    2.9138 H   0  0  0  0  0  0  0  0  0  0  0  0
   -0.3527    1.0916    3.5192 H   0  0  0  0  0  0  0  0  0  0  0  0
    1.0499    0.0113    3.4051 H   0  0  0  0  0  0  0  0  0  0  0  0
  1  2  1  0  0  0  0
  2  3  1  0  0  0  0
  2  4  1  0  0  0  0
  2  5  1  0  0  0  0
  5  6  2  0  0  0  0
  5  7  1  0  0  0  0
  7  8  1  0  0  0  0
  7  9  1  0  0  0  0
  9 10  1  0  0  0  0
  9 11  1  0  0  0  0
  9 17  1  0  0  0  0
 11 12  1  0  0  0  0
 11 13  1  0  0  0  0
 11 14  1  0  0  0  0
 14 15  1  0  0  0  0
 14 16  2  0  0  0  0
 17 18  2  0  0  0  0
 17 19  1  0  0  0  0
 19 20  1  0  0  0  0
 19 21  1  0  0  0  0
 21 22  1  0  0  0  0
 21 23  1  0  0  0  0
 21 24  1  0  0  0  0
M  CHG  1  15  -1
M  END
$$$$

  -OEChem-03222214023D

 24 23  0     1  0  0  0  0  0999 V2000
   -2.4374   -3.5074   -0.1200 H   0  0  0  0  0  0  0  0  0  0  0  0
   -2.3882   -2.4905   -0.5189 C   0  0  0  0  0  0  0  0  0  0  0  0
   -2.9517   -1.8245    0.1399 H   0  0  0  0  0  0  0  0  0  0  0  0
   -2.8435   -2.4762   -1.5120 H   0  0  0  0  0  0  0  0  0  0  0  0
   -0.9451   -2.0280   -0.6048 C   0  0  0  0  0  0  0  0  0  0  0  0
   -0.0418   -2.8002   -0.3241 O   0  0  0  0  0  0  0  0  0  0  0  0
   -0.6760   -0.7448   -1.0207 N   0  0  0  0  0  0  0  0  0  0  0  0
   -1.4866   -0.1244   -1.1423 H   0  0  0  0  0  0  0  0  0  0  0  0
    0.6164   -0.0621   -0.8846 C   0  0  1  0  0  0  0  0  0  0  0  0
    1.3870   -0.6239   -1.4218 H   0  0  0  0  0  0  0  0  0  0  0  0
    0.5204    1.3715   -1.4706 C   0  0  0  0  0  0  0  0  0  0  0  0
    1.4171    1.9332   -1.1912 H   0  0  0  0  0  0  0  0  0  0  0  0
    0.5139    1.2913   -2.5603 H   0  0  0  0  0  0  0  0  0  0  0  0
   -0.7222    2.1832   -1.0765 C   0  0  0  0  0  0  0  0  0  0  0  0
   -1.8562    1.6343   -1.1118 O   0  5  0  0  0  0  0  0  0  0  0  0
   -0.5244    3.3569   -0.6913 O   0  0  0  0  0  0  0  0  0  0  0  0
    1.0468    0.0540    0.5970 C   0  0  0  0  0  0  0  0  0  0  0  0
    2.2161   -0.1195    0.9280 O   0  0  0  0  0  0  0  0  0  0  0  0
    0.1180    0.4541    1.5427 N   0  0  0  0  0  0  0  0  0  0  0  0
   -0.7584    0.8124    1.1641 H   0  0  0  0  0  0  0  0  0  0  0  0
    0.4816    0.8219    2.9015 C   0  0  0  0  0  0  0  0  0  0  0  0
    1.1221    1.7096    2.8972 H   0  0  0  0  0  0  0  0  0  0  0  0
   -0.4185    1.0437    3.4821 H   0  0  0  0  0  0  0  0  0  0  0  0
    1.0146    0.0009    3.3920 H   0  0  0  0  0  0  0  0  0  0  0  0
  1  2  1  0  0  0  0
  2  3  1  0  0  0  0
  2  4  1  0  0  0  0
  2  5  1  0  0  0  0
  5  6  2  0  0  0  0
  5  7  1  0  0  0  0
  7  8  1  0  0  0  0
  7  9  1  0  0  0  0
  9 10  1  0  0  0  0
  9 11  1  0  0  0  0
  9 17  1  0  0  0  0
 11 12  1  0  0  0  0
 11 13  1  0  0  0  0
 11 14  1  0  0  0  0
 14 15  1  0  0  0  0
 14 16  2  0  0  0  0
 17 18  2  0  0  0  0
 17 19  1  0  0  0  0
 19 20  1  0  0  0  0
 19 21  1  0  0  0  0
 21 22  1  0  0  0  0
 21 23  1  0  0  0  0
 21 24  1  0  0  0  0
M  CHG  1  15  -1
M  END
$$$$

  -OEChem-03222214023D

 24 23  0     1  0  0  0  0  0999 V2000
   -2.3942   -3.5063   -0.0609 H   0  0  0  0  0  0  0  0  0  0  0  0
   -2.3628   -2.4891   -0.4607 C   0  0  0  0  0  0  0  0  0  0  0  0
   -2.8897   -1.8229    0.2273 H   0  0  0  0  0  0  0  0  0  0  0  0
   -2.8689   -2.4722   -1.4290 H   0  0  0  0  0  0  0  0  0  0  0  0
   -0.9244   -2.0310   -0.6212 C   0  0  0  0  0  0  0  0  0  0  0  0
   -0.0105   -2.8094   -0.3982 O   0  0  0  0  0  0  0  0  0  0  0  0
   -0.6719   -0.7454   -1.0410 N   0  0  0  0  0  0  0  0  0  0  0  0
   -1.4850   -0.1180   -1.0715 H   0  0  0  0  0  0  0  0  0  0  0  0
    0.6212   -0.0617   -0.9082 C   0  0  1  0  0  0  0  0  0  0  0  0
    1.3932   -0.6178   -1.4491 H   0  0  0  0  0  0  0  0  0  0  0  0
    0.5264    1.3819   -1.4714 C   0  0  0  0  0  0  0  0  0  0  0  0
    1.4292    1.9326   -1.1900 H   0  0  0  0  0  0  0  0  0  0  0  0
    0.5132    1.3141   -2.5618 H   0  0  0  0  0  0  0  0  0  0  0  0
   -0.7022    2.2125   -1.0663 C   0  0  0  0  0  0  0  0  0  0  0  0
   -1.7978    1.6375   -0.8214 O   0  5  0  0  0  0  0  0  0  0  0  0
   -0.5328    3.4505   -1.0030 O   0  0  0  0  0  0  0  0  0  0  0  0
    1.0401    0.0437    0.5772 C   0  0  0  0  0  0  0  0  0  0  0  0
    2.2063   -0.1243    0.9211 O   0  0  0  0  0  0  0  0  0  0  0  0
    0.0967    0.4383    1.5108 N   0  0  0  0  0  0  0  0  0  0  0  0
   -0.7776    0.7922    1.1175 H   0  0  0  0  0  0  0  0  0  0  0  0
    0.4348    0.7943    2.8791 C   0  0  0  0  0  0  0  0  0  0  0  0
    1.0972    1.6656    2.8939 H   0  0  0  0  0  0  0  0  0  0  0  0
   -0.4741    1.0375    3.4372 H   0  0  0  0  0  0  0  0  0  0  0  0
    0.9344   -0.0410    3.3801 H   0  0  0  0  0  0  0  0  0  0  0  0
  1  2  1  0  0  0  0
  2  3  1  0  0  0  0
  2  4  1  0  0  0  0
  2  5  1  0  0  0  0
  5  6  2  0  0  0  0
  5  7  1  0  0  0  0
  7  8  1  0  0  0  0
  7  9  1  0  0  0  0
  9 10  1  0  0  0  0
  9 11  1  0  0  0  0
  9 17  1  0  0  0  0
 11 12  1  0  0  0  0
 11 13  1  0  0  0  0
 11 14  1  0  0  0  0
 14 15  1  0  0  0  0
 14 16  2  0  0  0  0
 17 18  2  0  0  0  0
 17 19  1  0  0  0  0
 19 20  1  0  0  0  0
 19 21  1  0  0  0  0
 21 22  1  0  0  0  0
 21 23  1  0  0  0  0
 21 24  1  0  0  0  0
M  CHG  1  15  -1
M  END
$$$$

  -OEChem-03222214023D

 24 23  0     1  0  0  0  0  0999 V2000
   -2.3671   -3.4868   -0.0146 H   0  0  0  0  0  0  0  0  0  0  0  0
   -2.3455   -2.4720   -0.4210 C   0  0  0  0  0  0  0  0  0  0  0  0
   -2.8373   -1.7984    0.2857 H   0  0  0  0  0  0  0  0  0  0  0  0
   -2.8924   -2.4564   -1.3668 H   0  0  0  0  0  0  0  0  0  0  0  0
   -0.9124   -2.0253   -0.6454 C   0  0  0  0  0  0  0  0  0  0  0  0
    0.0038   -2.8148   -0.4756 O   0  0  0  0  0  0  0  0  0  0  0  0
   -0.6688   -0.7368   -1.0618 N   0  0  0  0  0  0  0  0  0  0  0  0
   -1.4767   -0.1048   -1.0149 H   0  0  0  0  0  0  0  0  0  0  0  0
    0.6257   -0.0580   -0.9154 C   0  0  1  0  0  0  0  0  0  0  0  0
    1.4008   -0.6130   -1.4532 H   0  0  0  0  0  0  0  0  0  0  0  0
    0.5312    1.3850   -1.4783 C   0  0  0  0  0  0  0  0  0  0  0  0
    1.4282    1.9387   -1.1861 H   0  0  0  0  0  0  0  0  0  0  0  0
    0.5294    1.3161   -2.5688 H   0  0  0  0  0  0  0  0  0  0  0  0
   -0.7001    2.2171   -1.0851 C   0  0  0  0  0  0  0  0  0  0  0  0
   -1.7083    1.6511   -0.5776 O   0  5  0  0  0  0  0  0  0  0  0  0
   -0.6297    3.4440   -1.3195 O   0  0  0  0  0  0  0  0  0  0  0  0
    1.0350    0.0388    0.5736 C   0  0  0  0  0  0  0  0  0  0  0  0
    2.1966   -0.1414    0.9272 O   0  0  0  0  0  0  0  0  0  0  0  0
    0.0854    0.4321    1.5007 N   0  0  0  0  0  0  0  0  0  0  0  0
   -0.7739    0.8151    1.0937 H   0  0  0  0  0  0  0  0  0  0  0  0
    0.4082    0.7663    2.8779 C   0  0  0  0  0  0  0  0  0  0  0  0
    1.0616    1.6435    2.9143 H   0  0  0  0  0  0  0  0  0  0  0  0
   -0.5080    0.9896    3.4322 H   0  0  0  0  0  0  0  0  0  0  0  0
    0.9116   -0.0732    3.3679 H   0  0  0  0  0  0  0  0  0  0  0  0
  1  2  1  0  0  0  0
  2  3  1  0  0  0  0
  2  4  1  0  0  0  0
  2  5  1  0  0  0  0
  5  6  2  0  0  0  0
  5  7  1  0  0  0  0
  7  8  1  0  0  0  0
  7  9  1  0  0  0  0
  9 10  1  0  0  0  0
  9 11  1  0  0  0  0
  9 17  1  0  0  0  0
 11 12  1  0  0  0  0
 11 13  1  0  0  0  0
 11 14  1  0  0  0  0
 14 15  1  0  0  0  0
 14 16  2  0  0  0  0
 17 18  2  0  0  0  0
 17 19  1  0  0  0  0
 19 20  1  0  0  0  0
 19 21  1  0  0  0  0
 21 22  1  0  0  0  0
 21 23  1  0  0  0  0
 21 24  1  0  0  0  0
M  CHG  1  15  -1
M  END
$$$$

  -OEChem-03222214023D

 24 23  0     1  0  0  0  0  0999 V2000
   -2.3755   -3.4980   -0.0835 H   0  0  0  0  0  0  0  0  0  0  0  0
   -2.3526   -2.4663   -0.4442 C   0  0  0  0  0  0  0  0  0  0  0  0
   -2.8321   -1.8220    0.2973 H   0  0  0  0  0  0  0  0  0  0  0  0
   -2.9103   -2.4056   -1.3818 H   0  0  0  0  0  0  0  0  0  0  0  0
   -0.9194   -2.0181   -0.6655 C   0  0  0  0  0  0  0  0  0  0  0  0
   -0.0042   -2.8121   -0.5123 O   0  0  0  0  0  0  0  0  0  0  0  0
   -0.6759   -0.7241   -1.0652 N   0  0  0  0  0  0  0  0  0  0  0  0
   -1.4795   -0.0920   -0.9770 H   0  0  0  0  0  0  0  0  0  0  0  0
    0.6177   -0.0508   -0.8890 C   0  0  1  0  0  0  0  0  0  0  0  0
    1.3956   -0.6101   -1.4187 H   0  0  0  0  0  0  0  0  0  0  0  0
    0.5259    1.3778   -1.4838 C   0  0  0  0  0  0  0  0  0  0  0  0
    1.4049    1.9500   -1.1739 H   0  0  0  0  0  0  0  0  0  0  0  0
    0.5579    1.2883   -2.5726 H   0  0  0  0  0  0  0  0  0  0  0  0
   -0.7269    2.1963   -1.1383 C   0  0  0  0  0  0  0  0  0  0  0  0
   -1.6189    1.6925   -0.3991 O   0  5  0  0  0  0  0  0  0  0  0  0
   -0.8001    3.3358   -1.6499 O   0  0  0  0  0  0  0  0  0  0  0  0
    1.0327    0.0431    0.5999 C   0  0  0  0  0  0  0  0  0  0  0  0
    2.1961   -0.1442    0.9439 O   0  0  0  0  0  0  0  0  0  0  0  0
    0.0960    0.4343    1.5396 N   0  0  0  0  0  0  0  0  0  0  0  0
   -0.7534    0.8470    1.1365 H   0  0  0  0  0  0  0  0  0  0  0  0
    0.4397    0.7674    2.9122 C   0  0  0  0  0  0  0  0  0  0  0  0
    1.1039    1.6369    2.9393 H   0  0  0  0  0  0  0  0  0  0  0  0
   -0.4667    1.0025    3.4777 H   0  0  0  0  0  0  0  0  0  0  0  0
    0.9394   -0.0770    3.3976 H   0  0  0  0  0  0  0  0  0  0  0  0
  1  2  1  0  0  0  0
  2  3  1  0  0  0  0
  2  4  1  0  0  0  0
  2  5  1  0  0  0  0
  5  6  2  0  0  0  0
  5  7  1  0  0  0  0
  7  8  1  0  0  0  0
  7  9  1  0  0  0  0
  9 10  1  0  0  0  0
  9 11  1  0  0  0  0
  9 17  1  0  0  0  0
 11 12  1  0  0  0  0
 11 13  1  0  0  0  0
 11 14  1  0  0  0  0
 14 15  1  0  0  0  0
 14 16  2  0  0  0  0
 17 18  2  0  0  0  0
 17 19  1  0  0  0  0
 19 20  1  0  0  0  0
 19 21  1  0  0  0  0
 21 22  1  0  0  0  0
 21 23  1  0  0  0  0
 21 24  1  0  0  0  0
M  CHG  1  15  -1
M  END
$$$$

  -OEChem-03222214023D

 24 23  0     1  0  0  0  0  0999 V2000
   -2.3748   -3.4769   -0.0731 H   0  0  0  0  0  0  0  0  0  0  0  0
   -2.3575   -2.4547   -0.4609 C   0  0  0  0  0  0  0  0  0  0  0  0
   -2.8481   -1.7956    0.2602 H   0  0  0  0  0  0  0  0  0  0  0  0
   -2.9079   -2.4232   -1.4043 H   0  0  0  0  0  0  0  0  0  0  0  0
   -0.9262   -2.0006   -0.6827 C   0  0  0  0  0  0  0  0  0  0  0  0
   -0.0091   -2.7938   -0.5374 O   0  0  0  0  0  0  0  0  0  0  0  0
   -0.6868   -0.7005   -1.0653 N   0  0  0  0  0  0  0  0  0  0  0  0
   -1.4906   -0.0735   -0.9622 H   0  0  0  0  0  0  0  0  0  0  0  0
    0.6048   -0.0305   -0.8640 C   0  0  1  0  0  0  0  0  0  0  0  0
    1.3835   -0.5989   -1.3833 H   0  0  0  0  0  0  0  0  0  0  0  0
    0.5216    1.3775   -1.5026 C   0  0  0  0  0  0  0  0  0  0  0  0
    1.3808    1.9706   -1.1782 H   0  0  0  0  0  0  0  0  0  0  0  0
    0.5901    1.2619   -2.5876 H   0  0  0  0  0  0  0  0  0  0  0  0
   -0.7553    2.1735   -1.2058 C   0  0  0  0  0  0  0  0  0  0  0  0
   -1.5122    1.7971   -0.2686 O   0  5  0  0  0  0  0  0  0  0  0  0
   -0.9926    3.1491   -1.9528 O   0  0  0  0  0  0  0  0  0  0  0  0
    1.0292    0.0581    0.6241 C   0  0  0  0  0  0  0  0  0  0  0  0
    2.1938   -0.1457    0.9556 O   0  0  0  0  0  0  0  0  0  0  0  0
    0.1095    0.4425    1.5820 N   0  0  0  0  0  0  0  0  0  0  0  0
   -0.7267    0.8940    1.1914 H   0  0  0  0  0  0  0  0  0  0  0  0
    0.4733    0.7449    2.9565 C   0  0  0  0  0  0  0  0  0  0  0  0
    1.1570    1.5988    2.9921 H   0  0  0  0  0  0  0  0  0  0  0  0
   -0.4226    0.9906    3.5338 H   0  0  0  0  0  0  0  0  0  0  0  0
    0.9581   -0.1182    3.4235 H   0  0  0  0  0  0  0  0  0  0  0  0
  1  2  1  0  0  0  0
  2  3  1  0  0  0  0
  2  4  1  0  0  0  0
  2  5  1  0  0  0  0
  5  6  2  0  0  0  0
  5  7  1  0  0  0  0
  7  8  1  0  0  0  0
  7  9  1  0  0  0  0
  9 10  1  0  0  0  0
  9 11  1  0  0  0  0
  9 17  1  0  0  0  0
 11 12  1  0  0  0  0
 11 13  1  0  0  0  0
 11 14  1  0  0  0  0
 14 15  1  0  0  0  0
 14 16  2  0  0  0  0
 17 18  2  0  0  0  0
 17 19  1  0  0  0  0
 19 20  1  0  0  0  0
 19 21  1  0  0  0  0
 21 22  1  0  0  0  0
 21 23  1  0  0  0  0
 21 24  1  0  0  0  0
M  CHG  1  15  -1
M  END
$$$$

  -OEChem-03222214023D

 24 23  0     1  0  0  0  0  0999 V2000
   -2.4039   -3.4953   -0.1754 H   0  0  0  0  0  0  0  0  0  0  0  0
   -2.3774   -2.4540   -0.5080 C   0  0  0  0  0  0  0  0  0  0  0  0
   -2.8840   -1.8329    0.2353 H   0  0  0  0  0  0  0  0  0  0  0  0
   -2.9067   -2.3728   -1.4604 H   0  0  0  0  0  0  0  0  0  0  0  0
   -0.9415   -1.9909   -0.6741 C   0  0  0  0  0  0  0  0  0  0  0  0
   -0.0261   -2.7797   -0.4979 O   0  0  0  0  0  0  0  0  0  0  0  0
   -0.6974   -0.6886   -1.0467 N   0  0  0  0  0  0  0  0  0  0  0  0
   -1.5074   -0.0688   -0.9821 H   0  0  0  0  0  0  0  0  0  0  0  0
    0.5922   -0.0176   -0.8338 C   0  0  1  0  0  0  0  0  0  0  0  0
    1.3692   -0.5965   -1.3441 H   0  0  0  0  0  0  0  0  0  0  0  0
    0.5174    1.3707   -1.5121 C   0  0  0  0  0  0  0  0  0  0  0  0
    1.3613    1.9818   -1.1813 H   0  0  0  0  0  0  0  0  0  0  0  0
    0.6123    1.2311   -2.5926 H   0  0  0  0  0  0  0  0  0  0  0  0
   -0.7773    2.1444   -1.2477 C   0  0  0  0  0  0  0  0  0  0  0  0
   -1.3850    1.9580   -0.1607 O   0  5  0  0  0  0  0  0  0  0  0  0
   -1.1978    2.8760   -2.1721 O   0  0  0  0  0  0  0  0  0  0  0  0
    1.0298    0.0760    0.6514 C   0  0  0  0  0  0  0  0  0  0  0  0
    2.1975   -0.1363    0.9672 O   0  0  0  0  0  0  0  0  0  0  0  0
    0.1275    0.4587    1.6259 N   0  0  0  0  0  0  0  0  0  0  0  0
   -0.6921    0.9494    1.2471 H   0  0  0  0  0  0  0  0  0  0  0  0
    0.5207    0.7503    2.9950 C   0  0  0  0  0  0  0  0  0  0  0  0
    1.1975    1.6101    3.0231 H   0  0  0  0  0  0  0  0  0  0  0  0
   -0.3635    0.9816    3.5962 H   0  0  0  0  0  0  0  0  0  0  0  0
    1.0241   -0.1132    3.4416 H   0  0  0  0  0  0  0  0  0  0  0  0
  1  2  1  0  0  0  0
  2  3  1  0  0  0  0
  2  4  1  0  0  0  0
  2  5  1  0  0  0  0
  5  6  2  0  0  0  0
  5  7  1  0  0  0  0
  7  8  1  0  0  0  0
  7  9  1  0  0  0  0
  9 10  1  0  0  0  0
  9 11  1  0  0  0  0
  9 17  1  0  0  0  0
 11 12  1  0  0  0  0
 11 13  1  0  0  0  0
 11 14  1  0  0  0  0
 14 15  1  0  0  0  0
 14 16  2  0  0  0  0
 17 18  2  0  0  0  0
 17 19  1  0  0  0  0
 19 20  1  0  0  0  0
 19 21  1  0  0  0  0
 21 22  1  0  0  0  0
 21 23  1  0  0  0  0
 21 24  1  0  0  0  0
M  CHG  1  15  -1
M  END
$$$$

  -OEChem-03222214023D

 24 23  0     1  0  0  0  0  0999 V2000
   -2.4393   -3.4844   -0.2039 H   0  0  0  0  0  0  0  0  0  0  0  0
   -2.3993   -2.4525   -0.5638 C   0  0  0  0  0  0  0  0  0  0  0  0
   -2.9581   -1.8160    0.1269 H   0  0  0  0  0  0  0  0  0  0  0  0
   -2.8659   -2.4027   -1.5507 H   0  0  0  0  0  0  0  0  0  0  0  0
   -0.9590   -1.9810   -0.6491 C   0  0  0  0  0  0  0  0  0  0  0  0
   -0.0511   -2.7617   -0.4104 O   0  0  0  0  0  0  0  0  0  0  0  0
   -0.7010   -0.6813   -1.0216 N   0  0  0  0  0  0  0  0  0  0  0  0
   -1.5149   -0.0682   -1.0685 H   0  0  0  0  0  0  0  0  0  0  0  0
    0.5905   -0.0098   -0.8151 C   0  0  1  0  0  0  0  0  0  0  0  0
    1.3638   -0.5934   -1.3253 H   0  0  0  0  0  0  0  0  0  0  0  0
    0.5087    1.3681   -1.5105 C   0  0  0  0  0  0  0  0  0  0  0  0
    1.3471    1.9907   -1.1876 H   0  0  0  0  0  0  0  0  0  0  0  0
    0.6039    1.2199   -2.5899 H   0  0  0  0  0  0  0  0  0  0  0  0
   -0.7949    2.1211   -1.2389 C   0  0  0  0  0  0  0  0  0  0  0  0
   -1.2334    2.1611   -0.0625 O   0  5  0  0  0  0  0  0  0  0  0  0
   -1.4307    2.5250   -2.2388 O   0  0  0  0  0  0  0  0  0  0  0  0
    1.0407    0.0926    0.6665 C   0  0  0  0  0  0  0  0  0  0  0  0
    2.2089   -0.1339    0.9717 O   0  0  0  0  0  0  0  0  0  0  0  0
    0.1512    0.4805    1.6505 N   0  0  0  0  0  0  0  0  0  0  0  0
   -0.6466    1.0106    1.2786 H   0  0  0  0  0  0  0  0  0  0  0  0
    0.5642    0.7586    3.0166 C   0  0  0  0  0  0  0  0  0  0  0  0
    1.2696    1.5954    3.0400 H   0  0  0  0  0  0  0  0  0  0  0  0
   -0.3076    1.0198    3.6236 H   0  0  0  0  0  0  0  0  0  0  0  0
    1.0413   -0.1212    3.4599 H   0  0  0  0  0  0  0  0  0  0  0  0
  1  2  1  0  0  0  0
  2  3  1  0  0  0  0
  2  4  1  0  0  0  0
  2  5  1  0  0  0  0
  5  6  2  0  0  0  0
  5  7  1  0  0  0  0
  7  8  1  0  0  0  0
  7  9  1  0  0  0  0
  9 10  1  0  0  0  0
  9 11  1  0  0  0  0
  9 17  1  0  0  0  0
 11 12  1  0  0  0  0
 11 13  1  0  0  0  0
 11 14  1  0  0  0  0
 14 15  1  0  0  0  0
 14 16  2  0  0  0  0
 17 18  2  0  0  0  0
 17 19  1  0  0  0  0
 19 20  1  0  0  0  0
 19 21  1  0  0  0  0
 21 22  1  0  0  0  0
 21 23  1  0  0  0  0
 21 24  1  0  0  0  0
M  CHG  1  15  -1
M  END
$$$$

  -OEChem-03222214023D

 24 23  0     1  0  0  0  0  0999 V2000
   -2.5082   -3.4698   -0.2980 H   0  0  0  0  0  0  0  0  0  0  0  0
   -2.4324   -2.4410   -0.6600 C   0  0  0  0  0  0  0  0  0  0  0  0
   -3.0587   -1.7994   -0.0348 H   0  0  0  0  0  0  0  0  0  0  0  0
   -2.7963   -2.3991   -1.6895 H   0  0  0  0  0  0  0  0  0  0  0  0
   -0.9915   -1.9677   -0.6016 C   0  0  0  0  0  0  0  0  0  0  0  0
   -0.1141   -2.7395   -0.2475 O   0  0  0  0  0  0  0  0  0  0  0  0
   -0.6945   -0.6801   -0.9840 N   0  0  0  0  0  0  0  0  0  0  0  0
   -1.4824   -0.0806   -1.2408 H   0  0  0  0  0  0  0  0  0  0  0  0
    0.6041   -0.0160   -0.7943 C   0  0  1  0  0  0  0  0  0  0  0  0
    1.3726   -0.6009   -1.3101 H   0  0  0  0  0  0  0  0  0  0  0  0
    0.4895    1.3551   -1.4968 C   0  0  0  0  0  0  0  0  0  0  0  0
    1.3238    1.9945   -1.1967 H   0  0  0  0  0  0  0  0  0  0  0  0
    0.5599    1.2088   -2.5784 H   0  0  0  0  0  0  0  0  0  0  0  0
   -0.8234    2.0717   -1.1822 C   0  0  0  0  0  0  0  0  0  0  0  0
   -1.0817    2.3534    0.0123 O   0  5  0  0  0  0  0  0  0  0  0  0
   -1.6811    2.0493   -2.0962 O   0  0  0  0  0  0  0  0  0  0  0  0
    1.0665    0.1070    0.6816 C   0  0  0  0  0  0  0  0  0  0  0  0
    2.2354   -0.1300    0.9781 O   0  0  0  0  0  0  0  0  0  0  0  0
    0.1900    0.5181    1.6679 N   0  0  0  0  0  0  0  0  0  0  0  0
   -0.5937    1.0693    1.2971 H   0  0  0  0  0  0  0  0  0  0  0  0
    0.6199    0.8021    3.0273 C   0  0  0  0  0  0  0  0  0  0  0  0
    1.3483    1.6190    3.0349 H   0  0  0  0  0  0  0  0  0  0  0  0
   -0.2400    1.0954    3.6363 H   0  0  0  0  0  0  0  0  0  0  0  0
    1.0755   -0.0852    3.4783 H   0  0  0  0  0  0  0  0  0  0  0  0
  1  2  1  0  0  0  0
  2  3  1  0  0  0  0
  2  4  1  0  0  0  0
  2  5  1  0  0  0  0
  5  6  2  0  0  0  0
  5  7  1  0  0  0  0
  7  8  1  0  0  0  0
  7  9  1  0  0  0  0
  9 10  1  0  0  0  0
  9 11  1  0  0  0  0
  9 17  1  0  0  0  0
 11 12  1  0  0  0  0
 11 13  1  0  0  0  0
 11 14  1  0  0  0  0
 14 15  1  0  0  0  0
 14 16  2  0  0  0  0
 17 18  2  0  0  0  0
 17 19  1  0  0  0  0
 19 20  1  0  0  0  0
 19 21  1  0  0  0  0
 21 22  1  0  0  0  0
 21 23  1  0  0  0  0
 21 24  1  0  0  0  0
M  CHG  1  15  -1
M  END
$$$$

  -OEChem-03222214023D

 24 23  0     1  0  0  0  0  0999 V2000
   -2.5200   -3.4656   -0.2921 H   0  0  0  0  0  0  0  0  0  0  0  0
   -2.4340   -2.4428   -0.6685 C   0  0  0  0  0  0  0  0  0  0  0  0
   -3.0723   -1.7903   -0.0673 H   0  0  0  0  0  0  0  0  0  0  0  0
   -2.7756   -2.4163   -1.7061 H   0  0  0  0  0  0  0  0  0  0  0  0
   -0.9935   -1.9712   -0.5868 C   0  0  0  0  0  0  0  0  0  0  0  0
   -0.1252   -2.7394   -0.2034 O   0  0  0  0  0  0  0  0  0  0  0  0
   -0.6839   -0.6925   -0.9873 N   0  0  0  0  0  0  0  0  0  0  0  0
   -1.4624   -0.0955   -1.2898 H   0  0  0  0  0  0  0  0  0  0  0  0
    0.6169   -0.0296   -0.8089 C   0  0  1  0  0  0  0  0  0  0  0  0
    1.3874   -0.6088   -1.3274 H   0  0  0  0  0  0  0  0  0  0  0  0
    0.4869    1.3511   -1.4913 C   0  0  0  0  0  0  0  0  0  0  0  0
    1.3246    1.9917   -1.2023 H   0  0  0  0  0  0  0  0  0  0  0  0
    0.5288    1.2238   -2.5766 H   0  0  0  0  0  0  0  0  0  0  0  0
   -0.8264    2.0439   -1.1322 C   0  0  0  0  0  0  0  0  0  0  0  0
   -0.9352    2.5507    0.0090 O   0  5  0  0  0  0  0  0  0  0  0  0
   -1.7993    1.7885   -1.8850 O   0  0  0  0  0  0  0  0  0  0  0  0
    1.0713    0.1118    0.6671 C   0  0  0  0  0  0  0  0  0  0  0  0
    2.2321   -0.1456    0.9780 O   0  0  0  0  0  0  0  0  0  0  0  0
    0.1872    0.5413    1.6398 N   0  0  0  0  0  0  0  0  0  0  0  0
   -0.5714    1.1193    1.2594 H   0  0  0  0  0  0  0  0  0  0  0  0
    0.6088    0.8217    3.0025 C   0  0  0  0  0  0  0  0  0  0  0  0
    1.3514    1.6258    3.0152 H   0  0  0  0  0  0  0  0  0  0  0  0
   -0.2520    1.1322    3.6019 H   0  0  0  0  0  0  0  0  0  0  0  0
    1.0440   -0.0721    3.4606 H   0  0  0  0  0  0  0  0  0  0  0  0
  1  2  1  0  0  0  0
  2  3  1  0  0  0  0
  2  4  1  0  0  0  0
  2  5  1  0  0  0  0
  5  6  2  0  0  0  0
  5  7  1  0  0  0  0
  7  8  1  0  0  0  0
  7  9  1  0  0  0  0
  9 10  1  0  0  0  0
  9 11  1  0  0  0  0
  9 17  1  0  0  0  0
 11 12  1  0  0  0  0
 11 13  1  0  0  0  0
 11 14  1  0  0  0  0
 14 15  1  0  0  0  0
 14 16  2  0  0  0  0
 17 18  2  0  0  0  0
 17 19  1  0  0  0  0
 19 20  1  0  0  0  0
 19 21  1  0  0  0  0
 21 22  1  0  0  0  0
 21 23  1  0  0  0  0
 21 24  1  0  0  0  0
M  CHG  1  15  -1
M  END
$$$$

  -OEChem-03222214023D

 24 23  0     1  0  0  0  0  0999 V2000
   -2.5039   -3.4727   -0.2390 H   0  0  0  0  0  0  0  0  0  0  0  0
   -2.4220   -2.4561   -0.6327 C   0  0  0  0  0  0  0  0  0  0  0  0
   -3.0466   -1.7921   -0.0296 H   0  0  0  0  0  0  0  0  0  0  0  0
   -2.7830   -2.4441   -1.6640 H   0  0  0  0  0  0  0  0  0  0  0  0
   -0.9790   -1.9881   -0.5855 C   0  0  0  0  0  0  0  0  0  0  0  0
   -0.1051   -2.7543   -0.2110 O   0  0  0  0  0  0  0  0  0  0  0  0
   -0.6745   -0.7141   -1.0046 N   0  0  0  0  0  0  0  0  0  0  0  0
   -1.4615   -0.1141   -1.2821 H   0  0  0  0  0  0  0  0  0  0  0  0
    0.6232   -0.0444   -0.8364 C   0  0  1  0  0  0  0  0  0  0  0  0
    1.3984   -0.6159   -1.3567 H   0  0  0  0  0  0  0  0  0  0  0  0
    0.4934    1.3536   -1.4853 C   0  0  0  0  0  0  0  0  0  0  0  0
    1.3412    1.9824   -1.1981 H   0  0  0  0  0  0  0  0  0  0  0  0
    0.5152    1.2503   -2.5733 H   0  0  0  0  0  0  0  0  0  0  0  0
   -0.8117    2.0450   -1.0939 C   0  0  0  0  0  0  0  0  0  0  0  0
   -0.8056    2.7619   -0.0671 O   0  5  0  0  0  0  0  0  0  0  0  0
   -1.8523    1.6864   -1.7033 O   0  0  0  0  0  0  0  0  0  0  0  0
    1.0649    0.1131    0.6413 C   0  0  0  0  0  0  0  0  0  0  0  0
    2.2186   -0.1540    0.9688 O   0  0  0  0  0  0  0  0  0  0  0  0
    0.1672    0.5512    1.5994 N   0  0  0  0  0  0  0  0  0  0  0  0
   -0.5811    1.1360    1.2143 H   0  0  0  0  0  0  0  0  0  0  0  0
    0.5723    0.8221    2.9693 C   0  0  0  0  0  0  0  0  0  0  0  0
    1.3236    1.6178    2.9955 H   0  0  0  0  0  0  0  0  0  0  0  0
   -0.2931    1.1397    3.5582 H   0  0  0  0  0  0  0  0  0  0  0  0
    0.9911   -0.0783    3.4301 H   0  0  0  0  0  0  0  0  0  0  0  0
  1  2  1  0  0  0  0
  2  3  1  0  0  0  0
  2  4  1  0  0  0  0
  2  5  1  0  0  0  0
  5  6  2  0  0  0  0
  5  7  1  0  0  0  0
  7  8  1  0  0  0  0
  7  9  1  0  0  0  0
  9 10  1  0  0  0  0
  9 11  1  0  0  0  0
  9 17  1  0  0  0  0
 11 12  1  0  0  0  0
 11 13  1  0  0  0  0
 11 14  1  0  0  0  0
 14 15  1  0  0  0  0
 14 16  2  0  0  0  0
 17 18  2  0  0  0  0
 17 19  1  0  0  0  0
 19 20  1  0  0  0  0
 19 21  1  0  0  0  0
 21 22  1  0  0  0  0
 21 23  1  0  0  0  0
 21 24  1  0  0  0  0
M  CHG  1  15  -1
M  END
$$$$

  -OEChem-03222214023D

 24 23  0     1  0  0  0  0  0999 V2000
   -2.4943   -3.4880   -0.2101 H   0  0  0  0  0  0  0  0  0  0  0  0
   -2.4170   -2.4727   -0.6084 C   0  0  0  0  0  0  0  0  0  0  0  0
   -3.0278   -1.8054    0.0050 H   0  0  0  0  0  0  0  0  0  0  0  0
   -2.7987   -2.4625   -1.6323 H   0  0  0  0  0  0  0  0  0  0  0  0
   -0.9719   -2.0085   -0.5915 C   0  0  0  0  0  0  0  0  0  0  0  0
   -0.0911   -2.7768   -0.2383 O   0  0  0  0  0  0  0  0  0  0  0  0
   -0.6747   -0.7321   -1.0082 N   0  0  0  0  0  0  0  0  0  0  0  0
   -1.4693   -0.1257   -1.2489 H   0  0  0  0  0  0  0  0  0  0  0  0
    0.6208   -0.0583   -0.8508 C   0  0  1  0  0  0  0  0  0  0  0  0
    1.3944   -0.6250   -1.3787 H   0  0  0  0  0  0  0  0  0  0  0  0
    0.5032    1.3555   -1.4702 C   0  0  0  0  0  0  0  0  0  0  0  0
    1.3688    1.9602   -1.1837 H   0  0  0  0  0  0  0  0  0  0  0  0
    0.5133    1.2691   -2.5595 H   0  0  0  0  0  0  0  0  0  0  0  0
   -0.7822    2.0820   -1.0695 C   0  0  0  0  0  0  0  0  0  0  0  0
   -0.6859    2.9969   -0.2216 O   0  5  0  0  0  0  0  0  0  0  0  0
   -1.8734    1.6426   -1.5188 O   0  0  0  0  0  0  0  0  0  0  0  0
    1.0596    0.0865    0.6280 C   0  0  0  0  0  0  0  0  0  0  0  0
    2.2212   -0.1426    0.9542 O   0  0  0  0  0  0  0  0  0  0  0  0
    0.1520    0.5125    1.5831 N   0  0  0  0  0  0  0  0  0  0  0  0
   -0.6551    1.0070    1.2014 H   0  0  0  0  0  0  0  0  0  0  0  0
    0.5502    0.8398    2.9426 C   0  0  0  0  0  0  0  0  0  0  0  0
    1.2590    1.6739    2.9425 H   0  0  0  0  0  0  0  0  0  0  0  0
   -0.3273    1.1280    3.5288 H   0  0  0  0  0  0  0  0  0  0  0  0
    1.0178   -0.0246    3.4245 H   0  0  0  0  0  0  0  0  0  0  0  0
  1  2  1  0  0  0  0
  2  3  1  0  0  0  0
  2  4  1  0  0  0  0
  2  5  1  0  0  0  0
  5  6  2  0  0  0  0
  5  7  1  0  0  0  0
  7  8  1  0  0  0  0
  7  9  1  0  0  0  0
  9 10  1  0  0  0  0
  9 11  1  0  0  0  0
  9 17  1  0  0  0  0
 11 12  1  0  0  0  0
 11 13  1  0  0  0  0
 11 14  1  0  0  0  0
 14 15  1  0  0  0  0
 14 16  2  0  0  0  0
 17 18  2  0  0  0  0
 17 19  1  0  0  0  0
 19 20  1  0  0  0  0
 19 21  1  0  0  0  0
 21 22  1  0  0  0  0
 21 23  1  0  0  0  0
 21 24  1  0  0  0  0
M  CHG  1  15  -1
M  END
$$$$

  -OEChem-03222214023D

 24 23  0     1  0  0  0  0  0999 V2000
   -2.4642   -3.5047   -0.1657 H   0  0  0  0  0  0  0  0  0  0  0  0
   -2.4027   -2.4890   -0.5655 C   0  0  0  0  0  0  0  0  0  0  0  0
   -2.9942   -1.8231    0.0681 H   0  0  0  0  0  0  0  0  0  0  0  0
   -2.8184   -2.4794   -1.5760 H   0  0  0  0  0  0  0  0  0  0  0  0
   -0.9588   -2.0217   -0.5966 C   0  0  0  0  0  0  0  0  0  0  0  0
   -0.0645   -2.7905   -0.2802 O   0  0  0  0  0  0  0  0  0  0  0  0
   -0.6777   -0.7404   -1.0097 N   0  0  0  0  0  0  0  0  0  0  0  0
   -1.4823   -0.1269   -1.1918 H   0  0  0  0  0  0  0  0  0  0  0  0
    0.6154   -0.0604   -0.8659 C   0  0  1  0  0  0  0  0  0  0  0  0
    1.3865   -0.6250   -1.3996 H   0  0  0  0  0  0  0  0  0  0  0  0
    0.5118    1.3645   -1.4676 C   0  0  0  0  0  0  0  0  0  0  0  0
    1.3959    1.9429   -1.1823 H   0  0  0  0  0  0  0  0  0  0  0  0
    0.5175    1.2847   -2.5574 H   0  0  0  0  0  0  0  0  0  0  0  0
   -0.7484    2.1446   -1.0744 C   0  0  0  0  0  0  0  0  0  0  0  0
   -0.5808    3.2241   -0.4652 O   0  5  0  0  0  0  0  0  0  0  0  0
   -1.8757    1.6321   -1.3075 O   0  0  0  0  0  0  0  0  0  0  0  0
    1.0524    0.0652    0.6137 C   0  0  0  0  0  0  0  0  0  0  0  0
    2.2212   -0.1243    0.9387 O   0  0  0  0  0  0  0  0  0  0  0  0
    0.1342    0.4727    1.5665 N   0  0  0  0  0  0  0  0  0  0  0  0
   -0.7273    0.8678    1.1923 H   0  0  0  0  0  0  0  0  0  0  0  0
    0.5167    0.8340    2.9218 C   0  0  0  0  0  0  0  0  0  0  0  0
    1.1918    1.6958    2.9105 H   0  0  0  0  0  0  0  0  0  0  0  0
   -0.3721    1.0951    3.5035 H   0  0  0  0  0  0  0  0  0  0  0  0
    1.0183   -0.0046    3.4153 H   0  0  0  0  0  0  0  0  0  0  0  0
  1  2  1  0  0  0  0
  2  3  1  0  0  0  0
  2  4  1  0  0  0  0
  2  5  1  0  0  0  0
  5  6  2  0  0  0  0
  5  7  1  0  0  0  0
  7  8  1  0  0  0  0
  7  9  1  0  0  0  0
  9 10  1  0  0  0  0
  9 11  1  0  0  0  0
  9 17  1  0  0  0  0
 11 12  1  0  0  0  0
 11 13  1  0  0  0  0
 11 14  1  0  0  0  0
 14 15  1  0  0  0  0
 14 16  2  0  0  0  0
 17 18  2  0  0  0  0
 17 19  1  0  0  0  0
 19 20  1  0  0  0  0
 19 21  1  0  0  0  0
 21 22  1  0  0  0  0
 21 23  1  0  0  0  0
 21 24  1  0  0  0  0
M  CHG  1  15  -1
M  END
$$$$

  -OEChem-03222214023D

 24 23  0     1  0  0  0  0  0999 V2000
   -2.4181   -3.5043   -0.0882 H   0  0  0  0  0  0  0  0  0  0  0  0
   -2.3754   -2.4904   -0.4952 C   0  0  0  0  0  0  0  0  0  0  0  0
   -2.9247   -1.8194    0.1702 H   0  0  0  0  0  0  0  0  0  0  0  0
   -2.8502   -2.4818   -1.4793 H   0  0  0  0  0  0  0  0  0  0  0  0
   -0.9337   -2.0307   -0.6137 C   0  0  0  0  0  0  0  0  0  0  0  0
   -0.0252   -2.8065   -0.3608 O   0  0  0  0  0  0  0  0  0  0  0  0
   -0.6725   -0.7463   -1.0310 N   0  0  0  0  0  0  0  0  0  0  0  0
   -1.4858   -0.1242   -1.1165 H   0  0  0  0  0  0  0  0  0  0  0  0
    0.6183   -0.0605   -0.8945 C   0  0  1  0  0  0  0  0  0  0  0  0
    1.3915   -0.6195   -1.4311 H   0  0  0  0  0  0  0  0  0  0  0  0
    0.5207    1.3761   -1.4744 C   0  0  0  0  0  0  0  0  0  0  0  0
    1.4172    1.9343   -1.1871 H   0  0  0  0  0  0  0  0  0  0  0  0
    0.5228    1.3065   -2.5646 H   0  0  0  0  0  0  0  0  0  0  0  0
   -0.7182    2.1962   -1.0821 C   0  0  0  0  0  0  0  0  0  0  0  0
   -0.5126    3.3826   -0.7425 O   0  5  0  0  0  0  0  0  0  0  0  0
   -1.8438    1.6320   -1.0214 O   0  0  0  0  0  0  0  0  0  0  0  0
    1.0426    0.0534    0.5891 C   0  0  0  0  0  0  0  0  0  0  0  0
    2.2094   -0.1228    0.9273 O   0  0  0  0  0  0  0  0  0  0  0  0
    0.1067    0.4499    1.5293 N   0  0  0  0  0  0  0  0  0  0  0  0
   -0.7661    0.8121    1.1445 H   0  0  0  0  0  0  0  0  0  0  0  0
    0.4579    0.8053    2.8947 C   0  0  0  0  0  0  0  0  0  0  0  0
    1.1098    1.6847    2.9044 H   0  0  0  0  0  0  0  0  0  0  0  0
   -0.4467    1.0353    3.4652 H   0  0  0  0  0  0  0  0  0  0  0  0
    0.9738   -0.0254    3.3868 H   0  0  0  0  0  0  0  0  0  0  0  0
  1  2  1  0  0  0  0
  2  3  1  0  0  0  0
  2  4  1  0  0  0  0
  2  5  1  0  0  0  0
  5  6  2  0  0  0  0
  5  7  1  0  0  0  0
  7  8  1  0  0  0  0
  7  9  1  0  0  0  0
  9 10  1  0  0  0  0
  9 11  1  0  0  0  0
  9 17  1  0  0  0  0
 11 12  1  0  0  0  0
 11 13  1  0  0  0  0
 11 14  1  0  0  0  0
 14 15  1  0  0  0  0
 14 16  2  0  0  0  0
 17 18  2  0  0  0  0
 17 19  1  0  0  0  0
 19 20  1  0  0  0  0
 19 21  1  0  0  0  0
 21 22  1  0  0  0  0
 21 23  1  0  0  0  0
 21 24  1  0  0  0  0
M  CHG  1  15  -1
M  END
$$$$

  -OEChem-03222214023D

 24 23  0     1  0  0  0  0  0999 V2000
   -2.3710   -3.4980   -0.0240 H   0  0  0  0  0  0  0  0  0  0  0  0
   -2.3475   -2.4857   -0.4366 C   0  0  0  0  0  0  0  0  0  0  0  0
   -2.8572   -1.8107    0.2558 H   0  0  0  0  0  0  0  0  0  0  0  0
   -2.8756   -2.4795   -1.3931 H   0  0  0  0  0  0  0  0  0  0  0  0
   -0.9129   -2.0315   -0.6361 C   0  0  0  0  0  0  0  0  0  0  0  0
    0.0040   -2.8159   -0.4481 O   0  0  0  0  0  0  0  0  0  0  0  0
   -0.6687   -0.7449   -1.0581 N   0  0  0  0  0  0  0  0  0  0  0  0
   -1.4806   -0.1160   -1.0410 H   0  0  0  0  0  0  0  0  0  0  0  0
    0.6234   -0.0603   -0.9189 C   0  0  1  0  0  0  0  0  0  0  0  0
    1.3997   -0.6141   -1.4564 H   0  0  0  0  0  0  0  0  0  0  0  0
    0.5261    1.3840   -1.4803 C   0  0  0  0  0  0  0  0  0  0  0  0
    1.4257    1.9347   -1.1888 H   0  0  0  0  0  0  0  0  0  0  0  0
    0.5258    1.3247   -2.5712 H   0  0  0  0  0  0  0  0  0  0  0  0
   -0.7037    2.2169   -1.0817 C   0  0  0  0  0  0  0  0  0  0  0  0
   -0.5286    3.4542   -1.0206 O   0  5  0  0  0  0  0  0  0  0  0  0
   -1.7607    1.6374   -0.7086 O   0  0  0  0  0  0  0  0  0  0  0  0
    1.0328    0.0447    0.5694 C   0  0  0  0  0  0  0  0  0  0  0  0
    2.1934   -0.1395    0.9240 O   0  0  0  0  0  0  0  0  0  0  0  0
    0.0818    0.4388    1.4953 N   0  0  0  0  0  0  0  0  0  0  0  0
   -0.7769    0.8210    1.0895 H   0  0  0  0  0  0  0  0  0  0  0  0
    0.4072    0.7786    2.8705 C   0  0  0  0  0  0  0  0  0  0  0  0
    1.0767    1.6441    2.9014 H   0  0  0  0  0  0  0  0  0  0  0  0
   -0.5060    1.0236    3.4208 H   0  0  0  0  0  0  0  0  0  0  0  0
    0.8940   -0.0660    3.3686 H   0  0  0  0  0  0  0  0  0  0  0  0
  1  2  1  0  0  0  0
  2  3  1  0  0  0  0
  2  4  1  0  0  0  0
  2  5  1  0  0  0  0
  5  6  2  0  0  0  0
  5  7  1  0  0  0  0
  7  8  1  0  0  0  0
  7  9  1  0  0  0  0
  9 10  1  0  0  0  0
  9 11  1  0  0  0  0
  9 17  1  0  0  0  0
 11 12  1  0  0  0  0
 11 13  1  0  0  0  0
 11 14  1  0  0  0  0
 14 15  1  0  0  0  0
 14 16  2  0  0  0  0
 17 18  2  0  0  0  0
 17 19  1  0  0  0  0
 19 20  1  0  0  0  0
 19 21  1  0  0  0  0
 21 22  1  0  0  0  0
 21 23  1  0  0  0  0
 21 24  1  0  0  0  0
M  CHG  1  15  -1
M  END
$$$$

  -OEChem-03222214023D

 24 23  0     1  0  0  0  0  0999 V2000
   -2.3604   -3.4925   -0.0236 H   0  0  0  0  0  0  0  0  0  0  0  0
   -2.3419   -2.4757   -0.4251 C   0  0  0  0  0  0  0  0  0  0  0  0
   -2.8288   -1.8058    0.2885 H   0  0  0  0  0  0  0  0  0  0  0  0
   -2.8956   -2.4552   -1.3668 H   0  0  0  0  0  0  0  0  0  0  0  0
   -0.9104   -2.0274   -0.6573 C   0  0  0  0  0  0  0  0  0  0  0  0
    0.0069   -2.8180   -0.4997 O   0  0  0  0  0  0  0  0  0  0  0  0
   -0.6703   -0.7368   -1.0693 N   0  0  0  0  0  0  0  0  0  0  0  0
   -1.4778   -0.1065   -1.0015 H   0  0  0  0  0  0  0  0  0  0  0  0
    0.6223   -0.0568   -0.9113 C   0  0  1  0  0  0  0  0  0  0  0  0
    1.4009   -0.6110   -1.4452 H   0  0  0  0  0  0  0  0  0  0  0  0
    0.5258    1.3828   -1.4817 C   0  0  0  0  0  0  0  0  0  0  0  0
    1.4157    1.9428   -1.1797 H   0  0  0  0  0  0  0  0  0  0  0  0
    0.5417    1.3160   -2.5721 H   0  0  0  0  0  0  0  0  0  0  0  0
   -0.7135    2.2101   -1.1048 C   0  0  0  0  0  0  0  0  0  0  0  0
   -0.6400    3.4395   -1.3254 O   0  5  0  0  0  0  0  0  0  0  0  0
   -1.6855    1.6540   -0.5205 O   0  0  0  0  0  0  0  0  0  0  0  0
    1.0301    0.0409    0.5785 C   0  0  0  0  0  0  0  0  0  0  0  0
    2.1910   -0.1438    0.9321 O   0  0  0  0  0  0  0  0  0  0  0  0
    0.0817    0.4322    1.5072 N   0  0  0  0  0  0  0  0  0  0  0  0
   -0.7707    0.8306    1.0985 H   0  0  0  0  0  0  0  0  0  0  0  0
    0.4096    0.7662    2.8831 C   0  0  0  0  0  0  0  0  0  0  0  0
    1.0844    1.6275    2.9169 H   0  0  0  0  0  0  0  0  0  0  0  0
   -0.5018    1.0151    3.4345 H   0  0  0  0  0  0  0  0  0  0  0  0
    0.8914   -0.0830    3.3780 H   0  0  0  0  0  0  0  0  0  0  0  0
  1  2  1  0  0  0  0
  2  3  1  0  0  0  0
  2  4  1  0  0  0  0
  2  5  1  0  0  0  0
  5  6  2  0  0  0  0
  5  7  1  0  0  0  0
  7  8  1  0  0  0  0
  7  9  1  0  0  0  0
  9 10  1  0  0  0  0
  9 11  1  0  0  0  0
  9 17  1  0  0  0  0
 11 12  1  0  0  0  0
 11 13  1  0  0  0  0
 11 14  1  0  0  0  0
 14 15  1  0  0  0  0
 14 16  2  0  0  0  0
 17 18  2  0  0  0  0
 17 19  1  0  0  0  0
 19 20  1  0  0  0  0
 19 21  1  0  0  0  0
 21 22  1  0  0  0  0
 21 23  1  0  0  0  0
 21 24  1  0  0  0  0
M  CHG  1  15  -1
M  END
$$$$

  -OEChem-03222214023D

 24 23  0     1  0  0  0  0  0999 V2000
   -2.4038   -3.4687   -0.1477 H   0  0  0  0  0  0  0  0  0  0  0  0
   -2.3731   -2.4335   -0.4982 C   0  0  0  0  0  0  0  0  0  0  0  0
   -2.8622   -1.7956    0.2426 H   0  0  0  0  0  0  0  0  0  0  0  0
   -2.9164   -2.3628   -1.4436 H   0  0  0  0  0  0  0  0  0  0  0  0
   -0.9356   -1.9867   -0.6927 C   0  0  0  0  0  0  0  0  0  0  0  0
   -0.0264   -2.7882   -0.5435 O   0  0  0  0  0  0  0  0  0  0  0  0
   -0.6820   -0.6833   -1.0538 N   0  0  0  0  0  0  0  0  0  0  0  0
   -1.4800   -0.0488   -0.9543 H   0  0  0  0  0  0  0  0  0  0  0  0
    0.6082   -0.0229   -0.8280 C   0  0  1  0  0  0  0  0  0  0  0  0
    1.3820   -0.6007   -1.3441 H   0  0  0  0  0  0  0  0  0  0  0  0
    0.5252    1.3643   -1.5045 C   0  0  0  0  0  0  0  0  0  0  0  0
    1.4839    1.8741   -1.3755 H   0  0  0  0  0  0  0  0  0  0  0  0
    0.3700    1.2261   -2.5778 H   0  0  0  0  0  0  0  0  0  0  0  0
   -0.5777    2.2947   -0.9866 C   0  0  0  0  0  0  0  0  0  0  0  0
   -0.6511    3.4212   -1.5267 O   0  5  0  0  0  0  0  0  0  0  0  0
   -1.4472    1.8294   -0.1980 O   0  0  0  0  0  0  0  0  0  0  0  0
    1.0434    0.0601    0.6583 C   0  0  0  0  0  0  0  0  0  0  0  0
    2.2118   -0.1451    0.9750 O   0  0  0  0  0  0  0  0  0  0  0  0
    0.1385    0.4423    1.6310 N   0  0  0  0  0  0  0  0  0  0  0  0
   -0.7029    0.8948    1.2538 H   0  0  0  0  0  0  0  0  0  0  0  0
    0.5242    0.7474    2.9991 C   0  0  0  0  0  0  0  0  0  0  0  0
    1.1935    1.6132    3.0227 H   0  0  0  0  0  0  0  0  0  0  0  0
   -0.3644    0.9757    3.5949 H   0  0  0  0  0  0  0  0  0  0  0  0
    1.0333   -0.1080    3.4543 H   0  0  0  0  0  0  0  0  0  0  0  0
  1  2  1  0  0  0  0
  2  3  1  0  0  0  0
  2  4  1  0  0  0  0
  2  5  1  0  0  0  0
  5  6  2  0  0  0  0
  5  7  1  0  0  0  0
  7  8  1  0  0  0  0
  7  9  1  0  0  0  0
  9 10  1  0  0  0  0
  9 11  1  0  0  0  0
  9 17  1  0  0  0  0
 11 12  1  0  0  0  0
 11 13  1  0  0  0  0
 11 14  1  0  0  0  0
 14 15  1  0  0  0  0
 14 16  2  0  0  0  0
 17 18  2  0  0  0  0
 17 19  1  0  0  0  0
 19 20  1  0  0  0  0
 19 21  1  0  0  0  0
 21 22  1  0  0  0  0
 21 23  1  0  0  0  0
 21 24  1  0  0  0  0
M  CHG  1  15  -1
M  END
$$$$

  -OEChem-03222214023D

 24 23  0     1  0  0  0  0  0999 V2000
   -2.4136   -3.4630   -0.1677 H   0  0  0  0  0  0  0  0  0  0  0  0
   -2.3829   -2.4295   -0.5235 C   0  0  0  0  0  0  0  0  0  0  0  0
   -2.8889   -1.7908    0.2052 H   0  0  0  0  0  0  0  0  0  0  0  0
   -2.9098   -2.3668   -1.4788 H   0  0  0  0  0  0  0  0  0  0  0  0
   -0.9446   -1.9754   -0.6954 C   0  0  0  0  0  0  0  0  0  0  0  0
   -0.0342   -2.7740   -0.5389 O   0  0  0  0  0  0  0  0  0  0  0  0
   -0.6926   -0.6676   -1.0408 N   0  0  0  0  0  0  0  0  0  0  0  0
   -1.4942   -0.0387   -0.9532 H   0  0  0  0  0  0  0  0  0  0  0  0
    0.5945   -0.0060   -0.8035 C   0  0  1  0  0  0  0  0  0  0  0  0
    1.3667   -0.5908   -1.3145 H   0  0  0  0  0  0  0  0  0  0  0  0
    0.5206    1.3656   -1.5104 C   0  0  0  0  0  0  0  0  0  0  0  0
    1.4747    1.8820   -1.3771 H   0  0  0  0  0  0  0  0  0  0  0  0
    0.3863    1.1989   -2.5827 H   0  0  0  0  0  0  0  0  0  0  0  0
   -0.5938    2.3046   -1.0350 C   0  0  0  0  0  0  0  0  0  0  0  0
   -0.8408    3.2783   -1.7817 O   0  5  0  0  0  0  0  0  0  0  0  0
   -1.3530    1.9239   -0.1031 O   0  0  0  0  0  0  0  0  0  0  0  0
    1.0432    0.0723    0.6802 C   0  0  0  0  0  0  0  0  0  0  0  0
    2.2151   -0.1385    0.9808 O   0  0  0  0  0  0  0  0  0  0  0  0
    0.1546    0.4446    1.6708 N   0  0  0  0  0  0  0  0  0  0  0  0
   -0.6780    0.9242    1.3075 H   0  0  0  0  0  0  0  0  0  0  0  0
    0.5641    0.7316    3.0359 C   0  0  0  0  0  0  0  0  0  0  0  0
    1.2378    1.5939    3.0593 H   0  0  0  0  0  0  0  0  0  0  0  0
   -0.3137    0.9567    3.6487 H   0  0  0  0  0  0  0  0  0  0  0  0
    1.0765   -0.1317    3.4724 H   0  0  0  0  0  0  0  0  0  0  0  0
  1  2  1  0  0  0  0
  2  3  1  0  0  0  0
  2  4  1  0  0  0  0
  2  5  1  0  0  0  0
  5  6  2  0  0  0  0
  5  7  1  0  0  0  0
  7  8  1  0  0  0  0
  7  9  1  0  0  0  0
  9 10  1  0  0  0  0
  9 11  1  0  0  0  0
  9 17  1  0  0  0  0
 11 12  1  0  0  0  0
 11 13  1  0  0  0  0
 11 14  1  0  0  0  0
 14 15  1  0  0  0  0
 14 16  2  0  0  0  0
 17 18  2  0  0  0  0
 17 19  1  0  0  0  0
 19 20  1  0  0  0  0
 19 21  1  0  0  0  0
 21 22  1  0  0  0  0
 21 23  1  0  0  0  0
 21 24  1  0  0  0  0
M  CHG  1  15  -1
M  END
$$$$

  -OEChem-03222214023D

 24 23  0     1  0  0  0  0  0999 V2000
   -2.4295   -3.4713   -0.2162 H   0  0  0  0  0  0  0  0  0  0  0  0
   -2.3966   -2.4340   -0.5601 C   0  0  0  0  0  0  0  0  0  0  0  0
   -2.9309   -1.8074    0.1587 H   0  0  0  0  0  0  0  0  0  0  0  0
   -2.8934   -2.3662   -1.5309 H   0  0  0  0  0  0  0  0  0  0  0  0
   -0.9576   -1.9665   -0.6822 C   0  0  0  0  0  0  0  0  0  0  0  0
   -0.0468   -2.7593   -0.5017 O   0  0  0  0  0  0  0  0  0  0  0  0
   -0.7063   -0.6557   -1.0181 N   0  0  0  0  0  0  0  0  0  0  0  0
   -1.5145   -0.0344   -0.9737 H   0  0  0  0  0  0  0  0  0  0  0  0
    0.5784    0.0103   -0.7788 C   0  0  1  0  0  0  0  0  0  0  0  0
    1.3478   -0.5832   -1.2841 H   0  0  0  0  0  0  0  0  0  0  0  0
    0.5119    1.3636   -1.5205 C   0  0  0  0  0  0  0  0  0  0  0  0
    1.4625    1.8864   -1.3896 H   0  0  0  0  0  0  0  0  0  0  0  0
    0.3931    1.1662   -2.5898 H   0  0  0  0  0  0  0  0  0  0  0  0
   -0.6106    2.3103   -1.0829 C   0  0  0  0  0  0  0  0  0  0  0  0
   -1.0453    3.0773   -1.9720 O   0  5  0  0  0  0  0  0  0  0  0  0
   -1.2154    2.0802   -0.0042 O   0  0  0  0  0  0  0  0  0  0  0  0
    1.0438    0.0899    0.7009 C   0  0  0  0  0  0  0  0  0  0  0  0
    2.2174   -0.1359    0.9857 O   0  0  0  0  0  0  0  0  0  0  0  0
    0.1714    0.4554    1.7081 N   0  0  0  0  0  0  0  0  0  0  0  0
   -0.6415    0.9762    1.3571 H   0  0  0  0  0  0  0  0  0  0  0  0
    0.6073    0.7241    3.0691 C   0  0  0  0  0  0  0  0  0  0  0  0
    1.2959    1.5747    3.0885 H   0  0  0  0  0  0  0  0  0  0  0  0
   -0.2567    0.9591    3.6977 H   0  0  0  0  0  0  0  0  0  0  0  0
    1.1116   -0.1516    3.4901 H   0  0  0  0  0  0  0  0  0  0  0  0
  1  2  1  0  0  0  0
  2  3  1  0  0  0  0
  2  4  1  0  0  0  0
  2  5  1  0  0  0  0
  5  6  2  0  0  0  0
  5  7  1  0  0  0  0
  7  8  1  0  0  0  0
  7  9  1  0  0  0  0
  9 10  1  0  0  0  0
  9 11  1  0  0  0  0
  9 17  1  0  0  0  0
 11 12  1  0  0  0  0
 11 13  1  0  0  0  0
 11 14  1  0  0  0  0
 14 15  1  0  0  0  0
 14 16  2  0  0  0  0
 17 18  2  0  0  0  0
 17 19  1  0  0  0  0
 19 20  1  0  0  0  0
 19 21  1  0  0  0  0
 21 22  1  0  0  0  0
 21 23  1  0  0  0  0
 21 24  1  0  0  0  0
M  CHG  1  15  -1
M  END
$$$$

  -OEChem-03222214023D

 24 23  0     1  0  0  0  0  0999 V2000
   -2.4488   -3.4832   -0.2643 H   0  0  0  0  0  0  0  0  0  0  0  0
   -2.4097   -2.4430   -0.5993 C   0  0  0  0  0  0  0  0  0  0  0  0
   -2.9836   -1.8269    0.0976 H   0  0  0  0  0  0  0  0  0  0  0  0
   -2.8604   -2.3731   -1.5922 H   0  0  0  0  0  0  0  0  0  0  0  0
   -0.9710   -1.9613   -0.6505 C   0  0  0  0  0  0  0  0  0  0  0  0
   -0.0638   -2.7435   -0.4154 O   0  0  0  0  0  0  0  0  0  0  0  0
   -0.7146   -0.6525   -0.9917 N   0  0  0  0  0  0  0  0  0  0  0  0
   -1.5271   -0.0402   -1.0420 H   0  0  0  0  0  0  0  0  0  0  0  0
    0.5700    0.0196   -0.7625 C   0  0  1  0  0  0  0  0  0  0  0  0
    1.3369   -0.5812   -1.2628 H   0  0  0  0  0  0  0  0  0  0  0  0
    0.4980    1.3554   -1.5333 C   0  0  0  0  0  0  0  0  0  0  0  0
    1.4447    1.8879   -1.4121 H   0  0  0  0  0  0  0  0  0  0  0  0
    0.3836    1.1343   -2.5986 H   0  0  0  0  0  0  0  0  0  0  0  0
   -0.6313    2.2987   -1.1090 C   0  0  0  0  0  0  0  0  0  0  0  0
   -1.2721    2.8263   -2.0470 O   0  5  0  0  0  0  0  0  0  0  0  0
   -1.0141    2.3047    0.0861 O   0  0  0  0  0  0  0  0  0  0  0  0
    1.0473    0.1128    0.7132 C   0  0  0  0  0  0  0  0  0  0  0  0
    2.2180   -0.1376    0.9902 O   0  0  0  0  0  0  0  0  0  0  0  0
    0.1861    0.4828    1.7284 N   0  0  0  0  0  0  0  0  0  0  0  0
   -0.5919    1.0591    1.3851 H   0  0  0  0  0  0  0  0  0  0  0  0
    0.6396    0.7215    3.0894 C   0  0  0  0  0  0  0  0  0  0  0  0
    1.3554    1.5492    3.1141 H   0  0  0  0  0  0  0  0  0  0  0  0
   -0.2121    0.9773    3.7263 H   0  0  0  0  0  0  0  0  0  0  0  0
    1.1179   -0.1749    3.4969 H   0  0  0  0  0  0  0  0  0  0  0  0
  1  2  1  0  0  0  0
  2  3  1  0  0  0  0
  2  4  1  0  0  0  0
  2  5  1  0  0  0  0
  5  6  2  0  0  0  0
  5  7  1  0  0  0  0
  7  8  1  0  0  0  0
  7  9  1  0  0  0  0
  9 10  1  0  0  0  0
  9 11  1  0  0  0  0
  9 17  1  0  0  0  0
 11 12  1  0  0  0  0
 11 13  1  0  0  0  0
 11 14  1  0  0  0  0
 14 15  1  0  0  0  0
 14 16  2  0  0  0  0
 17 18  2  0  0  0  0
 17 19  1  0  0  0  0
 19 20  1  0  0  0  0
 19 21  1  0  0  0  0
 21 22  1  0  0  0  0
 21 23  1  0  0  0  0
 21 24  1  0  0  0  0
M  CHG  1  15  -1
M  END
$$$$

  -OEChem-03222214023D

 24 23  0     1  0  0  0  0  0999 V2000
   -2.4833   -3.4701   -0.2836 H   0  0  0  0  0  0  0  0  0  0  0  0
   -2.4222   -2.4378   -0.6393 C   0  0  0  0  0  0  0  0  0  0  0  0
   -3.0359   -1.8059    0.0078 H   0  0  0  0  0  0  0  0  0  0  0  0
   -2.8126   -2.3900   -1.6588 H   0  0  0  0  0  0  0  0  0  0  0  0
   -0.9824   -1.9574   -0.6147 C   0  0  0  0  0  0  0  0  0  0  0  0
   -0.0916   -2.7336   -0.3088 O   0  0  0  0  0  0  0  0  0  0  0  0
   -0.7046   -0.6579   -0.9734 N   0  0  0  0  0  0  0  0  0  0  0  0
   -1.5060   -0.0536   -1.1504 H   0  0  0  0  0  0  0  0  0  0  0  0
    0.5844    0.0127   -0.7582 C   0  0  1  0  0  0  0  0  0  0  0  0
    1.3518   -0.5871   -1.2586 H   0  0  0  0  0  0  0  0  0  0  0  0
    0.4788    1.3386   -1.5389 C   0  0  0  0  0  0  0  0  0  0  0  0
    1.4161    1.8911   -1.4366 H   0  0  0  0  0  0  0  0  0  0  0  0
    0.3472    1.1155   -2.6019 H   0  0  0  0  0  0  0  0  0  0  0  0
   -0.6622    2.2451   -1.0766 C   0  0  0  0  0  0  0  0  0  0  0  0
   -1.5195    2.5183   -1.9485 O   0  5  0  0  0  0  0  0  0  0  0  0
   -0.7828    2.5267    0.1385 O   0  0  0  0  0  0  0  0  0  0  0  0
    1.0618    0.1277    0.7160 C   0  0  0  0  0  0  0  0  0  0  0  0
    2.2241   -0.1540    0.9990 O   0  0  0  0  0  0  0  0  0  0  0  0
    0.2016    0.5192    1.7247 N   0  0  0  0  0  0  0  0  0  0  0  0
   -0.5350    1.1450    1.3782 H   0  0  0  0  0  0  0  0  0  0  0  0
    0.6563    0.7377    3.0885 C   0  0  0  0  0  0  0  0  0  0  0  0
    1.3883    1.5510    3.1211 H   0  0  0  0  0  0  0  0  0  0  0  0
   -0.1917    1.0051    3.7255 H   0  0  0  0  0  0  0  0  0  0  0  0
    1.1159   -0.1710    3.4904 H   0  0  0  0  0  0  0  0  0  0  0  0
  1  2  1  0  0  0  0
  2  3  1  0  0  0  0
  2  4  1  0  0  0  0
  2  5  1  0  0  0  0
  5  6  2  0  0  0  0
  5  7  1  0  0  0  0
  7  8  1  0  0  0  0
  7  9  1  0  0  0  0
  9 10  1  0  0  0  0
  9 11  1  0  0  0  0
  9 17  1  0  0  0  0
 11 12  1  0  0  0  0
 11 13  1  0  0  0  0
 11 14  1  0  0  0  0
 14 15  1  0  0  0  0
 14 16  2  0  0  0  0
 17 18  2  0  0  0  0
 17 19  1  0  0  0  0
 19 20  1  0  0  0  0
 19 21  1  0  0  0  0
 21 22  1  0  0  0  0
 21 23  1  0  0  0  0
 21 24  1  0  0  0  0
M  CHG  1  15  -1
M  END
$$$$

  -OEChem-03222214023D

 24 23  0     1  0  0  0  0  0999 V2000
   -2.5065   -3.4496   -0.2900 H   0  0  0  0  0  0  0  0  0  0  0  0
   -2.4278   -2.4230   -0.6582 C   0  0  0  0  0  0  0  0  0  0  0  0
   -3.0531   -1.7767   -0.0369 H   0  0  0  0  0  0  0  0  0  0  0  0
   -2.7909   -2.3869   -1.6882 H   0  0  0  0  0  0  0  0  0  0  0  0
   -0.9854   -1.9529   -0.6012 C   0  0  0  0  0  0  0  0  0  0  0  0
   -0.1100   -2.7287   -0.2524 O   0  0  0  0  0  0  0  0  0  0  0  0
   -0.6851   -0.6644   -0.9797 N   0  0  0  0  0  0  0  0  0  0  0  0
   -1.4723   -0.0583   -1.2210 H   0  0  0  0  0  0  0  0  0  0  0  0
    0.6093   -0.0012   -0.7685 C   0  0  1  0  0  0  0  0  0  0  0  0
    1.3802   -0.5958   -1.2698 H   0  0  0  0  0  0  0  0  0  0  0  0
    0.4696    1.3254   -1.5385 C   0  0  0  0  0  0  0  0  0  0  0  0
    1.3956    1.8990   -1.4481 H   0  0  0  0  0  0  0  0  0  0  0  0
    0.3137    1.1199   -2.6018 H   0  0  0  0  0  0  0  0  0  0  0  0
   -0.6832    2.1752   -1.0123 C   0  0  0  0  0  0  0  0  0  0  0  0
   -1.7081    2.1932   -1.7348 O   0  5  0  0  0  0  0  0  0  0  0  0
   -0.6113    2.6905    0.1271 O   0  0  0  0  0  0  0  0  0  0  0  0
    1.0755    0.1369    0.7066 C   0  0  0  0  0  0  0  0  0  0  0  0
    2.2273   -0.1691    1.0066 O   0  0  0  0  0  0  0  0  0  0  0  0
    0.2095    0.5562    1.6999 N   0  0  0  0  0  0  0  0  0  0  0  0
   -0.4985    1.2086    1.3447 H   0  0  0  0  0  0  0  0  0  0  0  0
    0.6529    0.7639    3.0692 C   0  0  0  0  0  0  0  0  0  0  0  0
    1.4199    1.5439    3.1085 H   0  0  0  0  0  0  0  0  0  0  0  0
   -0.1918    1.0732    3.6916 H   0  0  0  0  0  0  0  0  0  0  0  0
    1.0652   -0.1619    3.4831 H   0  0  0  0  0  0  0  0  0  0  0  0
  1  2  1  0  0  0  0
  2  3  1  0  0  0  0
  2  4  1  0  0  0  0
  2  5  1  0  0  0  0
  5  6  2  0  0  0  0
  5  7  1  0  0  0  0
  7  8  1  0  0  0  0
  7  9  1  0  0  0  0
  9 10  1  0  0  0  0
  9 11  1  0  0  0  0
  9 17  1  0  0  0  0
 11 12  1  0  0  0  0
 11 13  1  0  0  0  0
 11 14  1  0  0  0  0
 14 15  1  0  0  0  0
 14 16  2  0  0  0  0
 17 18  2  0  0  0  0
 17 19  1  0  0  0  0
 19 20  1  0  0  0  0
 19 21  1  0  0  0  0
 21 22  1  0  0  0  0
 21 23  1  0  0  0  0
 21 24  1  0  0  0  0
M  CHG  1  15  -1
M  END
$$$$

  -OEChem-03222214023D

 24 23  0     1  0  0  0  0  0999 V2000
   -2.5152   -3.4296   -0.2608 H   0  0  0  0  0  0  0  0  0  0  0  0
   -2.4266   -2.4085   -0.6416 C   0  0  0  0  0  0  0  0  0  0  0  0
   -3.0327   -1.7456   -0.0188 H   0  0  0  0  0  0  0  0  0  0  0  0
   -2.8046   -2.3778   -1.6664 H   0  0  0  0  0  0  0  0  0  0  0  0
   -0.9769   -1.9594   -0.6118 C   0  0  0  0  0  0  0  0  0  0  0  0
   -0.1056   -2.7452   -0.2743 O   0  0  0  0  0  0  0  0  0  0  0  0
   -0.6659   -0.6780   -1.0034 N   0  0  0  0  0  0  0  0  0  0  0  0
   -1.4539   -0.0551   -1.2136 H   0  0  0  0  0  0  0  0  0  0  0  0
    0.6298   -0.0187   -0.7922 C   0  0  1  0  0  0  0  0  0  0  0  0
    1.4052   -0.6053   -1.2953 H   0  0  0  0  0  0  0  0  0  0  0  0
    0.4794    1.3236   -1.5345 C   0  0  0  0  0  0  0  0  0  0  0  0
    1.4039    1.9002   -1.4444 H   0  0  0  0  0  0  0  0  0  0  0  0
    0.3026    1.1461   -2.5991 H   0  0  0  0  0  0  0  0  0  0  0  0
   -0.6734    2.1385   -0.9585 C   0  0  0  0  0  0  0  0  0  0  0  0
   -1.7939    1.9366   -1.4902 O   0  5  0  0  0  0  0  0  0  0  0  0
   -0.4911    2.8199    0.0759 O   0  0  0  0  0  0  0  0  0  0  0  0
    1.0782    0.1307    0.6867 C   0  0  0  0  0  0  0  0  0  0  0  0
    2.2234   -0.1798    1.0058 O   0  0  0  0  0  0  0  0  0  0  0  0
    0.1980    0.5649    1.6621 N   0  0  0  0  0  0  0  0  0  0  0  0
   -0.5097    1.2081    1.2938 H   0  0  0  0  0  0  0  0  0  0  0  0
    0.6249    0.7930    3.0334 C   0  0  0  0  0  0  0  0  0  0  0  0
    1.3755    1.5887    3.0718 H   0  0  0  0  0  0  0  0  0  0  0  0
   -0.2313    1.0907    3.6456 H   0  0  0  0  0  0  0  0  0  0  0  0
    1.0522   -0.1200    3.4603 H   0  0  0  0  0  0  0  0  0  0  0  0
  1  2  1  0  0  0  0
  2  3  1  0  0  0  0
  2  4  1  0  0  0  0
  2  5  1  0  0  0  0
  5  6  2  0  0  0  0
  5  7  1  0  0  0  0
  7  8  1  0  0  0  0
  7  9  1  0  0  0  0
  9 10  1  0  0  0  0
  9 11  1  0  0  0  0
  9 17  1  0  0  0  0
 11 12  1  0  0  0  0
 11 13  1  0  0  0  0
 11 14  1  0  0  0  0
 14 15  1  0  0  0  0
 14 16  2  0  0  0  0
 17 18  2  0  0  0  0
 17 19  1  0  0  0  0
 19 20  1  0  0  0  0
 19 21  1  0  0  0  0
 21 22  1  0  0  0  0
 21 23  1  0  0  0  0
 21 24  1  0  0  0  0
M  CHG  1  15  -1
M  END
$$$$

  -OEChem-03222214023D

 24 23  0     1  0  0  0  0  0999 V2000
   -2.4895   -3.4340   -0.1981 H   0  0  0  0  0  0  0  0  0  0  0  0
   -2.4126   -2.4177   -0.5941 C   0  0  0  0  0  0  0  0  0  0  0  0
   -2.9887   -1.7450    0.0465 H   0  0  0  0  0  0  0  0  0  0  0  0
   -2.8336   -2.3959   -1.6022 H   0  0  0  0  0  0  0  0  0  0  0  0
   -0.9610   -1.9754   -0.6311 C   0  0  0  0  0  0  0  0  0  0  0  0
   -0.0791   -2.7664   -0.3359 O   0  0  0  0  0  0  0  0  0  0  0  0
   -0.6603   -0.6939   -1.0303 N   0  0  0  0  0  0  0  0  0  0  0  0
   -1.4564   -0.0592   -1.1712 H   0  0  0  0  0  0  0  0  0  0  0  0
    0.6349   -0.0328   -0.8270 C   0  0  1  0  0  0  0  0  0  0  0  0
    1.4113   -0.6128   -1.3358 H   0  0  0  0  0  0  0  0  0  0  0  0
    0.5019    1.3379   -1.5238 C   0  0  0  0  0  0  0  0  0  0  0  0
    1.4410    1.8904   -1.4293 H   0  0  0  0  0  0  0  0  0  0  0  0
    0.3067    1.1956   -2.5901 H   0  0  0  0  0  0  0  0  0  0  0  0
   -0.6298    2.1634   -0.9172 C   0  0  0  0  0  0  0  0  0  0  0  0
   -1.8007    1.8174   -1.2233 O   0  5  0  0  0  0  0  0  0  0  0  0
   -0.3495    3.0051   -0.0353 O   0  0  0  0  0  0  0  0  0  0  0  0
    1.0663    0.1086    0.6566 C   0  0  0  0  0  0  0  0  0  0  0  0
    2.2120   -0.1829    0.9902 O   0  0  0  0  0  0  0  0  0  0  0  0
    0.1666    0.5385    1.6173 N   0  0  0  0  0  0  0  0  0  0  0  0
   -0.5916    1.1106    1.2404 H   0  0  0  0  0  0  0  0  0  0  0  0
    0.5736    0.8123    2.9862 C   0  0  0  0  0  0  0  0  0  0  0  0
    1.3129    1.6193    3.0098 H   0  0  0  0  0  0  0  0  0  0  0  0
   -0.2936    1.1166    3.5793 H   0  0  0  0  0  0  0  0  0  0  0  0
    1.0078   -0.0821    3.4441 H   0  0  0  0  0  0  0  0  0  0  0  0
  1  2  1  0  0  0  0
  2  3  1  0  0  0  0
  2  4  1  0  0  0  0
  2  5  1  0  0  0  0
  5  6  2  0  0  0  0
  5  7  1  0  0  0  0
  7  8  1  0  0  0  0
  7  9  1  0  0  0  0
  9 10  1  0  0  0  0
  9 11  1  0  0  0  0
  9 17  1  0  0  0  0
 11 12  1  0  0  0  0
 11 13  1  0  0  0  0
 11 14  1  0  0  0  0
 14 15  1  0  0  0  0
 14 16  2  0  0  0  0
 17 18  2  0  0  0  0
 17 19  1  0  0  0  0
 19 20  1  0  0  0  0
 19 21  1  0  0  0  0
 21 22  1  0  0  0  0
 21 23  1  0  0  0  0
 21 24  1  0  0  0  0
M  CHG  1  15  -1
M  END
$$$$

  -OEChem-03222214023D

 24 23  0     1  0  0  0  0  0999 V2000
   -2.4658   -3.4469   -0.1632 H   0  0  0  0  0  0  0  0  0  0  0  0
   -2.3993   -2.4254   -0.5471 C   0  0  0  0  0  0  0  0  0  0  0  0
   -2.9401   -1.7580    0.1289 H   0  0  0  0  0  0  0  0  0  0  0  0
   -2.8657   -2.3855   -1.5344 H   0  0  0  0  0  0  0  0  0  0  0  0
   -0.9477   -1.9928   -0.6440 C   0  0  0  0  0  0  0  0  0  0  0  0
   -0.0577   -2.7904   -0.3940 O   0  0  0  0  0  0  0  0  0  0  0  0
   -0.6580   -0.7084   -1.0414 N   0  0  0  0  0  0  0  0  0  0  0  0
   -1.4576   -0.0660   -1.1075 H   0  0  0  0  0  0  0  0  0  0  0  0
    0.6388   -0.0477   -0.8537 C   0  0  1  0  0  0  0  0  0  0  0  0
    1.4121   -0.6208   -1.3749 H   0  0  0  0  0  0  0  0  0  0  0  0
    0.5224    1.3487   -1.5051 C   0  0  0  0  0  0  0  0  0  0  0  0
    1.4798    1.8699   -1.4139 H   0  0  0  0  0  0  0  0  0  0  0  0
    0.3066    1.2365   -2.5706 H   0  0  0  0  0  0  0  0  0  0  0  0
   -0.5765    2.2075   -0.8763 C   0  0  0  0  0  0  0  0  0  0  0  0
   -1.7562    1.7662   -0.9220 O   0  5  0  0  0  0  0  0  0  0  0  0
   -0.2372    3.2544   -0.2828 O   0  0  0  0  0  0  0  0  0  0  0  0
    1.0592    0.0677    0.6329 C   0  0  0  0  0  0  0  0  0  0  0  0
    2.2163   -0.1656    0.9706 O   0  0  0  0  0  0  0  0  0  0  0  0
    0.1395    0.4818    1.5819 N   0  0  0  0  0  0  0  0  0  0  0  0
   -0.7006    0.9189    1.2009 H   0  0  0  0  0  0  0  0  0  0  0  0
    0.5213    0.8254    2.9422 C   0  0  0  0  0  0  0  0  0  0  0  0
    1.2011    1.6834    2.9421 H   0  0  0  0  0  0  0  0  0  0  0  0
   -0.3671    1.0848    3.5252 H   0  0  0  0  0  0  0  0  0  0  0  0
    1.0170   -0.0212    3.4278 H   0  0  0  0  0  0  0  0  0  0  0  0
  1  2  1  0  0  0  0
  2  3  1  0  0  0  0
  2  4  1  0  0  0  0
  2  5  1  0  0  0  0
  5  6  2  0  0  0  0
  5  7  1  0  0  0  0
  7  8  1  0  0  0  0
  7  9  1  0  0  0  0
  9 10  1  0  0  0  0
  9 11  1  0  0  0  0
  9 17  1  0  0  0  0
 11 12  1  0  0  0  0
 11 13  1  0  0  0  0
 11 14  1  0  0  0  0
 14 15  1  0  0  0  0
 14 16  2  0  0  0  0
 17 18  2  0  0  0  0
 17 19  1  0  0  0  0
 19 20  1  0  0  0  0
 19 21  1  0  0  0  0
 21 22  1  0  0  0  0
 21 23  1  0  0  0  0
 21 24  1  0  0  0  0
M  CHG  1  15  -1
M  END
$$$$

  -OEChem-03222214023D

 24 23  0     1  0  0  0  0  0999 V2000
   -2.4192   -3.4449   -0.0837 H   0  0  0  0  0  0  0  0  0  0  0  0
   -2.3731   -2.4288   -0.4848 C   0  0  0  0  0  0  0  0  0  0  0  0
   -2.8831   -1.7531    0.2068 H   0  0  0  0  0  0  0  0  0  0  0  0
   -2.8855   -2.4037   -1.4494 H   0  0  0  0  0  0  0  0  0  0  0  0
   -0.9284   -1.9960   -0.6563 C   0  0  0  0  0  0  0  0  0  0  0  0
   -0.0276   -2.7968   -0.4604 O   0  0  0  0  0  0  0  0  0  0  0  0
   -0.6568   -0.7084   -1.0578 N   0  0  0  0  0  0  0  0  0  0  0  0
   -1.4564   -0.0639   -1.0417 H   0  0  0  0  0  0  0  0  0  0  0  0
    0.6414   -0.0473   -0.8784 C   0  0  1  0  0  0  0  0  0  0  0  0
    1.4139   -0.6160   -1.4055 H   0  0  0  0  0  0  0  0  0  0  0  0
    0.5328    1.3637   -1.5031 C   0  0  0  0  0  0  0  0  0  0  0  0
    1.5006    1.8654   -1.4124 H   0  0  0  0  0  0  0  0  0  0  0  0
    0.3082    1.2666   -2.5680 H   0  0  0  0  0  0  0  0  0  0  0  0
   -0.5444    2.2509   -0.8684 C   0  0  0  0  0  0  0  0  0  0  0  0
   -1.6779    1.7443   -0.6430 O   0  5  0  0  0  0  0  0  0  0  0  0
   -0.2350    3.4330   -0.6014 O   0  0  0  0  0  0  0  0  0  0  0  0
    1.0518    0.0529    0.6114 C   0  0  0  0  0  0  0  0  0  0  0  0
    2.2078   -0.1663    0.9607 O   0  0  0  0  0  0  0  0  0  0  0  0
    0.1164    0.4590    1.5481 N   0  0  0  0  0  0  0  0  0  0  0  0
   -0.7344    0.8691    1.1541 H   0  0  0  0  0  0  0  0  0  0  0  0
    0.4667    0.7929    2.9190 C   0  0  0  0  0  0  0  0  0  0  0  0
    1.1474    1.6499    2.9403 H   0  0  0  0  0  0  0  0  0  0  0  0
   -0.4349    1.0491    3.4831 H   0  0  0  0  0  0  0  0  0  0  0  0
    0.9501   -0.0582    3.4093 H   0  0  0  0  0  0  0  0  0  0  0  0
  1  2  1  0  0  0  0
  2  3  1  0  0  0  0
  2  4  1  0  0  0  0
  2  5  1  0  0  0  0
  5  6  2  0  0  0  0
  5  7  1  0  0  0  0
  7  8  1  0  0  0  0
  7  9  1  0  0  0  0
  9 10  1  0  0  0  0
  9 11  1  0  0  0  0
  9 17  1  0  0  0  0
 11 12  1  0  0  0  0
 11 13  1  0  0  0  0
 11 14  1  0  0  0  0
 14 15  1  0  0  0  0
 14 16  2  0  0  0  0
 17 18  2  0  0  0  0
 17 19  1  0  0  0  0
 19 20  1  0  0  0  0
 19 21  1  0  0  0  0
 21 22  1  0  0  0  0
 21 23  1  0  0  0  0
 21 24  1  0  0  0  0
M  CHG  1  15  -1
M  END
$$$$

  -OEChem-03222214023D

 24 23  0     1  0  0  0  0  0999 V2000
   -2.4019   -3.4595   -0.0986 H   0  0  0  0  0  0  0  0  0  0  0  0
   -2.3651   -2.4325   -0.4719 C   0  0  0  0  0  0  0  0  0  0  0  0
   -2.8477   -1.7750    0.2560 H   0  0  0  0  0  0  0  0  0  0  0  0
   -2.9107   -2.3782   -1.4170 H   0  0  0  0  0  0  0  0  0  0  0  0
   -0.9252   -2.0000   -0.6809 C   0  0  0  0  0  0  0  0  0  0  0  0
   -0.0204   -2.8051   -0.5250 O   0  0  0  0  0  0  0  0  0  0  0  0
   -0.6627   -0.7066   -1.0699 N   0  0  0  0  0  0  0  0  0  0  0  0
   -1.4594   -0.0637   -0.9955 H   0  0  0  0  0  0  0  0  0  0  0  0
    0.6336   -0.0474   -0.8717 C   0  0  1  0  0  0  0  0  0  0  0  0
    1.4088   -0.6151   -1.3967 H   0  0  0  0  0  0  0  0  0  0  0  0
    0.5353    1.3644   -1.4971 C   0  0  0  0  0  0  0  0  0  0  0  0
    1.5031    1.8626   -1.3898 H   0  0  0  0  0  0  0  0  0  0  0  0
    0.3302    1.2639   -2.5659 H   0  0  0  0  0  0  0  0  0  0  0  0
   -0.5456    2.2706   -0.8936 C   0  0  0  0  0  0  0  0  0  0  0  0
   -1.5884    1.7380   -0.4195 O   0  5  0  0  0  0  0  0  0  0  0  0
   -0.3389    3.5037   -0.9306 O   0  0  0  0  0  0  0  0  0  0  0  0
    1.0435    0.0429    0.6194 C   0  0  0  0  0  0  0  0  0  0  0  0
    2.2023   -0.1660    0.9658 O   0  0  0  0  0  0  0  0  0  0  0  0
    0.1093    0.4414    1.5593 N   0  0  0  0  0  0  0  0  0  0  0  0
   -0.7372    0.8612    1.1590 H   0  0  0  0  0  0  0  0  0  0  0  0
    0.4622    0.7850    2.9269 C   0  0  0  0  0  0  0  0  0  0  0  0
    1.1386    1.6455    2.9410 H   0  0  0  0  0  0  0  0  0  0  0  0
   -0.4390    1.0403    3.4918 H   0  0  0  0  0  0  0  0  0  0  0  0
    0.9514   -0.0604    3.4212 H   0  0  0  0  0  0  0  0  0  0  0  0
  1  2  1  0  0  0  0
  2  3  1  0  0  0  0
  2  4  1  0  0  0  0
  2  5  1  0  0  0  0
  5  6  2  0  0  0  0
  5  7  1  0  0  0  0
  7  8  1  0  0  0  0
  7  9  1  0  0  0  0
  9 10  1  0  0  0  0
  9 11  1  0  0  0  0
  9 17  1  0  0  0  0
 11 12  1  0  0  0  0
 11 13  1  0  0  0  0
 11 14  1  0  0  0  0
 14 15  1  0  0  0  0
 14 16  2  0  0  0  0
 17 18  2  0  0  0  0
 17 19  1  0  0  0  0
 19 20  1  0  0  0  0
 19 21  1  0  0  0  0
 21 22  1  0  0  0  0
 21 23  1  0  0  0  0
 21 24  1  0  0  0  0
M  CHG  1  15  -1
M  END
$$$$

  -OEChem-03222214023D

 24 23  0     1  0  0  0  0  0999 V2000
   -2.3930   -3.4601   -0.1047 H   0  0  0  0  0  0  0  0  0  0  0  0
   -2.3647   -2.4350   -0.4842 C   0  0  0  0  0  0  0  0  0  0  0  0
   -2.8524   -1.7774    0.2403 H   0  0  0  0  0  0  0  0  0  0  0  0
   -2.9108   -2.3907   -1.4294 H   0  0  0  0  0  0  0  0  0  0  0  0
   -0.9284   -1.9922   -0.6959 C   0  0  0  0  0  0  0  0  0  0  0  0
   -0.0195   -2.7953   -0.5537 O   0  0  0  0  0  0  0  0  0  0  0  0
   -0.6755   -0.6916   -1.0675 N   0  0  0  0  0  0  0  0  0  0  0  0
   -1.4729   -0.0557   -0.9653 H   0  0  0  0  0  0  0  0  0  0  0  0
    0.6153   -0.0302   -0.8462 C   0  0  1  0  0  0  0  0  0  0  0  0
    1.3918   -0.6044   -1.3620 H   0  0  0  0  0  0  0  0  0  0  0  0
    0.5283    1.3634   -1.5098 C   0  0  0  0  0  0  0  0  0  0  0  0
    1.4896    1.8696   -1.3849 H   0  0  0  0  0  0  0  0  0  0  0  0
    0.3582    1.2317   -2.5814 H   0  0  0  0  0  0  0  0  0  0  0  0
   -0.5714    2.2868   -0.9720 C   0  0  0  0  0  0  0  0  0  0  0  0
   -1.4945    1.7923   -0.2655 O   0  5  0  0  0  0  0  0  0  0  0  0
   -0.5070    3.4911   -1.3051 O   0  0  0  0  0  0  0  0  0  0  0  0
    1.0380    0.0573    0.6429 C   0  0  0  0  0  0  0  0  0  0  0  0
    2.2010   -0.1561    0.9736 O   0  0  0  0  0  0  0  0  0  0  0  0
    0.1209    0.4450    1.6021 N   0  0  0  0  0  0  0  0  0  0  0  0
   -0.7193    0.8911    1.2149 H   0  0  0  0  0  0  0  0  0  0  0  0
    0.4903    0.7556    2.9733 C   0  0  0  0  0  0  0  0  0  0  0  0
    1.1751    1.6089    3.0003 H   0  0  0  0  0  0  0  0  0  0  0  0
   -0.4031    1.0066    3.5524 H   0  0  0  0  0  0  0  0  0  0  0  0
    0.9757   -0.1052    3.4438 H   0  0  0  0  0  0  0  0  0  0  0  0
  1  2  1  0  0  0  0
  2  3  1  0  0  0  0
  2  4  1  0  0  0  0
  2  5  1  0  0  0  0
  5  6  2  0  0  0  0
  5  7  1  0  0  0  0
  7  8  1  0  0  0  0
  7  9  1  0  0  0  0
  9 10  1  0  0  0  0
  9 11  1  0  0  0  0
  9 17  1  0  0  0  0
 11 12  1  0  0  0  0
 11 13  1  0  0  0  0
 11 14  1  0  0  0  0
 14 15  1  0  0  0  0
 14 16  2  0  0  0  0
 17 18  2  0  0  0  0
 17 19  1  0  0  0  0
 19 20  1  0  0  0  0
 19 21  1  0  0  0  0
 21 22  1  0  0  0  0
 21 23  1  0  0  0  0
 21 24  1  0  0  0  0
M  CHG  1  15  -1
M  END
$$$$

  -OEChem-03222214023D

 24 23  0     1  0  0  0  0  0999 V2000
   -2.4065   -3.4992   -0.2300 H   0  0  0  0  0  0  0  0  0  0  0  0
   -2.3781   -2.4475   -0.5281 C   0  0  0  0  0  0  0  0  0  0  0  0
   -2.8727   -1.8492    0.2416 H   0  0  0  0  0  0  0  0  0  0  0  0
   -2.9180   -2.3319   -1.4712 H   0  0  0  0  0  0  0  0  0  0  0  0
   -0.9412   -1.9870   -0.6947 C   0  0  0  0  0  0  0  0  0  0  0  0
   -0.0283   -2.7824   -0.5370 O   0  0  0  0  0  0  0  0  0  0  0  0
   -0.6935   -0.6799   -1.0477 N   0  0  0  0  0  0  0  0  0  0  0  0
   -1.4967   -0.0541   -0.9527 H   0  0  0  0  0  0  0  0  0  0  0  0
    0.5914   -0.0137   -0.8089 C   0  0  1  0  0  0  0  0  0  0  0  0
    1.3675   -0.5987   -1.3137 H   0  0  0  0  0  0  0  0  0  0  0  0
    0.5186    1.3565   -1.5194 C   0  0  0  0  0  0  0  0  0  0  0  0
    1.4723    1.8726   -1.3805 H   0  0  0  0  0  0  0  0  0  0  0  0
    0.3840    1.1885   -2.5913 H   0  0  0  0  0  0  0  0  0  0  0  0
   -0.5993    2.2916   -1.0470 C   0  0  0  0  0  0  0  0  0  0  0  0
   -1.3799    1.9060   -0.1346 O   0  5  0  0  0  0  0  0  0  0  0  0
   -0.7015    3.3859   -1.6456 O   0  0  0  0  0  0  0  0  0  0  0  0
    1.0330    0.0741    0.6764 C   0  0  0  0  0  0  0  0  0  0  0  0
    2.2017   -0.1415    0.9857 O   0  0  0  0  0  0  0  0  0  0  0  0
    0.1376    0.4505    1.6595 N   0  0  0  0  0  0  0  0  0  0  0  0
   -0.6908    0.9316    1.2882 H   0  0  0  0  0  0  0  0  0  0  0  0
    0.5412    0.7488    3.0241 C   0  0  0  0  0  0  0  0  0  0  0  0
    1.2190    1.6080    3.0426 H   0  0  0  0  0  0  0  0  0  0  0  0
   -0.3386    0.9849    3.6297 H   0  0  0  0  0  0  0  0  0  0  0  0
    1.0467   -0.1129    3.4718 H   0  0  0  0  0  0  0  0  0  0  0  0
  1  2  1  0  0  0  0
  2  3  1  0  0  0  0
  2  4  1  0  0  0  0
  2  5  1  0  0  0  0
  5  6  2  0  0  0  0
  5  7  1  0  0  0  0
  7  8  1  0  0  0  0
  7  9  1  0  0  0  0
  9 10  1  0  0  0  0
  9 11  1  0  0  0  0
  9 17  1  0  0  0  0
 11 12  1  0  0  0  0
 11 13  1  0  0  0  0
 11 14  1  0  0  0  0
 14 15  1  0  0  0  0
 14 16  2  0  0  0  0
 17 18  2  0  0  0  0
 17 19  1  0  0  0  0
 19 20  1  0  0  0  0
 19 21  1  0  0  0  0
 21 22  1  0  0  0  0
 21 23  1  0  0  0  0
 21 24  1  0  0  0  0
M  CHG  1  15  -1
M  END
$$$$

  -OEChem-03222214023D

 24 23  0     1  0  0  0  0  0999 V2000
   -2.4104   -3.5102   -0.2692 H   0  0  0  0  0  0  0  0  0  0  0  0
   -2.3865   -2.4557   -0.5574 C   0  0  0  0  0  0  0  0  0  0  0  0
   -2.9069   -1.8698    0.2046 H   0  0  0  0  0  0  0  0  0  0  0  0
   -2.9039   -2.3382   -1.5126 H   0  0  0  0  0  0  0  0  0  0  0  0
   -0.9513   -1.9777   -0.6842 C   0  0  0  0  0  0  0  0  0  0  0  0
   -0.0347   -2.7645   -0.5078 O   0  0  0  0  0  0  0  0  0  0  0  0
   -0.7098   -0.6662   -1.0261 N   0  0  0  0  0  0  0  0  0  0  0  0
   -1.5216   -0.0514   -0.9680 H   0  0  0  0  0  0  0  0  0  0  0  0
    0.5715    0.0065   -0.7843 C   0  0  1  0  0  0  0  0  0  0  0  0
    1.3452   -0.5865   -1.2837 H   0  0  0  0  0  0  0  0  0  0  0  0
    0.5082    1.3572   -1.5307 C   0  0  0  0  0  0  0  0  0  0  0  0
    1.4571    1.8801   -1.3873 H   0  0  0  0  0  0  0  0  0  0  0  0
    0.3952    1.1606   -2.6004 H   0  0  0  0  0  0  0  0  0  0  0  0
   -0.6187    2.2996   -1.0998 C   0  0  0  0  0  0  0  0  0  0  0  0
   -1.2318    2.0807   -0.0233 O   0  5  0  0  0  0  0  0  0  0  0  0
   -0.9118    3.2147   -1.9021 O   0  0  0  0  0  0  0  0  0  0  0  0
    1.0302    0.0935    0.6972 C   0  0  0  0  0  0  0  0  0  0  0  0
    2.2005   -0.1381    0.9896 O   0  0  0  0  0  0  0  0  0  0  0  0
    0.1518    0.4594    1.6992 N   0  0  0  0  0  0  0  0  0  0  0  0
   -0.6549    0.9868    1.3439 H   0  0  0  0  0  0  0  0  0  0  0  0
    0.5810    0.7265    3.0626 C   0  0  0  0  0  0  0  0  0  0  0  0
    1.2726    1.5746    3.0861 H   0  0  0  0  0  0  0  0  0  0  0  0
   -0.2855    0.9648    3.6863 H   0  0  0  0  0  0  0  0  0  0  0  0
    1.0796   -0.1507    3.4867 H   0  0  0  0  0  0  0  0  0  0  0  0
  1  2  1  0  0  0  0
  2  3  1  0  0  0  0
  2  4  1  0  0  0  0
  2  5  1  0  0  0  0
  5  6  2  0  0  0  0
  5  7  1  0  0  0  0
  7  8  1  0  0  0  0
  7  9  1  0  0  0  0
  9 10  1  0  0  0  0
  9 11  1  0  0  0  0
  9 17  1  0  0  0  0
 11 12  1  0  0  0  0
 11 13  1  0  0  0  0
 11 14  1  0  0  0  0
 14 15  1  0  0  0  0
 14 16  2  0  0  0  0
 17 18  2  0  0  0  0
 17 19  1  0  0  0  0
 19 20  1  0  0  0  0
 19 21  1  0  0  0  0
 21 22  1  0  0  0  0
 21 23  1  0  0  0  0
 21 24  1  0  0  0  0
M  CHG  1  15  -1
M  END
$$$$

  -OEChem-03222214023D

 24 23  0     1  0  0  0  0  0999 V2000
   -2.4285   -3.5022   -0.2727 H   0  0  0  0  0  0  0  0  0  0  0  0
   -2.3985   -2.4549   -0.5861 C   0  0  0  0  0  0  0  0  0  0  0  0
   -2.9554   -1.8546    0.1379 H   0  0  0  0  0  0  0  0  0  0  0  0
   -2.8743   -2.3648   -1.5658 H   0  0  0  0  0  0  0  0  0  0  0  0
   -0.9619   -1.9700   -0.6617 C   0  0  0  0  0  0  0  0  0  0  0  0
   -0.0491   -2.7508   -0.4456 O   0  0  0  0  0  0  0  0  0  0  0  0
   -0.7154   -0.6591   -1.0027 N   0  0  0  0  0  0  0  0  0  0  0  0
   -1.5320   -0.0509   -1.0190 H   0  0  0  0  0  0  0  0  0  0  0  0
    0.5662    0.0176   -0.7693 C   0  0  1  0  0  0  0  0  0  0  0  0
    1.3371   -0.5802   -1.2674 H   0  0  0  0  0  0  0  0  0  0  0  0
    0.4978    1.3556   -1.5371 C   0  0  0  0  0  0  0  0  0  0  0  0
    1.4436    1.8855   -1.3994 H   0  0  0  0  0  0  0  0  0  0  0  0
    0.3907    1.1417   -2.6044 H   0  0  0  0  0  0  0  0  0  0  0  0
   -0.6332    2.2968   -1.1162 C   0  0  0  0  0  0  0  0  0  0  0  0
   -1.0514    2.2772    0.0673 O   0  5  0  0  0  0  0  0  0  0  0  0
   -1.1539    2.9730   -2.0325 O   0  0  0  0  0  0  0  0  0  0  0  0
    1.0365    0.1089    0.7089 C   0  0  0  0  0  0  0  0  0  0  0  0
    2.2056   -0.1408    0.9922 O   0  0  0  0  0  0  0  0  0  0  0  0
    0.1676    0.4738    1.7194 N   0  0  0  0  0  0  0  0  0  0  0  0
   -0.6102    1.0482    1.3727 H   0  0  0  0  0  0  0  0  0  0  0  0
    0.6117    0.7133    3.0832 C   0  0  0  0  0  0  0  0  0  0  0  0
    1.3129    1.5532    3.1140 H   0  0  0  0  0  0  0  0  0  0  0  0
   -0.2468    0.9514    3.7179 H   0  0  0  0  0  0  0  0  0  0  0  0
    1.1040   -0.1764    3.4892 H   0  0  0  0  0  0  0  0  0  0  0  0
  1  2  1  0  0  0  0
  2  3  1  0  0  0  0
  2  4  1  0  0  0  0
  2  5  1  0  0  0  0
  5  6  2  0  0  0  0
  5  7  1  0  0  0  0
  7  8  1  0  0  0  0
  7  9  1  0  0  0  0
  9 10  1  0  0  0  0
  9 11  1  0  0  0  0
  9 17  1  0  0  0  0
 11 12  1  0  0  0  0
 11 13  1  0  0  0  0
 11 14  1  0  0  0  0
 14 15  1  0  0  0  0
 14 16  2  0  0  0  0
 17 18  2  0  0  0  0
 17 19  1  0  0  0  0
 19 20  1  0  0  0  0
 19 21  1  0  0  0  0
 21 22  1  0  0  0  0
 21 23  1  0  0  0  0
 21 24  1  0  0  0  0
M  CHG  1  15  -1
M  END
$$$$

  -OEChem-03222214023D

 24 23  0     1  0  0  0  0  0999 V2000
   -2.4679   -3.4770   -0.2795 H   0  0  0  0  0  0  0  0  0  0  0  0
   -2.4165   -2.4433   -0.6325 C   0  0  0  0  0  0  0  0  0  0  0  0
   -3.0219   -1.8158    0.0264 H   0  0  0  0  0  0  0  0  0  0  0  0
   -2.8240   -2.3937   -1.6453 H   0  0  0  0  0  0  0  0  0  0  0  0
   -0.9777   -1.9588   -0.6301 C   0  0  0  0  0  0  0  0  0  0  0  0
   -0.0798   -2.7361   -0.3481 O   0  0  0  0  0  0  0  0  0  0  0  0
   -0.7091   -0.6548   -0.9802 N   0  0  0  0  0  0  0  0  0  0  0  0
   -1.5164   -0.0486   -1.1166 H   0  0  0  0  0  0  0  0  0  0  0  0
    0.5774    0.0178   -0.7585 C   0  0  1  0  0  0  0  0  0  0  0  0
    1.3452   -0.5824   -1.2580 H   0  0  0  0  0  0  0  0  0  0  0  0
    0.4851    1.3469   -1.5370 C   0  0  0  0  0  0  0  0  0  0  0  0
    1.4252    1.8906   -1.4152 H   0  0  0  0  0  0  0  0  0  0  0  0
    0.3688    1.1275   -2.6025 H   0  0  0  0  0  0  0  0  0  0  0  0
   -0.6526    2.2682   -1.0928 C   0  0  0  0  0  0  0  0  0  0  0  0
   -0.8583    2.4596    0.1288 O   0  5  0  0  0  0  0  0  0  0  0  0
   -1.4377    2.6301   -1.9994 O   0  0  0  0  0  0  0  0  0  0  0  0
    1.0538    0.1229    0.7169 C   0  0  0  0  0  0  0  0  0  0  0  0
    2.2188   -0.1488    0.9985 O   0  0  0  0  0  0  0  0  0  0  0  0
    0.1918    0.5037    1.7277 N   0  0  0  0  0  0  0  0  0  0  0  0
   -0.5561    1.1171    1.3827 H   0  0  0  0  0  0  0  0  0  0  0  0
    0.6435    0.7227    3.0925 C   0  0  0  0  0  0  0  0  0  0  0  0
    1.3738    1.5373    3.1271 H   0  0  0  0  0  0  0  0  0  0  0  0
   -0.2065    0.9882    3.7278 H   0  0  0  0  0  0  0  0  0  0  0  0
    1.1039   -0.1853    3.4948 H   0  0  0  0  0  0  0  0  0  0  0  0
  1  2  1  0  0  0  0
  2  3  1  0  0  0  0
  2  4  1  0  0  0  0
  2  5  1  0  0  0  0
  5  6  2  0  0  0  0
  5  7  1  0  0  0  0
  7  8  1  0  0  0  0
  7  9  1  0  0  0  0
  9 10  1  0  0  0  0
  9 11  1  0  0  0  0
  9 17  1  0  0  0  0
 11 12  1  0  0  0  0
 11 13  1  0  0  0  0
 11 14  1  0  0  0  0
 14 15  1  0  0  0  0
 14 16  2  0  0  0  0
 17 18  2  0  0  0  0
 17 19  1  0  0  0  0
 19 20  1  0  0  0  0
 19 21  1  0  0  0  0
 21 22  1  0  0  0  0
 21 23  1  0  0  0  0
 21 24  1  0  0  0  0
M  CHG  1  15  -1
M  END
$$$$

  -OEChem-03222214023D

 24 23  0     1  0  0  0  0  0999 V2000
   -2.5120   -3.4449   -0.3209 H   0  0  0  0  0  0  0  0  0  0  0  0
   -2.4323   -2.4140   -0.6767 C   0  0  0  0  0  0  0  0  0  0  0  0
   -3.0585   -1.7750   -0.0489 H   0  0  0  0  0  0  0  0  0  0  0  0
   -2.7936   -2.3658   -1.7068 H   0  0  0  0  0  0  0  0  0  0  0  0
   -0.9897   -1.9453   -0.6119 C   0  0  0  0  0  0  0  0  0  0  0  0
   -0.1149   -2.7262   -0.2723 O   0  0  0  0  0  0  0  0  0  0  0  0
   -0.6879   -0.6530   -0.9755 N   0  0  0  0  0  0  0  0  0  0  0  0
   -1.4741   -0.0407   -1.2054 H   0  0  0  0  0  0  0  0  0  0  0  0
    0.6054    0.0079   -0.7570 C   0  0  1  0  0  0  0  0  0  0  0  0
    1.3745   -0.5902   -1.2567 H   0  0  0  0  0  0  0  0  0  0  0  0
    0.4765    1.3307   -1.5375 C   0  0  0  0  0  0  0  0  0  0  0  0
    1.4056    1.8972   -1.4349 H   0  0  0  0  0  0  0  0  0  0  0  0
    0.3396    1.1171   -2.6017 H   0  0  0  0  0  0  0  0  0  0  0  0
   -0.6748    2.2052   -1.0446 C   0  0  0  0  0  0  0  0  0  0  0  0
   -0.6847    2.6072    0.1417 O   0  5  0  0  0  0  0  0  0  0  0  0
   -1.6858    2.1935   -1.7871 O   0  0  0  0  0  0  0  0  0  0  0  0
    1.0735    0.1310    0.7191 C   0  0  0  0  0  0  0  0  0  0  0  0
    2.2309   -0.1616    1.0118 O   0  0  0  0  0  0  0  0  0  0  0  0
    0.2103    0.5387    1.7189 N   0  0  0  0  0  0  0  0  0  0  0  0
   -0.5133    1.1751    1.3647 H   0  0  0  0  0  0  0  0  0  0  0  0
    0.6577    0.7565    3.0852 C   0  0  0  0  0  0  0  0  0  0  0  0
    1.4073    1.5534    3.1195 H   0  0  0  0  0  0  0  0  0  0  0  0
   -0.1898    1.0474    3.7126 H   0  0  0  0  0  0  0  0  0  0  0  0
    1.0931   -0.1596    3.4971 H   0  0  0  0  0  0  0  0  0  0  0  0
  1  2  1  0  0  0  0
  2  3  1  0  0  0  0
  2  4  1  0  0  0  0
  2  5  1  0  0  0  0
  5  6  2  0  0  0  0
  5  7  1  0  0  0  0
  7  8  1  0  0  0  0
  7  9  1  0  0  0  0
  9 10  1  0  0  0  0
  9 11  1  0  0  0  0
  9 17  1  0  0  0  0
 11 12  1  0  0  0  0
 11 13  1  0  0  0  0
 11 14  1  0  0  0  0
 14 15  1  0  0  0  0
 14 16  2  0  0  0  0
 17 18  2  0  0  0  0
 17 19  1  0  0  0  0
 19 20  1  0  0  0  0
 19 21  1  0  0  0  0
 21 22  1  0  0  0  0
 21 23  1  0  0  0  0
 21 24  1  0  0  0  0
M  CHG  1  15  -1
M  END
$$$$

  -OEChem-03222214023D

 24 23  0     1  0  0  0  0  0999 V2000
   -2.5122   -3.4236   -0.2671 H   0  0  0  0  0  0  0  0  0  0  0  0
   -2.4249   -2.4030   -0.6495 C   0  0  0  0  0  0  0  0  0  0  0  0
   -3.0321   -1.7400   -0.0280 H   0  0  0  0  0  0  0  0  0  0  0  0
   -2.8027   -2.3743   -1.6743 H   0  0  0  0  0  0  0  0  0  0  0  0
   -0.9758   -1.9515   -0.6198 C   0  0  0  0  0  0  0  0  0  0  0  0
   -0.1028   -2.7390   -0.2901 O   0  0  0  0  0  0  0  0  0  0  0  0
   -0.6665   -0.6668   -1.0015 N   0  0  0  0  0  0  0  0  0  0  0  0
   -1.4541   -0.0418   -1.2077 H   0  0  0  0  0  0  0  0  0  0  0  0
    0.6275   -0.0067   -0.7855 C   0  0  1  0  0  0  0  0  0  0  0  0
    1.4031   -0.5953   -1.2863 H   0  0  0  0  0  0  0  0  0  0  0  0
    0.4820    1.3309   -1.5390 C   0  0  0  0  0  0  0  0  0  0  0  0
    1.4075    1.9047   -1.4419 H   0  0  0  0  0  0  0  0  0  0  0  0
    0.3199    1.1441   -2.6045 H   0  0  0  0  0  0  0  0  0  0  0  0
   -0.6719    2.1659   -0.9912 C   0  0  0  0  0  0  0  0  0  0  0  0
   -0.5311    2.7591    0.1027 O   0  5  0  0  0  0  0  0  0  0  0  0
   -1.7839    1.9394   -1.5314 O   0  0  0  0  0  0  0  0  0  0  0  0
    1.0756    0.1325    0.6945 C   0  0  0  0  0  0  0  0  0  0  0  0
    2.2213   -0.1792    1.0119 O   0  0  0  0  0  0  0  0  0  0  0  0
    0.1953    0.5572    1.6733 N   0  0  0  0  0  0  0  0  0  0  0  0
   -0.5086    1.2068    1.3058 H   0  0  0  0  0  0  0  0  0  0  0  0
    0.6198    0.7731    3.0472 C   0  0  0  0  0  0  0  0  0  0  0  0
    1.3854    1.5542    3.0923 H   0  0  0  0  0  0  0  0  0  0  0  0
   -0.2337    1.0854    3.6559 H   0  0  0  0  0  0  0  0  0  0  0  0
    1.0275   -0.1496    3.4722 H   0  0  0  0  0  0  0  0  0  0  0  0
  1  2  1  0  0  0  0
  2  3  1  0  0  0  0
  2  4  1  0  0  0  0
  2  5  1  0  0  0  0
  5  6  2  0  0  0  0
  5  7  1  0  0  0  0
  7  8  1  0  0  0  0
  7  9  1  0  0  0  0
  9 10  1  0  0  0  0
  9 11  1  0  0  0  0
  9 17  1  0  0  0  0
 11 12  1  0  0  0  0
 11 13  1  0  0  0  0
 11 14  1  0  0  0  0
 14 15  1  0  0  0  0
 14 16  2  0  0  0  0
 17 18  2  0  0  0  0
 17 19  1  0  0  0  0
 19 20  1  0  0  0  0
 19 21  1  0  0  0  0
 21 22  1  0  0  0  0
 21 23  1  0  0  0  0
 21 24  1  0  0  0  0
M  CHG  1  15  -1
M  END
$$$$

  -OEChem-03222214023D

 24 23  0     1  0  0  0  0  0999 V2000
   -2.4946   -3.4298   -0.2216 H   0  0  0  0  0  0  0  0  0  0  0  0
   -2.4131   -2.4112   -0.6104 C   0  0  0  0  0  0  0  0  0  0  0  0
   -2.9963   -1.7422    0.0278 H   0  0  0  0  0  0  0  0  0  0  0  0
   -2.8224   -2.3831   -1.6231 H   0  0  0  0  0  0  0  0  0  0  0  0
   -0.9612   -1.9692   -0.6286 C   0  0  0  0  0  0  0  0  0  0  0  0
   -0.0822   -2.7606   -0.3250 O   0  0  0  0  0  0  0  0  0  0  0  0
   -0.6575   -0.6880   -1.0254 N   0  0  0  0  0  0  0  0  0  0  0  0
   -1.4527   -0.0557   -1.1792 H   0  0  0  0  0  0  0  0  0  0  0  0
    0.6356   -0.0252   -0.8171 C   0  0  1  0  0  0  0  0  0  0  0  0
    1.4143   -0.6053   -1.3225 H   0  0  0  0  0  0  0  0  0  0  0  0
    0.4951    1.3368   -1.5288 C   0  0  0  0  0  0  0  0  0  0  0  0
    1.4282    1.8983   -1.4313 H   0  0  0  0  0  0  0  0  0  0  0  0
    0.3104    1.1848   -2.5958 H   0  0  0  0  0  0  0  0  0  0  0  0
   -0.6460    2.1597   -0.9369 C   0  0  0  0  0  0  0  0  0  0  0  0
   -0.3954    2.9318    0.0155 O   0  5  0  0  0  0  0  0  0  0  0  0
   -1.8062    1.8293   -1.2952 O   0  0  0  0  0  0  0  0  0  0  0  0
    1.0684    0.1209    0.6658 C   0  0  0  0  0  0  0  0  0  0  0  0
    2.2103   -0.1854    0.9998 O   0  0  0  0  0  0  0  0  0  0  0  0
    0.1716    0.5517    1.6283 N   0  0  0  0  0  0  0  0  0  0  0  0
   -0.5544    1.1670    1.2521 H   0  0  0  0  0  0  0  0  0  0  0  0
    0.5775    0.7918    3.0037 C   0  0  0  0  0  0  0  0  0  0  0  0
    1.3356    1.5803    3.0463 H   0  0  0  0  0  0  0  0  0  0  0  0
   -0.2857    1.1058    3.5976 H   0  0  0  0  0  0  0  0  0  0  0  0
    0.9879   -0.1209    3.4474 H   0  0  0  0  0  0  0  0  0  0  0  0
  1  2  1  0  0  0  0
  2  3  1  0  0  0  0
  2  4  1  0  0  0  0
  2  5  1  0  0  0  0
  5  6  2  0  0  0  0
  5  7  1  0  0  0  0
  7  8  1  0  0  0  0
  7  9  1  0  0  0  0
  9 10  1  0  0  0  0
  9 11  1  0  0  0  0
  9 17  1  0  0  0  0
 11 12  1  0  0  0  0
 11 13  1  0  0  0  0
 11 14  1  0  0  0  0
 14 15  1  0  0  0  0
 14 16  2  0  0  0  0
 17 18  2  0  0  0  0
 17 19  1  0  0  0  0
 19 20  1  0  0  0  0
 19 21  1  0  0  0  0
 21 22  1  0  0  0  0
 21 23  1  0  0  0  0
 21 24  1  0  0  0  0
M  CHG  1  15  -1
M  END
$$$$

  -OEChem-03222214023D

 24 23  0     1  0  0  0  0  0999 V2000
   -2.4726   -3.4402   -0.1744 H   0  0  0  0  0  0  0  0  0  0  0  0
   -2.4031   -2.4228   -0.5690 C   0  0  0  0  0  0  0  0  0  0  0  0
   -2.9582   -1.7501    0.0900 H   0  0  0  0  0  0  0  0  0  0  0  0
   -2.8521   -2.3963   -1.5649 H   0  0  0  0  0  0  0  0  0  0  0  0
   -0.9515   -1.9861   -0.6457 C   0  0  0  0  0  0  0  0  0  0  0  0
   -0.0636   -2.7828   -0.3855 O   0  0  0  0  0  0  0  0  0  0  0  0
   -0.6582   -0.7021   -1.0415 N   0  0  0  0  0  0  0  0  0  0  0  0
   -1.4573   -0.0620   -1.1310 H   0  0  0  0  0  0  0  0  0  0  0  0
    0.6372   -0.0413   -0.8438 C   0  0  1  0  0  0  0  0  0  0  0  0
    1.4134   -0.6162   -1.3592 H   0  0  0  0  0  0  0  0  0  0  0  0
    0.5165    1.3473   -1.5100 C   0  0  0  0  0  0  0  0  0  0  0  0
    1.4669    1.8795   -1.4105 H   0  0  0  0  0  0  0  0  0  0  0  0
    0.3155    1.2301   -2.5779 H   0  0  0  0  0  0  0  0  0  0  0  0
   -0.5963    2.1936   -0.8916 C   0  0  0  0  0  0  0  0  0  0  0  0
   -0.2685    3.1302   -0.1307 O   0  5  0  0  0  0  0  0  0  0  0  0
   -1.7775    1.7828   -1.0425 O   0  0  0  0  0  0  0  0  0  0  0  0
    1.0577    0.0814    0.6432 C   0  0  0  0  0  0  0  0  0  0  0  0
    2.2080   -0.1828    0.9828 O   0  0  0  0  0  0  0  0  0  0  0  0
    0.1426    0.4997    1.5947 N   0  0  0  0  0  0  0  0  0  0  0  0
   -0.6604    1.0003    1.2114 H   0  0  0  0  0  0  0  0  0  0  0  0
    0.5344    0.8173    2.9584 C   0  0  0  0  0  0  0  0  0  0  0  0
    1.2372    1.6567    2.9670 H   0  0  0  0  0  0  0  0  0  0  0  0
   -0.3466    1.0937    3.5448 H   0  0  0  0  0  0  0  0  0  0  0  0
    1.0072   -0.0479    3.4341 H   0  0  0  0  0  0  0  0  0  0  0  0
  1  2  1  0  0  0  0
  2  3  1  0  0  0  0
  2  4  1  0  0  0  0
  2  5  1  0  0  0  0
  5  6  2  0  0  0  0
  5  7  1  0  0  0  0
  7  8  1  0  0  0  0
  7  9  1  0  0  0  0
  9 10  1  0  0  0  0
  9 11  1  0  0  0  0
  9 17  1  0  0  0  0
 11 12  1  0  0  0  0
 11 13  1  0  0  0  0
 11 14  1  0  0  0  0
 14 15  1  0  0  0  0
 14 16  2  0  0  0  0
 17 18  2  0  0  0  0
 17 19  1  0  0  0  0
 19 20  1  0  0  0  0
 19 21  1  0  0  0  0
 21 22  1  0  0  0  0
 21 23  1  0  0  0  0
 21 24  1  0  0  0  0
M  CHG  1  15  -1
M  END
$$$$

  -OEChem-03222214023D

 24 23  0     1  0  0  0  0  0999 V2000
   -2.4411   -3.4525   -0.1371 H   0  0  0  0  0  0  0  0  0  0  0  0
   -2.3846   -2.4288   -0.5170 C   0  0  0  0  0  0  0  0  0  0  0  0
   -2.9026   -1.7645    0.1796 H   0  0  0  0  0  0  0  0  0  0  0  0
   -2.8820   -2.3829   -1.4887 H   0  0  0  0  0  0  0  0  0  0  0  0
   -0.9360   -1.9977   -0.6570 C   0  0  0  0  0  0  0  0  0  0  0  0
   -0.0401   -2.7990   -0.4417 O   0  0  0  0  0  0  0  0  0  0  0  0
   -0.6558   -0.7115   -1.0560 N   0  0  0  0  0  0  0  0  0  0  0  0
   -1.4560   -0.0674   -1.0721 H   0  0  0  0  0  0  0  0  0  0  0  0
    0.6408   -0.0496   -0.8693 C   0  0  1  0  0  0  0  0  0  0  0  0
    1.4163   -0.6182   -1.3926 H   0  0  0  0  0  0  0  0  0  0  0  0
    0.5281    1.3570   -1.5027 C   0  0  0  0  0  0  0  0  0  0  0  0
    1.4913    1.8667   -1.4053 H   0  0  0  0  0  0  0  0  0  0  0  0
    0.3150    1.2612   -2.5701 H   0  0  0  0  0  0  0  0  0  0  0  0
   -0.5601    2.2316   -0.8719 C   0  0  0  0  0  0  0  0  0  0  0  0
   -0.2044    3.3106   -0.3494 O   0  5  0  0  0  0  0  0  0  0  0  0
   -1.7206    1.7476   -0.7772 O   0  0  0  0  0  0  0  0  0  0  0  0
    1.0517    0.0581    0.6203 C   0  0  0  0  0  0  0  0  0  0  0  0
    2.2055   -0.1753    0.9687 O   0  0  0  0  0  0  0  0  0  0  0  0
    0.1200    0.4676    1.5594 N   0  0  0  0  0  0  0  0  0  0  0  0
   -0.7170    0.9025    1.1654 H   0  0  0  0  0  0  0  0  0  0  0  0
    0.4835    0.8137    2.9240 C   0  0  0  0  0  0  0  0  0  0  0  0
    1.1609    1.6737    2.9314 H   0  0  0  0  0  0  0  0  0  0  0  0
   -0.4133    1.0712    3.4948 H   0  0  0  0  0  0  0  0  0  0  0  0
    0.9751   -0.0309    3.4170 H   0  0  0  0  0  0  0  0  0  0  0  0
  1  2  1  0  0  0  0
  2  3  1  0  0  0  0
  2  4  1  0  0  0  0
  2  5  1  0  0  0  0
  5  6  2  0  0  0  0
  5  7  1  0  0  0  0
  7  8  1  0  0  0  0
  7  9  1  0  0  0  0
  9 10  1  0  0  0  0
  9 11  1  0  0  0  0
  9 17  1  0  0  0  0
 11 12  1  0  0  0  0
 11 13  1  0  0  0  0
 11 14  1  0  0  0  0
 14 15  1  0  0  0  0
 14 16  2  0  0  0  0
 17 18  2  0  0  0  0
 17 19  1  0  0  0  0
 19 20  1  0  0  0  0
 19 21  1  0  0  0  0
 21 22  1  0  0  0  0
 21 23  1  0  0  0  0
 21 24  1  0  0  0  0
M  CHG  1  15  -1
M  END
$$$$

  -OEChem-03222214023D

 24 23  0     1  0  0  0  0  0999 V2000
   -2.4056   -3.4542   -0.0857 H   0  0  0  0  0  0  0  0  0  0  0  0
   -2.3656   -2.4332   -0.4748 C   0  0  0  0  0  0  0  0  0  0  0  0
   -2.8581   -1.7651    0.2366 H   0  0  0  0  0  0  0  0  0  0  0  0
   -2.8994   -2.3948   -1.4275 H   0  0  0  0  0  0  0  0  0  0  0  0
   -0.9238   -2.0015   -0.6721 C   0  0  0  0  0  0  0  0  0  0  0  0
   -0.0206   -2.8053   -0.5001 O   0  0  0  0  0  0  0  0  0  0  0  0
   -0.6584   -0.7114   -1.0700 N   0  0  0  0  0  0  0  0  0  0  0  0
   -1.4570   -0.0677   -1.0213 H   0  0  0  0  0  0  0  0  0  0  0  0
    0.6385   -0.0498   -0.8825 C   0  0  1  0  0  0  0  0  0  0  0  0
    1.4140   -0.6157   -1.4087 H   0  0  0  0  0  0  0  0  0  0  0  0
    0.5325    1.3650   -1.5004 C   0  0  0  0  0  0  0  0  0  0  0  0
    1.5012    1.8626   -1.3967 H   0  0  0  0  0  0  0  0  0  0  0  0
    0.3223    1.2794   -2.5691 H   0  0  0  0  0  0  0  0  0  0  0  0
   -0.5450    2.2596   -0.8741 C   0  0  0  0  0  0  0  0  0  0  0  0
   -0.2279    3.4412   -0.6141 O   0  5  0  0  0  0  0  0  0  0  0  0
   -1.6452    1.7329   -0.5492 O   0  0  0  0  0  0  0  0  0  0  0  0
    1.0445    0.0461    0.6089 C   0  0  0  0  0  0  0  0  0  0  0  0
    2.1993   -0.1741    0.9618 O   0  0  0  0  0  0  0  0  0  0  0  0
    0.1044    0.4489    1.5419 N   0  0  0  0  0  0  0  0  0  0  0  0
   -0.7369    0.8724    1.1377 H   0  0  0  0  0  0  0  0  0  0  0  0
    0.4516    0.7947    2.9104 C   0  0  0  0  0  0  0  0  0  0  0  0
    1.1340    1.6504    2.9262 H   0  0  0  0  0  0  0  0  0  0  0  0
   -0.4514    1.0583    3.4688 H   0  0  0  0  0  0  0  0  0  0  0  0
    0.9317   -0.0526    3.4100 H   0  0  0  0  0  0  0  0  0  0  0  0
  1  2  1  0  0  0  0
  2  3  1  0  0  0  0
  2  4  1  0  0  0  0
  2  5  1  0  0  0  0
  5  6  2  0  0  0  0
  5  7  1  0  0  0  0
  7  8  1  0  0  0  0
  7  9  1  0  0  0  0
  9 10  1  0  0  0  0
  9 11  1  0  0  0  0
  9 17  1  0  0  0  0
 11 12  1  0  0  0  0
 11 13  1  0  0  0  0
 11 14  1  0  0  0  0
 14 15  1  0  0  0  0
 14 16  2  0  0  0  0
 17 18  2  0  0  0  0
 17 19  1  0  0  0  0
 19 20  1  0  0  0  0
 19 21  1  0  0  0  0
 21 22  1  0  0  0  0
 21 23  1  0  0  0  0
 21 24  1  0  0  0  0
M  CHG  1  15  -1
M  END
$$$$

  -OEChem-03222214023D

 24 23  0     1  0  0  0  0  0999 V2000
   -2.3949   -3.4617   -0.0909 H   0  0  0  0  0  0  0  0  0  0  0  0
   -2.3621   -2.4357   -0.4676 C   0  0  0  0  0  0  0  0  0  0  0  0
   -2.8445   -1.7774    0.2597 H   0  0  0  0  0  0  0  0  0  0  0  0
   -2.9107   -2.3862   -1.4112 H   0  0  0  0  0  0  0  0  0  0  0  0
   -0.9239   -1.9999   -0.6813 C   0  0  0  0  0  0  0  0  0  0  0  0
   -0.0176   -2.8036   -0.5266 O   0  0  0  0  0  0  0  0  0  0  0  0
   -0.6651   -0.7058   -1.0707 N   0  0  0  0  0  0  0  0  0  0  0  0
   -1.4623   -0.0643   -0.9913 H   0  0  0  0  0  0  0  0  0  0  0  0
    0.6304   -0.0449   -0.8721 C   0  0  1  0  0  0  0  0  0  0  0  0
    1.4058   -0.6130   -1.3960 H   0  0  0  0  0  0  0  0  0  0  0  0
    0.5320    1.3649   -1.5012 C   0  0  0  0  0  0  0  0  0  0  0  0
    1.4991    1.8628   -1.3867 H   0  0  0  0  0  0  0  0  0  0  0  0
    0.3383    1.2692   -2.5723 H   0  0  0  0  0  0  0  0  0  0  0  0
   -0.5499    2.2745   -0.9047 C   0  0  0  0  0  0  0  0  0  0  0  0
   -0.3312    3.5061   -0.9226 O   0  5  0  0  0  0  0  0  0  0  0  0
   -1.5819    1.7424   -0.4068 O   0  0  0  0  0  0  0  0  0  0  0  0
    1.0419    0.0464    0.6186 C   0  0  0  0  0  0  0  0  0  0  0  0
    2.2006   -0.1660    0.9638 O   0  0  0  0  0  0  0  0  0  0  0  0
    0.1090    0.4439    1.5599 N   0  0  0  0  0  0  0  0  0  0  0  0
   -0.7353    0.8688    1.1606 H   0  0  0  0  0  0  0  0  0  0  0  0
    0.4607    0.7771    2.9303 C   0  0  0  0  0  0  0  0  0  0  0  0
    1.1336    1.6400    2.9524 H   0  0  0  0  0  0  0  0  0  0  0  0
   -0.4416    1.0232    3.4975 H   0  0  0  0  0  0  0  0  0  0  0  0
    0.9530   -0.0709    3.4168 H   0  0  0  0  0  0  0  0  0  0  0  0
  1  2  1  0  0  0  0
  2  3  1  0  0  0  0
  2  4  1  0  0  0  0
  2  5  1  0  0  0  0
  5  6  2  0  0  0  0
  5  7  1  0  0  0  0
  7  8  1  0  0  0  0
  7  9  1  0  0  0  0
  9 10  1  0  0  0  0
  9 11  1  0  0  0  0
  9 17  1  0  0  0  0
 11 12  1  0  0  0  0
 11 13  1  0  0  0  0
 11 14  1  0  0  0  0
 14 15  1  0  0  0  0
 14 16  2  0  0  0  0
 17 18  2  0  0  0  0
 17 19  1  0  0  0  0
 19 20  1  0  0  0  0
 19 21  1  0  0  0  0
 21 22  1  0  0  0  0
 21 23  1  0  0  0  0
 21 24  1  0  0  0  0
M  CHG  1  15  -1
M  END
$$$$

  -OEChem-03222214023D

 24 23  0     1  0  0  0  0  0999 V2000
   -2.3981   -3.4655   -0.1159 H   0  0  0  0  0  0  0  0  0  0  0  0
   -2.3668   -2.4347   -0.4788 C   0  0  0  0  0  0  0  0  0  0  0  0
   -2.8498   -1.7869    0.2575 H   0  0  0  0  0  0  0  0  0  0  0  0
   -2.9155   -2.3730   -1.4216 H   0  0  0  0  0  0  0  0  0  0  0  0
   -0.9294   -1.9945   -0.6874 C   0  0  0  0  0  0  0  0  0  0  0  0
   -0.0216   -2.7980   -0.5402 O   0  0  0  0  0  0  0  0  0  0  0  0
   -0.6736   -0.6959   -1.0638 N   0  0  0  0  0  0  0  0  0  0  0  0
   -1.4702   -0.0573   -0.9669 H   0  0  0  0  0  0  0  0  0  0  0  0
    0.6198   -0.0363   -0.8513 C   0  0  1  0  0  0  0  0  0  0  0  0
    1.3945   -0.6090   -1.3718 H   0  0  0  0  0  0  0  0  0  0  0  0
    0.5294    1.3632   -1.5024 C   0  0  0  0  0  0  0  0  0  0  0  0
    1.4928    1.8658   -1.3796 H   0  0  0  0  0  0  0  0  0  0  0  0
    0.3550    1.2484   -2.5751 H   0  0  0  0  0  0  0  0  0  0  0  0
   -0.5621    2.2850   -0.9444 C   0  0  0  0  0  0  0  0  0  0  0  0
   -0.4774    3.4987   -1.2359 O   0  5  0  0  0  0  0  0  0  0  0  0
   -1.5186    1.7744   -0.2959 O   0  0  0  0  0  0  0  0  0  0  0  0
    1.0415    0.0506    0.6376 C   0  0  0  0  0  0  0  0  0  0  0  0
    2.2045   -0.1591    0.9701 O   0  0  0  0  0  0  0  0  0  0  0  0
    0.1215    0.4415    1.5933 N   0  0  0  0  0  0  0  0  0  0  0  0
   -0.7217    0.8795    1.2039 H   0  0  0  0  0  0  0  0  0  0  0  0
    0.4894    0.7616    2.9628 C   0  0  0  0  0  0  0  0  0  0  0  0
    1.1469    1.6364    2.9863 H   0  0  0  0  0  0  0  0  0  0  0  0
   -0.4078    0.9829    3.5482 H   0  0  0  0  0  0  0  0  0  0  0  0
    1.0052   -0.0837    3.4295 H   0  0  0  0  0  0  0  0  0  0  0  0
  1  2  1  0  0  0  0
  2  3  1  0  0  0  0
  2  4  1  0  0  0  0
  2  5  1  0  0  0  0
  5  6  2  0  0  0  0
  5  7  1  0  0  0  0
  7  8  1  0  0  0  0
  7  9  1  0  0  0  0
  9 10  1  0  0  0  0
  9 11  1  0  0  0  0
  9 17  1  0  0  0  0
 11 12  1  0  0  0  0
 11 13  1  0  0  0  0
 11 14  1  0  0  0  0
 14 15  1  0  0  0  0
 14 16  2  0  0  0  0
 17 18  2  0  0  0  0
 17 19  1  0  0  0  0
 19 20  1  0  0  0  0
 19 21  1  0  0  0  0
 21 22  1  0  0  0  0
 21 23  1  0  0  0  0
 21 24  1  0  0  0  0
M  CHG  1  15  -1
M  END
$$$$

  -OEChem-03222214023D

 24 23  0     1  0  0  0  0  0999 V2000
   -2.4306   -3.4714   -0.2414 H   0  0  0  0  0  0  0  0  0  0  0  0
   -2.3938   -2.4278   -0.5654 C   0  0  0  0  0  0  0  0  0  0  0  0
   -2.9164   -1.8120    0.1710 H   0  0  0  0  0  0  0  0  0  0  0  0
   -2.9001   -2.3377   -1.5294 H   0  0  0  0  0  0  0  0  0  0  0  0
   -0.9527   -1.9677   -0.6933 C   0  0  0  0  0  0  0  0  0  0  0  0
   -0.0455   -2.7670   -0.5238 O   0  0  0  0  0  0  0  0  0  0  0  0
   -0.6956   -0.6562   -1.0226 N   0  0  0  0  0  0  0  0  0  0  0  0
   -1.4980   -0.0286   -0.9604 H   0  0  0  0  0  0  0  0  0  0  0  0
    0.5878    0.0041   -0.7682 C   0  0  1  0  0  0  0  0  0  0  0  0
    1.3544   -0.5963   -1.2692 H   0  0  0  0  0  0  0  0  0  0  0  0
    0.5271    1.3476   -1.5278 C   0  0  0  0  0  0  0  0  0  0  0  0
    1.5417    1.7502   -1.5876 H   0  0  0  0  0  0  0  0  0  0  0  0
    0.1845    1.1760   -2.5519 H   0  0  0  0  0  0  0  0  0  0  0  0
   -0.3533    2.4277   -0.8978 C   0  0  0  0  0  0  0  0  0  0  0  0
   -0.4025    3.5203   -1.5070 O   0  5  0  0  0  0  0  0  0  0  0  0
   -1.1899    2.0699   -0.0252 O   0  0  0  0  0  0  0  0  0  0  0  0
    1.0491    0.0830    0.7131 C   0  0  0  0  0  0  0  0  0  0  0  0
    2.2194   -0.1514    1.0024 O   0  0  0  0  0  0  0  0  0  0  0  0
    0.1739    0.4510    1.7173 N   0  0  0  0  0  0  0  0  0  0  0  0
   -0.6381    0.9716    1.3644 H   0  0  0  0  0  0  0  0  0  0  0  0
    0.6057    0.7190    3.0798 C   0  0  0  0  0  0  0  0  0  0  0  0
    1.2848    1.5770    3.1031 H   0  0  0  0  0  0  0  0  0  0  0  0
   -0.2612    0.9422    3.7084 H   0  0  0  0  0  0  0  0  0  0  0  0
    1.1193   -0.1523    3.4986 H   0  0  0  0  0  0  0  0  0  0  0  0
  1  2  1  0  0  0  0
  2  3  1  0  0  0  0
  2  4  1  0  0  0  0
  2  5  1  0  0  0  0
  5  6  2  0  0  0  0
  5  7  1  0  0  0  0
  7  8  1  0  0  0  0
  7  9  1  0  0  0  0
  9 10  1  0  0  0  0
  9 11  1  0  0  0  0
  9 17  1  0  0  0  0
 11 12  1  0  0  0  0
 11 13  1  0  0  0  0
 11 14  1  0  0  0  0
 14 15  1  0  0  0  0
 14 16  2  0  0  0  0
 17 18  2  0  0  0  0
 17 19  1  0  0  0  0
 19 20  1  0  0  0  0
 19 21  1  0  0  0  0
 21 22  1  0  0  0  0
 21 23  1  0  0  0  0
 21 24  1  0  0  0  0
M  CHG  1  15  -1
M  END
$$$$

  -OEChem-03222214023D

 24 23  0     1  0  0  0  0  0999 V2000
   -2.4330   -3.5016   -0.3266 H   0  0  0  0  0  0  0  0  0  0  0  0
   -2.4023   -2.4425   -0.5970 C   0  0  0  0  0  0  0  0  0  0  0  0
   -2.9445   -1.8700    0.1598 H   0  0  0  0  0  0  0  0  0  0  0  0
   -2.8927   -2.3100   -1.5644 H   0  0  0  0  0  0  0  0  0  0  0  0
   -0.9643   -1.9617   -0.6767 C   0  0  0  0  0  0  0  0  0  0  0  0
   -0.0532   -2.7513   -0.4859 O   0  0  0  0  0  0  0  0  0  0  0  0
   -0.7148   -0.6455   -0.9949 N   0  0  0  0  0  0  0  0  0  0  0  0
   -1.5249   -0.0285   -0.9693 H   0  0  0  0  0  0  0  0  0  0  0  0
    0.5651    0.0237   -0.7435 C   0  0  1  0  0  0  0  0  0  0  0  0
    1.3274   -0.5859   -1.2407 H   0  0  0  0  0  0  0  0  0  0  0  0
    0.5178    1.3508   -1.5337 C   0  0  0  0  0  0  0  0  0  0  0  0
    1.5349    1.7467   -1.5922 H   0  0  0  0  0  0  0  0  0  0  0  0
    0.1901    1.1476   -2.5571 H   0  0  0  0  0  0  0  0  0  0  0  0
   -0.3625    2.4622   -0.9581 C   0  0  0  0  0  0  0  0  0  0  0  0
   -0.6138    3.4039   -1.7444 O   0  5  0  0  0  0  0  0  0  0  0  0
   -1.0283    2.2261    0.0825 O   0  0  0  0  0  0  0  0  0  0  0  0
    1.0459    0.1000    0.7327 C   0  0  0  0  0  0  0  0  0  0  0  0
    2.2189   -0.1445    1.0038 O   0  0  0  0  0  0  0  0  0  0  0  0
    0.1861    0.4545    1.7545 N   0  0  0  0  0  0  0  0  0  0  0  0
   -0.6025    1.0188    1.4163 H   0  0  0  0  0  0  0  0  0  0  0  0
    0.6443    0.6979    3.1130 C   0  0  0  0  0  0  0  0  0  0  0  0
    1.3504    1.5340    3.1340 H   0  0  0  0  0  0  0  0  0  0  0  0
   -0.2067    0.9437    3.7548 H   0  0  0  0  0  0  0  0  0  0  0  0
    1.1353   -0.1928    3.5175 H   0  0  0  0  0  0  0  0  0  0  0  0
  1  2  1  0  0  0  0
  2  3  1  0  0  0  0
  2  4  1  0  0  0  0
  2  5  1  0  0  0  0
  5  6  2  0  0  0  0
  5  7  1  0  0  0  0
  7  8  1  0  0  0  0
  7  9  1  0  0  0  0
  9 10  1  0  0  0  0
  9 11  1  0  0  0  0
  9 17  1  0  0  0  0
 11 12  1  0  0  0  0
 11 13  1  0  0  0  0
 11 14  1  0  0  0  0
 14 15  1  0  0  0  0
 14 16  2  0  0  0  0
 17 18  2  0  0  0  0
 17 19  1  0  0  0  0
 19 20  1  0  0  0  0
 19 21  1  0  0  0  0
 21 22  1  0  0  0  0
 21 23  1  0  0  0  0
 21 24  1  0  0  0  0
M  CHG  1  15  -1
M  END
$$$$

  -OEChem-03222214023D

 24 23  0     1  0  0  0  0  0999 V2000
   -2.4363   -3.4884   -0.2836 H   0  0  0  0  0  0  0  0  0  0  0  0
   -2.4044   -2.4448   -0.6087 C   0  0  0  0  0  0  0  0  0  0  0  0
   -2.9791   -1.8390    0.0964 H   0  0  0  0  0  0  0  0  0  0  0  0
   -2.8593   -2.3683   -1.5994 H   0  0  0  0  0  0  0  0  0  0  0  0
   -0.9685   -1.9547   -0.6594 C   0  0  0  0  0  0  0  0  0  0  0  0
   -0.0568   -2.7378   -0.4477 O   0  0  0  0  0  0  0  0  0  0  0  0
   -0.7227   -0.6372   -0.9758 N   0  0  0  0  0  0  0  0  0  0  0  0
   -1.5383   -0.0303   -1.0056 H   0  0  0  0  0  0  0  0  0  0  0  0
    0.5551    0.0410   -0.7324 C   0  0  1  0  0  0  0  0  0  0  0  0
    1.3165   -0.5726   -1.2260 H   0  0  0  0  0  0  0  0  0  0  0  0
    0.5040    1.3527   -1.5487 C   0  0  0  0  0  0  0  0  0  0  0  0
    1.5198    1.7504   -1.6147 H   0  0  0  0  0  0  0  0  0  0  0  0
    0.1828    1.1204   -2.5683 H   0  0  0  0  0  0  0  0  0  0  0  0
   -0.3794    2.4797   -1.0069 C   0  0  0  0  0  0  0  0  0  0  0  0
   -0.8652    3.2342   -1.8810 O   0  5  0  0  0  0  0  0  0  0  0  0
   -0.7920    2.4315    0.1771 O   0  0  0  0  0  0  0  0  0  0  0  0
    1.0454    0.1199    0.7414 C   0  0  0  0  0  0  0  0  0  0  0  0
    2.2136   -0.1547    1.0065 O   0  0  0  0  0  0  0  0  0  0  0  0
    0.1916    0.4680    1.7709 N   0  0  0  0  0  0  0  0  0  0  0  0
   -0.5540    1.0940    1.4439 H   0  0  0  0  0  0  0  0  0  0  0  0
    0.6614    0.6653    3.1330 C   0  0  0  0  0  0  0  0  0  0  0  0
    1.3897    1.4817    3.1713 H   0  0  0  0  0  0  0  0  0  0  0  0
   -0.1802    0.9168    3.7849 H   0  0  0  0  0  0  0  0  0  0  0  0
    1.1305   -0.2479    3.5131 H   0  0  0  0  0  0  0  0  0  0  0  0
  1  2  1  0  0  0  0
  2  3  1  0  0  0  0
  2  4  1  0  0  0  0
  2  5  1  0  0  0  0
  5  6  2  0  0  0  0
  5  7  1  0  0  0  0
  7  8  1  0  0  0  0
  7  9  1  0  0  0  0
  9 10  1  0  0  0  0
  9 11  1  0  0  0  0
  9 17  1  0  0  0  0
 11 12  1  0  0  0  0
 11 13  1  0  0  0  0
 11 14  1  0  0  0  0
 14 15  1  0  0  0  0
 14 16  2  0  0  0  0
 17 18  2  0  0  0  0
 17 19  1  0  0  0  0
 19 20  1  0  0  0  0
 19 21  1  0  0  0  0
 21 22  1  0  0  0  0
 21 23  1  0  0  0  0
 21 24  1  0  0  0  0
M  CHG  1  15  -1
M  END
$$$$

  -OEChem-03222214023D

 24 23  0     1  0  0  0  0  0999 V2000
   -2.4487   -3.4795   -0.2808 H   0  0  0  0  0  0  0  0  0  0  0  0
   -2.4068   -2.4404   -0.6189 C   0  0  0  0  0  0  0  0  0  0  0  0
   -3.0057   -1.8260    0.0581 H   0  0  0  0  0  0  0  0  0  0  0  0
   -2.8282   -2.3782   -1.6252 H   0  0  0  0  0  0  0  0  0  0  0  0
   -0.9702   -1.9490   -0.6278 C   0  0  0  0  0  0  0  0  0  0  0  0
   -0.0661   -2.7268   -0.3704 O   0  0  0  0  0  0  0  0  0  0  0  0
   -0.7137   -0.6378   -0.9620 N   0  0  0  0  0  0  0  0  0  0  0  0
   -1.5254   -0.0355   -1.0736 H   0  0  0  0  0  0  0  0  0  0  0  0
    0.5671    0.0420   -0.7332 C   0  0  1  0  0  0  0  0  0  0  0  0
    1.3300   -0.5708   -1.2256 H   0  0  0  0  0  0  0  0  0  0  0  0
    0.4847    1.3424   -1.5647 C   0  0  0  0  0  0  0  0  0  0  0  0
    1.4924    1.7565   -1.6504 H   0  0  0  0  0  0  0  0  0  0  0  0
    0.1539    1.0958   -2.5783 H   0  0  0  0  0  0  0  0  0  0  0  0
   -0.4067    2.4557   -1.0098 C   0  0  0  0  0  0  0  0  0  0  0  0
   -1.1533    3.0048   -1.8532 O   0  5  0  0  0  0  0  0  0  0  0  0
   -0.4954    2.6405    0.2260 O   0  0  0  0  0  0  0  0  0  0  0  0
    1.0551    0.1382    0.7404 C   0  0  0  0  0  0  0  0  0  0  0  0
    2.2085   -0.1843    1.0164 O   0  0  0  0  0  0  0  0  0  0  0  0
    0.1982    0.5025    1.7626 N   0  0  0  0  0  0  0  0  0  0  0  0
   -0.4909    1.1897    1.4367 H   0  0  0  0  0  0  0  0  0  0  0  0
    0.6612    0.6556    3.1331 C   0  0  0  0  0  0  0  0  0  0  0  0
    1.4217    1.4406    3.1935 H   0  0  0  0  0  0  0  0  0  0  0  0
   -0.1762    0.9298    3.7813 H   0  0  0  0  0  0  0  0  0  0  0  0
    1.0888   -0.2822    3.5016 H   0  0  0  0  0  0  0  0  0  0  0  0
  1  2  1  0  0  0  0
  2  3  1  0  0  0  0
  2  4  1  0  0  0  0
  2  5  1  0  0  0  0
  5  6  2  0  0  0  0
  5  7  1  0  0  0  0
  7  8  1  0  0  0  0
  7  9  1  0  0  0  0
  9 10  1  0  0  0  0
  9 11  1  0  0  0  0
  9 17  1  0  0  0  0
 11 12  1  0  0  0  0
 11 13  1  0  0  0  0
 11 14  1  0  0  0  0
 14 15  1  0  0  0  0
 14 16  2  0  0  0  0
 17 18  2  0  0  0  0
 17 19  1  0  0  0  0
 19 20  1  0  0  0  0
 19 21  1  0  0  0  0
 21 22  1  0  0  0  0
 21 23  1  0  0  0  0
 21 24  1  0  0  0  0
M  CHG  1  15  -1
M  END
$$$$

  -OEChem-03222214023D

 24 23  0     1  0  0  0  0  0999 V2000
   -2.4653   -3.4604   -0.2726 H   0  0  0  0  0  0  0  0  0  0  0  0
   -2.4078   -2.4265   -0.6241 C   0  0  0  0  0  0  0  0  0  0  0  0
   -3.0174   -1.7980    0.0302 H   0  0  0  0  0  0  0  0  0  0  0  0
   -2.8059   -2.3754   -1.6405 H   0  0  0  0  0  0  0  0  0  0  0  0
   -0.9678   -1.9455   -0.6073 C   0  0  0  0  0  0  0  0  0  0  0  0
   -0.0762   -2.7243   -0.3121 O   0  0  0  0  0  0  0  0  0  0  0  0
   -0.6920   -0.6451   -0.9664 N   0  0  0  0  0  0  0  0  0  0  0  0
   -1.4939   -0.0411   -1.1360 H   0  0  0  0  0  0  0  0  0  0  0  0
    0.5939    0.0287   -0.7461 C   0  0  1  0  0  0  0  0  0  0  0  0
    1.3610   -0.5786   -1.2382 H   0  0  0  0  0  0  0  0  0  0  0  0
    0.4699    1.3261   -1.5727 C   0  0  0  0  0  0  0  0  0  0  0  0
    1.4648    1.7663   -1.6763 H   0  0  0  0  0  0  0  0  0  0  0  0
    0.1188    1.0885   -2.5816 H   0  0  0  0  0  0  0  0  0  0  0  0
   -0.4334    2.3926   -0.9569 C   0  0  0  0  0  0  0  0  0  0  0  0
   -1.4162    2.7263   -1.6597 O   0  5  0  0  0  0  0  0  0  0  0  0
   -0.2336    2.7972    0.2111 O   0  0  0  0  0  0  0  0  0  0  0  0
    1.0701    0.1501    0.7289 C   0  0  0  0  0  0  0  0  0  0  0  0
    2.2077   -0.2080    1.0257 O   0  0  0  0  0  0  0  0  0  0  0  0
    0.2044    0.5438    1.7333 N   0  0  0  0  0  0  0  0  0  0  0  0
   -0.4407    1.2675    1.3997 H   0  0  0  0  0  0  0  0  0  0  0  0
    0.6490    0.6746    3.1122 C   0  0  0  0  0  0  0  0  0  0  0  0
    1.4320    1.4356    3.1904 H   0  0  0  0  0  0  0  0  0  0  0  0
   -0.1902    0.9706    3.7483 H   0  0  0  0  0  0  0  0  0  0  0  0
    1.0416   -0.2784    3.4812 H   0  0  0  0  0  0  0  0  0  0  0  0
  1  2  1  0  0  0  0
  2  3  1  0  0  0  0
  2  4  1  0  0  0  0
  2  5  1  0  0  0  0
  5  6  2  0  0  0  0
  5  7  1  0  0  0  0
  7  8  1  0  0  0  0
  7  9  1  0  0  0  0
  9 10  1  0  0  0  0
  9 11  1  0  0  0  0
  9 17  1  0  0  0  0
 11 12  1  0  0  0  0
 11 13  1  0  0  0  0
 11 14  1  0  0  0  0
 14 15  1  0  0  0  0
 14 16  2  0  0  0  0
 17 18  2  0  0  0  0
 17 19  1  0  0  0  0
 19 20  1  0  0  0  0
 19 21  1  0  0  0  0
 21 22  1  0  0  0  0
 21 23  1  0  0  0  0
 21 24  1  0  0  0  0
M  CHG  1  15  -1
M  END
$$$$

  -OEChem-03222214023D

 24 23  0     1  0  0  0  0  0999 V2000
   -2.4821   -3.4324   -0.2593 H   0  0  0  0  0  0  0  0  0  0  0  0
   -2.4094   -2.4034   -0.6222 C   0  0  0  0  0  0  0  0  0  0  0  0
   -3.0077   -1.7582    0.0262 H   0  0  0  0  0  0  0  0  0  0  0  0
   -2.8086   -2.3569   -1.6383 H   0  0  0  0  0  0  0  0  0  0  0  0
   -0.9625   -1.9441   -0.6133 C   0  0  0  0  0  0  0  0  0  0  0  0
   -0.0812   -2.7319   -0.3107 O   0  0  0  0  0  0  0  0  0  0  0  0
   -0.6676   -0.6531   -0.9889 N   0  0  0  0  0  0  0  0  0  0  0  0
   -1.4621   -0.0351   -1.1590 H   0  0  0  0  0  0  0  0  0  0  0  0
    0.6232    0.0101   -0.7652 C   0  0  1  0  0  0  0  0  0  0  0  0
    1.3949   -0.5904   -1.2582 H   0  0  0  0  0  0  0  0  0  0  0  0
    0.4701    1.3122   -1.5742 C   0  0  0  0  0  0  0  0  0  0  0  0
    1.4537    1.7755   -1.6871 H   0  0  0  0  0  0  0  0  0  0  0  0
    0.0972    1.0976   -2.5804 H   0  0  0  0  0  0  0  0  0  0  0  0
   -0.4420    2.3190   -0.8857 C   0  0  0  0  0  0  0  0  0  0  0  0
   -1.5855    2.4271   -1.3898 O   0  5  0  0  0  0  0  0  0  0  0  0
   -0.0690    2.9010    0.1578 O   0  0  0  0  0  0  0  0  0  0  0  0
    1.0818    0.1475    0.7137 C   0  0  0  0  0  0  0  0  0  0  0  0
    2.2095   -0.2234    1.0314 O   0  0  0  0  0  0  0  0  0  0  0  0
    0.2057    0.5660    1.7001 N   0  0  0  0  0  0  0  0  0  0  0  0
   -0.4409    1.2796    1.3524 H   0  0  0  0  0  0  0  0  0  0  0  0
    0.6328    0.7156    3.0826 C   0  0  0  0  0  0  0  0  0  0  0  0
    1.4186    1.4740    3.1594 H   0  0  0  0  0  0  0  0  0  0  0  0
   -0.2135    1.0259    3.7022 H   0  0  0  0  0  0  0  0  0  0  0  0
    1.0151   -0.2333    3.4723 H   0  0  0  0  0  0  0  0  0  0  0  0
  1  2  1  0  0  0  0
  2  3  1  0  0  0  0
  2  4  1  0  0  0  0
  2  5  1  0  0  0  0
  5  6  2  0  0  0  0
  5  7  1  0  0  0  0
  7  8  1  0  0  0  0
  7  9  1  0  0  0  0
  9 10  1  0  0  0  0
  9 11  1  0  0  0  0
  9 17  1  0  0  0  0
 11 12  1  0  0  0  0
 11 13  1  0  0  0  0
 11 14  1  0  0  0  0
 14 15  1  0  0  0  0
 14 16  2  0  0  0  0
 17 18  2  0  0  0  0
 17 19  1  0  0  0  0
 19 20  1  0  0  0  0
 19 21  1  0  0  0  0
 21 22  1  0  0  0  0
 21 23  1  0  0  0  0
 21 24  1  0  0  0  0
M  CHG  1  15  -1
M  END
$$$$

  -OEChem-03222214023D

 24 23  0     1  0  0  0  0  0999 V2000
   -2.4883   -3.4082   -0.2302 H   0  0  0  0  0  0  0  0  0  0  0  0
   -2.4083   -2.3849   -0.6067 C   0  0  0  0  0  0  0  0  0  0  0  0
   -2.9799   -1.7228    0.0488 H   0  0  0  0  0  0  0  0  0  0  0  0
   -2.8318   -2.3426   -1.6130 H   0  0  0  0  0  0  0  0  0  0  0  0
   -0.9548   -1.9485   -0.6391 C   0  0  0  0  0  0  0  0  0  0  0  0
   -0.0766   -2.7492   -0.3611 O   0  0  0  0  0  0  0  0  0  0  0  0
   -0.6509   -0.6613   -1.0187 N   0  0  0  0  0  0  0  0  0  0  0  0
   -1.4435   -0.0242   -1.1382 H   0  0  0  0  0  0  0  0  0  0  0  0
    0.6427   -0.0069   -0.7889 C   0  0  1  0  0  0  0  0  0  0  0  0
    1.4179   -0.6004   -1.2848 H   0  0  0  0  0  0  0  0  0  0  0  0
    0.4848    1.3107   -1.5695 C   0  0  0  0  0  0  0  0  0  0  0  0
    1.4651    1.7817   -1.6804 H   0  0  0  0  0  0  0  0  0  0  0  0
    0.0942    1.1277   -2.5749 H   0  0  0  0  0  0  0  0  0  0  0  0
   -0.4248    2.2707   -0.8202 C   0  0  0  0  0  0  0  0  0  0  0  0
   -1.6448    2.1692   -1.1024 O   0  5  0  0  0  0  0  0  0  0  0  0
    0.0404    3.0077    0.0772 O   0  0  0  0  0  0  0  0  0  0  0  0
    1.0813    0.1269    0.6960 C   0  0  0  0  0  0  0  0  0  0  0  0
    2.2105   -0.2258    1.0272 O   0  0  0  0  0  0  0  0  0  0  0  0
    0.1922    0.5524    1.6690 N   0  0  0  0  0  0  0  0  0  0  0  0
   -0.5177    1.1921    1.3076 H   0  0  0  0  0  0  0  0  0  0  0  0
    0.6108    0.7643    3.0456 C   0  0  0  0  0  0  0  0  0  0  0  0
    1.3763    1.5455    3.0950 H   0  0  0  0  0  0  0  0  0  0  0  0
   -0.2449    1.0755    3.6518 H   0  0  0  0  0  0  0  0  0  0  0  0
    1.0167   -0.1593    3.4708 H   0  0  0  0  0  0  0  0  0  0  0  0
  1  2  1  0  0  0  0
  2  3  1  0  0  0  0
  2  4  1  0  0  0  0
  2  5  1  0  0  0  0
  5  6  2  0  0  0  0
  5  7  1  0  0  0  0
  7  8  1  0  0  0  0
  7  9  1  0  0  0  0
  9 10  1  0  0  0  0
  9 11  1  0  0  0  0
  9 17  1  0  0  0  0
 11 12  1  0  0  0  0
 11 13  1  0  0  0  0
 11 14  1  0  0  0  0
 14 15  1  0  0  0  0
 14 16  2  0  0  0  0
 17 18  2  0  0  0  0
 17 19  1  0  0  0  0
 19 20  1  0  0  0  0
 19 21  1  0  0  0  0
 21 22  1  0  0  0  0
 21 23  1  0  0  0  0
 21 24  1  0  0  0  0
M  CHG  1  15  -1
M  END
$$$$

  -OEChem-03222214023D

 24 23  0     1  0  0  0  0  0999 V2000
   -2.4767   -3.4037   -0.1906 H   0  0  0  0  0  0  0  0  0  0  0  0
   -2.4020   -2.3798   -0.5669 C   0  0  0  0  0  0  0  0  0  0  0  0
   -2.9358   -1.7137    0.1160 H   0  0  0  0  0  0  0  0  0  0  0  0
   -2.8701   -2.3285   -1.5529 H   0  0  0  0  0  0  0  0  0  0  0  0
   -0.9465   -1.9598   -0.6638 C   0  0  0  0  0  0  0  0  0  0  0  0
   -0.0650   -2.7719   -0.4325 O   0  0  0  0  0  0  0  0  0  0  0  0
   -0.6444   -0.6721   -1.0428 N   0  0  0  0  0  0  0  0  0  0  0  0
   -1.4350   -0.0206   -1.0870 H   0  0  0  0  0  0  0  0  0  0  0  0
    0.6546   -0.0275   -0.8196 C   0  0  1  0  0  0  0  0  0  0  0  0
    1.4271   -0.6147   -1.3264 H   0  0  0  0  0  0  0  0  0  0  0  0
    0.5118    1.3215   -1.5505 C   0  0  0  0  0  0  0  0  0  0  0  0
    1.5002    1.7753   -1.6623 H   0  0  0  0  0  0  0  0  0  0  0  0
    0.0963    1.1822   -2.5524 H   0  0  0  0  0  0  0  0  0  0  0  0
   -0.3701    2.2685   -0.7512 C   0  0  0  0  0  0  0  0  0  0  0  0
   -1.6024    2.0133   -0.7871 O   0  5  0  0  0  0  0  0  0  0  0  0
    0.1518    3.1757   -0.0670 O   0  0  0  0  0  0  0  0  0  0  0  0
    1.0741    0.0809    0.6709 C   0  0  0  0  0  0  0  0  0  0  0  0
    2.2156   -0.2172    1.0114 O   0  0  0  0  0  0  0  0  0  0  0  0
    0.1636    0.4998    1.6271 N   0  0  0  0  0  0  0  0  0  0  0  0
   -0.6347    1.0121    1.2489 H   0  0  0  0  0  0  0  0  0  0  0  0
    0.5624    0.8068    2.9912 C   0  0  0  0  0  0  0  0  0  0  0  0
    1.2606    1.6500    3.0022 H   0  0  0  0  0  0  0  0  0  0  0  0
   -0.3163    1.0732    3.5857 H   0  0  0  0  0  0  0  0  0  0  0  0
    1.0433   -0.0596    3.4564 H   0  0  0  0  0  0  0  0  0  0  0  0
  1  2  1  0  0  0  0
  2  3  1  0  0  0  0
  2  4  1  0  0  0  0
  2  5  1  0  0  0  0
  5  6  2  0  0  0  0
  5  7  1  0  0  0  0
  7  8  1  0  0  0  0
  7  9  1  0  0  0  0
  9 10  1  0  0  0  0
  9 11  1  0  0  0  0
  9 17  1  0  0  0  0
 11 12  1  0  0  0  0
 11 13  1  0  0  0  0
 11 14  1  0  0  0  0
 14 15  1  0  0  0  0
 14 16  2  0  0  0  0
 17 18  2  0  0  0  0
 17 19  1  0  0  0  0
 19 20  1  0  0  0  0
 19 21  1  0  0  0  0
 21 22  1  0  0  0  0
 21 23  1  0  0  0  0
 21 24  1  0  0  0  0
M  CHG  1  15  -1
M  END
$$$$

  -OEChem-03222214023D

 24 23  0     1  0  0  0  0  0999 V2000
   -2.4450   -3.4038   -0.1328 H   0  0  0  0  0  0  0  0  0  0  0  0
   -2.3837   -2.3824   -0.5180 C   0  0  0  0  0  0  0  0  0  0  0  0
   -2.8841   -1.7106    0.1842 H   0  0  0  0  0  0  0  0  0  0  0  0
   -2.8955   -2.3353   -1.4822 H   0  0  0  0  0  0  0  0  0  0  0  0
   -0.9324   -1.9681   -0.6814 C   0  0  0  0  0  0  0  0  0  0  0  0
   -0.0443   -2.7855   -0.4980 O   0  0  0  0  0  0  0  0  0  0  0  0
   -0.6422   -0.6781   -1.0623 N   0  0  0  0  0  0  0  0  0  0  0  0
   -1.4316   -0.0240   -1.0322 H   0  0  0  0  0  0  0  0  0  0  0  0
    0.6575   -0.0340   -0.8428 C   0  0  1  0  0  0  0  0  0  0  0  0
    1.4300   -0.6160   -1.3557 H   0  0  0  0  0  0  0  0  0  0  0  0
    0.5271    1.3354   -1.5422 C   0  0  0  0  0  0  0  0  0  0  0  0
    1.5229    1.7729   -1.6552 H   0  0  0  0  0  0  0  0  0  0  0  0
    0.1010    1.2178   -2.5422 H   0  0  0  0  0  0  0  0  0  0  0  0
   -0.3371    2.2946   -0.7314 C   0  0  0  0  0  0  0  0  0  0  0  0
   -1.5227    1.9206   -0.5161 O   0  5  0  0  0  0  0  0  0  0  0  0
    0.1605    3.3633   -0.3145 O   0  0  0  0  0  0  0  0  0  0  0  0
    1.0665    0.0619    0.6506 C   0  0  0  0  0  0  0  0  0  0  0  0
    2.2121   -0.2071    0.9996 O   0  0  0  0  0  0  0  0  0  0  0  0
    0.1418    0.4747    1.5956 N   0  0  0  0  0  0  0  0  0  0  0  0
   -0.6804    0.9430    1.2041 H   0  0  0  0  0  0  0  0  0  0  0  0
    0.5144    0.7985    2.9633 C   0  0  0  0  0  0  0  0  0  0  0  0
    1.2157    1.6390    2.9784 H   0  0  0  0  0  0  0  0  0  0  0  0
   -0.3750    1.0763    3.5364 H   0  0  0  0  0  0  0  0  0  0  0  0
    0.9818   -0.0642    3.4487 H   0  0  0  0  0  0  0  0  0  0  0  0
  1  2  1  0  0  0  0
  2  3  1  0  0  0  0
  2  4  1  0  0  0  0
  2  5  1  0  0  0  0
  5  6  2  0  0  0  0
  5  7  1  0  0  0  0
  7  8  1  0  0  0  0
  7  9  1  0  0  0  0
  9 10  1  0  0  0  0
  9 11  1  0  0  0  0
  9 17  1  0  0  0  0
 11 12  1  0  0  0  0
 11 13  1  0  0  0  0
 11 14  1  0  0  0  0
 14 15  1  0  0  0  0
 14 16  2  0  0  0  0
 17 18  2  0  0  0  0
 17 19  1  0  0  0  0
 19 20  1  0  0  0  0
 19 21  1  0  0  0  0
 21 22  1  0  0  0  0
 21 23  1  0  0  0  0
 21 24  1  0  0  0  0
M  CHG  1  15  -1
M  END
$$$$

  -OEChem-03222214023D

 24 23  0     1  0  0  0  0  0999 V2000
   -2.4282   -3.4230   -0.1338 H   0  0  0  0  0  0  0  0  0  0  0  0
   -2.3788   -2.3980   -0.5110 C   0  0  0  0  0  0  0  0  0  0  0  0
   -2.8753   -1.7357    0.2030 H   0  0  0  0  0  0  0  0  0  0  0  0
   -2.9025   -2.3467   -1.4685 H   0  0  0  0  0  0  0  0  0  0  0  0
   -0.9326   -1.9727   -0.6892 C   0  0  0  0  0  0  0  0  0  0  0  0
   -0.0372   -2.7863   -0.5252 O   0  0  0  0  0  0  0  0  0  0  0  0
   -0.6560   -0.6776   -1.0635 N   0  0  0  0  0  0  0  0  0  0  0  0
   -1.4461   -0.0293   -0.9925 H   0  0  0  0  0  0  0  0  0  0  0  0
    0.6397   -0.0299   -0.8344 C   0  0  1  0  0  0  0  0  0  0  0  0
    1.4116   -0.6164   -1.3433 H   0  0  0  0  0  0  0  0  0  0  0  0
    0.5335    1.3395   -1.5401 C   0  0  0  0  0  0  0  0  0  0  0  0
    1.5383    1.7599   -1.6383 H   0  0  0  0  0  0  0  0  0  0  0  0
    0.1256    1.2143   -2.5465 H   0  0  0  0  0  0  0  0  0  0  0  0
   -0.3321    2.3372   -0.7727 C   0  0  0  0  0  0  0  0  0  0  0  0
   -1.4292    1.9044   -0.3197 O   0  5  0  0  0  0  0  0  0  0  0  0
    0.0696    3.5163   -0.6589 O   0  0  0  0  0  0  0  0  0  0  0  0
    1.0573    0.0648    0.6568 C   0  0  0  0  0  0  0  0  0  0  0  0
    2.2082   -0.1921    0.9974 O   0  0  0  0  0  0  0  0  0  0  0  0
    0.1397    0.4704    1.6098 N   0  0  0  0  0  0  0  0  0  0  0  0
   -0.6830    0.9440    1.2198 H   0  0  0  0  0  0  0  0  0  0  0  0
    0.5124    0.7760    2.9813 C   0  0  0  0  0  0  0  0  0  0  0  0
    1.2121    1.6175    3.0087 H   0  0  0  0  0  0  0  0  0  0  0  0
   -0.3773    1.0431    3.5591 H   0  0  0  0  0  0  0  0  0  0  0  0
    0.9819   -0.0927    3.4537 H   0  0  0  0  0  0  0  0  0  0  0  0
  1  2  1  0  0  0  0
  2  3  1  0  0  0  0
  2  4  1  0  0  0  0
  2  5  1  0  0  0  0
  5  6  2  0  0  0  0
  5  7  1  0  0  0  0
  7  8  1  0  0  0  0
  7  9  1  0  0  0  0
  9 10  1  0  0  0  0
  9 11  1  0  0  0  0
  9 17  1  0  0  0  0
 11 12  1  0  0  0  0
 11 13  1  0  0  0  0
 11 14  1  0  0  0  0
 14 15  1  0  0  0  0
 14 16  2  0  0  0  0
 17 18  2  0  0  0  0
 17 19  1  0  0  0  0
 19 20  1  0  0  0  0
 19 21  1  0  0  0  0
 21 22  1  0  0  0  0
 21 23  1  0  0  0  0
 21 24  1  0  0  0  0
M  CHG  1  15  -1
M  END
$$$$

  -OEChem-03222214023D

 24 23  0     1  0  0  0  0  0999 V2000
   -2.4234   -3.4504   -0.1771 H   0  0  0  0  0  0  0  0  0  0  0  0
   -2.3832   -2.4184   -0.5363 C   0  0  0  0  0  0  0  0  0  0  0  0
   -2.8897   -1.7740    0.1870 H   0  0  0  0  0  0  0  0  0  0  0  0
   -2.9029   -2.3557   -1.4954 H   0  0  0  0  0  0  0  0  0  0  0  0
   -0.9404   -1.9753   -0.6999 C   0  0  0  0  0  0  0  0  0  0  0  0
   -0.0377   -2.7817   -0.5404 O   0  0  0  0  0  0  0  0  0  0  0  0
   -0.6765   -0.6716   -1.0532 N   0  0  0  0  0  0  0  0  0  0  0  0
   -1.4722   -0.0346   -0.9697 H   0  0  0  0  0  0  0  0  0  0  0  0
    0.6108   -0.0161   -0.8047 C   0  0  1  0  0  0  0  0  0  0  0  0
    1.3827   -0.6101   -1.3049 H   0  0  0  0  0  0  0  0  0  0  0  0
    0.5313    1.3401   -1.5393 C   0  0  0  0  0  0  0  0  0  0  0  0
    1.5423    1.7504   -1.6130 H   0  0  0  0  0  0  0  0  0  0  0  0
    0.1593    1.1892   -2.5560 H   0  0  0  0  0  0  0  0  0  0  0  0
   -0.3489    2.3802   -0.8461 C   0  0  0  0  0  0  0  0  0  0  0  0
   -1.3274    1.9579   -0.1689 O   0  5  0  0  0  0  0  0  0  0  0  0
   -0.0832    3.5887   -1.0323 O   0  0  0  0  0  0  0  0  0  0  0  0
    1.0459    0.0750    0.6826 C   0  0  0  0  0  0  0  0  0  0  0  0
    2.2050   -0.1738    1.0022 O   0  0  0  0  0  0  0  0  0  0  0  0
    0.1467    0.4636    1.6579 N   0  0  0  0  0  0  0  0  0  0  0  0
   -0.6711    0.9584    1.2821 H   0  0  0  0  0  0  0  0  0  0  0  0
    0.5450    0.7536    3.0257 C   0  0  0  0  0  0  0  0  0  0  0  0
    1.2414    1.5977    3.0496 H   0  0  0  0  0  0  0  0  0  0  0  0
   -0.3346    1.0091    3.6236 H   0  0  0  0  0  0  0  0  0  0  0  0
    1.0279   -0.1185    3.4778 H   0  0  0  0  0  0  0  0  0  0  0  0
  1  2  1  0  0  0  0
  2  3  1  0  0  0  0
  2  4  1  0  0  0  0
  2  5  1  0  0  0  0
  5  6  2  0  0  0  0
  5  7  1  0  0  0  0
  7  8  1  0  0  0  0
  7  9  1  0  0  0  0
  9 10  1  0  0  0  0
  9 11  1  0  0  0  0
  9 17  1  0  0  0  0
 11 12  1  0  0  0  0
 11 13  1  0  0  0  0
 11 14  1  0  0  0  0
 14 15  1  0  0  0  0
 14 16  2  0  0  0  0
 17 18  2  0  0  0  0
 17 19  1  0  0  0  0
 19 20  1  0  0  0  0
 19 21  1  0  0  0  0
 21 22  1  0  0  0  0
 21 23  1  0  0  0  0
 21 24  1  0  0  0  0
M  CHG  1  15  -1
M  END
$$$$

  -OEChem-03222214023D

 24 23  0     1  0  0  0  0  0999 V2000
   -2.4138   -3.4811   -0.2236 H   0  0  0  0  0  0  0  0  0  0  0  0
   -2.3852   -2.4420   -0.5628 C   0  0  0  0  0  0  0  0  0  0  0  0
   -2.9124   -1.8193    0.1647 H   0  0  0  0  0  0  0  0  0  0  0  0
   -2.8922   -2.3701   -1.5279 H   0  0  0  0  0  0  0  0  0  0  0  0
   -0.9478   -1.9732   -0.6981 C   0  0  0  0  0  0  0  0  0  0  0  0
   -0.0360   -2.7682   -0.5349 O   0  0  0  0  0  0  0  0  0  0  0  0
   -0.6999   -0.6610   -1.0324 N   0  0  0  0  0  0  0  0  0  0  0  0
   -1.5062   -0.0400   -0.9619 H   0  0  0  0  0  0  0  0  0  0  0  0
    0.5795    0.0065   -0.7748 C   0  0  1  0  0  0  0  0  0  0  0  0
    1.3504   -0.5953   -1.2680 H   0  0  0  0  0  0  0  0  0  0  0  0
    0.5232    1.3447   -1.5446 C   0  0  0  0  0  0  0  0  0  0  0  0
    1.5385    1.7468   -1.6003 H   0  0  0  0  0  0  0  0  0  0  0  0
    0.1824    1.1630   -2.5672 H   0  0  0  0  0  0  0  0  0  0  0  0
   -0.3652    2.4241   -0.9257 C   0  0  0  0  0  0  0  0  0  0  0  0
   -1.1952    2.0850   -0.0398 O   0  5  0  0  0  0  0  0  0  0  0  0
   -0.2577    3.5821   -1.3887 O   0  0  0  0  0  0  0  0  0  0  0  0
    1.0344    0.0926    0.7083 C   0  0  0  0  0  0  0  0  0  0  0  0
    2.1997   -0.1563    1.0060 O   0  0  0  0  0  0  0  0  0  0  0  0
    0.1536    0.4601    1.7076 N   0  0  0  0  0  0  0  0  0  0  0  0
   -0.6488    0.9929    1.3509 H   0  0  0  0  0  0  0  0  0  0  0  0
    0.5799    0.7210    3.0731 C   0  0  0  0  0  0  0  0  0  0  0  0
    1.2771    1.5645    3.1009 H   0  0  0  0  0  0  0  0  0  0  0  0
   -0.2870    0.9638    3.6944 H   0  0  0  0  0  0  0  0  0  0  0  0
    1.0709   -0.1609    3.4967 H   0  0  0  0  0  0  0  0  0  0  0  0
  1  2  1  0  0  0  0
  2  3  1  0  0  0  0
  2  4  1  0  0  0  0
  2  5  1  0  0  0  0
  5  6  2  0  0  0  0
  5  7  1  0  0  0  0
  7  8  1  0  0  0  0
  7  9  1  0  0  0  0
  9 10  1  0  0  0  0
  9 11  1  0  0  0  0
  9 17  1  0  0  0  0
 11 12  1  0  0  0  0
 11 13  1  0  0  0  0
 11 14  1  0  0  0  0
 14 15  1  0  0  0  0
 14 16  2  0  0  0  0
 17 18  2  0  0  0  0
 17 19  1  0  0  0  0
 19 20  1  0  0  0  0
 19 21  1  0  0  0  0
 21 22  1  0  0  0  0
 21 23  1  0  0  0  0
 21 24  1  0  0  0  0
M  CHG  1  15  -1
M  END
$$$$

  -OEChem-03222214023D

 24 23  0     1  0  0  0  0  0999 V2000
   -2.4094   -3.5209   -0.3138 H   0  0  0  0  0  0  0  0  0  0  0  0
   -2.3900   -2.4632   -0.5907 C   0  0  0  0  0  0  0  0  0  0  0  0
   -2.9285   -1.8905    0.1687 H   0  0  0  0  0  0  0  0  0  0  0  0
   -2.8921   -2.3407   -1.5535 H   0  0  0  0  0  0  0  0  0  0  0  0
   -0.9566   -1.9721   -0.6872 C   0  0  0  0  0  0  0  0  0  0  0  0
   -0.0385   -2.7557   -0.5074 O   0  0  0  0  0  0  0  0  0  0  0  0
   -0.7193   -0.6539   -1.0078 N   0  0  0  0  0  0  0  0  0  0  0  0
   -1.5353   -0.0462   -0.9713 H   0  0  0  0  0  0  0  0  0  0  0  0
    0.5552    0.0248   -0.7499 C   0  0  1  0  0  0  0  0  0  0  0  0
    1.3242   -0.5824   -1.2396 H   0  0  0  0  0  0  0  0  0  0  0  0
    0.5110    1.3484   -1.5466 C   0  0  0  0  0  0  0  0  0  0  0  0
    1.5281    1.7462   -1.5929 H   0  0  0  0  0  0  0  0  0  0  0  0
    0.1907    1.1408   -2.5713 H   0  0  0  0  0  0  0  0  0  0  0  0
   -0.3796    2.4557   -0.9813 C   0  0  0  0  0  0  0  0  0  0  0  0
   -1.0267    2.2499    0.0771 O   0  5  0  0  0  0  0  0  0  0  0  0
   -0.4618    3.5010   -1.6656 O   0  0  0  0  0  0  0  0  0  0  0  0
    1.0277    0.1072    0.7292 C   0  0  0  0  0  0  0  0  0  0  0  0
    2.1962   -0.1493    1.0089 O   0  0  0  0  0  0  0  0  0  0  0  0
    0.1607    0.4579    1.7465 N   0  0  0  0  0  0  0  0  0  0  0  0
   -0.6179    1.0340    1.4050 H   0  0  0  0  0  0  0  0  0  0  0  0
    0.6143    0.6987    3.1071 C   0  0  0  0  0  0  0  0  0  0  0  0
    1.3301    1.5267    3.1303 H   0  0  0  0  0  0  0  0  0  0  0  0
   -0.2370    0.9560    3.7439 H   0  0  0  0  0  0  0  0  0  0  0  0
    1.0929   -0.1968    3.5163 H   0  0  0  0  0  0  0  0  0  0  0  0
  1  2  1  0  0  0  0
  2  3  1  0  0  0  0
  2  4  1  0  0  0  0
  2  5  1  0  0  0  0
  5  6  2  0  0  0  0
  5  7  1  0  0  0  0
  7  8  1  0  0  0  0
  7  9  1  0  0  0  0
  9 10  1  0  0  0  0
  9 11  1  0  0  0  0
  9 17  1  0  0  0  0
 11 12  1  0  0  0  0
 11 13  1  0  0  0  0
 11 14  1  0  0  0  0
 14 15  1  0  0  0  0
 14 16  2  0  0  0  0
 17 18  2  0  0  0  0
 17 19  1  0  0  0  0
 19 20  1  0  0  0  0
 19 21  1  0  0  0  0
 21 22  1  0  0  0  0
 21 23  1  0  0  0  0
 21 24  1  0  0  0  0
M  CHG  1  15  -1
M  END
$$$$

  -OEChem-03222214023D

 24 23  0     1  0  0  0  0  0999 V2000
   -2.4125   -3.5232   -0.3248 H   0  0  0  0  0  0  0  0  0  0  0  0
   -2.3937   -2.4654   -0.6011 C   0  0  0  0  0  0  0  0  0  0  0  0
   -2.9541   -1.8968    0.1453 H   0  0  0  0  0  0  0  0  0  0  0  0
   -2.8733   -2.3461   -1.5758 H   0  0  0  0  0  0  0  0  0  0  0  0
   -0.9617   -1.9644   -0.6639 C   0  0  0  0  0  0  0  0  0  0  0  0
   -0.0432   -2.7410   -0.4586 O   0  0  0  0  0  0  0  0  0  0  0  0
   -0.7266   -0.6457   -0.9847 N   0  0  0  0  0  0  0  0  0  0  0  0
   -1.5471   -0.0457   -1.0012 H   0  0  0  0  0  0  0  0  0  0  0  0
    0.5472    0.0400   -0.7382 C   0  0  1  0  0  0  0  0  0  0  0  0
    1.3141   -0.5706   -1.2271 H   0  0  0  0  0  0  0  0  0  0  0  0
    0.4980    1.3512   -1.5558 C   0  0  0  0  0  0  0  0  0  0  0  0
    1.5144    1.7499   -1.6071 H   0  0  0  0  0  0  0  0  0  0  0  0
    0.1836    1.1223   -2.5781 H   0  0  0  0  0  0  0  0  0  0  0  0
   -0.3913    2.4736   -1.0171 C   0  0  0  0  0  0  0  0  0  0  0  0
   -0.8179    2.4298    0.1623 O   0  5  0  0  0  0  0  0  0  0  0  0
   -0.7114    3.3551   -1.8471 O   0  0  0  0  0  0  0  0  0  0  0  0
    1.0307    0.1249    0.7376 C   0  0  0  0  0  0  0  0  0  0  0  0
    2.1953   -0.1568    1.0103 O   0  0  0  0  0  0  0  0  0  0  0  0
    0.1709    0.4714    1.7628 N   0  0  0  0  0  0  0  0  0  0  0  0
   -0.5711    1.1005    1.4340 H   0  0  0  0  0  0  0  0  0  0  0  0
    0.6338    0.6642    3.1281 C   0  0  0  0  0  0  0  0  0  0  0  0
    1.3646    1.4780    3.1727 H   0  0  0  0  0  0  0  0  0  0  0  0
   -0.2106    0.9178    3.7755 H   0  0  0  0  0  0  0  0  0  0  0  0
    1.0974   -0.2515    3.5089 H   0  0  0  0  0  0  0  0  0  0  0  0
  1  2  1  0  0  0  0
  2  3  1  0  0  0  0
  2  4  1  0  0  0  0
  2  5  1  0  0  0  0
  5  6  2  0  0  0  0
  5  7  1  0  0  0  0
  7  8  1  0  0  0  0
  7  9  1  0  0  0  0
  9 10  1  0  0  0  0
  9 11  1  0  0  0  0
  9 17  1  0  0  0  0
 11 12  1  0  0  0  0
 11 13  1  0  0  0  0
 11 14  1  0  0  0  0
 14 15  1  0  0  0  0
 14 16  2  0  0  0  0
 17 18  2  0  0  0  0
 17 19  1  0  0  0  0
 19 20  1  0  0  0  0
 19 21  1  0  0  0  0
 21 22  1  0  0  0  0
 21 23  1  0  0  0  0
 21 24  1  0  0  0  0
M  CHG  1  15  -1
M  END
$$$$

  -OEChem-03222214023D

 24 23  0     1  0  0  0  0  0999 V2000
   -2.4329   -3.4955   -0.2835 H   0  0  0  0  0  0  0  0  0  0  0  0
   -2.4001   -2.4541   -0.6160 C   0  0  0  0  0  0  0  0  0  0  0  0
   -2.9931   -1.8466    0.0723 H   0  0  0  0  0  0  0  0  0  0  0  0
   -2.8350   -2.3880   -1.6162 H   0  0  0  0  0  0  0  0  0  0  0  0
   -0.9663   -1.9553   -0.6408 C   0  0  0  0  0  0  0  0  0  0  0  0
   -0.0551   -2.7307   -0.4020 O   0  0  0  0  0  0  0  0  0  0  0  0
   -0.7204   -0.6403   -0.9686 N   0  0  0  0  0  0  0  0  0  0  0  0
   -1.5374   -0.0412   -1.0499 H   0  0  0  0  0  0  0  0  0  0  0  0
    0.5568    0.0443   -0.7339 C   0  0  1  0  0  0  0  0  0  0  0  0
    1.3219   -0.5669   -1.2249 H   0  0  0  0  0  0  0  0  0  0  0  0
    0.4855    1.3483   -1.5611 C   0  0  0  0  0  0  0  0  0  0  0  0
    1.4970    1.7568   -1.6260 H   0  0  0  0  0  0  0  0  0  0  0  0
    0.1661    1.1080   -2.5796 H   0  0  0  0  0  0  0  0  0  0  0  0
   -0.4058    2.4660   -1.0150 C   0  0  0  0  0  0  0  0  0  0  0  0
   -0.5861    2.5903    0.2189 O   0  5  0  0  0  0  0  0  0  0  0  0
   -1.0096    3.1390   -1.8822 O   0  0  0  0  0  0  0  0  0  0  0  0
    1.0434    0.1348    0.7406 C   0  0  0  0  0  0  0  0  0  0  0  0
    2.2005   -0.1752    1.0153 O   0  0  0  0  0  0  0  0  0  0  0  0
    0.1841    0.4890    1.7639 N   0  0  0  0  0  0  0  0  0  0  0  0
   -0.5175    1.1642    1.4389 H   0  0  0  0  0  0  0  0  0  0  0  0
    0.6468    0.6484    3.1336 C   0  0  0  0  0  0  0  0  0  0  0  0
    1.3983    1.4421    3.1927 H   0  0  0  0  0  0  0  0  0  0  0  0
   -0.1927    0.9143    3.7824 H   0  0  0  0  0  0  0  0  0  0  0  0
    1.0855   -0.2845    3.5020 H   0  0  0  0  0  0  0  0  0  0  0  0
  1  2  1  0  0  0  0
  2  3  1  0  0  0  0
  2  4  1  0  0  0  0
  2  5  1  0  0  0  0
  5  6  2  0  0  0  0
  5  7  1  0  0  0  0
  7  8  1  0  0  0  0
  7  9  1  0  0  0  0
  9 10  1  0  0  0  0
  9 11  1  0  0  0  0
  9 17  1  0  0  0  0
 11 12  1  0  0  0  0
 11 13  1  0  0  0  0
 11 14  1  0  0  0  0
 14 15  1  0  0  0  0
 14 16  2  0  0  0  0
 17 18  2  0  0  0  0
 17 19  1  0  0  0  0
 19 20  1  0  0  0  0
 19 21  1  0  0  0  0
 21 22  1  0  0  0  0
 21 23  1  0  0  0  0
 21 24  1  0  0  0  0
M  CHG  1  15  -1
M  END
$$$$

  -OEChem-03222214023D

 24 23  0     1  0  0  0  0  0999 V2000
   -2.4598   -3.4678   -0.2885 H   0  0  0  0  0  0  0  0  0  0  0  0
   -2.4079   -2.4308   -0.6313 C   0  0  0  0  0  0  0  0  0  0  0  0
   -3.0158   -1.8103    0.0321 H   0  0  0  0  0  0  0  0  0  0  0  0
   -2.8122   -2.3721   -1.6448 H   0  0  0  0  0  0  0  0  0  0  0  0
   -0.9698   -1.9447   -0.6190 C   0  0  0  0  0  0  0  0  0  0  0  0
   -0.0733   -2.7239   -0.3398 O   0  0  0  0  0  0  0  0  0  0  0  0
   -0.7016   -0.6388   -0.9635 N   0  0  0  0  0  0  0  0  0  0  0  0
   -1.5072   -0.0349   -1.1114 H   0  0  0  0  0  0  0  0  0  0  0  0
    0.5814    0.0372   -0.7368 C   0  0  1  0  0  0  0  0  0  0  0  0
    1.3468   -0.5733   -1.2276 H   0  0  0  0  0  0  0  0  0  0  0  0
    0.4772    1.3341   -1.5688 C   0  0  0  0  0  0  0  0  0  0  0  0
    1.4800    1.7606   -1.6516 H   0  0  0  0  0  0  0  0  0  0  0  0
    0.1455    1.0916   -2.5831 H   0  0  0  0  0  0  0  0  0  0  0  0
   -0.4225    2.4260   -0.9887 C   0  0  0  0  0  0  0  0  0  0  0  0
   -0.3586    2.7226    0.2263 O   0  5  0  0  0  0  0  0  0  0  0  0
   -1.3195    2.8348   -1.7626 O   0  0  0  0  0  0  0  0  0  0  0  0
    1.0617    0.1442    0.7384 C   0  0  0  0  0  0  0  0  0  0  0  0
    2.2068   -0.1979    1.0255 O   0  0  0  0  0  0  0  0  0  0  0  0
    0.1995    0.5223    1.7513 N   0  0  0  0  0  0  0  0  0  0  0  0
   -0.4664    1.2296    1.4215 H   0  0  0  0  0  0  0  0  0  0  0  0
    0.6519    0.6611    3.1268 C   0  0  0  0  0  0  0  0  0  0  0  0
    1.4263    1.4314    3.1983 H   0  0  0  0  0  0  0  0  0  0  0  0
   -0.1863    0.9487    3.7681 H   0  0  0  0  0  0  0  0  0  0  0  0
    1.0578   -0.2866    3.4948 H   0  0  0  0  0  0  0  0  0  0  0  0
  1  2  1  0  0  0  0
  2  3  1  0  0  0  0
  2  4  1  0  0  0  0
  2  5  1  0  0  0  0
  5  6  2  0  0  0  0
  5  7  1  0  0  0  0
  7  8  1  0  0  0  0
  7  9  1  0  0  0  0
  9 10  1  0  0  0  0
  9 11  1  0  0  0  0
  9 17  1  0  0  0  0
 11 12  1  0  0  0  0
 11 13  1  0  0  0  0
 11 14  1  0  0  0  0
 14 15  1  0  0  0  0
 14 16  2  0  0  0  0
 17 18  2  0  0  0  0
 17 19  1  0  0  0  0
 19 20  1  0  0  0  0
 19 21  1  0  0  0  0
 21 22  1  0  0  0  0
 21 23  1  0  0  0  0
 21 24  1  0  0  0  0
M  CHG  1  15  -1
M  END
$$$$

  -OEChem-03222214023D

 24 23  0     1  0  0  0  0  0999 V2000
   -2.4838   -3.4285   -0.2813 H   0  0  0  0  0  0  0  0  0  0  0  0
   -2.4118   -2.3961   -0.6340 C   0  0  0  0  0  0  0  0  0  0  0  0
   -3.0112   -1.7580    0.0203 H   0  0  0  0  0  0  0  0  0  0  0  0
   -2.8107   -2.3398   -1.6497 H   0  0  0  0  0  0  0  0  0  0  0  0
   -0.9653   -1.9356   -0.6202 C   0  0  0  0  0  0  0  0  0  0  0  0
   -0.0834   -2.7269   -0.3277 O   0  0  0  0  0  0  0  0  0  0  0  0
   -0.6715   -0.6404   -0.9816 N   0  0  0  0  0  0  0  0  0  0  0  0
   -1.4654   -0.0204   -1.1465 H   0  0  0  0  0  0  0  0  0  0  0  0
    0.6177    0.0225   -0.7524 C   0  0  1  0  0  0  0  0  0  0  0  0
    1.3878   -0.5827   -1.2425 H   0  0  0  0  0  0  0  0  0  0  0  0
    0.4769    1.3187   -1.5762 C   0  0  0  0  0  0  0  0  0  0  0  0
    1.4671    1.7709   -1.6747 H   0  0  0  0  0  0  0  0  0  0  0  0
    0.1257    1.0896   -2.5872 H   0  0  0  0  0  0  0  0  0  0  0  0
   -0.4348    2.3602   -0.9354 C   0  0  0  0  0  0  0  0  0  0  0  0
   -0.1637    2.8266    0.1942 O   0  5  0  0  0  0  0  0  0  0  0  0
   -1.5593    2.4580   -1.4828 O   0  0  0  0  0  0  0  0  0  0  0  0
    1.0784    0.1454    0.7271 C   0  0  0  0  0  0  0  0  0  0  0  0
    2.2109   -0.2181    1.0373 O   0  0  0  0  0  0  0  0  0  0  0  0
    0.2044    0.5511    1.7197 N   0  0  0  0  0  0  0  0  0  0  0  0
   -0.4408    1.2688    1.3739 H   0  0  0  0  0  0  0  0  0  0  0  0
    0.6356    0.6950    3.1013 C   0  0  0  0  0  0  0  0  0  0  0  0
    1.4191    1.4556    3.1796 H   0  0  0  0  0  0  0  0  0  0  0  0
   -0.2094    0.9991    3.7257 H   0  0  0  0  0  0  0  0  0  0  0  0
    1.0227   -0.2547    3.4839 H   0  0  0  0  0  0  0  0  0  0  0  0
  1  2  1  0  0  0  0
  2  3  1  0  0  0  0
  2  4  1  0  0  0  0
  2  5  1  0  0  0  0
  5  6  2  0  0  0  0
  5  7  1  0  0  0  0
  7  8  1  0  0  0  0
  7  9  1  0  0  0  0
  9 10  1  0  0  0  0
  9 11  1  0  0  0  0
  9 17  1  0  0  0  0
 11 12  1  0  0  0  0
 11 13  1  0  0  0  0
 11 14  1  0  0  0  0
 14 15  1  0  0  0  0
 14 16  2  0  0  0  0
 17 18  2  0  0  0  0
 17 19  1  0  0  0  0
 19 20  1  0  0  0  0
 19 21  1  0  0  0  0
 21 22  1  0  0  0  0
 21 23  1  0  0  0  0
 21 24  1  0  0  0  0
M  CHG  1  15  -1
M  END
$$$$

  -OEChem-03222214023D

 24 23  0     1  0  0  0  0  0999 V2000
   -2.4847   -3.3949   -0.2308 H   0  0  0  0  0  0  0  0  0  0  0  0
   -2.4044   -2.3712   -0.6064 C   0  0  0  0  0  0  0  0  0  0  0  0
   -2.9717   -1.7083    0.0522 H   0  0  0  0  0  0  0  0  0  0  0  0
   -2.8320   -2.3267   -1.6109 H   0  0  0  0  0  0  0  0  0  0  0  0
   -0.9500   -1.9383   -0.6442 C   0  0  0  0  0  0  0  0  0  0  0  0
   -0.0721   -2.7444   -0.3800 O   0  0  0  0  0  0  0  0  0  0  0  0
   -0.6460   -0.6497   -1.0183 N   0  0  0  0  0  0  0  0  0  0  0  0
   -1.4382   -0.0097   -1.1273 H   0  0  0  0  0  0  0  0  0  0  0  0
    0.6452    0.0056   -0.7831 C   0  0  1  0  0  0  0  0  0  0  0  0
    1.4219   -0.5901   -1.2735 H   0  0  0  0  0  0  0  0  0  0  0  0
    0.4870    1.3154   -1.5799 C   0  0  0  0  0  0  0  0  0  0  0  0
    1.4691    1.7835   -1.6852 H   0  0  0  0  0  0  0  0  0  0  0  0
    0.1122    1.1166   -2.5884 H   0  0  0  0  0  0  0  0  0  0  0  0
   -0.4290    2.3023   -0.8702 C   0  0  0  0  0  0  0  0  0  0  0  0
   -0.0126    2.9305    0.1286 O   0  5  0  0  0  0  0  0  0  0  0  0
   -1.6442    2.1562   -1.1550 O   0  0  0  0  0  0  0  0  0  0  0  0
    1.0803    0.1357    0.7031 C   0  0  0  0  0  0  0  0  0  0  0  0
    2.2038   -0.2328    1.0383 O   0  0  0  0  0  0  0  0  0  0  0  0
    0.1884    0.5568    1.6743 N   0  0  0  0  0  0  0  0  0  0  0  0
   -0.4802    1.2410    1.3102 H   0  0  0  0  0  0  0  0  0  0  0  0
    0.5969    0.7346    3.0588 C   0  0  0  0  0  0  0  0  0  0  0  0
    1.3797    1.4964    3.1307 H   0  0  0  0  0  0  0  0  0  0  0  0
   -0.2580    1.0552    3.6613 H   0  0  0  0  0  0  0  0  0  0  0  0
    0.9763   -0.2056    3.4715 H   0  0  0  0  0  0  0  0  0  0  0  0
  1  2  1  0  0  0  0
  2  3  1  0  0  0  0
  2  4  1  0  0  0  0
  2  5  1  0  0  0  0
  5  6  2  0  0  0  0
  5  7  1  0  0  0  0
  7  8  1  0  0  0  0
  7  9  1  0  0  0  0
  9 10  1  0  0  0  0
  9 11  1  0  0  0  0
  9 17  1  0  0  0  0
 11 12  1  0  0  0  0
 11 13  1  0  0  0  0
 11 14  1  0  0  0  0
 14 15  1  0  0  0  0
 14 16  2  0  0  0  0
 17 18  2  0  0  0  0
 17 19  1  0  0  0  0
 19 20  1  0  0  0  0
 19 21  1  0  0  0  0
 21 22  1  0  0  0  0
 21 23  1  0  0  0  0
 21 24  1  0  0  0  0
M  CHG  1  15  -1
M  END
$$$$

  -OEChem-03222214023D

 24 23  0     1  0  0  0  0  0999 V2000
   -2.4655   -3.3932   -0.1767 H   0  0  0  0  0  0  0  0  0  0  0  0
   -2.3937   -2.3737   -0.5651 C   0  0  0  0  0  0  0  0  0  0  0  0
   -2.9293   -1.7006    0.1094 H   0  0  0  0  0  0  0  0  0  0  0  0
   -2.8616   -2.3357   -1.5517 H   0  0  0  0  0  0  0  0  0  0  0  0
   -0.9393   -1.9510   -0.6666 C   0  0  0  0  0  0  0  0  0  0  0  0
   -0.0562   -2.7643   -0.4444 O   0  0  0  0  0  0  0  0  0  0  0  0
   -0.6413   -0.6627   -1.0471 N   0  0  0  0  0  0  0  0  0  0  0  0
   -1.4336   -0.0124   -1.0839 H   0  0  0  0  0  0  0  0  0  0  0  0
    0.6535   -0.0125   -0.8178 C   0  0  1  0  0  0  0  0  0  0  0  0
    1.4302   -0.6008   -1.3168 H   0  0  0  0  0  0  0  0  0  0  0  0
    0.5077    1.3270   -1.5678 C   0  0  0  0  0  0  0  0  0  0  0  0
    1.4952    1.7839   -1.6744 H   0  0  0  0  0  0  0  0  0  0  0  0
    0.1084    1.1718   -2.5741 H   0  0  0  0  0  0  0  0  0  0  0  0
   -0.3864    2.2903   -0.8003 C   0  0  0  0  0  0  0  0  0  0  0  0
    0.1285    3.0690    0.0318 O   0  5  0  0  0  0  0  0  0  0  0  0
   -1.6133    2.0125   -0.8471 O   0  0  0  0  0  0  0  0  0  0  0  0
    1.0694    0.1036    0.6737 C   0  0  0  0  0  0  0  0  0  0  0  0
    2.1989   -0.2321    1.0213 O   0  0  0  0  0  0  0  0  0  0  0  0
    0.1581    0.5225    1.6288 N   0  0  0  0  0  0  0  0  0  0  0  0
   -0.5892    1.1064    1.2477 H   0  0  0  0  0  0  0  0  0  0  0  0
    0.5512    0.7767    3.0053 C   0  0  0  0  0  0  0  0  0  0  0  0
    1.3001    1.5741    3.0461 H   0  0  0  0  0  0  0  0  0  0  0  0
   -0.3192    1.0858    3.5911 H   0  0  0  0  0  0  0  0  0  0  0  0
    0.9687   -0.1279    3.4589 H   0  0  0  0  0  0  0  0  0  0  0  0
  1  2  1  0  0  0  0
  2  3  1  0  0  0  0
  2  4  1  0  0  0  0
  2  5  1  0  0  0  0
  5  6  2  0  0  0  0
  5  7  1  0  0  0  0
  7  8  1  0  0  0  0
  7  9  1  0  0  0  0
  9 10  1  0  0  0  0
  9 11  1  0  0  0  0
  9 17  1  0  0  0  0
 11 12  1  0  0  0  0
 11 13  1  0  0  0  0
 11 14  1  0  0  0  0
 14 15  1  0  0  0  0
 14 16  2  0  0  0  0
 17 18  2  0  0  0  0
 17 19  1  0  0  0  0
 19 20  1  0  0  0  0
 19 21  1  0  0  0  0
 21 22  1  0  0  0  0
 21 23  1  0  0  0  0
 21 24  1  0  0  0  0
M  CHG  1  15  -1
M  END
$$$$

  -OEChem-03222214023D

 24 23  0     1  0  0  0  0  0999 V2000
   -2.4466   -3.4001   -0.1465 H   0  0  0  0  0  0  0  0  0  0  0  0
   -2.3829   -2.3758   -0.5234 C   0  0  0  0  0  0  0  0  0  0  0  0
   -2.8786   -1.7081    0.1859 H   0  0  0  0  0  0  0  0  0  0  0  0
   -2.8973   -2.3185   -1.4857 H   0  0  0  0  0  0  0  0  0  0  0  0
   -0.9308   -1.9650   -0.6878 C   0  0  0  0  0  0  0  0  0  0  0  0
   -0.0444   -2.7853   -0.5093 O   0  0  0  0  0  0  0  0  0  0  0  0
   -0.6398   -0.6753   -1.0686 N   0  0  0  0  0  0  0  0  0  0  0  0
   -1.4297   -0.0216   -1.0420 H   0  0  0  0  0  0  0  0  0  0  0  0
    0.6574   -0.0289   -0.8419 C   0  0  1  0  0  0  0  0  0  0  0  0
    1.4338   -0.6110   -1.3488 H   0  0  0  0  0  0  0  0  0  0  0  0
    0.5245    1.3349   -1.5516 C   0  0  0  0  0  0  0  0  0  0  0  0
    1.5193    1.7767   -1.6564 H   0  0  0  0  0  0  0  0  0  0  0  0
    0.1123    1.2126   -2.5568 H   0  0  0  0  0  0  0  0  0  0  0  0
   -0.3497    2.2963   -0.7544 C   0  0  0  0  0  0  0  0  0  0  0  0
    0.1961    3.2286   -0.1250 O   0  5  0  0  0  0  0  0  0  0  0  0
   -1.5449    1.9294   -0.5905 O   0  0  0  0  0  0  0  0  0  0  0  0
    1.0614    0.0722    0.6529 C   0  0  0  0  0  0  0  0  0  0  0  0
    2.1980   -0.2269    1.0088 O   0  0  0  0  0  0  0  0  0  0  0  0
    0.1343    0.4864    1.5947 N   0  0  0  0  0  0  0  0  0  0  0  0
   -0.6589    0.9970    1.1974 H   0  0  0  0  0  0  0  0  0  0  0  0
    0.5079    0.7981    2.9646 C   0  0  0  0  0  0  0  0  0  0  0  0
    1.2053    1.6416    2.9858 H   0  0  0  0  0  0  0  0  0  0  0  0
   -0.3815    1.0662    3.5421 H   0  0  0  0  0  0  0  0  0  0  0  0
    0.9805   -0.0667    3.4409 H   0  0  0  0  0  0  0  0  0  0  0  0
  1  2  1  0  0  0  0
  2  3  1  0  0  0  0
  2  4  1  0  0  0  0
  2  5  1  0  0  0  0
  5  6  2  0  0  0  0
  5  7  1  0  0  0  0
  7  8  1  0  0  0  0
  7  9  1  0  0  0  0
  9 10  1  0  0  0  0
  9 11  1  0  0  0  0
  9 17  1  0  0  0  0
 11 12  1  0  0  0  0
 11 13  1  0  0  0  0
 11 14  1  0  0  0  0
 14 15  1  0  0  0  0
 14 16  2  0  0  0  0
 17 18  2  0  0  0  0
 17 19  1  0  0  0  0
 19 20  1  0  0  0  0
 19 21  1  0  0  0  0
 21 22  1  0  0  0  0
 21 23  1  0  0  0  0
 21 24  1  0  0  0  0
M  CHG  1  15  -1
M  END
$$$$

  -OEChem-03222214023D

 24 23  0     1  0  0  0  0  0999 V2000
   -2.4296   -3.4215   -0.1434 H   0  0  0  0  0  0  0  0  0  0  0  0
   -2.3780   -2.3924   -0.5096 C   0  0  0  0  0  0  0  0  0  0  0  0
   -2.8660   -1.7356    0.2151 H   0  0  0  0  0  0  0  0  0  0  0  0
   -2.9082   -2.3280   -1.4628 H   0  0  0  0  0  0  0  0  0  0  0  0
   -0.9307   -1.9720   -0.6926 C   0  0  0  0  0  0  0  0  0  0  0  0
   -0.0382   -2.7894   -0.5312 O   0  0  0  0  0  0  0  0  0  0  0  0
   -0.6490   -0.6793   -1.0715 N   0  0  0  0  0  0  0  0  0  0  0  0
   -1.4384   -0.0279   -1.0126 H   0  0  0  0  0  0  0  0  0  0  0  0
    0.6483   -0.0333   -0.8440 C   0  0  1  0  0  0  0  0  0  0  0  0
    1.4229   -0.6156   -1.3538 H   0  0  0  0  0  0  0  0  0  0  0  0
    0.5296    1.3383   -1.5422 C   0  0  0  0  0  0  0  0  0  0  0  0
    1.5309    1.7670   -1.6409 H   0  0  0  0  0  0  0  0  0  0  0  0
    0.1206    1.2256   -2.5495 H   0  0  0  0  0  0  0  0  0  0  0  0
   -0.3365    2.3153   -0.7513 C   0  0  0  0  0  0  0  0  0  0  0  0
    0.1701    3.3885   -0.3572 O   0  5  0  0  0  0  0  0  0  0  0  0
   -1.4840    1.9019   -0.4256 O   0  0  0  0  0  0  0  0  0  0  0  0
    1.0555    0.0621    0.6500 C   0  0  0  0  0  0  0  0  0  0  0  0
    2.1993   -0.2130    1.0009 O   0  0  0  0  0  0  0  0  0  0  0  0
    0.1295    0.4722    1.5940 N   0  0  0  0  0  0  0  0  0  0  0  0
   -0.6824    0.9561    1.1962 H   0  0  0  0  0  0  0  0  0  0  0  0
    0.5015    0.7958    2.9616 C   0  0  0  0  0  0  0  0  0  0  0  0
    1.2022    1.6368    2.9766 H   0  0  0  0  0  0  0  0  0  0  0  0
   -0.3881    1.0730    3.5345 H   0  0  0  0  0  0  0  0  0  0  0  0
    0.9696   -0.0665    3.4468 H   0  0  0  0  0  0  0  0  0  0  0  0
  1  2  1  0  0  0  0
  2  3  1  0  0  0  0
  2  4  1  0  0  0  0
  2  5  1  0  0  0  0
  5  6  2  0  0  0  0
  5  7  1  0  0  0  0
  7  8  1  0  0  0  0
  7  9  1  0  0  0  0
  9 10  1  0  0  0  0
  9 11  1  0  0  0  0
  9 17  1  0  0  0  0
 11 12  1  0  0  0  0
 11 13  1  0  0  0  0
 11 14  1  0  0  0  0
 14 15  1  0  0  0  0
 14 16  2  0  0  0  0
 17 18  2  0  0  0  0
 17 19  1  0  0  0  0
 19 20  1  0  0  0  0
 19 21  1  0  0  0  0
 21 22  1  0  0  0  0
 21 23  1  0  0  0  0
 21 24  1  0  0  0  0
M  CHG  1  15  -1
M  END
$$$$

  -OEChem-03222214023D

 24 23  0     1  0  0  0  0  0999 V2000
   -2.4239   -3.4255   -0.1324 H   0  0  0  0  0  0  0  0  0  0  0  0
   -2.3768   -2.3988   -0.5054 C   0  0  0  0  0  0  0  0  0  0  0  0
   -2.8640   -1.7390    0.2171 H   0  0  0  0  0  0  0  0  0  0  0  0
   -2.9114   -2.3418   -1.4565 H   0  0  0  0  0  0  0  0  0  0  0  0
   -0.9318   -1.9753   -0.6976 C   0  0  0  0  0  0  0  0  0  0  0  0
   -0.0361   -2.7911   -0.5466 O   0  0  0  0  0  0  0  0  0  0  0  0
   -0.6562   -0.6790   -1.0681 N   0  0  0  0  0  0  0  0  0  0  0  0
   -1.4461   -0.0313   -0.9904 H   0  0  0  0  0  0  0  0  0  0  0  0
    0.6389   -0.0320   -0.8347 C   0  0  1  0  0  0  0  0  0  0  0  0
    1.4118   -0.6161   -1.3449 H   0  0  0  0  0  0  0  0  0  0  0  0
    0.5323    1.3394   -1.5360 C   0  0  0  0  0  0  0  0  0  0  0  0
    1.5379    1.7600   -1.6250 H   0  0  0  0  0  0  0  0  0  0  0  0
    0.1349    1.2237   -2.5476 H   0  0  0  0  0  0  0  0  0  0  0  0
   -0.3348    2.3361   -0.7692 C   0  0  0  0  0  0  0  0  0  0  0  0
    0.0786    3.5083   -0.6291 O   0  5  0  0  0  0  0  0  0  0  0  0
   -1.4290    1.9004   -0.3124 O   0  0  0  0  0  0  0  0  0  0  0  0
    1.0547    0.0588    0.6572 C   0  0  0  0  0  0  0  0  0  0  0  0
    2.2056   -0.1979    0.9982 O   0  0  0  0  0  0  0  0  0  0  0  0
    0.1355    0.4620    1.6095 N   0  0  0  0  0  0  0  0  0  0  0  0
   -0.6847    0.9382    1.2170 H   0  0  0  0  0  0  0  0  0  0  0  0
    0.5100    0.7780    2.9780 C   0  0  0  0  0  0  0  0  0  0  0  0
    1.1947    1.6319    2.9979 H   0  0  0  0  0  0  0  0  0  0  0  0
   -0.3815    1.0314    3.5592 H   0  0  0  0  0  0  0  0  0  0  0  0
    0.9975   -0.0803    3.4513 H   0  0  0  0  0  0  0  0  0  0  0  0
  1  2  1  0  0  0  0
  2  3  1  0  0  0  0
  2  4  1  0  0  0  0
  2  5  1  0  0  0  0
  5  6  2  0  0  0  0
  5  7  1  0  0  0  0
  7  8  1  0  0  0  0
  7  9  1  0  0  0  0
  9 10  1  0  0  0  0
  9 11  1  0  0  0  0
  9 17  1  0  0  0  0
 11 12  1  0  0  0  0
 11 13  1  0  0  0  0
 11 14  1  0  0  0  0
 14 15  1  0  0  0  0
 14 16  2  0  0  0  0
 17 18  2  0  0  0  0
 17 19  1  0  0  0  0
 19 20  1  0  0  0  0
 19 21  1  0  0  0  0
 21 22  1  0  0  0  0
 21 23  1  0  0  0  0
 21 24  1  0  0  0  0
M  CHG  1  15  -1
M  END
$$$$

  -OEChem-03222214023D

 24 23  0     1  0  0  0  0  0999 V2000
   -2.4245   -3.4373   -0.1511 H   0  0  0  0  0  0  0  0  0  0  0  0
   -2.3797   -2.4095   -0.5212 C   0  0  0  0  0  0  0  0  0  0  0  0
   -2.8786   -1.7543    0.1977 H   0  0  0  0  0  0  0  0  0  0  0  0
   -2.9040   -2.3535   -1.4782 H   0  0  0  0  0  0  0  0  0  0  0  0
   -0.9354   -1.9762   -0.6966 C   0  0  0  0  0  0  0  0  0  0  0  0
   -0.0360   -2.7866   -0.5381 O   0  0  0  0  0  0  0  0  0  0  0  0
   -0.6659   -0.6755   -1.0562 N   0  0  0  0  0  0  0  0  0  0  0  0
   -1.4591   -0.0335   -0.9755 H   0  0  0  0  0  0  0  0  0  0  0  0
    0.6253   -0.0241   -0.8163 C   0  0  1  0  0  0  0  0  0  0  0  0
    1.3972   -0.6118   -1.3246 H   0  0  0  0  0  0  0  0  0  0  0  0
    0.5293    1.3412   -1.5312 C   0  0  0  0  0  0  0  0  0  0  0  0
    1.5373    1.7575   -1.6103 H   0  0  0  0  0  0  0  0  0  0  0  0
    0.1484    1.2129   -2.5477 H   0  0  0  0  0  0  0  0  0  0  0  0
   -0.3433    2.3611   -0.8002 C   0  0  0  0  0  0  0  0  0  0  0  0
   -0.0603    3.5736   -0.9243 O   0  5  0  0  0  0  0  0  0  0  0  0
   -1.3729    1.9213   -0.2148 O   0  0  0  0  0  0  0  0  0  0  0  0
    1.0549    0.0650    0.6723 C   0  0  0  0  0  0  0  0  0  0  0  0
    2.2135   -0.1772    0.9975 O   0  0  0  0  0  0  0  0  0  0  0  0
    0.1491    0.4586    1.6402 N   0  0  0  0  0  0  0  0  0  0  0  0
   -0.6766    0.9361    1.2599 H   0  0  0  0  0  0  0  0  0  0  0  0
    0.5378    0.7597    3.0086 C   0  0  0  0  0  0  0  0  0  0  0  0
    1.2384    1.6004    3.0302 H   0  0  0  0  0  0  0  0  0  0  0  0
   -0.3453    1.0260    3.5966 H   0  0  0  0  0  0  0  0  0  0  0  0
    1.0120   -0.1107    3.4733 H   0  0  0  0  0  0  0  0  0  0  0  0
  1  2  1  0  0  0  0
  2  3  1  0  0  0  0
  2  4  1  0  0  0  0
  2  5  1  0  0  0  0
  5  6  2  0  0  0  0
  5  7  1  0  0  0  0
  7  8  1  0  0  0  0
  7  9  1  0  0  0  0
  9 10  1  0  0  0  0
  9 11  1  0  0  0  0
  9 17  1  0  0  0  0
 11 12  1  0  0  0  0
 11 13  1  0  0  0  0
 11 14  1  0  0  0  0
 14 15  1  0  0  0  0
 14 16  2  0  0  0  0
 17 18  2  0  0  0  0
 17 19  1  0  0  0  0
 19 20  1  0  0  0  0
 19 21  1  0  0  0  0
 21 22  1  0  0  0  0
 21 23  1  0  0  0  0
 21 24  1  0  0  0  0
M  CHG  1  15  -1
M  END
$$$$

  -OEChem-03222214023D

 24 23  0     1  0  0  0  0  0999 V2000
   -2.4263   -3.4547   -0.1906 H   0  0  0  0  0  0  0  0  0  0  0  0
   -2.3862   -2.4198   -0.5413 C   0  0  0  0  0  0  0  0  0  0  0  0
   -2.8970   -1.7820    0.1848 H   0  0  0  0  0  0  0  0  0  0  0  0
   -2.9020   -2.3504   -1.5021 H   0  0  0  0  0  0  0  0  0  0  0  0
   -0.9437   -1.9725   -0.6954 C   0  0  0  0  0  0  0  0  0  0  0  0
   -0.0403   -2.7778   -0.5342 O   0  0  0  0  0  0  0  0  0  0  0  0
   -0.6804   -0.6664   -1.0404 N   0  0  0  0  0  0  0  0  0  0  0  0
   -1.4771   -0.0305   -0.9622 H   0  0  0  0  0  0  0  0  0  0  0  0
    0.6074   -0.0117   -0.7932 C   0  0  1  0  0  0  0  0  0  0  0  0
    1.3763   -0.6055   -1.2987 H   0  0  0  0  0  0  0  0  0  0  0  0
    0.5288    1.3445   -1.5274 C   0  0  0  0  0  0  0  0  0  0  0  0
    1.5406    1.7535   -1.5956 H   0  0  0  0  0  0  0  0  0  0  0  0
    0.1666    1.1980   -2.5484 H   0  0  0  0  0  0  0  0  0  0  0  0
   -0.3473    2.3935   -0.8428 C   0  0  0  0  0  0  0  0  0  0  0  0
   -0.2187    3.5789   -1.2229 O   0  5  0  0  0  0  0  0  0  0  0  0
   -1.2956    1.9769   -0.1211 O   0  0  0  0  0  0  0  0  0  0  0  0
    1.0530    0.0718    0.6915 C   0  0  0  0  0  0  0  0  0  0  0  0
    2.2180   -0.1643    0.9989 O   0  0  0  0  0  0  0  0  0  0  0  0
    0.1620    0.4537    1.6769 N   0  0  0  0  0  0  0  0  0  0  0  0
   -0.6615    0.9456    1.3098 H   0  0  0  0  0  0  0  0  0  0  0  0
    0.5705    0.7404    3.0427 C   0  0  0  0  0  0  0  0  0  0  0  0
    1.2608    1.5896    3.0648 H   0  0  0  0  0  0  0  0  0  0  0  0
   -0.3056    0.9866    3.6499 H   0  0  0  0  0  0  0  0  0  0  0  0
    1.0636   -0.1304    3.4865 H   0  0  0  0  0  0  0  0  0  0  0  0
  1  2  1  0  0  0  0
  2  3  1  0  0  0  0
  2  4  1  0  0  0  0
  2  5  1  0  0  0  0
  5  6  2  0  0  0  0
  5  7  1  0  0  0  0
  7  8  1  0  0  0  0
  7  9  1  0  0  0  0
  9 10  1  0  0  0  0
  9 11  1  0  0  0  0
  9 17  1  0  0  0  0
 11 12  1  0  0  0  0
 11 13  1  0  0  0  0
 11 14  1  0  0  0  0
 14 15  1  0  0  0  0
 14 16  2  0  0  0  0
 17 18  2  0  0  0  0
 17 19  1  0  0  0  0
 19 20  1  0  0  0  0
 19 21  1  0  0  0  0
 21 22  1  0  0  0  0
 21 23  1  0  0  0  0
 21 24  1  0  0  0  0
M  CHG  1  15  -1
M  END
$$$$

  -OEChem-03222214023D

 24 23  0     1  0  0  0  0  0999 V2000
   -2.4315   -3.4899   -0.2947 H   0  0  0  0  0  0  0  0  0  0  0  0
   -2.4003   -2.4405   -0.6009 C   0  0  0  0  0  0  0  0  0  0  0  0
   -2.9546   -1.8448    0.1289 H   0  0  0  0  0  0  0  0  0  0  0  0
   -2.8776   -2.3425   -1.5791 H   0  0  0  0  0  0  0  0  0  0  0  0
   -0.9624   -1.9587   -0.6763 C   0  0  0  0  0  0  0  0  0  0  0  0
   -0.0521   -2.7487   -0.4865 O   0  0  0  0  0  0  0  0  0  0  0  0
   -0.7141   -0.6404   -0.9875 N   0  0  0  0  0  0  0  0  0  0  0  0
   -1.5263   -0.0286   -0.9822 H   0  0  0  0  0  0  0  0  0  0  0  0
    0.5636    0.0326   -0.7311 C   0  0  1  0  0  0  0  0  0  0  0  0
    1.3218   -0.5891   -1.2196 H   0  0  0  0  0  0  0  0  0  0  0  0
    0.5327    1.3438   -1.5532 C   0  0  0  0  0  0  0  0  0  0  0  0
    1.5659    1.5927   -1.8097 H   0  0  0  0  0  0  0  0  0  0  0  0
   -0.0003    1.1828   -2.4945 H   0  0  0  0  0  0  0  0  0  0  0  0
   -0.0507    2.5806   -0.8717 C   0  0  0  0  0  0  0  0  0  0  0  0
   -0.0555    3.6250   -1.5632 O   0  5  0  0  0  0  0  0  0  0  0  0
   -0.7790    2.4069    0.1391 O   0  0  0  0  0  0  0  0  0  0  0  0
    1.0458    0.1069    0.7457 C   0  0  0  0  0  0  0  0  0  0  0  0
    2.2106   -0.1722    1.0188 O   0  0  0  0  0  0  0  0  0  0  0  0
    0.1839    0.4560    1.7682 N   0  0  0  0  0  0  0  0  0  0  0  0
   -0.5613    1.0787    1.4345 H   0  0  0  0  0  0  0  0  0  0  0  0
    0.6443    0.6582    3.1329 C   0  0  0  0  0  0  0  0  0  0  0  0
    1.3560    1.4887    3.1765 H   0  0  0  0  0  0  0  0  0  0  0  0
   -0.2049    0.8916    3.7815 H   0  0  0  0  0  0  0  0  0  0  0  0
    1.1297   -0.2465    3.5126 H   0  0  0  0  0  0  0  0  0  0  0  0
  1  2  1  0  0  0  0
  2  3  1  0  0  0  0
  2  4  1  0  0  0  0
  2  5  1  0  0  0  0
  5  6  2  0  0  0  0
  5  7  1  0  0  0  0
  7  8  1  0  0  0  0
  7  9  1  0  0  0  0
  9 10  1  0  0  0  0
  9 11  1  0  0  0  0
  9 17  1  0  0  0  0
 11 12  1  0  0  0  0
 11 13  1  0  0  0  0
 11 14  1  0  0  0  0
 14 15  1  0  0  0  0
 14 16  2  0  0  0  0
 17 18  2  0  0  0  0
 17 19  1  0  0  0  0
 19 20  1  0  0  0  0
 19 21  1  0  0  0  0
 21 22  1  0  0  0  0
 21 23  1  0  0  0  0
 21 24  1  0  0  0  0
M  CHG  1  15  -1
M  END
$$$$

  -OEChem-03222214023D

 24 23  0     1  0  0  0  0  0999 V2000
   -2.4286   -3.4920   -0.2987 H   0  0  0  0  0  0  0  0  0  0  0  0
   -2.3997   -2.4434   -0.6078 C   0  0  0  0  0  0  0  0  0  0  0  0
   -2.9729   -1.8501    0.1091 H   0  0  0  0  0  0  0  0  0  0  0  0
   -2.8585   -2.3528   -1.5954 H   0  0  0  0  0  0  0  0  0  0  0  0
   -0.9647   -1.9497   -0.6572 C   0  0  0  0  0  0  0  0  0  0  0  0
   -0.0520   -2.7333   -0.4538 O   0  0  0  0  0  0  0  0  0  0  0  0
   -0.7220   -0.6293   -0.9657 N   0  0  0  0  0  0  0  0  0  0  0  0
   -1.5382   -0.0253   -0.9961 H   0  0  0  0  0  0  0  0  0  0  0  0
    0.5540    0.0516   -0.7181 C   0  0  1  0  0  0  0  0  0  0  0  0
    1.3100   -0.5748   -1.2045 H   0  0  0  0  0  0  0  0  0  0  0  0
    0.5219    1.3489   -1.5650 C   0  0  0  0  0  0  0  0  0  0  0  0
    1.5552    1.5912   -1.8261 H   0  0  0  0  0  0  0  0  0  0  0  0
   -0.0054    1.1575   -2.5041 H   0  0  0  0  0  0  0  0  0  0  0  0
   -0.0607    2.6160   -0.9355 C   0  0  0  0  0  0  0  0  0  0  0  0
   -0.3212    3.5314   -1.7503 O   0  5  0  0  0  0  0  0  0  0  0  0
   -0.5296    2.5662    0.2277 O   0  0  0  0  0  0  0  0  0  0  0  0
    1.0456    0.1248    0.7561 C   0  0  0  0  0  0  0  0  0  0  0  0
    2.2037   -0.1865    1.0247 O   0  0  0  0  0  0  0  0  0  0  0  0
    0.1879    0.4659    1.7853 N   0  0  0  0  0  0  0  0  0  0  0  0
   -0.5122    1.1449    1.4651 H   0  0  0  0  0  0  0  0  0  0  0  0
    0.6549    0.6165    3.1547 C   0  0  0  0  0  0  0  0  0  0  0  0
    1.3919    1.4233    3.2199 H   0  0  0  0  0  0  0  0  0  0  0  0
   -0.1862    0.8582    3.8110 H   0  0  0  0  0  0  0  0  0  0  0  0
    1.1129   -0.3125    3.5091 H   0  0  0  0  0  0  0  0  0  0  0  0
  1  2  1  0  0  0  0
  2  3  1  0  0  0  0
  2  4  1  0  0  0  0
  2  5  1  0  0  0  0
  5  6  2  0  0  0  0
  5  7  1  0  0  0  0
  7  8  1  0  0  0  0
  7  9  1  0  0  0  0
  9 10  1  0  0  0  0
  9 11  1  0  0  0  0
  9 17  1  0  0  0  0
 11 12  1  0  0  0  0
 11 13  1  0  0  0  0
 11 14  1  0  0  0  0
 14 15  1  0  0  0  0
 14 16  2  0  0  0  0
 17 18  2  0  0  0  0
 17 19  1  0  0  0  0
 19 20  1  0  0  0  0
 19 21  1  0  0  0  0
 21 22  1  0  0  0  0
 21 23  1  0  0  0  0
 21 24  1  0  0  0  0
M  CHG  1  15  -1
M  END
$$$$

  -OEChem-03222214023D

 24 23  0     1  0  0  0  0  0999 V2000
   -2.4255   -3.4828   -0.2681 H   0  0  0  0  0  0  0  0  0  0  0  0
   -2.3943   -2.4418   -0.6018 C   0  0  0  0  0  0  0  0  0  0  0  0
   -2.9868   -1.8343    0.0870 H   0  0  0  0  0  0  0  0  0  0  0  0
   -2.8313   -2.3779   -1.6014 H   0  0  0  0  0  0  0  0  0  0  0  0
   -0.9606   -1.9425   -0.6299 C   0  0  0  0  0  0  0  0  0  0  0  0
   -0.0495   -2.7216   -0.4046 O   0  0  0  0  0  0  0  0  0  0  0  0
   -0.7163   -0.6255   -0.9520 N   0  0  0  0  0  0  0  0  0  0  0  0
   -1.5330   -0.0267   -1.0260 H   0  0  0  0  0  0  0  0  0  0  0  0
    0.5616    0.0599   -0.7194 C   0  0  1  0  0  0  0  0  0  0  0  0
    1.3192   -0.5646   -1.2056 H   0  0  0  0  0  0  0  0  0  0  0  0
    0.5018    1.3478   -1.5813 C   0  0  0  0  0  0  0  0  0  0  0  0
    1.5283    1.5989   -1.8599 H   0  0  0  0  0  0  0  0  0  0  0  0
   -0.0322    1.1340   -2.5123 H   0  0  0  0  0  0  0  0  0  0  0  0
   -0.0841    2.6215   -0.9653 C   0  0  0  0  0  0  0  0  0  0  0  0
   -0.6344    3.3904   -1.7879 O   0  5  0  0  0  0  0  0  0  0  0  0
   -0.2011    2.7330    0.2771 O   0  0  0  0  0  0  0  0  0  0  0  0
    1.0539    0.1441    0.7540 C   0  0  0  0  0  0  0  0  0  0  0  0
    2.1953   -0.2178    1.0318 O   0  0  0  0  0  0  0  0  0  0  0  0
    0.1913    0.4940    1.7768 N   0  0  0  0  0  0  0  0  0  0  0  0
   -0.4470    1.2336    1.4645 H   0  0  0  0  0  0  0  0  0  0  0  0
    0.6468    0.5882    3.1553 C   0  0  0  0  0  0  0  0  0  0  0  0
    1.4257    1.3518    3.2491 H   0  0  0  0  0  0  0  0  0  0  0  0
   -0.1888    0.8606    3.8064 H   0  0  0  0  0  0  0  0  0  0  0  0
    1.0486   -0.3720    3.4940 H   0  0  0  0  0  0  0  0  0  0  0  0
  1  2  1  0  0  0  0
  2  3  1  0  0  0  0
  2  4  1  0  0  0  0
  2  5  1  0  0  0  0
  5  6  2  0  0  0  0
  5  7  1  0  0  0  0
  7  8  1  0  0  0  0
  7  9  1  0  0  0  0
  9 10  1  0  0  0  0
  9 11  1  0  0  0  0
  9 17  1  0  0  0  0
 11 12  1  0  0  0  0
 11 13  1  0  0  0  0
 11 14  1  0  0  0  0
 14 15  1  0  0  0  0
 14 16  2  0  0  0  0
 17 18  2  0  0  0  0
 17 19  1  0  0  0  0
 19 20  1  0  0  0  0
 19 21  1  0  0  0  0
 21 22  1  0  0  0  0
 21 23  1  0  0  0  0
 21 24  1  0  0  0  0
M  CHG  1  15  -1
M  END
$$$$

  -OEChem-03222214023D

 24 23  0     1  0  0  0  0  0999 V2000
   -2.4313   -3.4678   -0.2535 H   0  0  0  0  0  0  0  0  0  0  0  0
   -2.3887   -2.4272   -0.5869 C   0  0  0  0  0  0  0  0  0  0  0  0
   -2.9781   -1.8140    0.0993 H   0  0  0  0  0  0  0  0  0  0  0  0
   -2.8201   -2.3584   -1.5885 H   0  0  0  0  0  0  0  0  0  0  0  0
   -0.9503   -1.9415   -0.6079 C   0  0  0  0  0  0  0  0  0  0  0  0
   -0.0484   -2.7232   -0.3569 O   0  0  0  0  0  0  0  0  0  0  0  0
   -0.6922   -0.6339   -0.9561 N   0  0  0  0  0  0  0  0  0  0  0  0
   -1.5031   -0.0340   -1.0760 H   0  0  0  0  0  0  0  0  0  0  0  0
    0.5902    0.0484   -0.7364 C   0  0  1  0  0  0  0  0  0  0  0  0
    1.3528   -0.5683   -1.2243 H   0  0  0  0  0  0  0  0  0  0  0  0
    0.4830    1.3361   -1.5929 C   0  0  0  0  0  0  0  0  0  0  0  0
    1.4960    1.6127   -1.8954 H   0  0  0  0  0  0  0  0  0  0  0  0
   -0.0690    1.1225   -2.5136 H   0  0  0  0  0  0  0  0  0  0  0  0
   -0.1102    2.5819   -0.9321 C   0  0  0  0  0  0  0  0  0  0  0  0
   -0.9480    3.1980   -1.6317 O   0  5  0  0  0  0  0  0  0  0  0  0
    0.1430    2.8588    0.2619 O   0  0  0  0  0  0  0  0  0  0  0  0
    1.0691    0.1542    0.7396 C   0  0  0  0  0  0  0  0  0  0  0  0
    2.1876   -0.2561    1.0420 O   0  0  0  0  0  0  0  0  0  0  0  0
    0.1928    0.5299    1.7425 N   0  0  0  0  0  0  0  0  0  0  0  0
   -0.3958    1.3053    1.4251 H   0  0  0  0  0  0  0  0  0  0  0  0
    0.6208    0.5943    3.1315 C   0  0  0  0  0  0  0  0  0  0  0  0
    1.4244    1.3284    3.2491 H   0  0  0  0  0  0  0  0  0  0  0  0
   -0.2180    0.8909    3.7677 H   0  0  0  0  0  0  0  0  0  0  0  0
    0.9801   -0.3831    3.4689 H   0  0  0  0  0  0  0  0  0  0  0  0
  1  2  1  0  0  0  0
  2  3  1  0  0  0  0
  2  4  1  0  0  0  0
  2  5  1  0  0  0  0
  5  6  2  0  0  0  0
  5  7  1  0  0  0  0
  7  8  1  0  0  0  0
  7  9  1  0  0  0  0
  9 10  1  0  0  0  0
  9 11  1  0  0  0  0
  9 17  1  0  0  0  0
 11 12  1  0  0  0  0
 11 13  1  0  0  0  0
 11 14  1  0  0  0  0
 14 15  1  0  0  0  0
 14 16  2  0  0  0  0
 17 18  2  0  0  0  0
 17 19  1  0  0  0  0
 19 20  1  0  0  0  0
 19 21  1  0  0  0  0
 21 22  1  0  0  0  0
 21 23  1  0  0  0  0
 21 24  1  0  0  0  0
M  CHG  1  15  -1
M  END
$$$$

  -OEChem-03222214023D

 24 23  0     1  0  0  0  0  0999 V2000
   -2.4441   -3.4488   -0.2285 H   0  0  0  0  0  0  0  0  0  0  0  0
   -2.3898   -2.4163   -0.5847 C   0  0  0  0  0  0  0  0  0  0  0  0
   -2.9786   -1.7825    0.0831 H   0  0  0  0  0  0  0  0  0  0  0  0
   -2.8137   -2.3666   -1.5908 H   0  0  0  0  0  0  0  0  0  0  0  0
   -0.9469   -1.9441   -0.6064 C   0  0  0  0  0  0  0  0  0  0  0  0
   -0.0534   -2.7306   -0.3411 O   0  0  0  0  0  0  0  0  0  0  0  0
   -0.6733   -0.6450   -0.9737 N   0  0  0  0  0  0  0  0  0  0  0  0
   -1.4774   -0.0375   -1.1091 H   0  0  0  0  0  0  0  0  0  0  0  0
    0.6144    0.0288   -0.7576 C   0  0  1  0  0  0  0  0  0  0  0  0
    1.3807   -0.5800   -1.2493 H   0  0  0  0  0  0  0  0  0  0  0  0
    0.4763    1.3239   -1.5929 C   0  0  0  0  0  0  0  0  0  0  0  0
    1.4779    1.6253   -1.9095 H   0  0  0  0  0  0  0  0  0  0  0  0
   -0.0952    1.1330   -2.5068 H   0  0  0  0  0  0  0  0  0  0  0  0
   -0.1179    2.5201   -0.8555 C   0  0  0  0  0  0  0  0  0  0  0  0
   -1.1788    2.9723   -1.3470 O   0  5  0  0  0  0  0  0  0  0  0  0
    0.4086    2.9440    0.1974 O   0  0  0  0  0  0  0  0  0  0  0  0
    1.0792    0.1500    0.7215 C   0  0  0  0  0  0  0  0  0  0  0  0
    2.1863   -0.2757    1.0432 O   0  0  0  0  0  0  0  0  0  0  0  0
    0.1937    0.5489    1.7086 N   0  0  0  0  0  0  0  0  0  0  0  0
   -0.4123    1.3013    1.3774 H   0  0  0  0  0  0  0  0  0  0  0  0
    0.6089    0.6405    3.1000 C   0  0  0  0  0  0  0  0  0  0  0  0
    1.4189    1.3689    3.2094 H   0  0  0  0  0  0  0  0  0  0  0  0
   -0.2333    0.9601    3.7203 H   0  0  0  0  0  0  0  0  0  0  0  0
    0.9545   -0.3328    3.4628 H   0  0  0  0  0  0  0  0  0  0  0  0
  1  2  1  0  0  0  0
  2  3  1  0  0  0  0
  2  4  1  0  0  0  0
  2  5  1  0  0  0  0
  5  6  2  0  0  0  0
  5  7  1  0  0  0  0
  7  8  1  0  0  0  0
  7  9  1  0  0  0  0
  9 10  1  0  0  0  0
  9 11  1  0  0  0  0
  9 17  1  0  0  0  0
 11 12  1  0  0  0  0
 11 13  1  0  0  0  0
 11 14  1  0  0  0  0
 14 15  1  0  0  0  0
 14 16  2  0  0  0  0
 17 18  2  0  0  0  0
 17 19  1  0  0  0  0
 19 20  1  0  0  0  0
 19 21  1  0  0  0  0
 21 22  1  0  0  0  0
 21 23  1  0  0  0  0
 21 24  1  0  0  0  0
M  CHG  1  15  -1
M  END
$$$$

  -OEChem-03222214023D

 24 23  0     1  0  0  0  0  0999 V2000
   -2.4582   -3.4336   -0.2257 H   0  0  0  0  0  0  0  0  0  0  0  0
   -2.3941   -2.4022   -0.5831 C   0  0  0  0  0  0  0  0  0  0  0  0
   -2.9657   -1.7601    0.0919 H   0  0  0  0  0  0  0  0  0  0  0  0
   -2.8301   -2.3464   -1.5834 H   0  0  0  0  0  0  0  0  0  0  0  0
   -0.9452   -1.9501   -0.6237 C   0  0  0  0  0  0  0  0  0  0  0  0
   -0.0586   -2.7462   -0.3636 O   0  0  0  0  0  0  0  0  0  0  0  0
   -0.6578   -0.6564   -0.9983 N   0  0  0  0  0  0  0  0  0  0  0  0
   -1.4557   -0.0355   -1.1191 H   0  0  0  0  0  0  0  0  0  0  0  0
    0.6354    0.0051   -0.7809 C   0  0  1  0  0  0  0  0  0  0  0  0
    1.4035   -0.5963   -1.2789 H   0  0  0  0  0  0  0  0  0  0  0  0
    0.4841    1.3157   -1.5831 C   0  0  0  0  0  0  0  0  0  0  0  0
    1.4784    1.6342   -1.9071 H   0  0  0  0  0  0  0  0  0  0  0  0
   -0.1096    1.1620   -2.4896 H   0  0  0  0  0  0  0  0  0  0  0  0
   -0.1002    2.4543   -0.7616 C   0  0  0  0  0  0  0  0  0  0  0  0
   -1.3003    2.7248   -1.0071 O   0  5  0  0  0  0  0  0  0  0  0  0
    0.5948    3.0251    0.1076 O   0  0  0  0  0  0  0  0  0  0  0  0
    1.0816    0.1234    0.7036 C   0  0  0  0  0  0  0  0  0  0  0  0
    2.1928   -0.2795    1.0381 O   0  0  0  0  0  0  0  0  0  0  0  0
    0.1854    0.5332    1.6777 N   0  0  0  0  0  0  0  0  0  0  0  0
   -0.5104    1.1893    1.3256 H   0  0  0  0  0  0  0  0  0  0  0  0
    0.5996    0.7136    3.0604 C   0  0  0  0  0  0  0  0  0  0  0  0
    1.3786    1.4801    3.1277 H   0  0  0  0  0  0  0  0  0  0  0  0
   -0.2537    1.0295    3.6675 H   0  0  0  0  0  0  0  0  0  0  0  0
    0.9867   -0.2243    3.4713 H   0  0  0  0  0  0  0  0  0  0  0  0
  1  2  1  0  0  0  0
  2  3  1  0  0  0  0
  2  4  1  0  0  0  0
  2  5  1  0  0  0  0
  5  6  2  0  0  0  0
  5  7  1  0  0  0  0
  7  8  1  0  0  0  0
  7  9  1  0  0  0  0
  9 10  1  0  0  0  0
  9 11  1  0  0  0  0
  9 17  1  0  0  0  0
 11 12  1  0  0  0  0
 11 13  1  0  0  0  0
 11 14  1  0  0  0  0
 14 15  1  0  0  0  0
 14 16  2  0  0  0  0
 17 18  2  0  0  0  0
 17 19  1  0  0  0  0
 19 20  1  0  0  0  0
 19 21  1  0  0  0  0
 21 22  1  0  0  0  0
 21 23  1  0  0  0  0
 21 24  1  0  0  0  0
M  CHG  1  15  -1
M  END
$$$$

  -OEChem-03222214023D

 24 23  0     1  0  0  0  0  0999 V2000
   -2.4560   -3.4131   -0.1901 H   0  0  0  0  0  0  0  0  0  0  0  0
   -2.3898   -2.3867   -0.5614 C   0  0  0  0  0  0  0  0  0  0  0  0
   -2.9351   -1.7298    0.1213 H   0  0  0  0  0  0  0  0  0  0  0  0
   -2.8522   -2.3371   -1.5503 H   0  0  0  0  0  0  0  0  0  0  0  0
   -0.9377   -1.9519   -0.6464 C   0  0  0  0  0  0  0  0  0  0  0  0
   -0.0522   -2.7586   -0.4151 O   0  0  0  0  0  0  0  0  0  0  0  0
   -0.6455   -0.6609   -1.0255 N   0  0  0  0  0  0  0  0  0  0  0  0
   -1.4403   -0.0253   -1.0920 H   0  0  0  0  0  0  0  0  0  0  0  0
    0.6521   -0.0101   -0.8060 C   0  0  1  0  0  0  0  0  0  0  0  0
    1.4215   -0.6055   -1.3086 H   0  0  0  0  0  0  0  0  0  0  0  0
    0.4969    1.3160   -1.5782 C   0  0  0  0  0  0  0  0  0  0  0  0
    1.4862    1.6435   -1.9086 H   0  0  0  0  0  0  0  0  0  0  0  0
   -0.1171    1.1949   -2.4758 H   0  0  0  0  0  0  0  0  0  0  0  0
   -0.0758    2.4070   -0.6918 C   0  0  0  0  0  0  0  0  0  0  0  0
   -1.3300    2.4782   -0.6887 O   0  5  0  0  0  0  0  0  0  0  0  0
    0.6854    3.1332   -0.0156 O   0  0  0  0  0  0  0  0  0  0  0  0
    1.0809    0.0999    0.6838 C   0  0  0  0  0  0  0  0  0  0  0  0
    2.1996   -0.2702    1.0294 O   0  0  0  0  0  0  0  0  0  0  0  0
    0.1719    0.5154    1.6442 N   0  0  0  0  0  0  0  0  0  0  0  0
   -0.5824    1.0949    1.2749 H   0  0  0  0  0  0  0  0  0  0  0  0
    0.5733    0.7584    3.0207 C   0  0  0  0  0  0  0  0  0  0  0  0
    1.3275    1.5509    3.0626 H   0  0  0  0  0  0  0  0  0  0  0  0
   -0.2921    1.0691    3.6128 H   0  0  0  0  0  0  0  0  0  0  0  0
    0.9877   -0.1511    3.4671 H   0  0  0  0  0  0  0  0  0  0  0  0
  1  2  1  0  0  0  0
  2  3  1  0  0  0  0
  2  4  1  0  0  0  0
  2  5  1  0  0  0  0
  5  6  2  0  0  0  0
  5  7  1  0  0  0  0
  7  8  1  0  0  0  0
  7  9  1  0  0  0  0
  9 10  1  0  0  0  0
  9 11  1  0  0  0  0
  9 17  1  0  0  0  0
 11 12  1  0  0  0  0
 11 13  1  0  0  0  0
 11 14  1  0  0  0  0
 14 15  1  0  0  0  0
 14 16  2  0  0  0  0
 17 18  2  0  0  0  0
 17 19  1  0  0  0  0
 19 20  1  0  0  0  0
 19 21  1  0  0  0  0
 21 22  1  0  0  0  0
 21 23  1  0  0  0  0
 21 24  1  0  0  0  0
M  CHG  1  15  -1
M  END
$$$$

  -OEChem-03222214023D

 24 23  0     1  0  0  0  0  0999 V2000
   -2.4405   -3.4024   -0.1519 H   0  0  0  0  0  0  0  0  0  0  0  0
   -2.3804   -2.3768   -0.5264 C   0  0  0  0  0  0  0  0  0  0  0  0
   -2.8933   -1.7150    0.1763 H   0  0  0  0  0  0  0  0  0  0  0  0
   -2.8801   -2.3237   -1.4966 H   0  0  0  0  0  0  0  0  0  0  0  0
   -0.9292   -1.9542   -0.6676 C   0  0  0  0  0  0  0  0  0  0  0  0
   -0.0415   -2.7691   -0.4753 O   0  0  0  0  0  0  0  0  0  0  0  0
   -0.6399   -0.6632   -1.0485 N   0  0  0  0  0  0  0  0  0  0  0  0
   -1.4313   -0.0184   -1.0495 H   0  0  0  0  0  0  0  0  0  0  0  0
    0.6597   -0.0192   -0.8251 C   0  0  1  0  0  0  0  0  0  0  0  0
    1.4295   -0.6119   -1.3302 H   0  0  0  0  0  0  0  0  0  0  0  0
    0.5134    1.3210   -1.5765 C   0  0  0  0  0  0  0  0  0  0  0  0
    1.5037    1.6461   -1.9069 H   0  0  0  0  0  0  0  0  0  0  0  0
   -0.1105    1.2220   -2.4696 H   0  0  0  0  0  0  0  0  0  0  0  0
   -0.0504    2.3926   -0.6612 C   0  0  0  0  0  0  0  0  0  0  0  0
   -1.2817    2.2815   -0.4220 O   0  5  0  0  0  0  0  0  0  0  0  0
    0.6946    3.2843   -0.1990 O   0  0  0  0  0  0  0  0  0  0  0  0
    1.0753    0.0820    0.6685 C   0  0  0  0  0  0  0  0  0  0  0  0
    2.1998   -0.2604    1.0222 O   0  0  0  0  0  0  0  0  0  0  0  0
    0.1550    0.4985    1.6170 N   0  0  0  0  0  0  0  0  0  0  0  0
   -0.6183    1.0465    1.2298 H   0  0  0  0  0  0  0  0  0  0  0  0
    0.5375    0.7712    2.9930 C   0  0  0  0  0  0  0  0  0  0  0  0
    1.2679    1.5859    3.0304 H   0  0  0  0  0  0  0  0  0  0  0  0
   -0.3420    1.0641    3.5736 H   0  0  0  0  0  0  0  0  0  0  0  0
    0.9743   -0.1198    3.4550 H   0  0  0  0  0  0  0  0  0  0  0  0
  1  2  1  0  0  0  0
  2  3  1  0  0  0  0
  2  4  1  0  0  0  0
  2  5  1  0  0  0  0
  5  6  2  0  0  0  0
  5  7  1  0  0  0  0
  7  8  1  0  0  0  0
  7  9  1  0  0  0  0
  9 10  1  0  0  0  0
  9 11  1  0  0  0  0
  9 17  1  0  0  0  0
 11 12  1  0  0  0  0
 11 13  1  0  0  0  0
 11 14  1  0  0  0  0
 14 15  1  0  0  0  0
 14 16  2  0  0  0  0
 17 18  2  0  0  0  0
 17 19  1  0  0  0  0
 19 20  1  0  0  0  0
 19 21  1  0  0  0  0
 21 22  1  0  0  0  0
 21 23  1  0  0  0  0
 21 24  1  0  0  0  0
M  CHG  1  15  -1
M  END
$$$$

  -OEChem-03222214023D

 24 23  0     1  0  0  0  0  0999 V2000
   -2.4350   -3.4174   -0.1608 H   0  0  0  0  0  0  0  0  0  0  0  0
   -2.3813   -2.3893   -0.5293 C   0  0  0  0  0  0  0  0  0  0  0  0
   -2.8901   -1.7337    0.1822 H   0  0  0  0  0  0  0  0  0  0  0  0
   -2.8895   -2.3314   -1.4949 H   0  0  0  0  0  0  0  0  0  0  0  0
   -0.9329   -1.9609   -0.6802 C   0  0  0  0  0  0  0  0  0  0  0  0
   -0.0406   -2.7744   -0.5035 O   0  0  0  0  0  0  0  0  0  0  0  0
   -0.6527   -0.6652   -1.0513 N   0  0  0  0  0  0  0  0  0  0  0  0
   -1.4451   -0.0230   -1.0152 H   0  0  0  0  0  0  0  0  0  0  0  0
    0.6421   -0.0181   -0.8150 C   0  0  1  0  0  0  0  0  0  0  0  0
    1.4118   -0.6160   -1.3145 H   0  0  0  0  0  0  0  0  0  0  0  0
    0.5250    1.3228   -1.5726 C   0  0  0  0  0  0  0  0  0  0  0  0
    1.5259    1.6298   -1.8881 H   0  0  0  0  0  0  0  0  0  0  0  0
   -0.0841    1.2204   -2.4750 H   0  0  0  0  0  0  0  0  0  0  0  0
   -0.0468    2.4216   -0.6905 C   0  0  0  0  0  0  0  0  0  0  0  0
   -1.2012    2.1925   -0.2357 O   0  5  0  0  0  0  0  0  0  0  0  0
    0.6109    3.4663   -0.4888 O   0  0  0  0  0  0  0  0  0  0  0  0
    1.0652    0.0817    0.6764 C   0  0  0  0  0  0  0  0  0  0  0  0
    2.2005   -0.2347    1.0196 O   0  0  0  0  0  0  0  0  0  0  0  0
    0.1529    0.4905    1.6339 N   0  0  0  0  0  0  0  0  0  0  0  0
   -0.6246    1.0377    1.2473 H   0  0  0  0  0  0  0  0  0  0  0  0
    0.5410    0.7618    3.0087 C   0  0  0  0  0  0  0  0  0  0  0  0
    1.2704    1.5773    3.0448 H   0  0  0  0  0  0  0  0  0  0  0  0
   -0.3366    1.0524    3.5933 H   0  0  0  0  0  0  0  0  0  0  0  0
    0.9809   -0.1297    3.4670 H   0  0  0  0  0  0  0  0  0  0  0  0
  1  2  1  0  0  0  0
  2  3  1  0  0  0  0
  2  4  1  0  0  0  0
  2  5  1  0  0  0  0
  5  6  2  0  0  0  0
  5  7  1  0  0  0  0
  7  8  1  0  0  0  0
  7  9  1  0  0  0  0
  9 10  1  0  0  0  0
  9 11  1  0  0  0  0
  9 17  1  0  0  0  0
 11 12  1  0  0  0  0
 11 13  1  0  0  0  0
 11 14  1  0  0  0  0
 14 15  1  0  0  0  0
 14 16  2  0  0  0  0
 17 18  2  0  0  0  0
 17 19  1  0  0  0  0
 19 20  1  0  0  0  0
 19 21  1  0  0  0  0
 21 22  1  0  0  0  0
 21 23  1  0  0  0  0
 21 24  1  0  0  0  0
M  CHG  1  15  -1
M  END
$$$$

  -OEChem-03222214023D

 24 23  0     1  0  0  0  0  0999 V2000
   -2.4291   -3.4505   -0.2003 H   0  0  0  0  0  0  0  0  0  0  0  0
   -2.3869   -2.4164   -0.5528 C   0  0  0  0  0  0  0  0  0  0  0  0
   -2.9080   -1.7787    0.1659 H   0  0  0  0  0  0  0  0  0  0  0  0
   -2.8907   -2.3505   -1.5201 H   0  0  0  0  0  0  0  0  0  0  0  0
   -0.9432   -1.9672   -0.6898 C   0  0  0  0  0  0  0  0  0  0  0  0
   -0.0423   -2.7723   -0.5174 O   0  0  0  0  0  0  0  0  0  0  0  0
   -0.6781   -0.6625   -1.0408 N   0  0  0  0  0  0  0  0  0  0  0  0
   -1.4779   -0.0321   -0.9972 H   0  0  0  0  0  0  0  0  0  0  0  0
    0.6080   -0.0054   -0.7877 C   0  0  1  0  0  0  0  0  0  0  0  0
    1.3758   -0.6138   -1.2776 H   0  0  0  0  0  0  0  0  0  0  0  0
    0.5343    1.3262   -1.5688 C   0  0  0  0  0  0  0  0  0  0  0  0
    1.5512    1.6072   -1.8565 H   0  0  0  0  0  0  0  0  0  0  0  0
   -0.0436    1.2053   -2.4890 H   0  0  0  0  0  0  0  0  0  0  0  0
   -0.0508    2.4765   -0.7585 C   0  0  0  0  0  0  0  0  0  0  0  0
   -1.0921    2.2138   -0.0961 O   0  5  0  0  0  0  0  0  0  0  0  0
    0.4813    3.6064   -0.8371 O   0  0  0  0  0  0  0  0  0  0  0  0
    1.0486    0.0908    0.6995 C   0  0  0  0  0  0  0  0  0  0  0  0
    2.1959   -0.2063    1.0202 O   0  0  0  0  0  0  0  0  0  0  0  0
    0.1540    0.4807    1.6792 N   0  0  0  0  0  0  0  0  0  0  0  0
   -0.6203    1.0431    1.3067 H   0  0  0  0  0  0  0  0  0  0  0  0
    0.5659    0.7401    3.0496 C   0  0  0  0  0  0  0  0  0  0  0  0
    1.2812    1.5681    3.0828 H   0  0  0  0  0  0  0  0  0  0  0  0
   -0.3042    1.0066    3.6564 H   0  0  0  0  0  0  0  0  0  0  0  0
    1.0311   -0.1495    3.4861 H   0  0  0  0  0  0  0  0  0  0  0  0
  1  2  1  0  0  0  0
  2  3  1  0  0  0  0
  2  4  1  0  0  0  0
  2  5  1  0  0  0  0
  5  6  2  0  0  0  0
  5  7  1  0  0  0  0
  7  8  1  0  0  0  0
  7  9  1  0  0  0  0
  9 10  1  0  0  0  0
  9 11  1  0  0  0  0
  9 17  1  0  0  0  0
 11 12  1  0  0  0  0
 11 13  1  0  0  0  0
 11 14  1  0  0  0  0
 14 15  1  0  0  0  0
 14 16  2  0  0  0  0
 17 18  2  0  0  0  0
 17 19  1  0  0  0  0
 19 20  1  0  0  0  0
 19 21  1  0  0  0  0
 21 22  1  0  0  0  0
 21 23  1  0  0  0  0
 21 24  1  0  0  0  0
M  CHG  1  15  -1
M  END
$$$$

  -OEChem-03222214023D

 24 23  0     1  0  0  0  0  0999 V2000
   -2.4227   -3.4958   -0.2890 H   0  0  0  0  0  0  0  0  0  0  0  0
   -2.3907   -2.4432   -0.5837 C   0  0  0  0  0  0  0  0  0  0  0  0
   -2.9259   -1.8520    0.1636 H   0  0  0  0  0  0  0  0  0  0  0  0
   -2.8871   -2.3312   -1.5506 H   0  0  0  0  0  0  0  0  0  0  0  0
   -0.9517   -1.9693   -0.6823 C   0  0  0  0  0  0  0  0  0  0  0  0
   -0.0425   -2.7615   -0.4959 O   0  0  0  0  0  0  0  0  0  0  0  0
   -0.7013   -0.6565   -1.0147 N   0  0  0  0  0  0  0  0  0  0  0  0
   -1.5109   -0.0404   -0.9866 H   0  0  0  0  0  0  0  0  0  0  0  0
    0.5760    0.0158   -0.7560 C   0  0  1  0  0  0  0  0  0  0  0  0
    1.3417   -0.6018   -1.2380 H   0  0  0  0  0  0  0  0  0  0  0  0
    0.5322    1.3309   -1.5695 C   0  0  0  0  0  0  0  0  0  0  0  0
    1.5607    1.5913   -1.8351 H   0  0  0  0  0  0  0  0  0  0  0  0
   -0.0173    1.1807   -2.5026 H   0  0  0  0  0  0  0  0  0  0  0  0
   -0.0612    2.5339   -0.8417 C   0  0  0  0  0  0  0  0  0  0  0  0
   -0.9477    2.3100    0.0252 O   0  5  0  0  0  0  0  0  0  0  0  0
    0.3090    3.6741   -1.2026 O   0  0  0  0  0  0  0  0  0  0  0  0
    1.0368    0.1087    0.7261 C   0  0  0  0  0  0  0  0  0  0  0  0
    2.1928   -0.1797    1.0242 O   0  0  0  0  0  0  0  0  0  0  0  0
    0.1586    0.4765    1.7282 N   0  0  0  0  0  0  0  0  0  0  0  0
   -0.5996    1.0723    1.3745 H   0  0  0  0  0  0  0  0  0  0  0  0
    0.5940    0.7038    3.0972 C   0  0  0  0  0  0  0  0  0  0  0  0
    1.3089    1.5318    3.1378 H   0  0  0  0  0  0  0  0  0  0  0  0
   -0.2659    0.9535    3.7256 H   0  0  0  0  0  0  0  0  0  0  0  0
    1.0684   -0.1950    3.5039 H   0  0  0  0  0  0  0  0  0  0  0  0
  1  2  1  0  0  0  0
  2  3  1  0  0  0  0
  2  4  1  0  0  0  0
  2  5  1  0  0  0  0
  5  6  2  0  0  0  0
  5  7  1  0  0  0  0
  7  8  1  0  0  0  0
  7  9  1  0  0  0  0
  9 10  1  0  0  0  0
  9 11  1  0  0  0  0
  9 17  1  0  0  0  0
 11 12  1  0  0  0  0
 11 13  1  0  0  0  0
 11 14  1  0  0  0  0
 14 15  1  0  0  0  0
 14 16  2  0  0  0  0
 17 18  2  0  0  0  0
 17 19  1  0  0  0  0
 19 20  1  0  0  0  0
 19 21  1  0  0  0  0
 21 22  1  0  0  0  0
 21 23  1  0  0  0  0
 21 24  1  0  0  0  0
M  CHG  1  15  -1
M  END
$$$$

  -OEChem-03222214023D

 24 23  0     1  0  0  0  0  0999 V2000
   -2.4064   -3.5193   -0.3170 H   0  0  0  0  0  0  0  0  0  0  0  0
   -2.3872   -2.4621   -0.5963 C   0  0  0  0  0  0  0  0  0  0  0  0
   -2.9376   -1.8898    0.1547 H   0  0  0  0  0  0  0  0  0  0  0  0
   -2.8767   -2.3437   -1.5660 H   0  0  0  0  0  0  0  0  0  0  0  0
   -0.9544   -1.9662   -0.6753 C   0  0  0  0  0  0  0  0  0  0  0  0
   -0.0370   -2.7479   -0.4867 O   0  0  0  0  0  0  0  0  0  0  0  0
   -0.7193   -0.6464   -0.9929 N   0  0  0  0  0  0  0  0  0  0  0  0
   -1.5379   -0.0441   -0.9854 H   0  0  0  0  0  0  0  0  0  0  0  0
    0.5529    0.0383   -0.7357 C   0  0  1  0  0  0  0  0  0  0  0  0
    1.3168   -0.5827   -1.2163 H   0  0  0  0  0  0  0  0  0  0  0  0
    0.5230    1.3428   -1.5701 C   0  0  0  0  0  0  0  0  0  0  0  0
    1.5575    1.5910   -1.8230 H   0  0  0  0  0  0  0  0  0  0  0  0
   -0.0083    1.1694   -2.5100 H   0  0  0  0  0  0  0  0  0  0  0  0
   -0.0707    2.5841   -0.9052 C   0  0  0  0  0  0  0  0  0  0  0  0
   -0.7584    2.4462    0.1383 O   0  5  0  0  0  0  0  0  0  0  0  0
    0.1023    3.6728   -1.4994 O   0  0  0  0  0  0  0  0  0  0  0  0
    1.0287    0.1218    0.7430 C   0  0  0  0  0  0  0  0  0  0  0  0
    2.1858   -0.1782    1.0266 O   0  0  0  0  0  0  0  0  0  0  0  0
    0.1592    0.4683    1.7601 N   0  0  0  0  0  0  0  0  0  0  0  0
   -0.5704    1.1075    1.4235 H   0  0  0  0  0  0  0  0  0  0  0  0
    0.6114    0.6600    3.1292 C   0  0  0  0  0  0  0  0  0  0  0  0
    1.3394    1.4761    3.1801 H   0  0  0  0  0  0  0  0  0  0  0  0
   -0.2386    0.9102    3.7706 H   0  0  0  0  0  0  0  0  0  0  0  0
    1.0754   -0.2542    3.5127 H   0  0  0  0  0  0  0  0  0  0  0  0
  1  2  1  0  0  0  0
  2  3  1  0  0  0  0
  2  4  1  0  0  0  0
  2  5  1  0  0  0  0
  5  6  2  0  0  0  0
  5  7  1  0  0  0  0
  7  8  1  0  0  0  0
  7  9  1  0  0  0  0
  9 10  1  0  0  0  0
  9 11  1  0  0  0  0
  9 17  1  0  0  0  0
 11 12  1  0  0  0  0
 11 13  1  0  0  0  0
 11 14  1  0  0  0  0
 14 15  1  0  0  0  0
 14 16  2  0  0  0  0
 17 18  2  0  0  0  0
 17 19  1  0  0  0  0
 19 20  1  0  0  0  0
 19 21  1  0  0  0  0
 21 22  1  0  0  0  0
 21 23  1  0  0  0  0
 21 24  1  0  0  0  0
M  CHG  1  15  -1
M  END
$$$$

  -OEChem-03222214023D

 24 23  0     1  0  0  0  0  0999 V2000
   -2.3994   -3.5251   -0.3303 H   0  0  0  0  0  0  0  0  0  0  0  0
   -2.3850   -2.4657   -0.6011 C   0  0  0  0  0  0  0  0  0  0  0  0
   -2.9475   -1.9034    0.1486 H   0  0  0  0  0  0  0  0  0  0  0  0
   -2.8657   -2.3437   -1.5747 H   0  0  0  0  0  0  0  0  0  0  0  0
   -0.9550   -1.9590   -0.6608 C   0  0  0  0  0  0  0  0  0  0  0  0
   -0.0347   -2.7346   -0.4626 O   0  0  0  0  0  0  0  0  0  0  0  0
   -0.7257   -0.6370   -0.9738 N   0  0  0  0  0  0  0  0  0  0  0  0
   -1.5487   -0.0427   -0.9970 H   0  0  0  0  0  0  0  0  0  0  0  0
    0.5444    0.0555   -0.7229 C   0  0  1  0  0  0  0  0  0  0  0  0
    1.3077   -0.5667   -1.2030 H   0  0  0  0  0  0  0  0  0  0  0  0
    0.5097    1.3494   -1.5753 C   0  0  0  0  0  0  0  0  0  0  0  0
    1.5450    1.5955   -1.8257 H   0  0  0  0  0  0  0  0  0  0  0  0
   -0.0126    1.1533   -2.5160 H   0  0  0  0  0  0  0  0  0  0  0  0
   -0.0849    2.6129   -0.9516 C   0  0  0  0  0  0  0  0  0  0  0  0
   -0.5335    2.5857    0.2202 O   0  5  0  0  0  0  0  0  0  0  0  0
   -0.1586    3.6067   -1.7105 O   0  0  0  0  0  0  0  0  0  0  0  0
    1.0293    0.1373    0.7534 C   0  0  0  0  0  0  0  0  0  0  0  0
    2.1821   -0.1853    1.0307 O   0  0  0  0  0  0  0  0  0  0  0  0
    0.1641    0.4751    1.7774 N   0  0  0  0  0  0  0  0  0  0  0  0
   -0.5262    1.1635    1.4560 H   0  0  0  0  0  0  0  0  0  0  0  0
    0.6233    0.6166    3.1506 C   0  0  0  0  0  0  0  0  0  0  0  0
    1.3813    1.4033    3.2207 H   0  0  0  0  0  0  0  0  0  0  0  0
   -0.2164    0.8823    3.7995 H   0  0  0  0  0  0  0  0  0  0  0  0
    1.0529   -0.3236    3.5110 H   0  0  0  0  0  0  0  0  0  0  0  0
  1  2  1  0  0  0  0
  2  3  1  0  0  0  0
  2  4  1  0  0  0  0
  2  5  1  0  0  0  0
  5  6  2  0  0  0  0
  5  7  1  0  0  0  0
  7  8  1  0  0  0  0
  7  9  1  0  0  0  0
  9 10  1  0  0  0  0
  9 11  1  0  0  0  0
  9 17  1  0  0  0  0
 11 12  1  0  0  0  0
 11 13  1  0  0  0  0
 11 14  1  0  0  0  0
 14 15  1  0  0  0  0
 14 16  2  0  0  0  0
 17 18  2  0  0  0  0
 17 19  1  0  0  0  0
 19 20  1  0  0  0  0
 19 21  1  0  0  0  0
 21 22  1  0  0  0  0
 21 23  1  0  0  0  0
 21 24  1  0  0  0  0
M  CHG  1  15  -1
M  END
$$$$

  -OEChem-03222214023D

 24 23  0     1  0  0  0  0  0999 V2000
   -2.4024   -3.5178   -0.3310 H   0  0  0  0  0  0  0  0  0  0  0  0
   -2.3851   -2.4572   -0.5971 C   0  0  0  0  0  0  0  0  0  0  0  0
   -2.9585   -1.8985    0.1469 H   0  0  0  0  0  0  0  0  0  0  0  0
   -2.8517   -2.3314   -1.5771 H   0  0  0  0  0  0  0  0  0  0  0  0
   -0.9547   -1.9494   -0.6348 C   0  0  0  0  0  0  0  0  0  0  0  0
   -0.0376   -2.7230   -0.4152 O   0  0  0  0  0  0  0  0  0  0  0  0
   -0.7208   -0.6305   -0.9576 N   0  0  0  0  0  0  0  0  0  0  0  0
   -1.5425   -0.0378   -1.0206 H   0  0  0  0  0  0  0  0  0  0  0  0
    0.5527    0.0622   -0.7215 C   0  0  1  0  0  0  0  0  0  0  0  0
    1.3141   -0.5603   -1.2042 H   0  0  0  0  0  0  0  0  0  0  0  0
    0.4973    1.3501   -1.5838 C   0  0  0  0  0  0  0  0  0  0  0  0
    1.5283    1.6006   -1.8467 H   0  0  0  0  0  0  0  0  0  0  0  0
   -0.0294    1.1395   -2.5192 H   0  0  0  0  0  0  0  0  0  0  0  0
   -0.0940    2.6216   -0.9706 C   0  0  0  0  0  0  0  0  0  0  0  0
   -0.2697    2.7154    0.2666 O   0  5  0  0  0  0  0  0  0  0  0  0
   -0.4587    3.4886   -1.7984 O   0  0  0  0  0  0  0  0  0  0  0  0
    1.0401    0.1487    0.7537 C   0  0  0  0  0  0  0  0  0  0  0  0
    2.1811   -0.2106    1.0356 O   0  0  0  0  0  0  0  0  0  0  0  0
    0.1731    0.4934    1.7745 N   0  0  0  0  0  0  0  0  0  0  0  0
   -0.4680    1.2305    1.4618 H   0  0  0  0  0  0  0  0  0  0  0  0
    0.6224    0.5847    3.1551 C   0  0  0  0  0  0  0  0  0  0  0  0
    1.3988    1.3501    3.2544 H   0  0  0  0  0  0  0  0  0  0  0  0
   -0.2168    0.8526    3.8035 H   0  0  0  0  0  0  0  0  0  0  0  0
    1.0254   -0.3756    3.4924 H   0  0  0  0  0  0  0  0  0  0  0  0
  1  2  1  0  0  0  0
  2  3  1  0  0  0  0
  2  4  1  0  0  0  0
  2  5  1  0  0  0  0
  5  6  2  0  0  0  0
  5  7  1  0  0  0  0
  7  8  1  0  0  0  0
  7  9  1  0  0  0  0
  9 10  1  0  0  0  0
  9 11  1  0  0  0  0
  9 17  1  0  0  0  0
 11 12  1  0  0  0  0
 11 13  1  0  0  0  0
 11 14  1  0  0  0  0
 14 15  1  0  0  0  0
 14 16  2  0  0  0  0
 17 18  2  0  0  0  0
 17 19  1  0  0  0  0
 19 20  1  0  0  0  0
 19 21  1  0  0  0  0
 21 22  1  0  0  0  0
 21 23  1  0  0  0  0
 21 24  1  0  0  0  0
M  CHG  1  15  -1
M  END
$$$$

  -OEChem-03222214023D

 24 23  0     1  0  0  0  0  0999 V2000
   -2.4237   -3.4804   -0.2630 H   0  0  0  0  0  0  0  0  0  0  0  0
   -2.3889   -2.4396   -0.5968 C   0  0  0  0  0  0  0  0  0  0  0  0
   -2.9826   -1.8308    0.0897 H   0  0  0  0  0  0  0  0  0  0  0  0
   -2.8216   -2.3745   -1.5980 H   0  0  0  0  0  0  0  0  0  0  0  0
   -0.9540   -1.9436   -0.6191 C   0  0  0  0  0  0  0  0  0  0  0  0
   -0.0460   -2.7219   -0.3798 O   0  0  0  0  0  0  0  0  0  0  0  0
   -0.7053   -0.6306   -0.9544 N   0  0  0  0  0  0  0  0  0  0  0  0
   -1.5207   -0.0342   -1.0569 H   0  0  0  0  0  0  0  0  0  0  0  0
    0.5734    0.0565   -0.7277 C   0  0  1  0  0  0  0  0  0  0  0  0
    1.3356   -0.5620   -1.2139 H   0  0  0  0  0  0  0  0  0  0  0  0
    0.4861    1.3438   -1.5879 C   0  0  0  0  0  0  0  0  0  0  0  0
    1.5089    1.6094   -1.8666 H   0  0  0  0  0  0  0  0  0  0  0  0
   -0.0497    1.1297   -2.5178 H   0  0  0  0  0  0  0  0  0  0  0  0
   -0.1075    2.6028   -0.9511 C   0  0  0  0  0  0  0  0  0  0  0  0
   -0.0036    2.8135    0.2786 O   0  5  0  0  0  0  0  0  0  0  0  0
   -0.7863    3.3139   -1.7284 O   0  0  0  0  0  0  0  0  0  0  0  0
    1.0568    0.1522    0.7479 C   0  0  0  0  0  0  0  0  0  0  0  0
    2.1846   -0.2394    1.0403 O   0  0  0  0  0  0  0  0  0  0  0  0
    0.1845    0.5130    1.7594 N   0  0  0  0  0  0  0  0  0  0  0  0
   -0.4194    1.2794    1.4464 H   0  0  0  0  0  0  0  0  0  0  0  0
    0.6225    0.5821    3.1453 C   0  0  0  0  0  0  0  0  0  0  0  0
    1.4142    1.3297    3.2581 H   0  0  0  0  0  0  0  0  0  0  0  0
   -0.2165    0.8628    3.7884 H   0  0  0  0  0  0  0  0  0  0  0  0
    1.0016   -0.3895    3.4783 H   0  0  0  0  0  0  0  0  0  0  0  0
  1  2  1  0  0  0  0
  2  3  1  0  0  0  0
  2  4  1  0  0  0  0
  2  5  1  0  0  0  0
  5  6  2  0  0  0  0
  5  7  1  0  0  0  0
  7  8  1  0  0  0  0
  7  9  1  0  0  0  0
  9 10  1  0  0  0  0
  9 11  1  0  0  0  0
  9 17  1  0  0  0  0
 11 12  1  0  0  0  0
 11 13  1  0  0  0  0
 11 14  1  0  0  0  0
 14 15  1  0  0  0  0
 14 16  2  0  0  0  0
 17 18  2  0  0  0  0
 17 19  1  0  0  0  0
 19 20  1  0  0  0  0
 19 21  1  0  0  0  0
 21 22  1  0  0  0  0
 21 23  1  0  0  0  0
 21 24  1  0  0  0  0
M  CHG  1  15  -1
M  END
$$$$

  -OEChem-03222214023D

 24 23  0     1  0  0  0  0  0999 V2000
   -2.4397   -3.4525   -0.2441 H   0  0  0  0  0  0  0  0  0  0  0  0
   -2.3895   -2.4165   -0.5904 C   0  0  0  0  0  0  0  0  0  0  0  0
   -2.9803   -1.7914    0.0840 H   0  0  0  0  0  0  0  0  0  0  0  0
   -2.8141   -2.3587   -1.5955 H   0  0  0  0  0  0  0  0  0  0  0  0
   -0.9487   -1.9385   -0.6087 C   0  0  0  0  0  0  0  0  0  0  0  0
   -0.0517   -2.7238   -0.3515 O   0  0  0  0  0  0  0  0  0  0  0  0
   -0.6817   -0.6348   -0.9639 N   0  0  0  0  0  0  0  0  0  0  0  0
   -1.4884   -0.0300   -1.0925 H   0  0  0  0  0  0  0  0  0  0  0  0
    0.6034    0.0421   -0.7440 C   0  0  1  0  0  0  0  0  0  0  0  0
    1.3673   -0.5722   -1.2326 H   0  0  0  0  0  0  0  0  0  0  0  0
    0.4811    1.3310   -1.5945 C   0  0  0  0  0  0  0  0  0  0  0  0
    1.4931    1.6170   -1.8919 H   0  0  0  0  0  0  0  0  0  0  0  0
   -0.0708    1.1245   -2.5170 H   0  0  0  0  0  0  0  0  0  0  0  0
   -0.1144    2.5600   -0.9078 C   0  0  0  0  0  0  0  0  0  0  0  0
    0.2498    2.8897    0.2431 O   0  5  0  0  0  0  0  0  0  0  0  0
   -1.0890    3.0712   -1.5080 O   0  0  0  0  0  0  0  0  0  0  0  0
    1.0744    0.1528    0.7341 C   0  0  0  0  0  0  0  0  0  0  0  0
    2.1863   -0.2683    1.0461 O   0  0  0  0  0  0  0  0  0  0  0  0
    0.1928    0.5388    1.7288 N   0  0  0  0  0  0  0  0  0  0  0  0
   -0.3938    1.3122    1.4054 H   0  0  0  0  0  0  0  0  0  0  0  0
    0.6105    0.6073    3.1208 C   0  0  0  0  0  0  0  0  0  0  0  0
    1.4217    1.3328    3.2406 H   0  0  0  0  0  0  0  0  0  0  0  0
   -0.2305    0.9180    3.7473 H   0  0  0  0  0  0  0  0  0  0  0  0
    0.9553   -0.3720    3.4679 H   0  0  0  0  0  0  0  0  0  0  0  0
  1  2  1  0  0  0  0
  2  3  1  0  0  0  0
  2  4  1  0  0  0  0
  2  5  1  0  0  0  0
  5  6  2  0  0  0  0
  5  7  1  0  0  0  0
  7  8  1  0  0  0  0
  7  9  1  0  0  0  0
  9 10  1  0  0  0  0
  9 11  1  0  0  0  0
  9 17  1  0  0  0  0
 11 12  1  0  0  0  0
 11 13  1  0  0  0  0
 11 14  1  0  0  0  0
 14 15  1  0  0  0  0
 14 16  2  0  0  0  0
 17 18  2  0  0  0  0
 17 19  1  0  0  0  0
 19 20  1  0  0  0  0
 19 21  1  0  0  0  0
 21 22  1  0  0  0  0
 21 23  1  0  0  0  0
 21 24  1  0  0  0  0
M  CHG  1  15  -1
M  END
$$$$

  -OEChem-03222214023D

 24 23  0     1  0  0  0  0  0999 V2000
   -2.4501   -3.4221   -0.2197 H   0  0  0  0  0  0  0  0  0  0  0  0
   -2.3882   -2.3905   -0.5770 C   0  0  0  0  0  0  0  0  0  0  0  0
   -2.9579   -1.7491    0.1003 H   0  0  0  0  0  0  0  0  0  0  0  0
   -2.8273   -2.3348   -1.5760 H   0  0  0  0  0  0  0  0  0  0  0  0
   -0.9401   -1.9367   -0.6219 C   0  0  0  0  0  0  0  0  0  0  0  0
   -0.0518   -2.7348   -0.3728 O   0  0  0  0  0  0  0  0  0  0  0  0
   -0.6563   -0.6410   -0.9922 N   0  0  0  0  0  0  0  0  0  0  0  0
   -1.4559   -0.0200   -1.1011 H   0  0  0  0  0  0  0  0  0  0  0  0
    0.6346    0.0230   -0.7703 C   0  0  1  0  0  0  0  0  0  0  0  0
    1.4028   -0.5844   -1.2606 H   0  0  0  0  0  0  0  0  0  0  0  0
    0.4886    1.3205   -1.5994 C   0  0  0  0  0  0  0  0  0  0  0  0
    1.4903    1.6278   -1.9110 H   0  0  0  0  0  0  0  0  0  0  0  0
   -0.0830    1.1397   -2.5154 H   0  0  0  0  0  0  0  0  0  0  0  0
   -0.1060    2.5008   -0.8404 C   0  0  0  0  0  0  0  0  0  0  0  0
    0.4666    2.9513    0.1765 O   0  5  0  0  0  0  0  0  0  0  0  0
   -1.2912    2.7650   -1.1555 O   0  0  0  0  0  0  0  0  0  0  0  0
    1.0823    0.1401    0.7141 C   0  0  0  0  0  0  0  0  0  0  0  0
    2.1846   -0.2877    1.0495 O   0  0  0  0  0  0  0  0  0  0  0  0
    0.1860    0.5463    1.6887 N   0  0  0  0  0  0  0  0  0  0  0  0
   -0.4363    1.2785    1.3425 H   0  0  0  0  0  0  0  0  0  0  0  0
    0.5877    0.6623    3.0820 C   0  0  0  0  0  0  0  0  0  0  0  0
    1.3897    1.4003    3.1873 H   0  0  0  0  0  0  0  0  0  0  0  0
   -0.2633    0.9828    3.6900 H   0  0  0  0  0  0  0  0  0  0  0  0
    0.9394   -0.3019    3.4628 H   0  0  0  0  0  0  0  0  0  0  0  0
  1  2  1  0  0  0  0
  2  3  1  0  0  0  0
  2  4  1  0  0  0  0
  2  5  1  0  0  0  0
  5  6  2  0  0  0  0
  5  7  1  0  0  0  0
  7  8  1  0  0  0  0
  7  9  1  0  0  0  0
  9 10  1  0  0  0  0
  9 11  1  0  0  0  0
  9 17  1  0  0  0  0
 11 12  1  0  0  0  0
 11 13  1  0  0  0  0
 11 14  1  0  0  0  0
 14 15  1  0  0  0  0
 14 16  2  0  0  0  0
 17 18  2  0  0  0  0
 17 19  1  0  0  0  0
 19 20  1  0  0  0  0
 19 21  1  0  0  0  0
 21 22  1  0  0  0  0
 21 23  1  0  0  0  0
 21 24  1  0  0  0  0
M  CHG  1  15  -1
M  END
$$$$

  -OEChem-03222214023D

 24 23  0     1  0  0  0  0  0999 V2000
   -2.4433   -3.3959   -0.1784 H   0  0  0  0  0  0  0  0  0  0  0  0
   -2.3794   -2.3668   -0.5426 C   0  0  0  0  0  0  0  0  0  0  0  0
   -2.9087   -1.7133    0.1555 H   0  0  0  0  0  0  0  0  0  0  0  0
   -2.8601   -2.3069   -1.5221 H   0  0  0  0  0  0  0  0  0  0  0  0
   -0.9271   -1.9379   -0.6513 C   0  0  0  0  0  0  0  0  0  0  0  0
   -0.0416   -2.7522   -0.4466 O   0  0  0  0  0  0  0  0  0  0  0  0
   -0.6368   -0.6466   -1.0308 N   0  0  0  0  0  0  0  0  0  0  0  0
   -1.4309   -0.0075   -1.0708 H   0  0  0  0  0  0  0  0  0  0  0  0
    0.6589    0.0054   -0.8057 C   0  0  1  0  0  0  0  0  0  0  0  0
    1.4313   -0.5938   -1.2993 H   0  0  0  0  0  0  0  0  0  0  0  0
    0.5032    1.3204   -1.6007 C   0  0  0  0  0  0  0  0  0  0  0  0
    1.4969    1.6426   -1.9230 H   0  0  0  0  0  0  0  0  0  0  0  0
   -0.0938    1.1777   -2.5066 H   0  0  0  0  0  0  0  0  0  0  0  0
   -0.0811    2.4445   -0.7619 C   0  0  0  0  0  0  0  0  0  0  0  0
    0.6339    3.0235    0.0851 O   0  5  0  0  0  0  0  0  0  0  0  0
   -1.3374    2.4568   -0.7533 O   0  0  0  0  0  0  0  0  0  0  0  0
    1.0786    0.1159    0.6867 C   0  0  0  0  0  0  0  0  0  0  0  0
    2.1802   -0.2946    1.0441 O   0  0  0  0  0  0  0  0  0  0  0  0
    0.1621    0.5313    1.6391 N   0  0  0  0  0  0  0  0  0  0  0  0
   -0.5298    1.1822    1.2634 H   0  0  0  0  0  0  0  0  0  0  0  0
    0.5461    0.7235    3.0285 C   0  0  0  0  0  0  0  0  0  0  0  0
    1.3202    1.4938    3.1063 H   0  0  0  0  0  0  0  0  0  0  0  0
   -0.3214    1.0401    3.6146 H   0  0  0  0  0  0  0  0  0  0  0  0
    0.9286   -0.2094    3.4546 H   0  0  0  0  0  0  0  0  0  0  0  0
  1  2  1  0  0  0  0
  2  3  1  0  0  0  0
  2  4  1  0  0  0  0
  2  5  1  0  0  0  0
  5  6  2  0  0  0  0
  5  7  1  0  0  0  0
  7  8  1  0  0  0  0
  7  9  1  0  0  0  0
  9 10  1  0  0  0  0
  9 11  1  0  0  0  0
  9 17  1  0  0  0  0
 11 12  1  0  0  0  0
 11 13  1  0  0  0  0
 11 14  1  0  0  0  0
 14 15  1  0  0  0  0
 14 16  2  0  0  0  0
 17 18  2  0  0  0  0
 17 19  1  0  0  0  0
 19 20  1  0  0  0  0
 19 21  1  0  0  0  0
 21 22  1  0  0  0  0
 21 23  1  0  0  0  0
 21 24  1  0  0  0  0
M  CHG  1  15  -1
M  END
$$$$

  -OEChem-03222214023D

 24 23  0     1  0  0  0  0  0999 V2000
   -2.4285   -3.3867   -0.1298 H   0  0  0  0  0  0  0  0  0  0  0  0
   -2.3706   -2.3652   -0.5154 C   0  0  0  0  0  0  0  0  0  0  0  0
   -2.8760   -1.6959    0.1855 H   0  0  0  0  0  0  0  0  0  0  0  0
   -2.8795   -2.3213   -1.4812 H   0  0  0  0  0  0  0  0  0  0  0  0
   -0.9204   -1.9456   -0.6752 C   0  0  0  0  0  0  0  0  0  0  0  0
   -0.0330   -2.7664   -0.5075 O   0  0  0  0  0  0  0  0  0  0  0  0
   -0.6350   -0.6542   -1.0573 N   0  0  0  0  0  0  0  0  0  0  0  0
   -1.4263   -0.0093   -1.0359 H   0  0  0  0  0  0  0  0  0  0  0  0
    0.6622   -0.0073   -0.8290 C   0  0  1  0  0  0  0  0  0  0  0  0
    1.4359   -0.6006   -1.3275 H   0  0  0  0  0  0  0  0  0  0  0  0
    0.5127    1.3268   -1.5930 C   0  0  0  0  0  0  0  0  0  0  0  0
    1.5045    1.6521   -1.9182 H   0  0  0  0  0  0  0  0  0  0  0  0
   -0.0996    1.2152   -2.4926 H   0  0  0  0  0  0  0  0  0  0  0  0
   -0.0612    2.4155   -0.7033 C   0  0  0  0  0  0  0  0  0  0  0  0
    0.7120    3.1454   -0.0454 O   0  5  0  0  0  0  0  0  0  0  0  0
   -1.2880    2.2722   -0.4583 O   0  0  0  0  0  0  0  0  0  0  0  0
    1.0707    0.0963    0.6667 C   0  0  0  0  0  0  0  0  0  0  0  0
    2.1788   -0.2869    1.0323 O   0  0  0  0  0  0  0  0  0  0  0  0
    0.1434    0.5126    1.6080 N   0  0  0  0  0  0  0  0  0  0  0  0
   -0.5902    1.1083    1.2129 H   0  0  0  0  0  0  0  0  0  0  0  0
    0.5154    0.7578    2.9918 C   0  0  0  0  0  0  0  0  0  0  0  0
    1.2683    1.5506    3.0486 H   0  0  0  0  0  0  0  0  0  0  0  0
   -0.3631    1.0691    3.5643 H   0  0  0  0  0  0  0  0  0  0  0  0
    0.9203   -0.1513    3.4481 H   0  0  0  0  0  0  0  0  0  0  0  0
  1  2  1  0  0  0  0
  2  3  1  0  0  0  0
  2  4  1  0  0  0  0
  2  5  1  0  0  0  0
  5  6  2  0  0  0  0
  5  7  1  0  0  0  0
  7  8  1  0  0  0  0
  7  9  1  0  0  0  0
  9 10  1  0  0  0  0
  9 11  1  0  0  0  0
  9 17  1  0  0  0  0
 11 12  1  0  0  0  0
 11 13  1  0  0  0  0
 11 14  1  0  0  0  0
 14 15  1  0  0  0  0
 14 16  2  0  0  0  0
 17 18  2  0  0  0  0
 17 19  1  0  0  0  0
 19 20  1  0  0  0  0
 19 21  1  0  0  0  0
 21 22  1  0  0  0  0
 21 23  1  0  0  0  0
 21 24  1  0  0  0  0
M  CHG  1  15  -1
M  END
$$$$

  -OEChem-03222214023D

 24 23  0     1  0  0  0  0  0999 V2000
   -2.4266   -3.4014   -0.1351 H   0  0  0  0  0  0  0  0  0  0  0  0
   -2.3729   -2.3779   -0.5161 C   0  0  0  0  0  0  0  0  0  0  0  0
   -2.8718   -1.7125    0.1933 H   0  0  0  0  0  0  0  0  0  0  0  0
   -2.8914   -2.3293   -1.4767 H   0  0  0  0  0  0  0  0  0  0  0  0
   -0.9247   -1.9564   -0.6878 C   0  0  0  0  0  0  0  0  0  0  0  0
   -0.0342   -2.7754   -0.5280 O   0  0  0  0  0  0  0  0  0  0  0  0
   -0.6444   -0.6621   -1.0635 N   0  0  0  0  0  0  0  0  0  0  0  0
   -1.4360   -0.0188   -1.0209 H   0  0  0  0  0  0  0  0  0  0  0  0
    0.6504   -0.0151   -0.8265 C   0  0  1  0  0  0  0  0  0  0  0  0
    1.4239   -0.6084   -1.3255 H   0  0  0  0  0  0  0  0  0  0  0  0
    0.5191    1.3253   -1.5824 C   0  0  0  0  0  0  0  0  0  0  0  0
    1.5169    1.6428   -1.8976 H   0  0  0  0  0  0  0  0  0  0  0  0
   -0.0881    1.2247   -2.4866 H   0  0  0  0  0  0  0  0  0  0  0  0
   -0.0564    2.4129   -0.6904 C   0  0  0  0  0  0  0  0  0  0  0  0
    0.6912    3.3073   -0.2382 O   0  5  0  0  0  0  0  0  0  0  0  0
   -1.2403    2.2023   -0.3103 O   0  0  0  0  0  0  0  0  0  0  0  0
    1.0632    0.0861    0.6683 C   0  0  0  0  0  0  0  0  0  0  0  0
    2.1849   -0.2637    1.0248 O   0  0  0  0  0  0  0  0  0  0  0  0
    0.1414    0.4980    1.6160 N   0  0  0  0  0  0  0  0  0  0  0  0
   -0.6164    1.0657    1.2211 H   0  0  0  0  0  0  0  0  0  0  0  0
    0.5213    0.7680    2.9932 C   0  0  0  0  0  0  0  0  0  0  0  0
    1.2581    1.5766    3.0331 H   0  0  0  0  0  0  0  0  0  0  0  0
   -0.3576    1.0687    3.5707 H   0  0  0  0  0  0  0  0  0  0  0  0
    0.9488   -0.1267    3.4566 H   0  0  0  0  0  0  0  0  0  0  0  0
  1  2  1  0  0  0  0
  2  3  1  0  0  0  0
  2  4  1  0  0  0  0
  2  5  1  0  0  0  0
  5  6  2  0  0  0  0
  5  7  1  0  0  0  0
  7  8  1  0  0  0  0
  7  9  1  0  0  0  0
  9 10  1  0  0  0  0
  9 11  1  0  0  0  0
  9 17  1  0  0  0  0
 11 12  1  0  0  0  0
 11 13  1  0  0  0  0
 11 14  1  0  0  0  0
 14 15  1  0  0  0  0
 14 16  2  0  0  0  0
 17 18  2  0  0  0  0
 17 19  1  0  0  0  0
 19 20  1  0  0  0  0
 19 21  1  0  0  0  0
 21 22  1  0  0  0  0
 21 23  1  0  0  0  0
 21 24  1  0  0  0  0
M  CHG  1  15  -1
M  END
$$$$

  -OEChem-03222214023D

 24 23  0     1  0  0  0  0  0999 V2000
   -2.4303   -3.4218   -0.1591 H   0  0  0  0  0  0  0  0  0  0  0  0
   -2.3799   -2.3927   -0.5255 C   0  0  0  0  0  0  0  0  0  0  0  0
   -2.8823   -1.7393    0.1923 H   0  0  0  0  0  0  0  0  0  0  0  0
   -2.8971   -2.3324   -1.4860 H   0  0  0  0  0  0  0  0  0  0  0  0
   -0.9329   -1.9633   -0.6888 C   0  0  0  0  0  0  0  0  0  0  0  0
   -0.0391   -2.7779   -0.5244 O   0  0  0  0  0  0  0  0  0  0  0  0
   -0.6566   -0.6656   -1.0560 N   0  0  0  0  0  0  0  0  0  0  0  0
   -1.4501   -0.0257   -1.0103 H   0  0  0  0  0  0  0  0  0  0  0  0
    0.6360   -0.0167   -0.8138 C   0  0  1  0  0  0  0  0  0  0  0  0
    1.4064   -0.6156   -1.3113 H   0  0  0  0  0  0  0  0  0  0  0  0
    0.5258    1.3237   -1.5731 C   0  0  0  0  0  0  0  0  0  0  0  0
    1.5312    1.6278   -1.8772 H   0  0  0  0  0  0  0  0  0  0  0  0
   -0.0704    1.2236   -2.4843 H   0  0  0  0  0  0  0  0  0  0  0  0
   -0.0509    2.4294   -0.7018 C   0  0  0  0  0  0  0  0  0  0  0  0
    0.6203    3.4609   -0.4785 O   0  5  0  0  0  0  0  0  0  0  0  0
   -1.1896    2.1866   -0.2149 O   0  0  0  0  0  0  0  0  0  0  0  0
    1.0595    0.0823    0.6778 C   0  0  0  0  0  0  0  0  0  0  0  0
    2.1943   -0.2374    1.0199 O   0  0  0  0  0  0  0  0  0  0  0  0
    0.1479    0.4876    1.6369 N   0  0  0  0  0  0  0  0  0  0  0  0
   -0.6242    1.0424    1.2496 H   0  0  0  0  0  0  0  0  0  0  0  0
    0.5381    0.7600    3.0108 C   0  0  0  0  0  0  0  0  0  0  0  0
    1.2528    1.5884    3.0464 H   0  0  0  0  0  0  0  0  0  0  0  0
   -0.3414    1.0322    3.6015 H   0  0  0  0  0  0  0  0  0  0  0  0
    0.9964   -0.1251    3.4632 H   0  0  0  0  0  0  0  0  0  0  0  0
  1  2  1  0  0  0  0
  2  3  1  0  0  0  0
  2  4  1  0  0  0  0
  2  5  1  0  0  0  0
  5  6  2  0  0  0  0
  5  7  1  0  0  0  0
  7  8  1  0  0  0  0
  7  9  1  0  0  0  0
  9 10  1  0  0  0  0
  9 11  1  0  0  0  0
  9 17  1  0  0  0  0
 11 12  1  0  0  0  0
 11 13  1  0  0  0  0
 11 14  1  0  0  0  0
 14 15  1  0  0  0  0
 14 16  2  0  0  0  0
 17 18  2  0  0  0  0
 17 19  1  0  0  0  0
 19 20  1  0  0  0  0
 19 21  1  0  0  0  0
 21 22  1  0  0  0  0
 21 23  1  0  0  0  0
 21 24  1  0  0  0  0
M  CHG  1  15  -1
M  END
$$$$

  -OEChem-03222214023D

 24 23  0     1  0  0  0  0  0999 V2000
   -2.4366   -3.4593   -0.2447 H   0  0  0  0  0  0  0  0  0  0  0  0
   -2.3876   -2.4096   -0.5470 C   0  0  0  0  0  0  0  0  0  0  0  0
   -2.8909   -1.8015    0.2090 H   0  0  0  0  0  0  0  0  0  0  0  0
   -2.9047   -2.2920   -1.5024 H   0  0  0  0  0  0  0  0  0  0  0  0
   -0.9411   -1.9694   -0.6839 C   0  0  0  0  0  0  0  0  0  0  0  0
   -0.0445   -2.7785   -0.5085 O   0  0  0  0  0  0  0  0  0  0  0  0
   -0.6683   -0.6679   -1.0406 N   0  0  0  0  0  0  0  0  0  0  0  0
   -1.4646   -0.0322   -0.9995 H   0  0  0  0  0  0  0  0  0  0  0  0
    0.6210   -0.0156   -0.7933 C   0  0  1  0  0  0  0  0  0  0  0  0
    1.3890   -0.6192   -1.2885 H   0  0  0  0  0  0  0  0  0  0  0  0
    0.5295    1.3214   -1.5623 C   0  0  0  0  0  0  0  0  0  0  0  0
    1.5422    1.6127   -1.8545 H   0  0  0  0  0  0  0  0  0  0  0  0
   -0.0531    1.2145   -2.4813 H   0  0  0  0  0  0  0  0  0  0  0  0
   -0.0502    2.4525   -0.7239 C   0  0  0  0  0  0  0  0  0  0  0  0
    0.5016    3.5753   -0.7445 O   0  5  0  0  0  0  0  0  0  0  0  0
   -1.1338    2.1906   -0.1320 O   0  0  0  0  0  0  0  0  0  0  0  0
    1.0572    0.0813    0.6949 C   0  0  0  0  0  0  0  0  0  0  0  0
    2.2038   -0.2122    1.0207 O   0  0  0  0  0  0  0  0  0  0  0  0
    0.1576    0.4782    1.6678 N   0  0  0  0  0  0  0  0  0  0  0  0
   -0.6227    1.0282    1.2895 H   0  0  0  0  0  0  0  0  0  0  0  0
    0.5648    0.7544    3.0361 C   0  0  0  0  0  0  0  0  0  0  0  0
    1.2729    1.5887    3.0618 H   0  0  0  0  0  0  0  0  0  0  0  0
   -0.3085    1.0192    3.6391 H   0  0  0  0  0  0  0  0  0  0  0  0
    1.0369   -0.1268    3.4821 H   0  0  0  0  0  0  0  0  0  0  0  0
  1  2  1  0  0  0  0
  2  3  1  0  0  0  0
  2  4  1  0  0  0  0
  2  5  1  0  0  0  0
  5  6  2  0  0  0  0
  5  7  1  0  0  0  0
  7  8  1  0  0  0  0
  7  9  1  0  0  0  0
  9 10  1  0  0  0  0
  9 11  1  0  0  0  0
  9 17  1  0  0  0  0
 11 12  1  0  0  0  0
 11 13  1  0  0  0  0
 11 14  1  0  0  0  0
 14 15  1  0  0  0  0
 14 16  2  0  0  0  0
 17 18  2  0  0  0  0
 17 19  1  0  0  0  0
 19 20  1  0  0  0  0
 19 21  1  0  0  0  0
 21 22  1  0  0  0  0
 21 23  1  0  0  0  0
 21 24  1  0  0  0  0
M  CHG  1  15  -1
M  END
$$$$

  -OEChem-03222214023D

 24 23  0     1  0  0  0  0  0999 V2000
   -2.4339   -3.4584   -0.2205 H   0  0  0  0  0  0  0  0  0  0  0  0
   -2.3911   -2.4202   -0.5614 C   0  0  0  0  0  0  0  0  0  0  0  0
   -2.9174   -1.7912    0.1611 H   0  0  0  0  0  0  0  0  0  0  0  0
   -2.8894   -2.3442   -1.5309 H   0  0  0  0  0  0  0  0  0  0  0  0
   -0.9475   -1.9672   -0.6852 C   0  0  0  0  0  0  0  0  0  0  0  0
   -0.0458   -2.7697   -0.5056 O   0  0  0  0  0  0  0  0  0  0  0  0
   -0.6828   -0.6601   -1.0273 N   0  0  0  0  0  0  0  0  0  0  0  0
   -1.4833   -0.0307   -0.9886 H   0  0  0  0  0  0  0  0  0  0  0  0
    0.6033   -0.0030   -0.7753 C   0  0  1  0  0  0  0  0  0  0  0  0
    1.3676   -0.6122   -1.2697 H   0  0  0  0  0  0  0  0  0  0  0  0
    0.5331    1.3290   -1.5562 C   0  0  0  0  0  0  0  0  0  0  0  0
    1.5536    1.6064   -1.8350 H   0  0  0  0  0  0  0  0  0  0  0  0
   -0.0330    1.2122   -2.4841 H   0  0  0  0  0  0  0  0  0  0  0  0
   -0.0483    2.4902   -0.7583 C   0  0  0  0  0  0  0  0  0  0  0  0
    0.3493    3.6474   -1.0223 O   0  5  0  0  0  0  0  0  0  0  0  0
   -1.0569    2.2235   -0.0489 O   0  0  0  0  0  0  0  0  0  0  0  0
    1.0541    0.0858    0.7091 C   0  0  0  0  0  0  0  0  0  0  0  0
    2.2094   -0.1936    1.0166 O   0  0  0  0  0  0  0  0  0  0  0  0
    0.1677    0.4682    1.6989 N   0  0  0  0  0  0  0  0  0  0  0  0
   -0.6117    1.0294    1.3351 H   0  0  0  0  0  0  0  0  0  0  0  0
    0.5900    0.7232    3.0669 C   0  0  0  0  0  0  0  0  0  0  0  0
    1.2912    1.5632    3.0987 H   0  0  0  0  0  0  0  0  0  0  0  0
   -0.2782    0.9692    3.6851 H   0  0  0  0  0  0  0  0  0  0  0  0
    1.0753   -0.1617    3.4910 H   0  0  0  0  0  0  0  0  0  0  0  0
  1  2  1  0  0  0  0
  2  3  1  0  0  0  0
  2  4  1  0  0  0  0
  2  5  1  0  0  0  0
  5  6  2  0  0  0  0
  5  7  1  0  0  0  0
  7  8  1  0  0  0  0
  7  9  1  0  0  0  0
  9 10  1  0  0  0  0
  9 11  1  0  0  0  0
  9 17  1  0  0  0  0
 11 12  1  0  0  0  0
 11 13  1  0  0  0  0
 11 14  1  0  0  0  0
 14 15  1  0  0  0  0
 14 16  2  0  0  0  0
 17 18  2  0  0  0  0
 17 19  1  0  0  0  0
 19 20  1  0  0  0  0
 19 21  1  0  0  0  0
 21 22  1  0  0  0  0
 21 23  1  0  0  0  0
 21 24  1  0  0  0  0
M  CHG  1  15  -1
M  END
$$$$

  -OEChem-03222214023D

 24 23  0     1  0  0  0  0  0999 V2000
   -2.4305   -3.4651   -0.2223 H   0  0  0  0  0  0  0  0  0  0  0  0
   -2.3944   -2.4325   -0.5804 C   0  0  0  0  0  0  0  0  0  0  0  0
   -2.9413   -1.7979    0.1217 H   0  0  0  0  0  0  0  0  0  0  0  0
   -2.8763   -2.3798   -1.5596 H   0  0  0  0  0  0  0  0  0  0  0  0
   -0.9542   -1.9638   -0.6865 C   0  0  0  0  0  0  0  0  0  0  0  0
   -0.0468   -2.7598   -0.5068 O   0  0  0  0  0  0  0  0  0  0  0  0
   -0.6988   -0.6502   -1.0109 N   0  0  0  0  0  0  0  0  0  0  0  0
   -1.5051   -0.0293   -0.9823 H   0  0  0  0  0  0  0  0  0  0  0  0
    0.5827    0.0143   -0.7540 C   0  0  1  0  0  0  0  0  0  0  0  0
    1.3446   -0.5996   -1.2464 H   0  0  0  0  0  0  0  0  0  0  0  0
    0.5344    1.3390   -1.5510 C   0  0  0  0  0  0  0  0  0  0  0  0
    1.5624    1.6024   -1.8145 H   0  0  0  0  0  0  0  0  0  0  0  0
   -0.0124    1.2049   -2.4884 H   0  0  0  0  0  0  0  0  0  0  0  0
   -0.0491    2.5363   -0.8062 C   0  0  0  0  0  0  0  0  0  0  0  0
    0.1632    3.6668   -1.3011 O   0  5  0  0  0  0  0  0  0  0  0  0
   -0.9471    2.2929    0.0438 O   0  0  0  0  0  0  0  0  0  0  0  0
    1.0492    0.0937    0.7268 C   0  0  0  0  0  0  0  0  0  0  0  0
    2.2110   -0.1801    1.0159 O   0  0  0  0  0  0  0  0  0  0  0  0
    0.1759    0.4577    1.7344 N   0  0  0  0  0  0  0  0  0  0  0  0
   -0.5933    1.0420    1.3859 H   0  0  0  0  0  0  0  0  0  0  0  0
    0.6180    0.6908    3.1001 C   0  0  0  0  0  0  0  0  0  0  0  0
    1.3302    1.5216    3.1346 H   0  0  0  0  0  0  0  0  0  0  0  0
   -0.2396    0.9398    3.7318 H   0  0  0  0  0  0  0  0  0  0  0  0
    1.0971   -0.2055    3.5070 H   0  0  0  0  0  0  0  0  0  0  0  0
  1  2  1  0  0  0  0
  2  3  1  0  0  0  0
  2  4  1  0  0  0  0
  2  5  1  0  0  0  0
  5  6  2  0  0  0  0
  5  7  1  0  0  0  0
  7  8  1  0  0  0  0
  7  9  1  0  0  0  0
  9 10  1  0  0  0  0
  9 11  1  0  0  0  0
  9 17  1  0  0  0  0
 11 12  1  0  0  0  0
 11 13  1  0  0  0  0
 11 14  1  0  0  0  0
 14 15  1  0  0  0  0
 14 16  2  0  0  0  0
 17 18  2  0  0  0  0
 17 19  1  0  0  0  0
 19 20  1  0  0  0  0
 19 21  1  0  0  0  0
 21 22  1  0  0  0  0
 21 23  1  0  0  0  0
 21 24  1  0  0  0  0
M  CHG  1  15  -1
M  END
$$$$

  -OEChem-03222214023D

 24 23  0     1  0  0  0  0  0999 V2000
   -2.4217   -3.4812   -0.2696 H   0  0  0  0  0  0  0  0  0  0  0  0
   -2.3899   -2.4373   -0.5938 C   0  0  0  0  0  0  0  0  0  0  0  0
   -2.9645   -1.8326    0.1123 H   0  0  0  0  0  0  0  0  0  0  0  0
   -2.8454   -2.3605   -1.5840 H   0  0  0  0  0  0  0  0  0  0  0  0
   -0.9536   -1.9476   -0.6455 C   0  0  0  0  0  0  0  0  0  0  0  0
   -0.0435   -2.7335   -0.4412 O   0  0  0  0  0  0  0  0  0  0  0  0
   -0.7086   -0.6295   -0.9635 N   0  0  0  0  0  0  0  0  0  0  0  0
   -1.5245   -0.0272   -1.0004 H   0  0  0  0  0  0  0  0  0  0  0  0
    0.5694    0.0523   -0.7207 C   0  0  1  0  0  0  0  0  0  0  0  0
    1.3251   -0.5813   -1.1985 H   0  0  0  0  0  0  0  0  0  0  0  0
    0.5384    1.3436   -1.5859 C   0  0  0  0  0  0  0  0  0  0  0  0
    1.5205    1.4303   -2.0585 H   0  0  0  0  0  0  0  0  0  0  0  0
   -0.1889    1.2381   -2.3957 H   0  0  0  0  0  0  0  0  0  0  0  0
    0.2920    2.6894   -0.9035 C   0  0  0  0  0  0  0  0  0  0  0  0
    0.2882    3.6780   -1.6735 O   0  5  0  0  0  0  0  0  0  0  0  0
   -0.2160    2.6978    0.2445 O   0  0  0  0  0  0  0  0  0  0  0  0
    1.0509    0.1296    0.7567 C   0  0  0  0  0  0  0  0  0  0  0  0
    2.1899   -0.2315    1.0435 O   0  0  0  0  0  0  0  0  0  0  0  0
    0.1782    0.4782    1.7712 N   0  0  0  0  0  0  0  0  0  0  0  0
   -0.4605    1.2137    1.4498 H   0  0  0  0  0  0  0  0  0  0  0  0
    0.6229    0.5806    3.1526 C   0  0  0  0  0  0  0  0  0  0  0  0
    1.3942    1.3515    3.2488 H   0  0  0  0  0  0  0  0  0  0  0  0
   -0.2197    0.8475    3.7969 H   0  0  0  0  0  0  0  0  0  0  0  0
    1.0308   -0.3749    3.4973 H   0  0  0  0  0  0  0  0  0  0  0  0
  1  2  1  0  0  0  0
  2  3  1  0  0  0  0
  2  4  1  0  0  0  0
  2  5  1  0  0  0  0
  5  6  2  0  0  0  0
  5  7  1  0  0  0  0
  7  8  1  0  0  0  0
  7  9  1  0  0  0  0
  9 10  1  0  0  0  0
  9 11  1  0  0  0  0
  9 17  1  0  0  0  0
 11 12  1  0  0  0  0
 11 13  1  0  0  0  0
 11 14  1  0  0  0  0
 14 15  1  0  0  0  0
 14 16  2  0  0  0  0
 17 18  2  0  0  0  0
 17 19  1  0  0  0  0
 19 20  1  0  0  0  0
 19 21  1  0  0  0  0
 21 22  1  0  0  0  0
 21 23  1  0  0  0  0
 21 24  1  0  0  0  0
M  CHG  1  15  -1
M  END
$$$$

  -OEChem-03222214023D

 24 23  0     1  0  0  0  0  0999 V2000
   -2.4155   -3.4733   -0.2510 H   0  0  0  0  0  0  0  0  0  0  0  0
   -2.3835   -2.4316   -0.5822 C   0  0  0  0  0  0  0  0  0  0  0  0
   -2.9653   -1.8234    0.1149 H   0  0  0  0  0  0  0  0  0  0  0  0
   -2.8307   -2.3627   -1.5769 H   0  0  0  0  0  0  0  0  0  0  0  0
   -0.9479   -1.9393   -0.6247 C   0  0  0  0  0  0  0  0  0  0  0  0
   -0.0385   -2.7233   -0.4113 O   0  0  0  0  0  0  0  0  0  0  0  0
   -0.7027   -0.6231   -0.9506 N   0  0  0  0  0  0  0  0  0  0  0  0
   -1.5194   -0.0246   -1.0153 H   0  0  0  0  0  0  0  0  0  0  0  0
    0.5770    0.0623   -0.7198 C   0  0  1  0  0  0  0  0  0  0  0  0
    1.3331   -0.5695   -1.1987 H   0  0  0  0  0  0  0  0  0  0  0  0
    0.5237    1.3469   -1.5972 C   0  0  0  0  0  0  0  0  0  0  0  0
    1.4989    1.4349   -2.0830 H   0  0  0  0  0  0  0  0  0  0  0  0
   -0.2097    1.2173   -2.3988 H   0  0  0  0  0  0  0  0  0  0  0  0
    0.2751    2.7121   -0.9494 C   0  0  0  0  0  0  0  0  0  0  0  0
   -0.0353    3.6166   -1.7597 O   0  5  0  0  0  0  0  0  0  0  0  0
    0.1113    2.8030    0.2896 O   0  0  0  0  0  0  0  0  0  0  0  0
    1.0600    0.1444    0.7571 C   0  0  0  0  0  0  0  0  0  0  0  0
    2.1819   -0.2625    1.0512 O   0  0  0  0  0  0  0  0  0  0  0  0
    0.1826    0.4973    1.7669 N   0  0  0  0  0  0  0  0  0  0  0  0
   -0.4025    1.2795    1.4576 H   0  0  0  0  0  0  0  0  0  0  0  0
    0.6121    0.5443    3.1562 C   0  0  0  0  0  0  0  0  0  0  0  0
    1.4137    1.2792    3.2833 H   0  0  0  0  0  0  0  0  0  0  0  0
   -0.2273    0.8296    3.7969 H   0  0  0  0  0  0  0  0  0  0  0  0
    0.9746   -0.4367    3.4797 H   0  0  0  0  0  0  0  0  0  0  0  0
  1  2  1  0  0  0  0
  2  3  1  0  0  0  0
  2  4  1  0  0  0  0
  2  5  1  0  0  0  0
  5  6  2  0  0  0  0
  5  7  1  0  0  0  0
  7  8  1  0  0  0  0
  7  9  1  0  0  0  0
  9 10  1  0  0  0  0
  9 11  1  0  0  0  0
  9 17  1  0  0  0  0
 11 12  1  0  0  0  0
 11 13  1  0  0  0  0
 11 14  1  0  0  0  0
 14 15  1  0  0  0  0
 14 16  2  0  0  0  0
 17 18  2  0  0  0  0
 17 19  1  0  0  0  0
 19 20  1  0  0  0  0
 19 21  1  0  0  0  0
 21 22  1  0  0  0  0
 21 23  1  0  0  0  0
 21 24  1  0  0  0  0
M  CHG  1  15  -1
M  END
$$$$

  -OEChem-03222214023D

 24 23  0     1  0  0  0  0  0999 V2000
   -2.4112   -3.4599   -0.2229 H   0  0  0  0  0  0  0  0  0  0  0  0
   -2.3748   -2.4176   -0.5519 C   0  0  0  0  0  0  0  0  0  0  0  0
   -2.9449   -1.8069    0.1526 H   0  0  0  0  0  0  0  0  0  0  0  0
   -2.8319   -2.3434   -1.5416 H   0  0  0  0  0  0  0  0  0  0  0  0
   -0.9361   -1.9354   -0.6075 C   0  0  0  0  0  0  0  0  0  0  0  0
   -0.0315   -2.7224   -0.3862 O   0  0  0  0  0  0  0  0  0  0  0  0
   -0.6829   -0.6261   -0.9547 N   0  0  0  0  0  0  0  0  0  0  0  0
   -1.4960   -0.0263   -1.0445 H   0  0  0  0  0  0  0  0  0  0  0  0
    0.6016    0.0559   -0.7374 C   0  0  1  0  0  0  0  0  0  0  0  0
    1.3616   -0.5679   -1.2205 H   0  0  0  0  0  0  0  0  0  0  0  0
    0.5084    1.3441   -1.6073 C   0  0  0  0  0  0  0  0  0  0  0  0
    1.4701    1.4496   -2.1157 H   0  0  0  0  0  0  0  0  0  0  0  0
   -0.2394    1.2078   -2.3947 H   0  0  0  0  0  0  0  0  0  0  0  0
    0.2600    2.7011   -0.9414 C   0  0  0  0  0  0  0  0  0  0  0  0
   -0.3618    3.5202   -1.6584 O   0  5  0  0  0  0  0  0  0  0  0  0
    0.5025    2.8816    0.2729 O   0  0  0  0  0  0  0  0  0  0  0  0
    1.0720    0.1497    0.7422 C   0  0  0  0  0  0  0  0  0  0  0  0
    2.1674   -0.3092    1.0591 O   0  0  0  0  0  0  0  0  0  0  0  0
    0.1800    0.5211    1.7337 N   0  0  0  0  0  0  0  0  0  0  0  0
   -0.3674    1.3271    1.4248 H   0  0  0  0  0  0  0  0  0  0  0  0
    0.5797    0.5358    3.1328 C   0  0  0  0  0  0  0  0  0  0  0  0
    1.3926    1.2523    3.2892 H   0  0  0  0  0  0  0  0  0  0  0  0
   -0.2677    0.8270    3.7599 H   0  0  0  0  0  0  0  0  0  0  0  0
    0.9158   -0.4573    3.4478 H   0  0  0  0  0  0  0  0  0  0  0  0
  1  2  1  0  0  0  0
  2  3  1  0  0  0  0
  2  4  1  0  0  0  0
  2  5  1  0  0  0  0
  5  6  2  0  0  0  0
  5  7  1  0  0  0  0
  7  8  1  0  0  0  0
  7  9  1  0  0  0  0
  9 10  1  0  0  0  0
  9 11  1  0  0  0  0
  9 17  1  0  0  0  0
 11 12  1  0  0  0  0
 11 13  1  0  0  0  0
 11 14  1  0  0  0  0
 14 15  1  0  0  0  0
 14 16  2  0  0  0  0
 17 18  2  0  0  0  0
 17 19  1  0  0  0  0
 19 20  1  0  0  0  0
 19 21  1  0  0  0  0
 21 22  1  0  0  0  0
 21 23  1  0  0  0  0
 21 24  1  0  0  0  0
M  CHG  1  15  -1
M  END
$$$$

  -OEChem-03222214023D

 24 23  0     1  0  0  0  0  0999 V2000
   -2.4253   -3.4526   -0.2133 H   0  0  0  0  0  0  0  0  0  0  0  0
   -2.3777   -2.4145   -0.5540 C   0  0  0  0  0  0  0  0  0  0  0  0
   -2.9486   -1.7913    0.1388 H   0  0  0  0  0  0  0  0  0  0  0  0
   -2.8258   -2.3477   -1.5484 H   0  0  0  0  0  0  0  0  0  0  0  0
   -0.9345   -1.9445   -0.6022 C   0  0  0  0  0  0  0  0  0  0  0  0
   -0.0384   -2.7358   -0.3632 O   0  0  0  0  0  0  0  0  0  0  0  0
   -0.6674   -0.6425   -0.9665 N   0  0  0  0  0  0  0  0  0  0  0  0
   -1.4743   -0.0384   -1.0843 H   0  0  0  0  0  0  0  0  0  0  0  0
    0.6233    0.0320   -0.7597 C   0  0  1  0  0  0  0  0  0  0  0  0
    1.3869   -0.5798   -1.2521 H   0  0  0  0  0  0  0  0  0  0  0  0
    0.4926    1.3348   -1.5987 C   0  0  0  0  0  0  0  0  0  0  0  0
    1.4379    1.4693   -2.1305 H   0  0  0  0  0  0  0  0  0  0  0  0
   -0.2760    1.2194   -2.3696 H   0  0  0  0  0  0  0  0  0  0  0  0
    0.2541    2.6504   -0.8570 C   0  0  0  0  0  0  0  0  0  0  0  0
   -0.6338    3.3821   -1.3554 O   0  5  0  0  0  0  0  0  0  0  0  0
    0.8788    2.9191    0.1924 O   0  0  0  0  0  0  0  0  0  0  0  0
    1.0796    0.1333    0.7236 C   0  0  0  0  0  0  0  0  0  0  0  0
    2.1623   -0.3416    1.0588 O   0  0  0  0  0  0  0  0  0  0  0  0
    0.1782    0.5221    1.7015 N   0  0  0  0  0  0  0  0  0  0  0  0
   -0.4340    1.2658    1.3722 H   0  0  0  0  0  0  0  0  0  0  0  0
    0.5764    0.6001    3.0990 C   0  0  0  0  0  0  0  0  0  0  0  0
    1.3880    1.3244    3.2240 H   0  0  0  0  0  0  0  0  0  0  0  0
   -0.2718    0.9179    3.7120 H   0  0  0  0  0  0  0  0  0  0  0  0
    0.9143   -0.3772    3.4583 H   0  0  0  0  0  0  0  0  0  0  0  0
  1  2  1  0  0  0  0
  2  3  1  0  0  0  0
  2  4  1  0  0  0  0
  2  5  1  0  0  0  0
  5  6  2  0  0  0  0
  5  7  1  0  0  0  0
  7  8  1  0  0  0  0
  7  9  1  0  0  0  0
  9 10  1  0  0  0  0
  9 11  1  0  0  0  0
  9 17  1  0  0  0  0
 11 12  1  0  0  0  0
 11 13  1  0  0  0  0
 11 14  1  0  0  0  0
 14 15  1  0  0  0  0
 14 16  2  0  0  0  0
 17 18  2  0  0  0  0
 17 19  1  0  0  0  0
 19 20  1  0  0  0  0
 19 21  1  0  0  0  0
 21 22  1  0  0  0  0
 21 23  1  0  0  0  0
 21 24  1  0  0  0  0
M  CHG  1  15  -1
M  END
$$$$

  -OEChem-03222214023D

 24 23  0     1  0  0  0  0  0999 V2000
   -2.4387   -3.4450   -0.2029 H   0  0  0  0  0  0  0  0  0  0  0  0
   -2.3830   -2.4114   -0.5561 C   0  0  0  0  0  0  0  0  0  0  0  0
   -2.9503   -1.7758    0.1284 H   0  0  0  0  0  0  0  0  0  0  0  0
   -2.8296   -2.3538   -1.5517 H   0  0  0  0  0  0  0  0  0  0  0  0
   -0.9366   -1.9528   -0.6096 C   0  0  0  0  0  0  0  0  0  0  0  0
   -0.0467   -2.7488   -0.3644 O   0  0  0  0  0  0  0  0  0  0  0  0
   -0.6575   -0.6569   -0.9859 N   0  0  0  0  0  0  0  0  0  0  0  0
   -1.4587   -0.0451   -1.1085 H   0  0  0  0  0  0  0  0  0  0  0  0
    0.6391    0.0080   -0.7838 C   0  0  1  0  0  0  0  0  0  0  0  0
    1.4043   -0.5945   -1.2850 H   0  0  0  0  0  0  0  0  0  0  0  0
    0.4904    1.3282   -1.5855 C   0  0  0  0  0  0  0  0  0  0  0  0
    1.4231    1.4874   -2.1327 H   0  0  0  0  0  0  0  0  0  0  0  0
   -0.2977    1.2486   -2.3409 H   0  0  0  0  0  0  0  0  0  0  0  0
    0.2703    2.5873   -0.7544 C   0  0  0  0  0  0  0  0  0  0  0  0
   -0.8013    3.1976   -0.9825 O   0  5  0  0  0  0  0  0  0  0  0  0
    1.1342    2.9547    0.0717 O   0  0  0  0  0  0  0  0  0  0  0  0
    1.0834    0.1134    0.7021 C   0  0  0  0  0  0  0  0  0  0  0  0
    2.1673   -0.3477    1.0506 O   0  0  0  0  0  0  0  0  0  0  0  0
    0.1747    0.5165    1.6684 N   0  0  0  0  0  0  0  0  0  0  0  0
   -0.5176    1.1737    1.3178 H   0  0  0  0  0  0  0  0  0  0  0  0
    0.5730    0.6742    3.0587 C   0  0  0  0  0  0  0  0  0  0  0  0
    1.3523    1.4383    3.1464 H   0  0  0  0  0  0  0  0  0  0  0  0
   -0.2864    0.9818    3.6613 H   0  0  0  0  0  0  0  0  0  0  0  0
    0.9542   -0.2703    3.4600 H   0  0  0  0  0  0  0  0  0  0  0  0
  1  2  1  0  0  0  0
  2  3  1  0  0  0  0
  2  4  1  0  0  0  0
  2  5  1  0  0  0  0
  5  6  2  0  0  0  0
  5  7  1  0  0  0  0
  7  8  1  0  0  0  0
  7  9  1  0  0  0  0
  9 10  1  0  0  0  0
  9 11  1  0  0  0  0
  9 17  1  0  0  0  0
 11 12  1  0  0  0  0
 11 13  1  0  0  0  0
 11 14  1  0  0  0  0
 14 15  1  0  0  0  0
 14 16  2  0  0  0  0
 17 18  2  0  0  0  0
 17 19  1  0  0  0  0
 19 20  1  0  0  0  0
 19 21  1  0  0  0  0
 21 22  1  0  0  0  0
 21 23  1  0  0  0  0
 21 24  1  0  0  0  0
M  CHG  1  15  -1
M  END
$$$$

  -OEChem-03222214023D

 24 23  0     1  0  0  0  0  0999 V2000
   -2.4364   -3.4349   -0.1871 H   0  0  0  0  0  0  0  0  0  0  0  0
   -2.3774   -2.4011   -0.5387 C   0  0  0  0  0  0  0  0  0  0  0  0
   -2.9242   -1.7611    0.1583 H   0  0  0  0  0  0  0  0  0  0  0  0
   -2.8433   -2.3363   -1.5249 H   0  0  0  0  0  0  0  0  0  0  0  0
   -0.9279   -1.9566   -0.6200 C   0  0  0  0  0  0  0  0  0  0  0  0
   -0.0396   -2.7585   -0.3870 O   0  0  0  0  0  0  0  0  0  0  0  0
   -0.6445   -0.6657   -1.0096 N   0  0  0  0  0  0  0  0  0  0  0  0
   -1.4439   -0.0451   -1.1015 H   0  0  0  0  0  0  0  0  0  0  0  0
    0.6544   -0.0067   -0.8083 C   0  0  1  0  0  0  0  0  0  0  0  0
    1.4231   -0.6020   -1.3125 H   0  0  0  0  0  0  0  0  0  0  0  0
    0.4925    1.3235   -1.5855 C   0  0  0  0  0  0  0  0  0  0  0  0
    1.4151    1.5019   -2.1440 H   0  0  0  0  0  0  0  0  0  0  0  0
   -0.3120    1.2700   -2.3256 H   0  0  0  0  0  0  0  0  0  0  0  0
    0.2832    2.5331   -0.6874 C   0  0  0  0  0  0  0  0  0  0  0  0
   -0.8920    2.9716   -0.6465 O   0  5  0  0  0  0  0  0  0  0  0  0
    1.2525    3.0253   -0.0693 O   0  0  0  0  0  0  0  0  0  0  0  0
    1.0862    0.1070    0.6809 C   0  0  0  0  0  0  0  0  0  0  0  0
    2.1720   -0.3373    1.0429 O   0  0  0  0  0  0  0  0  0  0  0  0
    0.1685    0.5234    1.6333 N   0  0  0  0  0  0  0  0  0  0  0  0
   -0.5470    1.1484    1.2653 H   0  0  0  0  0  0  0  0  0  0  0  0
    0.5523    0.7147    3.0234 C   0  0  0  0  0  0  0  0  0  0  0  0
    1.3275    1.4840    3.1015 H   0  0  0  0  0  0  0  0  0  0  0  0
   -0.3144    1.0320    3.6103 H   0  0  0  0  0  0  0  0  0  0  0  0
    0.9335   -0.2188    3.4496 H   0  0  0  0  0  0  0  0  0  0  0  0
  1  2  1  0  0  0  0
  2  3  1  0  0  0  0
  2  4  1  0  0  0  0
  2  5  1  0  0  0  0
  5  6  2  0  0  0  0
  5  7  1  0  0  0  0
  7  8  1  0  0  0  0
  7  9  1  0  0  0  0
  9 10  1  0  0  0  0
  9 11  1  0  0  0  0
  9 17  1  0  0  0  0
 11 12  1  0  0  0  0
 11 13  1  0  0  0  0
 11 14  1  0  0  0  0
 14 15  1  0  0  0  0
 14 16  2  0  0  0  0
 17 18  2  0  0  0  0
 17 19  1  0  0  0  0
 19 20  1  0  0  0  0
 19 21  1  0  0  0  0
 21 22  1  0  0  0  0
 21 23  1  0  0  0  0
 21 24  1  0  0  0  0
M  CHG  1  15  -1
M  END
$$$$

  -OEChem-03222214023D

 24 23  0     1  0  0  0  0  0999 V2000
   -2.4235   -3.4175   -0.1390 H   0  0  0  0  0  0  0  0  0  0  0  0
   -2.3672   -2.3901   -0.5093 C   0  0  0  0  0  0  0  0  0  0  0  0
   -2.8901   -1.7349    0.1921 H   0  0  0  0  0  0  0  0  0  0  0  0
   -2.8598   -2.3373   -1.4832 H   0  0  0  0  0  0  0  0  0  0  0  0
   -0.9175   -1.9575   -0.6380 C   0  0  0  0  0  0  0  0  0  0  0  0
   -0.0279   -2.7665   -0.4349 O   0  0  0  0  0  0  0  0  0  0  0  0
   -0.6365   -0.6683   -1.0343 N   0  0  0  0  0  0  0  0  0  0  0  0
   -1.4347   -0.0398   -1.0749 H   0  0  0  0  0  0  0  0  0  0  0  0
    0.6631   -0.0137   -0.8283 C   0  0  1  0  0  0  0  0  0  0  0  0
    1.4344   -0.6055   -1.3327 H   0  0  0  0  0  0  0  0  0  0  0  0
    0.4995    1.3244   -1.5901 C   0  0  0  0  0  0  0  0  0  0  0  0
    1.4188    1.5125   -2.1509 H   0  0  0  0  0  0  0  0  0  0  0  0
   -0.3136    1.2897   -2.3215 H   0  0  0  0  0  0  0  0  0  0  0  0
    0.2949    2.5003   -0.6510 C   0  0  0  0  0  0  0  0  0  0  0  0
   -0.9045    2.7421   -0.3637 O   0  5  0  0  0  0  0  0  0  0  0  0
    1.2798    3.1469   -0.2323 O   0  0  0  0  0  0  0  0  0  0  0  0
    1.0828    0.1016    0.6644 C   0  0  0  0  0  0  0  0  0  0  0  0
    2.1730   -0.3237    1.0351 O   0  0  0  0  0  0  0  0  0  0  0  0
    0.1562    0.5241    1.6052 N   0  0  0  0  0  0  0  0  0  0  0  0
   -0.5538    1.1518    1.2216 H   0  0  0  0  0  0  0  0  0  0  0  0
    0.5254    0.7278    2.9971 C   0  0  0  0  0  0  0  0  0  0  0  0
    1.2964    1.5011    3.0769 H   0  0  0  0  0  0  0  0  0  0  0  0
   -0.3486    1.0457    3.5726 H   0  0  0  0  0  0  0  0  0  0  0  0
    0.9066   -0.2007    3.4343 H   0  0  0  0  0  0  0  0  0  0  0  0
  1  2  1  0  0  0  0
  2  3  1  0  0  0  0
  2  4  1  0  0  0  0
  2  5  1  0  0  0  0
  5  6  2  0  0  0  0
  5  7  1  0  0  0  0
  7  8  1  0  0  0  0
  7  9  1  0  0  0  0
  9 10  1  0  0  0  0
  9 11  1  0  0  0  0
  9 17  1  0  0  0  0
 11 12  1  0  0  0  0
 11 13  1  0  0  0  0
 11 14  1  0  0  0  0
 14 15  1  0  0  0  0
 14 16  2  0  0  0  0
 17 18  2  0  0  0  0
 17 19  1  0  0  0  0
 19 20  1  0  0  0  0
 19 21  1  0  0  0  0
 21 22  1  0  0  0  0
 21 23  1  0  0  0  0
 21 24  1  0  0  0  0
M  CHG  1  15  -1
M  END
$$$$

  -OEChem-03222214023D

 24 23  0     1  0  0  0  0  0999 V2000
   -2.4172   -3.4206   -0.1307 H   0  0  0  0  0  0  0  0  0  0  0  0
   -2.3677   -2.3949   -0.5068 C   0  0  0  0  0  0  0  0  0  0  0  0
   -2.8838   -1.7374    0.1975 H   0  0  0  0  0  0  0  0  0  0  0  0
   -2.8714   -2.3477   -1.4753 H   0  0  0  0  0  0  0  0  0  0  0  0
   -0.9206   -1.9598   -0.6547 C   0  0  0  0  0  0  0  0  0  0  0  0
   -0.0267   -2.7686   -0.4691 O   0  0  0  0  0  0  0  0  0  0  0  0
   -0.6462   -0.6670   -1.0432 N   0  0  0  0  0  0  0  0  0  0  0  0
   -1.4448   -0.0375   -1.0489 H   0  0  0  0  0  0  0  0  0  0  0  0
    0.6502   -0.0122   -0.8238 C   0  0  1  0  0  0  0  0  0  0  0  0
    1.4213   -0.6099   -1.3213 H   0  0  0  0  0  0  0  0  0  0  0  0
    0.5134    1.3246   -1.5937 C   0  0  0  0  0  0  0  0  0  0  0  0
    1.4427    1.5001   -2.1426 H   0  0  0  0  0  0  0  0  0  0  0  0
   -0.2915    1.2939   -2.3336 H   0  0  0  0  0  0  0  0  0  0  0  0
    0.3003    2.5059   -0.6632 C   0  0  0  0  0  0  0  0  0  0  0  0
   -0.8557    2.5811   -0.1690 O   0  5  0  0  0  0  0  0  0  0  0  0
    1.2255    3.3229   -0.4617 O   0  0  0  0  0  0  0  0  0  0  0  0
    1.0710    0.1002    0.6689 C   0  0  0  0  0  0  0  0  0  0  0  0
    2.1733   -0.2991    1.0319 O   0  0  0  0  0  0  0  0  0  0  0  0
    0.1494    0.5172    1.6152 N   0  0  0  0  0  0  0  0  0  0  0  0
   -0.5545    1.1549    1.2281 H   0  0  0  0  0  0  0  0  0  0  0  0
    0.5245    0.7254    3.0048 C   0  0  0  0  0  0  0  0  0  0  0  0
    1.2865    1.5079    3.0799 H   0  0  0  0  0  0  0  0  0  0  0  0
   -0.3500    1.0329    3.5855 H   0  0  0  0  0  0  0  0  0  0  0  0
    0.9194   -0.1986    3.4393 H   0  0  0  0  0  0  0  0  0  0  0  0
  1  2  1  0  0  0  0
  2  3  1  0  0  0  0
  2  4  1  0  0  0  0
  2  5  1  0  0  0  0
  5  6  2  0  0  0  0
  5  7  1  0  0  0  0
  7  8  1  0  0  0  0
  7  9  1  0  0  0  0
  9 10  1  0  0  0  0
  9 11  1  0  0  0  0
  9 17  1  0  0  0  0
 11 12  1  0  0  0  0
 11 13  1  0  0  0  0
 11 14  1  0  0  0  0
 14 15  1  0  0  0  0
 14 16  2  0  0  0  0
 17 18  2  0  0  0  0
 17 19  1  0  0  0  0
 19 20  1  0  0  0  0
 19 21  1  0  0  0  0
 21 22  1  0  0  0  0
 21 23  1  0  0  0  0
 21 24  1  0  0  0  0
M  CHG  1  15  -1
M  END
$$$$

  -OEChem-03222214023D

 24 23  0     1  0  0  0  0  0999 V2000
   -2.4180   -3.4707   -0.2393 H   0  0  0  0  0  0  0  0  0  0  0  0
   -2.3766   -2.4192   -0.5369 C   0  0  0  0  0  0  0  0  0  0  0  0
   -2.8920   -1.8193    0.2175 H   0  0  0  0  0  0  0  0  0  0  0  0
   -2.8865   -2.3032   -1.4964 H   0  0  0  0  0  0  0  0  0  0  0  0
   -0.9330   -1.9649   -0.6584 C   0  0  0  0  0  0  0  0  0  0  0  0
   -0.0323   -2.7647   -0.4654 O   0  0  0  0  0  0  0  0  0  0  0  0
   -0.6690   -0.6648   -1.0293 N   0  0  0  0  0  0  0  0  0  0  0  0
   -1.4731   -0.0426   -1.0288 H   0  0  0  0  0  0  0  0  0  0  0  0
    0.6190   -0.0008   -0.7934 C   0  0  1  0  0  0  0  0  0  0  0  0
    1.3879   -0.6134   -1.2768 H   0  0  0  0  0  0  0  0  0  0  0  0
    0.5289    1.3207   -1.5972 C   0  0  0  0  0  0  0  0  0  0  0  0
    1.4791    1.4634   -2.1193 H   0  0  0  0  0  0  0  0  0  0  0  0
   -0.2517    1.2737   -2.3614 H   0  0  0  0  0  0  0  0  0  0  0  0
    0.2954    2.5472   -0.7286 C   0  0  0  0  0  0  0  0  0  0  0  0
   -0.7659    2.5281   -0.0486 O   0  5  0  0  0  0  0  0  0  0  0  0
    1.1012    3.5033   -0.7779 O   0  0  0  0  0  0  0  0  0  0  0  0
    1.0554    0.1117    0.6948 C   0  0  0  0  0  0  0  0  0  0  0  0
    2.1766   -0.2543    1.0351 O   0  0  0  0  0  0  0  0  0  0  0  0
    0.1512    0.5134    1.6619 N   0  0  0  0  0  0  0  0  0  0  0  0
   -0.5522    1.1606    1.2871 H   0  0  0  0  0  0  0  0  0  0  0  0
    0.5493    0.7128    3.0467 C   0  0  0  0  0  0  0  0  0  0  0  0
    1.3183    1.4890    3.1147 H   0  0  0  0  0  0  0  0  0  0  0  0
   -0.3139    1.0242    3.6420 H   0  0  0  0  0  0  0  0  0  0  0  0
    0.9436   -0.2163    3.4707 H   0  0  0  0  0  0  0  0  0  0  0  0
  1  2  1  0  0  0  0
  2  3  1  0  0  0  0
  2  4  1  0  0  0  0
  2  5  1  0  0  0  0
  5  6  2  0  0  0  0
  5  7  1  0  0  0  0
  7  8  1  0  0  0  0
  7  9  1  0  0  0  0
  9 10  1  0  0  0  0
  9 11  1  0  0  0  0
  9 17  1  0  0  0  0
 11 12  1  0  0  0  0
 11 13  1  0  0  0  0
 11 14  1  0  0  0  0
 14 15  1  0  0  0  0
 14 16  2  0  0  0  0
 17 18  2  0  0  0  0
 17 19  1  0  0  0  0
 19 20  1  0  0  0  0
 19 21  1  0  0  0  0
 21 22  1  0  0  0  0
 21 23  1  0  0  0  0
 21 24  1  0  0  0  0
M  CHG  1  15  -1
M  END
$$$$

  -OEChem-03222214023D

 24 23  0     1  0  0  0  0  0999 V2000
   -2.4145   -3.4702   -0.1994 H   0  0  0  0  0  0  0  0  0  0  0  0
   -2.3820   -2.4405   -0.5662 C   0  0  0  0  0  0  0  0  0  0  0  0
   -2.9414   -1.8043    0.1242 H   0  0  0  0  0  0  0  0  0  0  0  0
   -2.8532   -2.4006   -1.5513 H   0  0  0  0  0  0  0  0  0  0  0  0
   -0.9438   -1.9629   -0.6602 C   0  0  0  0  0  0  0  0  0  0  0  0
   -0.0351   -2.7526   -0.4643 O   0  0  0  0  0  0  0  0  0  0  0  0
   -0.6939   -0.6535   -1.0078 N   0  0  0  0  0  0  0  0  0  0  0  0
   -1.5055   -0.0426   -1.0115 H   0  0  0  0  0  0  0  0  0  0  0  0
    0.5867    0.0223   -0.7643 C   0  0  1  0  0  0  0  0  0  0  0  0
    1.3509   -0.6012   -1.2413 H   0  0  0  0  0  0  0  0  0  0  0  0
    0.5348    1.3301   -1.5964 C   0  0  0  0  0  0  0  0  0  0  0  0
    1.5028    1.4429   -2.0934 H   0  0  0  0  0  0  0  0  0  0  0  0
   -0.2223    1.2619   -2.3819 H   0  0  0  0  0  0  0  0  0  0  0  0
    0.2899    2.6068   -0.8007 C   0  0  0  0  0  0  0  0  0  0  0  0
   -0.6210    2.5619    0.0679 O   0  5  0  0  0  0  0  0  0  0  0  0
    0.9348    3.6350   -1.1082 O   0  0  0  0  0  0  0  0  0  0  0  0
    1.0434    0.1234    0.7190 C   0  0  0  0  0  0  0  0  0  0  0  0
    2.1774   -0.2267    1.0344 O   0  0  0  0  0  0  0  0  0  0  0  0
    0.1545    0.5000    1.7089 N   0  0  0  0  0  0  0  0  0  0  0  0
   -0.5358    1.1721    1.3543 H   0  0  0  0  0  0  0  0  0  0  0  0
    0.5734    0.6693    3.0915 C   0  0  0  0  0  0  0  0  0  0  0  0
    1.3288    1.4580    3.1678 H   0  0  0  0  0  0  0  0  0  0  0  0
   -0.2852    0.9477    3.7093 H   0  0  0  0  0  0  0  0  0  0  0  0
    0.9920   -0.2633    3.4834 H   0  0  0  0  0  0  0  0  0  0  0  0
  1  2  1  0  0  0  0
  2  3  1  0  0  0  0
  2  4  1  0  0  0  0
  2  5  1  0  0  0  0
  5  6  2  0  0  0  0
  5  7  1  0  0  0  0
  7  8  1  0  0  0  0
  7  9  1  0  0  0  0
  9 10  1  0  0  0  0
  9 11  1  0  0  0  0
  9 17  1  0  0  0  0
 11 12  1  0  0  0  0
 11 13  1  0  0  0  0
 11 14  1  0  0  0  0
 14 15  1  0  0  0  0
 14 16  2  0  0  0  0
 17 18  2  0  0  0  0
 17 19  1  0  0  0  0
 19 20  1  0  0  0  0
 19 21  1  0  0  0  0
 21 22  1  0  0  0  0
 21 23  1  0  0  0  0
 21 24  1  0  0  0  0
M  CHG  1  15  -1
M  END
$$$$

  -OEChem-03222214023D

 24 23  0     1  0  0  0  0  0999 V2000
   -2.4002   -3.5094   -0.2962 H   0  0  0  0  0  0  0  0  0  0  0  0
   -2.3777   -2.4525   -0.5767 C   0  0  0  0  0  0  0  0  0  0  0  0
   -2.9278   -1.8780    0.1730 H   0  0  0  0  0  0  0  0  0  0  0  0
   -2.8655   -2.3341   -1.5473 H   0  0  0  0  0  0  0  0  0  0  0  0
   -0.9434   -1.9605   -0.6540 C   0  0  0  0  0  0  0  0  0  0  0  0
   -0.0290   -2.7428   -0.4550 O   0  0  0  0  0  0  0  0  0  0  0  0
   -0.7051   -0.6449   -0.9873 N   0  0  0  0  0  0  0  0  0  0  0  0
   -1.5236   -0.0448   -1.0030 H   0  0  0  0  0  0  0  0  0  0  0  0
    0.5693    0.0424   -0.7406 C   0  0  1  0  0  0  0  0  0  0  0  0
    1.3327   -0.5873   -1.2111 H   0  0  0  0  0  0  0  0  0  0  0  0
    0.5365    1.3361   -1.5995 C   0  0  0  0  0  0  0  0  0  0  0  0
    1.5157    1.4290   -2.0781 H   0  0  0  0  0  0  0  0  0  0  0  0
   -0.2021    1.2423   -2.3999 H   0  0  0  0  0  0  0  0  0  0  0  0
    0.2819    2.6568   -0.8765 C   0  0  0  0  0  0  0  0  0  0  0  0
   -0.4276    2.6377    0.1614 O   0  5  0  0  0  0  0  0  0  0  0  0
    0.7183    3.6979   -1.4192 O   0  0  0  0  0  0  0  0  0  0  0  0
    1.0347    0.1361    0.7412 C   0  0  0  0  0  0  0  0  0  0  0  0
    2.1707   -0.2182    1.0456 O   0  0  0  0  0  0  0  0  0  0  0  0
    0.1504    0.4936    1.7423 N   0  0  0  0  0  0  0  0  0  0  0  0
   -0.5115    1.2009    1.4035 H   0  0  0  0  0  0  0  0  0  0  0  0
    0.5778    0.6263    3.1264 C   0  0  0  0  0  0  0  0  0  0  0  0
    1.3345    1.4119    3.2187 H   0  0  0  0  0  0  0  0  0  0  0  0
   -0.2767    0.8890    3.7566 H   0  0  0  0  0  0  0  0  0  0  0  0
    0.9979   -0.3163    3.4914 H   0  0  0  0  0  0  0  0  0  0  0  0
  1  2  1  0  0  0  0
  2  3  1  0  0  0  0
  2  4  1  0  0  0  0
  2  5  1  0  0  0  0
  5  6  2  0  0  0  0
  5  7  1  0  0  0  0
  7  8  1  0  0  0  0
  7  9  1  0  0  0  0
  9 10  1  0  0  0  0
  9 11  1  0  0  0  0
  9 17  1  0  0  0  0
 11 12  1  0  0  0  0
 11 13  1  0  0  0  0
 11 14  1  0  0  0  0
 14 15  1  0  0  0  0
 14 16  2  0  0  0  0
 17 18  2  0  0  0  0
 17 19  1  0  0  0  0
 19 20  1  0  0  0  0
 19 21  1  0  0  0  0
 21 22  1  0  0  0  0
 21 23  1  0  0  0  0
 21 24  1  0  0  0  0
M  CHG  1  15  -1
M  END
$$$$

  -OEChem-03222214023D

 24 23  0     1  0  0  0  0  0999 V2000
   -2.3944   -3.5050   -0.2812 H   0  0  0  0  0  0  0  0  0  0  0  0
   -2.3750   -2.4545   -0.5845 C   0  0  0  0  0  0  0  0  0  0  0  0
   -2.9465   -1.8691    0.1401 H   0  0  0  0  0  0  0  0  0  0  0  0
   -2.8425   -2.3619   -1.5677 H   0  0  0  0  0  0  0  0  0  0  0  0
   -0.9436   -1.9517   -0.6421 C   0  0  0  0  0  0  0  0  0  0  0  0
   -0.0267   -2.7292   -0.4369 O   0  0  0  0  0  0  0  0  0  0  0  0
   -0.7108   -0.6331   -0.9682 N   0  0  0  0  0  0  0  0  0  0  0  0
   -1.5326   -0.0395   -1.0051 H   0  0  0  0  0  0  0  0  0  0  0  0
    0.5618    0.0602   -0.7258 C   0  0  1  0  0  0  0  0  0  0  0  0
    1.3241   -0.5703   -1.1969 H   0  0  0  0  0  0  0  0  0  0  0  0
    0.5270    1.3463   -1.5992 C   0  0  0  0  0  0  0  0  0  0  0  0
    1.5100    1.4323   -2.0705 H   0  0  0  0  0  0  0  0  0  0  0  0
   -0.2023    1.2311   -2.4056 H   0  0  0  0  0  0  0  0  0  0  0  0
    0.2699    2.6956   -0.9273 C   0  0  0  0  0  0  0  0  0  0  0  0
   -0.1886    2.7310    0.2407 O   0  5  0  0  0  0  0  0  0  0  0  0
    0.4532    3.7063   -1.6446 O   0  0  0  0  0  0  0  0  0  0  0  0
    1.0355    0.1478    0.7538 C   0  0  0  0  0  0  0  0  0  0  0  0
    2.1659   -0.2305    1.0523 O   0  0  0  0  0  0  0  0  0  0  0  0
    0.1537    0.4950    1.7610 N   0  0  0  0  0  0  0  0  0  0  0  0
   -0.4671    1.2459    1.4404 H   0  0  0  0  0  0  0  0  0  0  0  0
    0.5826    0.5745    3.1490 C   0  0  0  0  0  0  0  0  0  0  0  0
    1.3615    1.3350    3.2647 H   0  0  0  0  0  0  0  0  0  0  0  0
   -0.2648    0.8427    3.7865 H   0  0  0  0  0  0  0  0  0  0  0  0
    0.9754   -0.3902    3.4857 H   0  0  0  0  0  0  0  0  0  0  0  0
  1  2  1  0  0  0  0
  2  3  1  0  0  0  0
  2  4  1  0  0  0  0
  2  5  1  0  0  0  0
  5  6  2  0  0  0  0
  5  7  1  0  0  0  0
  7  8  1  0  0  0  0
  7  9  1  0  0  0  0
  9 10  1  0  0  0  0
  9 11  1  0  0  0  0
  9 17  1  0  0  0  0
 11 12  1  0  0  0  0
 11 13  1  0  0  0  0
 11 14  1  0  0  0  0
 14 15  1  0  0  0  0
 14 16  2  0  0  0  0
 17 18  2  0  0  0  0
 17 19  1  0  0  0  0
 19 20  1  0  0  0  0
 19 21  1  0  0  0  0
 21 22  1  0  0  0  0
 21 23  1  0  0  0  0
 21 24  1  0  0  0  0
M  CHG  1  15  -1
M  END
$$$$

  -OEChem-03222214023D

 24 23  0     1  0  0  0  0  0999 V2000
   -2.3882   -3.5034   -0.2909 H   0  0  0  0  0  0  0  0  0  0  0  0
   -2.3687   -2.4456   -0.5680 C   0  0  0  0  0  0  0  0  0  0  0  0
   -2.9282   -1.8767    0.1787 H   0  0  0  0  0  0  0  0  0  0  0  0
   -2.8486   -2.3268   -1.5425 H   0  0  0  0  0  0  0  0  0  0  0  0
   -0.9362   -1.9460   -0.6311 C   0  0  0  0  0  0  0  0  0  0  0  0
   -0.0204   -2.7247   -0.4266 O   0  0  0  0  0  0  0  0  0  0  0  0
   -0.7020   -0.6284   -0.9606 N   0  0  0  0  0  0  0  0  0  0  0  0
   -1.5239   -0.0367   -1.0141 H   0  0  0  0  0  0  0  0  0  0  0  0
    0.5723    0.0656   -0.7252 C   0  0  1  0  0  0  0  0  0  0  0  0
    1.3360   -0.5610   -1.1994 H   0  0  0  0  0  0  0  0  0  0  0  0
    0.5160    1.3504   -1.6023 C   0  0  0  0  0  0  0  0  0  0  0  0
    1.4955    1.4421   -2.0788 H   0  0  0  0  0  0  0  0  0  0  0  0
   -0.2142    1.2201   -2.4062 H   0  0  0  0  0  0  0  0  0  0  0  0
    0.2569    2.7119   -0.9524 C   0  0  0  0  0  0  0  0  0  0  0  0
    0.0842    2.8098    0.2850 O   0  5  0  0  0  0  0  0  0  0  0  0
    0.1445    3.6676   -1.7550 O   0  0  0  0  0  0  0  0  0  0  0  0
    1.0445    0.1523    0.7549 C   0  0  0  0  0  0  0  0  0  0  0  0
    2.1611   -0.2604    1.0602 O   0  0  0  0  0  0  0  0  0  0  0  0
    0.1565    0.5014    1.7568 N   0  0  0  0  0  0  0  0  0  0  0  0
   -0.4222    1.2874    1.4455 H   0  0  0  0  0  0  0  0  0  0  0  0
    0.5731    0.5427    3.1502 C   0  0  0  0  0  0  0  0  0  0  0  0
    1.3861    1.2637    3.2844 H   0  0  0  0  0  0  0  0  0  0  0  0
   -0.2672    0.8440    3.7822 H   0  0  0  0  0  0  0  0  0  0  0  0
    0.9154   -0.4441    3.4781 H   0  0  0  0  0  0  0  0  0  0  0  0
  1  2  1  0  0  0  0
  2  3  1  0  0  0  0
  2  4  1  0  0  0  0
  2  5  1  0  0  0  0
  5  6  2  0  0  0  0
  5  7  1  0  0  0  0
  7  8  1  0  0  0  0
  7  9  1  0  0  0  0
  9 10  1  0  0  0  0
  9 11  1  0  0  0  0
  9 17  1  0  0  0  0
 11 12  1  0  0  0  0
 11 13  1  0  0  0  0
 11 14  1  0  0  0  0
 14 15  1  0  0  0  0
 14 16  2  0  0  0  0
 17 18  2  0  0  0  0
 17 19  1  0  0  0  0
 19 20  1  0  0  0  0
 19 21  1  0  0  0  0
 21 22  1  0  0  0  0
 21 23  1  0  0  0  0
 21 24  1  0  0  0  0
M  CHG  1  15  -1
M  END
$$$$

  -OEChem-03222214023D

 24 23  0     1  0  0  0  0  0999 V2000
   -2.3964   -3.4843   -0.2673 H   0  0  0  0  0  0  0  0  0  0  0  0
   -2.3686   -2.4299   -0.5562 C   0  0  0  0  0  0  0  0  0  0  0  0
   -2.9305   -1.8491    0.1795 H   0  0  0  0  0  0  0  0  0  0  0  0
   -2.8405   -2.3197   -1.5356 H   0  0  0  0  0  0  0  0  0  0  0  0
   -0.9327   -1.9395   -0.6143 C   0  0  0  0  0  0  0  0  0  0  0  0
   -0.0229   -2.7225   -0.4002 O   0  0  0  0  0  0  0  0  0  0  0  0
   -0.6886   -0.6269   -0.9558 N   0  0  0  0  0  0  0  0  0  0  0  0
   -1.5061   -0.0322   -1.0367 H   0  0  0  0  0  0  0  0  0  0  0  0
    0.5910    0.0624   -0.7321 C   0  0  1  0  0  0  0  0  0  0  0  0
    1.3541   -0.5601   -1.2123 H   0  0  0  0  0  0  0  0  0  0  0  0
    0.5045    1.3491   -1.6054 C   0  0  0  0  0  0  0  0  0  0  0  0
    1.4756    1.4522   -2.0966 H   0  0  0  0  0  0  0  0  0  0  0  0
   -0.2342    1.2115   -2.4009 H   0  0  0  0  0  0  0  0  0  0  0  0
    0.2480    2.7089   -0.9486 C   0  0  0  0  0  0  0  0  0  0  0  0
    0.3760    2.8693    0.2863 O   0  5  0  0  0  0  0  0  0  0  0  0
   -0.1843    3.5899   -1.7282 O   0  0  0  0  0  0  0  0  0  0  0  0
    1.0606    0.1550    0.7482 C   0  0  0  0  0  0  0  0  0  0  0  0
    2.1597   -0.2959    1.0637 O   0  0  0  0  0  0  0  0  0  0  0  0
    0.1675    0.5173    1.7416 N   0  0  0  0  0  0  0  0  0  0  0  0
   -0.3785    1.3262    1.4350 H   0  0  0  0  0  0  0  0  0  0  0  0
    0.5664    0.5274    3.1410 C   0  0  0  0  0  0  0  0  0  0  0  0
    1.3956    1.2250    3.2970 H   0  0  0  0  0  0  0  0  0  0  0  0
   -0.2747    0.8402    3.7662 H   0  0  0  0  0  0  0  0  0  0  0  0
    0.8791   -0.4725    3.4587 H   0  0  0  0  0  0  0  0  0  0  0  0
  1  2  1  0  0  0  0
  2  3  1  0  0  0  0
  2  4  1  0  0  0  0
  2  5  1  0  0  0  0
  5  6  2  0  0  0  0
  5  7  1  0  0  0  0
  7  8  1  0  0  0  0
  7  9  1  0  0  0  0
  9 10  1  0  0  0  0
  9 11  1  0  0  0  0
  9 17  1  0  0  0  0
 11 12  1  0  0  0  0
 11 13  1  0  0  0  0
 11 14  1  0  0  0  0
 14 15  1  0  0  0  0
 14 16  2  0  0  0  0
 17 18  2  0  0  0  0
 17 19  1  0  0  0  0
 19 20  1  0  0  0  0
 19 21  1  0  0  0  0
 21 22  1  0  0  0  0
 21 23  1  0  0  0  0
 21 24  1  0  0  0  0
M  CHG  1  15  -1
M  END
$$$$

  -OEChem-03222214023D

 24 23  0     1  0  0  0  0  0999 V2000
   -2.4112   -3.4633   -0.2354 H   0  0  0  0  0  0  0  0  0  0  0  0
   -2.3722   -2.4166   -0.5497 C   0  0  0  0  0  0  0  0  0  0  0  0
   -2.9375   -1.8140    0.1657 H   0  0  0  0  0  0  0  0  0  0  0  0
   -2.8329   -2.3268   -1.5364 H   0  0  0  0  0  0  0  0  0  0  0  0
   -0.9320   -1.9386   -0.6045 C   0  0  0  0  0  0  0  0  0  0  0  0
   -0.0306   -2.7269   -0.3758 O   0  0  0  0  0  0  0  0  0  0  0  0
   -0.6738   -0.6326   -0.9607 N   0  0  0  0  0  0  0  0  0  0  0  0
   -1.4850   -0.0318   -1.0636 H   0  0  0  0  0  0  0  0  0  0  0  0
    0.6127    0.0476   -0.7468 C   0  0  1  0  0  0  0  0  0  0  0  0
    1.3763   -0.5696   -1.2328 H   0  0  0  0  0  0  0  0  0  0  0  0
    0.4982    1.3415   -1.6051 C   0  0  0  0  0  0  0  0  0  0  0  0
    1.4592    1.4607   -2.1118 H   0  0  0  0  0  0  0  0  0  0  0  0
   -0.2510    1.2103   -2.3921 H   0  0  0  0  0  0  0  0  0  0  0  0
    0.2493    2.6835   -0.9112 C   0  0  0  0  0  0  0  0  0  0  0  0
    0.6655    2.9011    0.2480 O   0  5  0  0  0  0  0  0  0  0  0  0
   -0.4929    3.4681   -1.5478 O   0  0  0  0  0  0  0  0  0  0  0  0
    1.0735    0.1466    0.7352 C   0  0  0  0  0  0  0  0  0  0  0  0
    2.1584   -0.3281    1.0646 O   0  0  0  0  0  0  0  0  0  0  0  0
    0.1739    0.5263    1.7173 N   0  0  0  0  0  0  0  0  0  0  0  0
   -0.3833    1.3206    1.4011 H   0  0  0  0  0  0  0  0  0  0  0  0
    0.5650    0.5538    3.1185 C   0  0  0  0  0  0  0  0  0  0  0  0
    1.3914    1.2558    3.2697 H   0  0  0  0  0  0  0  0  0  0  0  0
   -0.2801    0.8716    3.7359 H   0  0  0  0  0  0  0  0  0  0  0  0
    0.8789   -0.4412    3.4497 H   0  0  0  0  0  0  0  0  0  0  0  0
  1  2  1  0  0  0  0
  2  3  1  0  0  0  0
  2  4  1  0  0  0  0
  2  5  1  0  0  0  0
  5  6  2  0  0  0  0
  5  7  1  0  0  0  0
  7  8  1  0  0  0  0
  7  9  1  0  0  0  0
  9 10  1  0  0  0  0
  9 11  1  0  0  0  0
  9 17  1  0  0  0  0
 11 12  1  0  0  0  0
 11 13  1  0  0  0  0
 11 14  1  0  0  0  0
 14 15  1  0  0  0  0
 14 16  2  0  0  0  0
 17 18  2  0  0  0  0
 17 19  1  0  0  0  0
 19 20  1  0  0  0  0
 19 21  1  0  0  0  0
 21 22  1  0  0  0  0
 21 23  1  0  0  0  0
 21 24  1  0  0  0  0
M  CHG  1  15  -1
M  END
$$$$

  -OEChem-03222214023D

 24 23  0     1  0  0  0  0  0999 V2000
   -2.4305   -3.4380   -0.2015 H   0  0  0  0  0  0  0  0  0  0  0  0
   -2.3777   -2.4031   -0.5513 C   0  0  0  0  0  0  0  0  0  0  0  0
   -2.9426   -1.7704    0.1380 H   0  0  0  0  0  0  0  0  0  0  0  0
   -2.8291   -2.3422   -1.5446 H   0  0  0  0  0  0  0  0  0  0  0  0
   -0.9320   -1.9425   -0.6094 C   0  0  0  0  0  0  0  0  0  0  0  0
   -0.0391   -2.7396   -0.3777 O   0  0  0  0  0  0  0  0  0  0  0  0
   -0.6581   -0.6429   -0.9765 N   0  0  0  0  0  0  0  0  0  0  0  0
   -1.4619   -0.0327   -1.0878 H   0  0  0  0  0  0  0  0  0  0  0  0
    0.6347    0.0264   -0.7670 C   0  0  1  0  0  0  0  0  0  0  0  0
    1.3998   -0.5837   -1.2591 H   0  0  0  0  0  0  0  0  0  0  0  0
    0.4969    1.3318   -1.6000 C   0  0  0  0  0  0  0  0  0  0  0  0
    1.4463    1.4711   -2.1231 H   0  0  0  0  0  0  0  0  0  0  0  0
   -0.2668    1.2211   -2.3763 H   0  0  0  0  0  0  0  0  0  0  0  0
    0.2590    2.6385   -0.8440 C   0  0  0  0  0  0  0  0  0  0  0  0
    0.9259    2.9177    0.1762 O   0  5  0  0  0  0  0  0  0  0  0  0
   -0.7488    3.2814   -1.2229 O   0  0  0  0  0  0  0  0  0  0  0  0
    1.0823    0.1279    0.7183 C   0  0  0  0  0  0  0  0  0  0  0  0
    2.1617   -0.3489    1.0614 O   0  0  0  0  0  0  0  0  0  0  0  0
    0.1756    0.5224    1.6889 N   0  0  0  0  0  0  0  0  0  0  0  0
   -0.4436    1.2563    1.3502 H   0  0  0  0  0  0  0  0  0  0  0  0
    0.5681    0.6164    3.0868 C   0  0  0  0  0  0  0  0  0  0  0  0
    1.3804    1.3409    3.2059 H   0  0  0  0  0  0  0  0  0  0  0  0
   -0.2819    0.9433    3.6925 H   0  0  0  0  0  0  0  0  0  0  0  0
    0.9027   -0.3570    3.4594 H   0  0  0  0  0  0  0  0  0  0  0  0
  1  2  1  0  0  0  0
  2  3  1  0  0  0  0
  2  4  1  0  0  0  0
  2  5  1  0  0  0  0
  5  6  2  0  0  0  0
  5  7  1  0  0  0  0
  7  8  1  0  0  0  0
  7  9  1  0  0  0  0
  9 10  1  0  0  0  0
  9 11  1  0  0  0  0
  9 17  1  0  0  0  0
 11 12  1  0  0  0  0
 11 13  1  0  0  0  0
 11 14  1  0  0  0  0
 14 15  1  0  0  0  0
 14 16  2  0  0  0  0
 17 18  2  0  0  0  0
 17 19  1  0  0  0  0
 19 20  1  0  0  0  0
 19 21  1  0  0  0  0
 21 22  1  0  0  0  0
 21 23  1  0  0  0  0
 21 24  1  0  0  0  0
M  CHG  1  15  -1
M  END
$$$$

  -OEChem-03222214023D

 24 23  0     1  0  0  0  0  0999 V2000
   -2.4204   -3.4258   -0.1945 H   0  0  0  0  0  0  0  0  0  0  0  0
   -2.3647   -2.3809   -0.5118 C   0  0  0  0  0  0  0  0  0  0  0  0
   -2.8806   -1.7612    0.2261 H   0  0  0  0  0  0  0  0  0  0  0  0
   -2.8646   -2.2780   -1.4779 H   0  0  0  0  0  0  0  0  0  0  0  0
   -0.9152   -1.9451   -0.6288 C   0  0  0  0  0  0  0  0  0  0  0  0
   -0.0264   -2.7560   -0.4306 O   0  0  0  0  0  0  0  0  0  0  0  0
   -0.6347   -0.6525   -1.0141 N   0  0  0  0  0  0  0  0  0  0  0  0
   -1.4347   -0.0291   -1.0775 H   0  0  0  0  0  0  0  0  0  0  0  0
    0.6630    0.0064   -0.8048 C   0  0  1  0  0  0  0  0  0  0  0  0
    1.4338   -0.5938   -1.3000 H   0  0  0  0  0  0  0  0  0  0  0  0
    0.5051    1.3268   -1.6046 C   0  0  0  0  0  0  0  0  0  0  0  0
    1.4407    1.4908   -2.1454 H   0  0  0  0  0  0  0  0  0  0  0  0
   -0.2790    1.2486   -2.3642 H   0  0  0  0  0  0  0  0  0  0  0  0
    0.2801    2.5796   -0.7667 C   0  0  0  0  0  0  0  0  0  0  0  0
    1.1389    2.9376    0.0686 O   0  5  0  0  0  0  0  0  0  0  0  0
   -0.8983    3.0102   -0.7975 O   0  0  0  0  0  0  0  0  0  0  0  0
    1.0842    0.1134    0.6875 C   0  0  0  0  0  0  0  0  0  0  0  0
    2.1541   -0.3632    1.0583 O   0  0  0  0  0  0  0  0  0  0  0  0
    0.1576    0.5258    1.6325 N   0  0  0  0  0  0  0  0  0  0  0  0
   -0.5014    1.2094    1.2631 H   0  0  0  0  0  0  0  0  0  0  0  0
    0.5269    0.6765    3.0313 C   0  0  0  0  0  0  0  0  0  0  0  0
    1.3320    1.4114    3.1350 H   0  0  0  0  0  0  0  0  0  0  0  0
   -0.3349    1.0197    3.6108 H   0  0  0  0  0  0  0  0  0  0  0  0
    0.8625   -0.2795    3.4460 H   0  0  0  0  0  0  0  0  0  0  0  0
  1  2  1  0  0  0  0
  2  3  1  0  0  0  0
  2  4  1  0  0  0  0
  2  5  1  0  0  0  0
  5  6  2  0  0  0  0
  5  7  1  0  0  0  0
  7  8  1  0  0  0  0
  7  9  1  0  0  0  0
  9 10  1  0  0  0  0
  9 11  1  0  0  0  0
  9 17  1  0  0  0  0
 11 12  1  0  0  0  0
 11 13  1  0  0  0  0
 11 14  1  0  0  0  0
 14 15  1  0  0  0  0
 14 16  2  0  0  0  0
 17 18  2  0  0  0  0
 17 19  1  0  0  0  0
 19 20  1  0  0  0  0
 19 21  1  0  0  0  0
 21 22  1  0  0  0  0
 21 23  1  0  0  0  0
 21 24  1  0  0  0  0
M  CHG  1  15  -1
M  END
$$$$

  -OEChem-03222214023D

 24 23  0     1  0  0  0  0  0999 V2000
   -2.3988   -3.4113   -0.1510 H   0  0  0  0  0  0  0  0  0  0  0  0
   -2.3459   -2.3665   -0.4693 C   0  0  0  0  0  0  0  0  0  0  0  0
   -2.8197   -1.7424    0.2927 H   0  0  0  0  0  0  0  0  0  0  0  0
   -2.8885   -2.2553   -1.4110 H   0  0  0  0  0  0  0  0  0  0  0  0
   -0.8987   -1.9461   -0.6524 C   0  0  0  0  0  0  0  0  0  0  0  0
   -0.0096   -2.7663   -0.4958 O   0  0  0  0  0  0  0  0  0  0  0  0
   -0.6224   -0.6570   -1.0518 N   0  0  0  0  0  0  0  0  0  0  0  0
   -1.4197   -0.0258   -1.0524 H   0  0  0  0  0  0  0  0  0  0  0  0
    0.6760   -0.0024   -0.8381 C   0  0  1  0  0  0  0  0  0  0  0  0
    1.4529   -0.5945   -1.3332 H   0  0  0  0  0  0  0  0  0  0  0  0
    0.5095    1.3298   -1.6130 C   0  0  0  0  0  0  0  0  0  0  0  0
    1.4355    1.5137   -2.1642 H   0  0  0  0  0  0  0  0  0  0  0  0
   -0.2917    1.2801   -2.3568 H   0  0  0  0  0  0  0  0  0  0  0  0
    0.2915    2.5296   -0.7057 C   0  0  0  0  0  0  0  0  0  0  0  0
    1.2581    3.0078   -0.0728 O   0  5  0  0  0  0  0  0  0  0  0  0
   -0.9155    2.7222   -0.4125 O   0  0  0  0  0  0  0  0  0  0  0  0
    1.0779    0.1115    0.6598 C   0  0  0  0  0  0  0  0  0  0  0  0
    2.1421   -0.3613    1.0506 O   0  0  0  0  0  0  0  0  0  0  0  0
    0.1360    0.5350    1.5847 N   0  0  0  0  0  0  0  0  0  0  0  0
   -0.5250    1.2095    1.1913 H   0  0  0  0  0  0  0  0  0  0  0  0
    0.4812    0.7093    2.9864 C   0  0  0  0  0  0  0  0  0  0  0  0
    1.2817    1.4488    3.0919 H   0  0  0  0  0  0  0  0  0  0  0  0
   -0.3917    1.0589    3.5450 H   0  0  0  0  0  0  0  0  0  0  0  0
    0.8125   -0.2388    3.4217 H   0  0  0  0  0  0  0  0  0  0  0  0
  1  2  1  0  0  0  0
  2  3  1  0  0  0  0
  2  4  1  0  0  0  0
  2  5  1  0  0  0  0
  5  6  2  0  0  0  0
  5  7  1  0  0  0  0
  7  8  1  0  0  0  0
  7  9  1  0  0  0  0
  9 10  1  0  0  0  0
  9 11  1  0  0  0  0
  9 17  1  0  0  0  0
 11 12  1  0  0  0  0
 11 13  1  0  0  0  0
 11 14  1  0  0  0  0
 14 15  1  0  0  0  0
 14 16  2  0  0  0  0
 17 18  2  0  0  0  0
 17 19  1  0  0  0  0
 19 20  1  0  0  0  0
 19 21  1  0  0  0  0
 21 22  1  0  0  0  0
 21 23  1  0  0  0  0
 21 24  1  0  0  0  0
M  CHG  1  15  -1
M  END
$$$$

  -OEChem-03222214023D

 24 23  0     1  0  0  0  0  0999 V2000
   -2.4038   -3.4063   -0.1099 H   0  0  0  0  0  0  0  0  0  0  0  0
   -2.3561   -2.3819   -0.4893 C   0  0  0  0  0  0  0  0  0  0  0  0
   -2.8584   -1.7208    0.2215 H   0  0  0  0  0  0  0  0  0  0  0  0
   -2.8751   -2.3351   -1.4496 H   0  0  0  0  0  0  0  0  0  0  0  0
   -0.9100   -1.9529   -0.6609 C   0  0  0  0  0  0  0  0  0  0  0  0
   -0.0177   -2.7688   -0.5000 O   0  0  0  0  0  0  0  0  0  0  0  0
   -0.6374   -0.6612   -1.0541 N   0  0  0  0  0  0  0  0  0  0  0  0
   -1.4356   -0.0312   -1.0435 H   0  0  0  0  0  0  0  0  0  0  0  0
    0.6579   -0.0050   -0.8327 C   0  0  1  0  0  0  0  0  0  0  0  0
    1.4335   -0.6001   -1.3264 H   0  0  0  0  0  0  0  0  0  0  0  0
    0.5089    1.3279   -1.6082 C   0  0  0  0  0  0  0  0  0  0  0  0
    1.4388    1.5091   -2.1538 H   0  0  0  0  0  0  0  0  0  0  0  0
   -0.2911    1.2886   -2.3536 H   0  0  0  0  0  0  0  0  0  0  0  0
    0.2876    2.5146   -0.6866 C   0  0  0  0  0  0  0  0  0  0  0  0
    1.2701    3.1559   -0.2541 O   0  5  0  0  0  0  0  0  0  0  0  0
   -0.8835    2.5987   -0.2320 O   0  0  0  0  0  0  0  0  0  0  0  0
    1.0705    0.1115    0.6625 C   0  0  0  0  0  0  0  0  0  0  0  0
    2.1523   -0.3302    1.0400 O   0  0  0  0  0  0  0  0  0  0  0  0
    0.1398    0.5317    1.5989 N   0  0  0  0  0  0  0  0  0  0  0  0
   -0.5383    1.1936    1.2068 H   0  0  0  0  0  0  0  0  0  0  0  0
    0.5020    0.7235    2.9943 C   0  0  0  0  0  0  0  0  0  0  0  0
    1.2811    1.4876    3.0833 H   0  0  0  0  0  0  0  0  0  0  0  0
   -0.3722    1.0486    3.5657 H   0  0  0  0  0  0  0  0  0  0  0  0
    0.8696   -0.2116    3.4288 H   0  0  0  0  0  0  0  0  0  0  0  0
  1  2  1  0  0  0  0
  2  3  1  0  0  0  0
  2  4  1  0  0  0  0
  2  5  1  0  0  0  0
  5  6  2  0  0  0  0
  5  7  1  0  0  0  0
  7  8  1  0  0  0  0
  7  9  1  0  0  0  0
  9 10  1  0  0  0  0
  9 11  1  0  0  0  0
  9 17  1  0  0  0  0
 11 12  1  0  0  0  0
 11 13  1  0  0  0  0
 11 14  1  0  0  0  0
 14 15  1  0  0  0  0
 14 16  2  0  0  0  0
 17 18  2  0  0  0  0
 17 19  1  0  0  0  0
 19 20  1  0  0  0  0
 19 21  1  0  0  0  0
 21 22  1  0  0  0  0
 21 23  1  0  0  0  0
 21 24  1  0  0  0  0
M  CHG  1  15  -1
M  END
$$$$

  -OEChem-03222214023D

 24 23  0     1  0  0  0  0  0999 V2000
   -2.4111   -3.4307   -0.1465 H   0  0  0  0  0  0  0  0  0  0  0  0
   -2.3662   -2.3997   -0.5083 C   0  0  0  0  0  0  0  0  0  0  0  0
   -2.8777   -1.7531    0.2094 H   0  0  0  0  0  0  0  0  0  0  0  0
   -2.8779   -2.3396   -1.4719 H   0  0  0  0  0  0  0  0  0  0  0  0
   -0.9209   -1.9601   -0.6615 C   0  0  0  0  0  0  0  0  0  0  0  0
   -0.0241   -2.7685   -0.4878 O   0  0  0  0  0  0  0  0  0  0  0  0
   -0.6523   -0.6647   -1.0454 N   0  0  0  0  0  0  0  0  0  0  0  0
   -1.4529   -0.0379   -1.0358 H   0  0  0  0  0  0  0  0  0  0  0  0
    0.6399   -0.0053   -0.8176 C   0  0  1  0  0  0  0  0  0  0  0  0
    1.4125   -0.6069   -1.3083 H   0  0  0  0  0  0  0  0  0  0  0  0
    0.5144    1.3242   -1.6018 C   0  0  0  0  0  0  0  0  0  0  0  0
    1.4533    1.4911   -2.1367 H   0  0  0  0  0  0  0  0  0  0  0  0
   -0.2761    1.2854   -2.3567 H   0  0  0  0  0  0  0  0  0  0  0  0
    0.2881    2.5222   -0.6950 C   0  0  0  0  0  0  0  0  0  0  0  0
    1.2209    3.3254   -0.4740 O   0  5  0  0  0  0  0  0  0  0  0  0
   -0.8407    2.5499   -0.1357 O   0  0  0  0  0  0  0  0  0  0  0  0
    1.0647    0.1108    0.6737 C   0  0  0  0  0  0  0  0  0  0  0  0
    2.1661   -0.2942    1.0340 O   0  0  0  0  0  0  0  0  0  0  0  0
    0.1466    0.5239    1.6241 N   0  0  0  0  0  0  0  0  0  0  0  0
   -0.5476    1.1747    1.2395 H   0  0  0  0  0  0  0  0  0  0  0  0
    0.5239    0.7205    3.0147 C   0  0  0  0  0  0  0  0  0  0  0  0
    1.2902    1.4981    3.0954 H   0  0  0  0  0  0  0  0  0  0  0  0
   -0.3485    1.0284    3.5981 H   0  0  0  0  0  0  0  0  0  0  0  0
    0.9140   -0.2085    3.4426 H   0  0  0  0  0  0  0  0  0  0  0  0
  1  2  1  0  0  0  0
  2  3  1  0  0  0  0
  2  4  1  0  0  0  0
  2  5  1  0  0  0  0
  5  6  2  0  0  0  0
  5  7  1  0  0  0  0
  7  8  1  0  0  0  0
  7  9  1  0  0  0  0
  9 10  1  0  0  0  0
  9 11  1  0  0  0  0
  9 17  1  0  0  0  0
 11 12  1  0  0  0  0
 11 13  1  0  0  0  0
 11 14  1  0  0  0  0
 14 15  1  0  0  0  0
 14 16  2  0  0  0  0
 17 18  2  0  0  0  0
 17 19  1  0  0  0  0
 19 20  1  0  0  0  0
 19 21  1  0  0  0  0
 21 22  1  0  0  0  0
 21 23  1  0  0  0  0
 21 24  1  0  0  0  0
M  CHG  1  15  -1
M  END
$$$$

  -OEChem-03222214023D

 24 23  0     1  0  0  0  0  0999 V2000
   -2.4174   -3.4459   -0.1673 H   0  0  0  0  0  0  0  0  0  0  0  0
   -2.3741   -2.4158   -0.5319 C   0  0  0  0  0  0  0  0  0  0  0  0
   -2.9047   -1.7710    0.1734 H   0  0  0  0  0  0  0  0  0  0  0  0
   -2.8675   -2.3635   -1.5054 H   0  0  0  0  0  0  0  0  0  0  0  0
   -0.9302   -1.9645   -0.6589 C   0  0  0  0  0  0  0  0  0  0  0  0
   -0.0302   -2.7663   -0.4715 O   0  0  0  0  0  0  0  0  0  0  0  0
   -0.6658   -0.6648   -1.0309 N   0  0  0  0  0  0  0  0  0  0  0  0
   -1.4691   -0.0417   -1.0286 H   0  0  0  0  0  0  0  0  0  0  0  0
    0.6237   -0.0022   -0.7995 C   0  0  1  0  0  0  0  0  0  0  0  0
    1.3928   -0.6094   -1.2892 H   0  0  0  0  0  0  0  0  0  0  0  0
    0.5192    1.3243   -1.5926 C   0  0  0  0  0  0  0  0  0  0  0  0
    1.4664    1.4763   -2.1179 H   0  0  0  0  0  0  0  0  0  0  0  0
   -0.2620    1.2832   -2.3567 H   0  0  0  0  0  0  0  0  0  0  0  0
    0.2899    2.5410   -0.7097 C   0  0  0  0  0  0  0  0  0  0  0  0
    1.1215    3.4759   -0.7116 O   0  5  0  0  0  0  0  0  0  0  0  0
   -0.7863    2.5289   -0.0535 O   0  0  0  0  0  0  0  0  0  0  0  0
    1.0598    0.1069    0.6891 C   0  0  0  0  0  0  0  0  0  0  0  0
    2.1781   -0.2662    1.0309 O   0  0  0  0  0  0  0  0  0  0  0  0
    0.1537    0.5085    1.6549 N   0  0  0  0  0  0  0  0  0  0  0  0
   -0.5510    1.1539    1.2798 H   0  0  0  0  0  0  0  0  0  0  0  0
    0.5498    0.7094    3.0398 C   0  0  0  0  0  0  0  0  0  0  0  0
    1.3141    1.4902    3.1081 H   0  0  0  0  0  0  0  0  0  0  0  0
   -0.3155    1.0154    3.6347 H   0  0  0  0  0  0  0  0  0  0  0  0
    0.9494   -0.2174    3.4637 H   0  0  0  0  0  0  0  0  0  0  0  0
  1  2  1  0  0  0  0
  2  3  1  0  0  0  0
  2  4  1  0  0  0  0
  2  5  1  0  0  0  0
  5  6  2  0  0  0  0
  5  7  1  0  0  0  0
  7  8  1  0  0  0  0
  7  9  1  0  0  0  0
  9 10  1  0  0  0  0
  9 11  1  0  0  0  0
  9 17  1  0  0  0  0
 11 12  1  0  0  0  0
 11 13  1  0  0  0  0
 11 14  1  0  0  0  0
 14 15  1  0  0  0  0
 14 16  2  0  0  0  0
 17 18  2  0  0  0  0
 17 19  1  0  0  0  0
 19 20  1  0  0  0  0
 19 21  1  0  0  0  0
 21 22  1  0  0  0  0
 21 23  1  0  0  0  0
 21 24  1  0  0  0  0
M  CHG  1  15  -1
M  END
$$$$

  -OEChem-03222214023D

 24 23  0     1  0  0  0  0  0999 V2000
   -2.4214   -3.4553   -0.1813 H   0  0  0  0  0  0  0  0  0  0  0  0
   -2.3824   -2.4256   -0.5475 C   0  0  0  0  0  0  0  0  0  0  0  0
   -2.9226   -1.7838    0.1531 H   0  0  0  0  0  0  0  0  0  0  0  0
   -2.8694   -2.3786   -1.5244 H   0  0  0  0  0  0  0  0  0  0  0  0
   -0.9403   -1.9651   -0.6650 C   0  0  0  0  0  0  0  0  0  0  0  0
   -0.0374   -2.7635   -0.4773 O   0  0  0  0  0  0  0  0  0  0  0  0
   -0.6798   -0.6600   -1.0205 N   0  0  0  0  0  0  0  0  0  0  0  0
   -1.4853   -0.0403   -1.0189 H   0  0  0  0  0  0  0  0  0  0  0  0
    0.6069    0.0044   -0.7803 C   0  0  1  0  0  0  0  0  0  0  0  0
    1.3719   -0.6104   -1.2669 H   0  0  0  0  0  0  0  0  0  0  0  0
    0.5317    1.3267   -1.5842 C   0  0  0  0  0  0  0  0  0  0  0  0
    1.4917    1.4598   -2.0911 H   0  0  0  0  0  0  0  0  0  0  0  0
   -0.2335    1.2824   -2.3639 H   0  0  0  0  0  0  0  0  0  0  0  0
    0.2982    2.5680   -0.7345 C   0  0  0  0  0  0  0  0  0  0  0  0
    0.9842    3.5916   -0.9550 O   0  5  0  0  0  0  0  0  0  0  0  0
   -0.7126    2.5263    0.0173 O   0  0  0  0  0  0  0  0  0  0  0  0
    1.0541    0.1036    0.7054 C   0  0  0  0  0  0  0  0  0  0  0  0
    2.1867   -0.2423    1.0290 O   0  0  0  0  0  0  0  0  0  0  0  0
    0.1588    0.4920    1.6855 N   0  0  0  0  0  0  0  0  0  0  0  0
   -0.5483    1.1408    1.3206 H   0  0  0  0  0  0  0  0  0  0  0  0
    0.5719    0.6897    3.0660 C   0  0  0  0  0  0  0  0  0  0  0  0
    1.3083    1.4972    3.1314 H   0  0  0  0  0  0  0  0  0  0  0  0
   -0.2936    0.9555    3.6799 H   0  0  0  0  0  0  0  0  0  0  0  0
    1.0126   -0.2270    3.4709 H   0  0  0  0  0  0  0  0  0  0  0  0
  1  2  1  0  0  0  0
  2  3  1  0  0  0  0
  2  4  1  0  0  0  0
  2  5  1  0  0  0  0
  5  6  2  0  0  0  0
  5  7  1  0  0  0  0
  7  8  1  0  0  0  0
  7  9  1  0  0  0  0
  9 10  1  0  0  0  0
  9 11  1  0  0  0  0
  9 17  1  0  0  0  0
 11 12  1  0  0  0  0
 11 13  1  0  0  0  0
 11 14  1  0  0  0  0
 14 15  1  0  0  0  0
 14 16  2  0  0  0  0
 17 18  2  0  0  0  0
 17 19  1  0  0  0  0
 19 20  1  0  0  0  0
 19 21  1  0  0  0  0
 21 22  1  0  0  0  0
 21 23  1  0  0  0  0
 21 24  1  0  0  0  0
M  CHG  1  15  -1
M  END
$$$$

  -OEChem-03222214023D

 24 23  0     1  0  0  0  0  0999 V2000
   -2.4243   -3.4749   -0.2356 H   0  0  0  0  0  0  0  0  0  0  0  0
   -2.3875   -2.4360   -0.5754 C   0  0  0  0  0  0  0  0  0  0  0  0
   -2.9398   -1.8146    0.1341 H   0  0  0  0  0  0  0  0  0  0  0  0
   -2.8631   -2.3675   -1.5568 H   0  0  0  0  0  0  0  0  0  0  0  0
   -0.9470   -1.9641   -0.6639 C   0  0  0  0  0  0  0  0  0  0  0  0
   -0.0411   -2.7573   -0.4678 O   0  0  0  0  0  0  0  0  0  0  0  0
   -0.6914   -0.6535   -1.0025 N   0  0  0  0  0  0  0  0  0  0  0  0
   -1.5005   -0.0391   -1.0100 H   0  0  0  0  0  0  0  0  0  0  0  0
    0.5910    0.0167   -0.7561 C   0  0  1  0  0  0  0  0  0  0  0  0
    1.3530   -0.6043   -1.2397 H   0  0  0  0  0  0  0  0  0  0  0  0
    0.5363    1.3302   -1.5780 C   0  0  0  0  0  0  0  0  0  0  0  0
    1.5071    1.4469   -2.0678 H   0  0  0  0  0  0  0  0  0  0  0  0
   -0.2122    1.2706   -2.3726 H   0  0  0  0  0  0  0  0  0  0  0  0
    0.2949    2.6039   -0.7765 C   0  0  0  0  0  0  0  0  0  0  0  0
    0.7890    3.6680   -1.2144 O   0  5  0  0  0  0  0  0  0  0  0  0
   -0.6145    2.5452    0.0931 O   0  0  0  0  0  0  0  0  0  0  0  0
    1.0514    0.1079    0.7267 C   0  0  0  0  0  0  0  0  0  0  0  0
    2.1934   -0.2238    1.0326 O   0  0  0  0  0  0  0  0  0  0  0  0
    0.1682    0.4809    1.7233 N   0  0  0  0  0  0  0  0  0  0  0  0
   -0.5343    1.1419    1.3716 H   0  0  0  0  0  0  0  0  0  0  0  0
    0.6002    0.6659    3.1001 C   0  0  0  0  0  0  0  0  0  0  0  0
    1.3594    1.4525    3.1599 H   0  0  0  0  0  0  0  0  0  0  0  0
   -0.2515    0.9554    3.7226 H   0  0  0  0  0  0  0  0  0  0  0  0
    1.0192   -0.2633    3.4994 H   0  0  0  0  0  0  0  0  0  0  0  0
  1  2  1  0  0  0  0
  2  3  1  0  0  0  0
  2  4  1  0  0  0  0
  2  5  1  0  0  0  0
  5  6  2  0  0  0  0
  5  7  1  0  0  0  0
  7  8  1  0  0  0  0
  7  9  1  0  0  0  0
  9 10  1  0  0  0  0
  9 11  1  0  0  0  0
  9 17  1  0  0  0  0
 11 12  1  0  0  0  0
 11 13  1  0  0  0  0
 11 14  1  0  0  0  0
 14 15  1  0  0  0  0
 14 16  2  0  0  0  0
 17 18  2  0  0  0  0
 17 19  1  0  0  0  0
 19 20  1  0  0  0  0
 19 21  1  0  0  0  0
 21 22  1  0  0  0  0
 21 23  1  0  0  0  0
 21 24  1  0  0  0  0
M  CHG  1  15  -1
M  END
$$$$

  -OEChem-03222214023D

 24 23  0     1  0  0  0  0  0999 V2000
   -2.4254   -3.4813   -0.2583 H   0  0  0  0  0  0  0  0  0  0  0  0
   -2.3914   -2.4401   -0.5911 C   0  0  0  0  0  0  0  0  0  0  0  0
   -2.9582   -1.8277    0.1147 H   0  0  0  0  0  0  0  0  0  0  0  0
   -2.8540   -2.3691   -1.5784 H   0  0  0  0  0  0  0  0  0  0  0  0
   -0.9535   -1.9567   -0.6569 C   0  0  0  0  0  0  0  0  0  0  0  0
   -0.0453   -2.7453   -0.4541 O   0  0  0  0  0  0  0  0  0  0  0  0
   -0.7035   -0.6414   -0.9821 N   0  0  0  0  0  0  0  0  0  0  0  0
   -1.5163   -0.0330   -1.0021 H   0  0  0  0  0  0  0  0  0  0  0  0
    0.5762    0.0346   -0.7352 C   0  0  1  0  0  0  0  0  0  0  0  0
    1.3341   -0.5948   -1.2148 H   0  0  0  0  0  0  0  0  0  0  0  0
    0.5429    1.3371   -1.5793 C   0  0  0  0  0  0  0  0  0  0  0  0
    1.5225    1.4348   -2.0555 H   0  0  0  0  0  0  0  0  0  0  0  0
   -0.1912    1.2580   -2.3857 H   0  0  0  0  0  0  0  0  0  0  0  0
    0.2996    2.6489   -0.8378 C   0  0  0  0  0  0  0  0  0  0  0  0
    0.5666    3.6974   -1.4694 O   0  5  0  0  0  0  0  0  0  0  0  0
   -0.4518    2.6064    0.1702 O   0  0  0  0  0  0  0  0  0  0  0  0
    1.0490    0.1174    0.7445 C   0  0  0  0  0  0  0  0  0  0  0  0
    2.1939   -0.2177    1.0372 O   0  0  0  0  0  0  0  0  0  0  0  0
    0.1740    0.4758    1.7532 N   0  0  0  0  0  0  0  0  0  0  0  0
   -0.5051    1.1677    1.4166 H   0  0  0  0  0  0  0  0  0  0  0  0
    0.6158    0.6252    3.1313 C   0  0  0  0  0  0  0  0  0  0  0  0
    1.3717    1.4134    3.2065 H   0  0  0  0  0  0  0  0  0  0  0  0
   -0.2323    0.8933    3.7679 H   0  0  0  0  0  0  0  0  0  0  0  0
    1.0422   -0.3124    3.5021 H   0  0  0  0  0  0  0  0  0  0  0  0
  1  2  1  0  0  0  0
  2  3  1  0  0  0  0
  2  4  1  0  0  0  0
  2  5  1  0  0  0  0
  5  6  2  0  0  0  0
  5  7  1  0  0  0  0
  7  8  1  0  0  0  0
  7  9  1  0  0  0  0
  9 10  1  0  0  0  0
  9 11  1  0  0  0  0
  9 17  1  0  0  0  0
 11 12  1  0  0  0  0
 11 13  1  0  0  0  0
 11 14  1  0  0  0  0
 14 15  1  0  0  0  0
 14 16  2  0  0  0  0
 17 18  2  0  0  0  0
 17 19  1  0  0  0  0
 19 20  1  0  0  0  0
 19 21  1  0  0  0  0
 21 22  1  0  0  0  0
 21 23  1  0  0  0  0
 21 24  1  0  0  0  0
M  CHG  1  15  -1
M  END
$$$$

  -OEChem-03222214023D

 24 23  0     1  0  0  0  0  0999 V2000
   -2.4086   -3.4528   -0.2083 H   0  0  0  0  0  0  0  0  0  0  0  0
   -2.3702   -2.4136   -0.5470 C   0  0  0  0  0  0  0  0  0  0  0  0
   -2.9322   -1.7944    0.1566 H   0  0  0  0  0  0  0  0  0  0  0  0
   -2.8344   -2.3461   -1.5339 H   0  0  0  0  0  0  0  0  0  0  0  0
   -0.9299   -1.9380   -0.6180 C   0  0  0  0  0  0  0  0  0  0  0  0
   -0.0268   -2.7304   -0.4110 O   0  0  0  0  0  0  0  0  0  0  0  0
   -0.6752   -0.6286   -0.9647 N   0  0  0  0  0  0  0  0  0  0  0  0
   -1.4875   -0.0253   -1.0264 H   0  0  0  0  0  0  0  0  0  0  0  0
    0.6114    0.0486   -0.7400 C   0  0  1  0  0  0  0  0  0  0  0  0
    1.3742   -0.5815   -1.2108 H   0  0  0  0  0  0  0  0  0  0  0  0
    0.5485    1.3410   -1.6132 C   0  0  0  0  0  0  0  0  0  0  0  0
    1.3809    1.2808   -2.3197 H   0  0  0  0  0  0  0  0  0  0  0  0
   -0.3646    1.3454   -2.2152 H   0  0  0  0  0  0  0  0  0  0  0  0
    0.6553    2.7249   -0.9676 C   0  0  0  0  0  0  0  0  0  0  0  0
    0.5954    3.6781   -1.7795 O   0  5  0  0  0  0  0  0  0  0  0  0
    0.4662    2.8488    0.2654 O   0  0  0  0  0  0  0  0  0  0  0  0
    1.0670    0.1351    0.7448 C   0  0  0  0  0  0  0  0  0  0  0  0
    2.1590   -0.3239    1.0720 O   0  0  0  0  0  0  0  0  0  0  0  0
    0.1657    0.5071    1.7269 N   0  0  0  0  0  0  0  0  0  0  0  0
   -0.3686    1.3194    1.4093 H   0  0  0  0  0  0  0  0  0  0  0  0
    0.5543    0.5256    3.1291 C   0  0  0  0  0  0  0  0  0  0  0  0
    1.3703    1.2379    3.2889 H   0  0  0  0  0  0  0  0  0  0  0  0
   -0.2964    0.8244    3.7481 H   0  0  0  0  0  0  0  0  0  0  0  0
    0.8824   -0.4679    3.4510 H   0  0  0  0  0  0  0  0  0  0  0  0
  1  2  1  0  0  0  0
  2  3  1  0  0  0  0
  2  4  1  0  0  0  0
  2  5  1  0  0  0  0
  5  6  2  0  0  0  0
  5  7  1  0  0  0  0
  7  8  1  0  0  0  0
  7  9  1  0  0  0  0
  9 10  1  0  0  0  0
  9 11  1  0  0  0  0
  9 17  1  0  0  0  0
 11 12  1  0  0  0  0
 11 13  1  0  0  0  0
 11 14  1  0  0  0  0
 14 15  1  0  0  0  0
 14 16  2  0  0  0  0
 17 18  2  0  0  0  0
 17 19  1  0  0  0  0
 19 20  1  0  0  0  0
 19 21  1  0  0  0  0
 21 22  1  0  0  0  0
 21 23  1  0  0  0  0
 21 24  1  0  0  0  0
M  CHG  1  15  -1
M  END
$$$$

  -OEChem-03222214023D

 24 23  0     1  0  0  0  0  0999 V2000
   -2.4027   -3.4467   -0.2009 H   0  0  0  0  0  0  0  0  0  0  0  0
   -2.3622   -2.4025   -0.5237 C   0  0  0  0  0  0  0  0  0  0  0  0
   -2.9139   -1.7914    0.1950 H   0  0  0  0  0  0  0  0  0  0  0  0
   -2.8356   -2.3173   -1.5049 H   0  0  0  0  0  0  0  0  0  0  0  0
   -0.9200   -1.9339   -0.6020 C   0  0  0  0  0  0  0  0  0  0  0  0
   -0.0206   -2.7306   -0.3964 O   0  0  0  0  0  0  0  0  0  0  0  0
   -0.6599   -0.6290   -0.9619 N   0  0  0  0  0  0  0  0  0  0  0  0
   -1.4700   -0.0245   -1.0372 H   0  0  0  0  0  0  0  0  0  0  0  0
    0.6319    0.0448   -0.7519 C   0  0  1  0  0  0  0  0  0  0  0  0
    1.3968   -0.5780   -1.2292 H   0  0  0  0  0  0  0  0  0  0  0  0
    0.5350    1.3431   -1.6168 C   0  0  0  0  0  0  0  0  0  0  0  0
    1.3489    1.2946   -2.3449 H   0  0  0  0  0  0  0  0  0  0  0  0
   -0.3922    1.3362   -2.1978 H   0  0  0  0  0  0  0  0  0  0  0  0
    0.6441    2.7330   -0.9804 C   0  0  0  0  0  0  0  0  0  0  0  0
    0.2609    3.6658   -1.7255 O   0  5  0  0  0  0  0  0  0  0  0  0
    0.8748    2.8686    0.2418 O   0  0  0  0  0  0  0  0  0  0  0  0
    1.0783    0.1321    0.7356 C   0  0  0  0  0  0  0  0  0  0  0  0
    2.1435   -0.3749    1.0801 O   0  0  0  0  0  0  0  0  0  0  0  0
    0.1658    0.5139    1.7053 N   0  0  0  0  0  0  0  0  0  0  0  0
   -0.3723    1.3191    1.3870 H   0  0  0  0  0  0  0  0  0  0  0  0
    0.5326    0.5215    3.1137 C   0  0  0  0  0  0  0  0  0  0  0  0
    1.3662    1.2102    3.2867 H   0  0  0  0  0  0  0  0  0  0  0  0
   -0.3186    0.8449    3.7197 H   0  0  0  0  0  0  0  0  0  0  0  0
    0.8268   -0.4811    3.4407 H   0  0  0  0  0  0  0  0  0  0  0  0
  1  2  1  0  0  0  0
  2  3  1  0  0  0  0
  2  4  1  0  0  0  0
  2  5  1  0  0  0  0
  5  6  2  0  0  0  0
  5  7  1  0  0  0  0
  7  8  1  0  0  0  0
  7  9  1  0  0  0  0
  9 10  1  0  0  0  0
  9 11  1  0  0  0  0
  9 17  1  0  0  0  0
 11 12  1  0  0  0  0
 11 13  1  0  0  0  0
 11 14  1  0  0  0  0
 14 15  1  0  0  0  0
 14 16  2  0  0  0  0
 17 18  2  0  0  0  0
 17 19  1  0  0  0  0
 19 20  1  0  0  0  0
 19 21  1  0  0  0  0
 21 22  1  0  0  0  0
 21 23  1  0  0  0  0
 21 24  1  0  0  0  0
M  CHG  1  15  -1
M  END
$$$$

  -OEChem-03222214023D

 24 23  0     1  0  0  0  0  0999 V2000
   -2.4251   -3.4381   -0.1891 H   0  0  0  0  0  0  0  0  0  0  0  0
   -2.3706   -2.4022   -0.5352 C   0  0  0  0  0  0  0  0  0  0  0  0
   -2.9342   -1.7713    0.1565 H   0  0  0  0  0  0  0  0  0  0  0  0
   -2.8220   -2.3372   -1.5282 H   0  0  0  0  0  0  0  0  0  0  0  0
   -0.9241   -1.9442   -0.5921 C   0  0  0  0  0  0  0  0  0  0  0  0
   -0.0342   -2.7439   -0.3608 O   0  0  0  0  0  0  0  0  0  0  0  0
   -0.6489   -0.6458   -0.9644 N   0  0  0  0  0  0  0  0  0  0  0  0
   -1.4522   -0.0398   -1.0867 H   0  0  0  0  0  0  0  0  0  0  0  0
    0.6500    0.0214   -0.7703 C   0  0  1  0  0  0  0  0  0  0  0  0
    1.4172   -0.5863   -1.2622 H   0  0  0  0  0  0  0  0  0  0  0  0
    0.5125    1.3397   -1.5960 C   0  0  0  0  0  0  0  0  0  0  0  0
    1.3008    1.3235   -2.3526 H   0  0  0  0  0  0  0  0  0  0  0  0
   -0.4336    1.3457   -2.1461 H   0  0  0  0  0  0  0  0  0  0  0  0
    0.6393    2.6987   -0.9016 C   0  0  0  0  0  0  0  0  0  0  0  0
   -0.0294    3.6173   -1.4327 O   0  5  0  0  0  0  0  0  0  0  0  0
    1.3213    2.8380    0.1364 O   0  0  0  0  0  0  0  0  0  0  0  0
    1.0868    0.1098    0.7194 C   0  0  0  0  0  0  0  0  0  0  0  0
    2.1424   -0.4068    1.0781 O   0  0  0  0  0  0  0  0  0  0  0  0
    0.1675    0.5033    1.6796 N   0  0  0  0  0  0  0  0  0  0  0  0
   -0.4663    1.2195    1.3380 H   0  0  0  0  0  0  0  0  0  0  0  0
    0.5397    0.5878    3.0838 C   0  0  0  0  0  0  0  0  0  0  0  0
    1.3536    1.3076    3.2196 H   0  0  0  0  0  0  0  0  0  0  0  0
   -0.3177    0.9144    3.6790 H   0  0  0  0  0  0  0  0  0  0  0  0
    0.8645   -0.3894    3.4549 H   0  0  0  0  0  0  0  0  0  0  0  0
  1  2  1  0  0  0  0
  2  3  1  0  0  0  0
  2  4  1  0  0  0  0
  2  5  1  0  0  0  0
  5  6  2  0  0  0  0
  5  7  1  0  0  0  0
  7  8  1  0  0  0  0
  7  9  1  0  0  0  0
  9 10  1  0  0  0  0
  9 11  1  0  0  0  0
  9 17  1  0  0  0  0
 11 12  1  0  0  0  0
 11 13  1  0  0  0  0
 11 14  1  0  0  0  0
 14 15  1  0  0  0  0
 14 16  2  0  0  0  0
 17 18  2  0  0  0  0
 17 19  1  0  0  0  0
 19 20  1  0  0  0  0
 19 21  1  0  0  0  0
 21 22  1  0  0  0  0
 21 23  1  0  0  0  0
 21 24  1  0  0  0  0
M  CHG  1  15  -1
M  END
$$$$

  -OEChem-03222214023D

 24 23  0     1  0  0  0  0  0999 V2000
   -2.4324   -3.4351   -0.1712 H   0  0  0  0  0  0  0  0  0  0  0  0
   -2.3719   -2.4052   -0.5341 C   0  0  0  0  0  0  0  0  0  0  0  0
   -2.9359   -1.7605    0.1444 H   0  0  0  0  0  0  0  0  0  0  0  0
   -2.8186   -2.3550   -1.5300 H   0  0  0  0  0  0  0  0  0  0  0  0
   -0.9230   -1.9544   -0.5913 C   0  0  0  0  0  0  0  0  0  0  0  0
   -0.0375   -2.7545   -0.3456 O   0  0  0  0  0  0  0  0  0  0  0  0
   -0.6401   -0.6624   -0.9796 N   0  0  0  0  0  0  0  0  0  0  0  0
   -1.4397   -0.0545   -1.1178 H   0  0  0  0  0  0  0  0  0  0  0  0
    0.6620    0.0014   -0.7947 C   0  0  1  0  0  0  0  0  0  0  0  0
    1.4328   -0.5934   -1.2967 H   0  0  0  0  0  0  0  0  0  0  0  0
    0.4974    1.3354   -1.5830 C   0  0  0  0  0  0  0  0  0  0  0  0
    1.2679    1.3541   -2.3576 H   0  0  0  0  0  0  0  0  0  0  0  0
   -0.4617    1.3634   -2.1093 H   0  0  0  0  0  0  0  0  0  0  0  0
    0.6447    2.6443   -0.8083 C   0  0  0  0  0  0  0  0  0  0  0  0
   -0.2305    3.5092   -1.0528 O   0  5  0  0  0  0  0  0  0  0  0  0
    1.6118    2.8155   -0.0351 O   0  0  0  0  0  0  0  0  0  0  0  0
    1.0922    0.1027    0.6961 C   0  0  0  0  0  0  0  0  0  0  0  0
    2.1451   -0.4078    1.0692 O   0  0  0  0  0  0  0  0  0  0  0  0
    0.1683    0.5110    1.6463 N   0  0  0  0  0  0  0  0  0  0  0  0
   -0.5239    1.1613    1.2877 H   0  0  0  0  0  0  0  0  0  0  0  0
    0.5373    0.6495    3.0469 C   0  0  0  0  0  0  0  0  0  0  0  0
    1.3457    1.3798    3.1565 H   0  0  0  0  0  0  0  0  0  0  0  0
   -0.3231    0.9917    3.6290 H   0  0  0  0  0  0  0  0  0  0  0  0
    0.8686   -0.3112    3.4539 H   0  0  0  0  0  0  0  0  0  0  0  0
  1  2  1  0  0  0  0
  2  3  1  0  0  0  0
  2  4  1  0  0  0  0
  2  5  1  0  0  0  0
  5  6  2  0  0  0  0
  5  7  1  0  0  0  0
  7  8  1  0  0  0  0
  7  9  1  0  0  0  0
  9 10  1  0  0  0  0
  9 11  1  0  0  0  0
  9 17  1  0  0  0  0
 11 12  1  0  0  0  0
 11 13  1  0  0  0  0
 11 14  1  0  0  0  0
 14 15  1  0  0  0  0
 14 16  2  0  0  0  0
 17 18  2  0  0  0  0
 17 19  1  0  0  0  0
 19 20  1  0  0  0  0
 19 21  1  0  0  0  0
 21 22  1  0  0  0  0
 21 23  1  0  0  0  0
 21 24  1  0  0  0  0
M  CHG  1  15  -1
M  END
$$$$

  -OEChem-03222214023D

 24 23  0     1  0  0  0  0  0999 V2000
   -2.4227   -3.4412   -0.1746 H   0  0  0  0  0  0  0  0  0  0  0  0
   -2.3641   -2.4031   -0.5138 C   0  0  0  0  0  0  0  0  0  0  0  0
   -2.9071   -1.7717    0.1938 H   0  0  0  0  0  0  0  0  0  0  0  0
   -2.8343   -2.3258   -1.4972 H   0  0  0  0  0  0  0  0  0  0  0  0
   -0.9144   -1.9593   -0.5963 C   0  0  0  0  0  0  0  0  0  0  0  0
   -0.0283   -2.7607   -0.3567 O   0  0  0  0  0  0  0  0  0  0  0  0
   -0.6317   -0.6724   -1.0006 N   0  0  0  0  0  0  0  0  0  0  0  0
   -1.4320   -0.0606   -1.1184 H   0  0  0  0  0  0  0  0  0  0  0  0
    0.6704   -0.0093   -0.8179 C   0  0  1  0  0  0  0  0  0  0  0  0
    1.4454   -0.5969   -1.3216 H   0  0  0  0  0  0  0  0  0  0  0  0
    0.4922    1.3304   -1.5869 C   0  0  0  0  0  0  0  0  0  0  0  0
    1.2570    1.3723   -2.3667 H   0  0  0  0  0  0  0  0  0  0  0  0
   -0.4725    1.3754   -2.1019 H   0  0  0  0  0  0  0  0  0  0  0  0
    0.6515    2.5952   -0.7511 C   0  0  0  0  0  0  0  0  0  0  0  0
   -0.3541    3.3445   -0.7094 O   0  5  0  0  0  0  0  0  0  0  0  0
    1.7516    2.8467   -0.2127 O   0  0  0  0  0  0  0  0  0  0  0  0
    1.0947    0.1095    0.6735 C   0  0  0  0  0  0  0  0  0  0  0  0
    2.1456   -0.3942    1.0594 O   0  0  0  0  0  0  0  0  0  0  0  0
    0.1656    0.5319    1.6124 N   0  0  0  0  0  0  0  0  0  0  0  0
   -0.5298    1.1745    1.2422 H   0  0  0  0  0  0  0  0  0  0  0  0
    0.5204    0.6810    3.0156 C   0  0  0  0  0  0  0  0  0  0  0  0
    1.3364    1.4024    3.1277 H   0  0  0  0  0  0  0  0  0  0  0  0
   -0.3424    1.0399    3.5838 H   0  0  0  0  0  0  0  0  0  0  0  0
    0.8350   -0.2794    3.4364 H   0  0  0  0  0  0  0  0  0  0  0  0
  1  2  1  0  0  0  0
  2  3  1  0  0  0  0
  2  4  1  0  0  0  0
  2  5  1  0  0  0  0
  5  6  2  0  0  0  0
  5  7  1  0  0  0  0
  7  8  1  0  0  0  0
  7  9  1  0  0  0  0
  9 10  1  0  0  0  0
  9 11  1  0  0  0  0
  9 17  1  0  0  0  0
 11 12  1  0  0  0  0
 11 13  1  0  0  0  0
 11 14  1  0  0  0  0
 14 15  1  0  0  0  0
 14 16  2  0  0  0  0
 17 18  2  0  0  0  0
 17 19  1  0  0  0  0
 19 20  1  0  0  0  0
 19 21  1  0  0  0  0
 21 22  1  0  0  0  0
 21 23  1  0  0  0  0
 21 24  1  0  0  0  0
M  CHG  1  15  -1
M  END
$$$$

  -OEChem-03222214023D

 24 23  0     1  0  0  0  0  0999 V2000
   -2.4145   -3.4212   -0.1149 H   0  0  0  0  0  0  0  0  0  0  0  0
   -2.3575   -2.3969   -0.4940 C   0  0  0  0  0  0  0  0  0  0  0  0
   -2.8888   -1.7371    0.1966 H   0  0  0  0  0  0  0  0  0  0  0  0
   -2.8407   -2.3549   -1.4732 H   0  0  0  0  0  0  0  0  0  0  0  0
   -0.9076   -1.9619   -0.6125 C   0  0  0  0  0  0  0  0  0  0  0  0
   -0.0199   -2.7679   -0.3940 O   0  0  0  0  0  0  0  0  0  0  0  0
   -0.6267   -0.6774   -1.0252 N   0  0  0  0  0  0  0  0  0  0  0  0
   -1.4270   -0.0591   -1.1053 H   0  0  0  0  0  0  0  0  0  0  0  0
    0.6755   -0.0175   -0.8370 C   0  0  1  0  0  0  0  0  0  0  0  0
    1.4538   -0.6004   -1.3410 H   0  0  0  0  0  0  0  0  0  0  0  0
    0.4914    1.3284   -1.5897 C   0  0  0  0  0  0  0  0  0  0  0  0
    1.2522    1.3869   -2.3723 H   0  0  0  0  0  0  0  0  0  0  0  0
   -0.4773    1.3905   -2.0950 H   0  0  0  0  0  0  0  0  0  0  0  0
    0.6578    2.5558   -0.7065 C   0  0  0  0  0  0  0  0  0  0  0  0
   -0.4093    3.1396   -0.3943 O   0  5  0  0  0  0  0  0  0  0  0  0
    1.8048    2.9302   -0.3786 O   0  0  0  0  0  0  0  0  0  0  0  0
    1.0925    0.1097    0.6561 C   0  0  0  0  0  0  0  0  0  0  0  0
    2.1466   -0.3808    1.0489 O   0  0  0  0  0  0  0  0  0  0  0  0
    0.1580    0.5416    1.5851 N   0  0  0  0  0  0  0  0  0  0  0  0
   -0.5133    1.2074    1.2033 H   0  0  0  0  0  0  0  0  0  0  0  0
    0.5045    0.6978    2.9894 C   0  0  0  0  0  0  0  0  0  0  0  0
    1.3084    1.4324    3.1038 H   0  0  0  0  0  0  0  0  0  0  0  0
   -0.3669    1.0436    3.5527 H   0  0  0  0  0  0  0  0  0  0  0  0
    0.8322   -0.2567    3.4137 H   0  0  0  0  0  0  0  0  0  0  0  0
  1  2  1  0  0  0  0
  2  3  1  0  0  0  0
  2  4  1  0  0  0  0
  2  5  1  0  0  0  0
  5  6  2  0  0  0  0
  5  7  1  0  0  0  0
  7  8  1  0  0  0  0
  7  9  1  0  0  0  0
  9 10  1  0  0  0  0
  9 11  1  0  0  0  0
  9 17  1  0  0  0  0
 11 12  1  0  0  0  0
 11 13  1  0  0  0  0
 11 14  1  0  0  0  0
 14 15  1  0  0  0  0
 14 16  2  0  0  0  0
 17 18  2  0  0  0  0
 17 19  1  0  0  0  0
 19 20  1  0  0  0  0
 19 21  1  0  0  0  0
 21 22  1  0  0  0  0
 21 23  1  0  0  0  0
 21 24  1  0  0  0  0
M  CHG  1  15  -1
M  END
$$$$

  -OEChem-03222214023D

 24 23  0     1  0  0  0  0  0999 V2000
   -2.3940   -3.4341   -0.1298 H   0  0  0  0  0  0  0  0  0  0  0  0
   -2.3455   -2.3949   -0.4671 C   0  0  0  0  0  0  0  0  0  0  0  0
   -2.8432   -1.7621    0.2720 H   0  0  0  0  0  0  0  0  0  0  0  0
   -2.8684   -2.3092   -1.4227 H   0  0  0  0  0  0  0  0  0  0  0  0
   -0.8988   -1.9621   -0.6253 C   0  0  0  0  0  0  0  0  0  0  0  0
   -0.0064   -2.7700   -0.4329 O   0  0  0  0  0  0  0  0  0  0  0  0
   -0.6262   -0.6774   -1.0428 N   0  0  0  0  0  0  0  0  0  0  0  0
   -1.4279   -0.0566   -1.0802 H   0  0  0  0  0  0  0  0  0  0  0  0
    0.6732   -0.0164   -0.8445 C   0  0  1  0  0  0  0  0  0  0  0  0
    1.4547   -0.6021   -1.3404 H   0  0  0  0  0  0  0  0  0  0  0  0
    0.5002    1.3264   -1.6041 C   0  0  0  0  0  0  0  0  0  0  0  0
    1.2674    1.3816   -2.3810 H   0  0  0  0  0  0  0  0  0  0  0  0
   -0.4659    1.3943   -2.1135 H   0  0  0  0  0  0  0  0  0  0  0  0
    0.6604    2.5445   -0.7096 C   0  0  0  0  0  0  0  0  0  0  0  0
   -0.4027    2.9473   -0.1714 O   0  5  0  0  0  0  0  0  0  0  0  0
    1.7819    3.0835   -0.5859 O   0  0  0  0  0  0  0  0  0  0  0  0
    1.0834    0.1187    0.6500 C   0  0  0  0  0  0  0  0  0  0  0  0
    2.1411   -0.3608    1.0464 O   0  0  0  0  0  0  0  0  0  0  0  0
    0.1461    0.5542    1.5735 N   0  0  0  0  0  0  0  0  0  0  0  0
   -0.4819    1.2642    1.1868 H   0  0  0  0  0  0  0  0  0  0  0  0
    0.4811    0.6892    2.9828 C   0  0  0  0  0  0  0  0  0  0  0  0
    1.3010    1.4029    3.1136 H   0  0  0  0  0  0  0  0  0  0  0  0
   -0.3879    1.0505    3.5401 H   0  0  0  0  0  0  0  0  0  0  0  0
    0.7812   -0.2770    3.4007 H   0  0  0  0  0  0  0  0  0  0  0  0
  1  2  1  0  0  0  0
  2  3  1  0  0  0  0
  2  4  1  0  0  0  0
  2  5  1  0  0  0  0
  5  6  2  0  0  0  0
  5  7  1  0  0  0  0
  7  8  1  0  0  0  0
  7  9  1  0  0  0  0
  9 10  1  0  0  0  0
  9 11  1  0  0  0  0
  9 17  1  0  0  0  0
 11 12  1  0  0  0  0
 11 13  1  0  0  0  0
 11 14  1  0  0  0  0
 14 15  1  0  0  0  0
 14 16  2  0  0  0  0
 17 18  2  0  0  0  0
 17 19  1  0  0  0  0
 19 20  1  0  0  0  0
 19 21  1  0  0  0  0
 21 22  1  0  0  0  0
 21 23  1  0  0  0  0
 21 24  1  0  0  0  0
M  CHG  1  15  -1
M  END
$$$$

  -OEChem-03222214023D

 24 23  0     1  0  0  0  0  0999 V2000
   -2.3972   -3.4473   -0.1500 H   0  0  0  0  0  0  0  0  0  0  0  0
   -2.3535   -2.4081   -0.4875 C   0  0  0  0  0  0  0  0  0  0  0  0
   -2.8647   -1.7792    0.2456 H   0  0  0  0  0  0  0  0  0  0  0  0
   -2.8663   -2.3269   -1.4489 H   0  0  0  0  0  0  0  0  0  0  0  0
   -0.9089   -1.9632   -0.6309 C   0  0  0  0  0  0  0  0  0  0  0  0
   -0.0116   -2.7647   -0.4328 O   0  0  0  0  0  0  0  0  0  0  0  0
   -0.6434   -0.6726   -1.0344 N   0  0  0  0  0  0  0  0  0  0  0  0
   -1.4484   -0.0554   -1.0627 H   0  0  0  0  0  0  0  0  0  0  0  0
    0.6501   -0.0057   -0.8237 C   0  0  1  0  0  0  0  0  0  0  0  0
    1.4292   -0.6041   -1.3083 H   0  0  0  0  0  0  0  0  0  0  0  0
    0.5144    1.3243   -1.6134 C   0  0  0  0  0  0  0  0  0  0  0  0
    1.3006    1.3509   -2.3729 H   0  0  0  0  0  0  0  0  0  0  0  0
   -0.4392    1.3878   -2.1455 H   0  0  0  0  0  0  0  0  0  0  0  0
    0.6581    2.5688   -0.7516 C   0  0  0  0  0  0  0  0  0  0  0  0
   -0.3388    2.8307   -0.0278 O   0  5  0  0  0  0  0  0  0  0  0  0
    1.6872    3.2741   -0.8458 O   0  0  0  0  0  0  0  0  0  0  0  0
    1.0700    0.1260    0.6682 C   0  0  0  0  0  0  0  0  0  0  0  0
    2.1484   -0.3221    1.0455 O   0  0  0  0  0  0  0  0  0  0  0  0
    0.1447    0.5486    1.6072 N   0  0  0  0  0  0  0  0  0  0  0  0
   -0.4680    1.2790    1.2290 H   0  0  0  0  0  0  0  0  0  0  0  0
    0.4975    0.6737    3.0130 C   0  0  0  0  0  0  0  0  0  0  0  0
    1.3136    1.3925    3.1393 H   0  0  0  0  0  0  0  0  0  0  0  0
   -0.3669    1.0233    3.5850 H   0  0  0  0  0  0  0  0  0  0  0  0
    0.8104   -0.2941    3.4177 H   0  0  0  0  0  0  0  0  0  0  0  0
  1  2  1  0  0  0  0
  2  3  1  0  0  0  0
  2  4  1  0  0  0  0
  2  5  1  0  0  0  0
  5  6  2  0  0  0  0
  5  7  1  0  0  0  0
  7  8  1  0  0  0  0
  7  9  1  0  0  0  0
  9 10  1  0  0  0  0
  9 11  1  0  0  0  0
  9 17  1  0  0  0  0
 11 12  1  0  0  0  0
 11 13  1  0  0  0  0
 11 14  1  0  0  0  0
 14 15  1  0  0  0  0
 14 16  2  0  0  0  0
 17 18  2  0  0  0  0
 17 19  1  0  0  0  0
 19 20  1  0  0  0  0
 19 21  1  0  0  0  0
 21 22  1  0  0  0  0
 21 23  1  0  0  0  0
 21 24  1  0  0  0  0
M  CHG  1  15  -1
M  END
$$$$

  -OEChem-03222214023D

 24 23  0     1  0  0  0  0  0999 V2000
   -2.3948   -3.4707   -0.1959 H   0  0  0  0  0  0  0  0  0  0  0  0
   -2.3595   -2.4242   -0.5115 C   0  0  0  0  0  0  0  0  0  0  0  0
   -2.8828   -1.8157    0.2304 H   0  0  0  0  0  0  0  0  0  0  0  0
   -2.8663   -2.3287   -1.4749 H   0  0  0  0  0  0  0  0  0  0  0  0
   -0.9183   -1.9621   -0.6349 C   0  0  0  0  0  0  0  0  0  0  0  0
   -0.0145   -2.7559   -0.4355 O   0  0  0  0  0  0  0  0  0  0  0  0
   -0.6632   -0.6630   -1.0176 N   0  0  0  0  0  0  0  0  0  0  0  0
   -1.4736   -0.0534   -1.0456 H   0  0  0  0  0  0  0  0  0  0  0  0
    0.6229    0.0129   -0.7937 C   0  0  1  0  0  0  0  0  0  0  0  0
    1.3980   -0.6014   -1.2652 H   0  0  0  0  0  0  0  0  0  0  0  0
    0.5314    1.3248   -1.6220 C   0  0  0  0  0  0  0  0  0  0  0  0
    1.3416    1.3136   -2.3565 H   0  0  0  0  0  0  0  0  0  0  0  0
   -0.4047    1.3740   -2.1848 H   0  0  0  0  0  0  0  0  0  0  0  0
    0.6543    2.6142   -0.8214 C   0  0  0  0  0  0  0  0  0  0  0  0
   -0.2182    2.7904    0.0692 O   0  5  0  0  0  0  0  0  0  0  0  0
    1.5336    3.4461   -1.1407 O   0  0  0  0  0  0  0  0  0  0  0  0
    1.0550    0.1350    0.6957 C   0  0  0  0  0  0  0  0  0  0  0  0
    2.1503   -0.2903    1.0514 O   0  0  0  0  0  0  0  0  0  0  0  0
    0.1416    0.5369    1.6540 N   0  0  0  0  0  0  0  0  0  0  0  0
   -0.4604    1.2840    1.2909 H   0  0  0  0  0  0  0  0  0  0  0  0
    0.5146    0.6458    3.0559 C   0  0  0  0  0  0  0  0  0  0  0  0
    1.3198    1.3770    3.1811 H   0  0  0  0  0  0  0  0  0  0  0  0
   -0.3467    0.9706    3.6467 H   0  0  0  0  0  0  0  0  0  0  0  0
    0.8509   -0.3225    3.4402 H   0  0  0  0  0  0  0  0  0  0  0  0
  1  2  1  0  0  0  0
  2  3  1  0  0  0  0
  2  4  1  0  0  0  0
  2  5  1  0  0  0  0
  5  6  2  0  0  0  0
  5  7  1  0  0  0  0
  7  8  1  0  0  0  0
  7  9  1  0  0  0  0
  9 10  1  0  0  0  0
  9 11  1  0  0  0  0
  9 17  1  0  0  0  0
 11 12  1  0  0  0  0
 11 13  1  0  0  0  0
 11 14  1  0  0  0  0
 14 15  1  0  0  0  0
 14 16  2  0  0  0  0
 17 18  2  0  0  0  0
 17 19  1  0  0  0  0
 19 20  1  0  0  0  0
 19 21  1  0  0  0  0
 21 22  1  0  0  0  0
 21 23  1  0  0  0  0
 21 24  1  0  0  0  0
M  CHG  1  15  -1
M  END
$$$$

  -OEChem-03222214023D

 24 23  0     1  0  0  0  0  0999 V2000
   -2.3837   -3.4896   -0.2360 H   0  0  0  0  0  0  0  0  0  0  0  0
   -2.3576   -2.4355   -0.5263 C   0  0  0  0  0  0  0  0  0  0  0  0
   -2.8893   -1.8499    0.2280 H   0  0  0  0  0  0  0  0  0  0  0  0
   -2.8618   -2.3221   -1.4891 H   0  0  0  0  0  0  0  0  0  0  0  0
   -0.9207   -1.9564   -0.6333 C   0  0  0  0  0  0  0  0  0  0  0  0
   -0.0106   -2.7435   -0.4363 O   0  0  0  0  0  0  0  0  0  0  0  0
   -0.6764   -0.6502   -0.9987 N   0  0  0  0  0  0  0  0  0  0  0  0
   -1.4926   -0.0490   -1.0280 H   0  0  0  0  0  0  0  0  0  0  0  0
    0.6042    0.0348   -0.7681 C   0  0  1  0  0  0  0  0  0  0  0  0
    1.3771   -0.5893   -1.2308 H   0  0  0  0  0  0  0  0  0  0  0  0
    0.5417    1.3314   -1.6272 C   0  0  0  0  0  0  0  0  0  0  0  0
    1.3686    1.2895   -2.3418 H   0  0  0  0  0  0  0  0  0  0  0  0
   -0.3804    1.3612   -2.2135 H   0  0  0  0  0  0  0  0  0  0  0  0
    0.6488    2.6657   -0.8945 C   0  0  0  0  0  0  0  0  0  0  0  0
   -0.0362    2.8047    0.1511 O   0  5  0  0  0  0  0  0  0  0  0  0
    1.3274    3.5729   -1.4289 O   0  0  0  0  0  0  0  0  0  0  0  0
    1.0459    0.1459    0.7197 C   0  0  0  0  0  0  0  0  0  0  0  0
    2.1460   -0.2793    1.0621 O   0  0  0  0  0  0  0  0  0  0  0  0
    0.1377    0.5284    1.6906 N   0  0  0  0  0  0  0  0  0  0  0  0
   -0.4408    1.3016    1.3454 H   0  0  0  0  0  0  0  0  0  0  0  0
    0.5181    0.6014    3.0931 C   0  0  0  0  0  0  0  0  0  0  0  0
    1.3288    1.3240    3.2320 H   0  0  0  0  0  0  0  0  0  0  0  0
   -0.3381    0.9181    3.6955 H   0  0  0  0  0  0  0  0  0  0  0  0
    0.8496   -0.3779    3.4529 H   0  0  0  0  0  0  0  0  0  0  0  0
  1  2  1  0  0  0  0
  2  3  1  0  0  0  0
  2  4  1  0  0  0  0
  2  5  1  0  0  0  0
  5  6  2  0  0  0  0
  5  7  1  0  0  0  0
  7  8  1  0  0  0  0
  7  9  1  0  0  0  0
  9 10  1  0  0  0  0
  9 11  1  0  0  0  0
  9 17  1  0  0  0  0
 11 12  1  0  0  0  0
 11 13  1  0  0  0  0
 11 14  1  0  0  0  0
 14 15  1  0  0  0  0
 14 16  2  0  0  0  0
 17 18  2  0  0  0  0
 17 19  1  0  0  0  0
 19 20  1  0  0  0  0
 19 21  1  0  0  0  0
 21 22  1  0  0  0  0
 21 23  1  0  0  0  0
 21 24  1  0  0  0  0
M  CHG  1  15  -1
M  END
$$$$

  -OEChem-03222214023D

 24 23  0     1  0  0  0  0  0999 V2000
   -2.3795   -3.4867   -0.2327 H   0  0  0  0  0  0  0  0  0  0  0  0
   -2.3557   -2.4365   -0.5367 C   0  0  0  0  0  0  0  0  0  0  0  0
   -2.9020   -1.8453    0.2024 H   0  0  0  0  0  0  0  0  0  0  0  0
   -2.8469   -2.3387   -1.5078 H   0  0  0  0  0  0  0  0  0  0  0  0
   -0.9202   -1.9500   -0.6293 C   0  0  0  0  0  0  0  0  0  0  0  0
   -0.0083   -2.7345   -0.4308 O   0  0  0  0  0  0  0  0  0  0  0  0
   -0.6796   -0.6399   -0.9831 N   0  0  0  0  0  0  0  0  0  0  0  0
   -1.4983   -0.0437   -1.0257 H   0  0  0  0  0  0  0  0  0  0  0  0
    0.5988    0.0497   -0.7503 C   0  0  1  0  0  0  0  0  0  0  0  0
    1.3706   -0.5768   -1.2117 H   0  0  0  0  0  0  0  0  0  0  0  0
    0.5413    1.3396   -1.6246 C   0  0  0  0  0  0  0  0  0  0  0  0
    1.3770    1.2838   -2.3279 H   0  0  0  0  0  0  0  0  0  0  0  0
   -0.3730    1.3504   -2.2237 H   0  0  0  0  0  0  0  0  0  0  0  0
    0.6375    2.7064   -0.9467 C   0  0  0  0  0  0  0  0  0  0  0  0
    0.1977    2.8367    0.2221 O   0  5  0  0  0  0  0  0  0  0  0  0
    1.0619    3.6500   -1.6533 O   0  0  0  0  0  0  0  0  0  0  0  0
    1.0451    0.1511    0.7371 C   0  0  0  0  0  0  0  0  0  0  0  0
    2.1418   -0.2887    1.0734 O   0  0  0  0  0  0  0  0  0  0  0  0
    0.1374    0.5216    1.7137 N   0  0  0  0  0  0  0  0  0  0  0  0
   -0.4114    1.3217    1.3854 H   0  0  0  0  0  0  0  0  0  0  0  0
    0.5195    0.5585    3.1173 C   0  0  0  0  0  0  0  0  0  0  0  0
    1.3426    1.2639    3.2706 H   0  0  0  0  0  0  0  0  0  0  0  0
   -0.3306    0.8768    3.7275 H   0  0  0  0  0  0  0  0  0  0  0  0
    0.8348   -0.4337    3.4556 H   0  0  0  0  0  0  0  0  0  0  0  0
  1  2  1  0  0  0  0
  2  3  1  0  0  0  0
  2  4  1  0  0  0  0
  2  5  1  0  0  0  0
  5  6  2  0  0  0  0
  5  7  1  0  0  0  0
  7  8  1  0  0  0  0
  7  9  1  0  0  0  0
  9 10  1  0  0  0  0
  9 11  1  0  0  0  0
  9 17  1  0  0  0  0
 11 12  1  0  0  0  0
 11 13  1  0  0  0  0
 11 14  1  0  0  0  0
 14 15  1  0  0  0  0
 14 16  2  0  0  0  0
 17 18  2  0  0  0  0
 17 19  1  0  0  0  0
 19 20  1  0  0  0  0
 19 21  1  0  0  0  0
 21 22  1  0  0  0  0
 21 23  1  0  0  0  0
 21 24  1  0  0  0  0
M  CHG  1  15  -1
M  END
$$$$

  -OEChem-03222214023D

 24 23  0     1  0  0  0  0  0999 V2000
   -2.3775   -3.4766   -0.2239 H   0  0  0  0  0  0  0  0  0  0  0  0
   -2.3516   -2.4269   -0.5298 C   0  0  0  0  0  0  0  0  0  0  0  0
   -2.9034   -1.8334    0.2035 H   0  0  0  0  0  0  0  0  0  0  0  0
   -2.8352   -2.3317   -1.5050 H   0  0  0  0  0  0  0  0  0  0  0  0
   -0.9158   -1.9406   -0.6134 C   0  0  0  0  0  0  0  0  0  0  0  0
   -0.0058   -2.7262   -0.4112 O   0  0  0  0  0  0  0  0  0  0  0  0
   -0.6731   -0.6311   -0.9686 N   0  0  0  0  0  0  0  0  0  0  0  0
   -1.4911   -0.0352   -1.0232 H   0  0  0  0  0  0  0  0  0  0  0  0
    0.6079    0.0573   -0.7447 C   0  0  1  0  0  0  0  0  0  0  0  0
    1.3780   -0.5679   -1.2100 H   0  0  0  0  0  0  0  0  0  0  0  0
    0.5344    1.3456   -1.6242 C   0  0  0  0  0  0  0  0  0  0  0  0
    1.3668    1.2868   -2.3310 H   0  0  0  0  0  0  0  0  0  0  0  0
   -0.3821    1.3414   -2.2204 H   0  0  0  0  0  0  0  0  0  0  0  0
    0.6286    2.7326   -0.9836 C   0  0  0  0  0  0  0  0  0  0  0  0
    0.4797    2.8704    0.2533 O   0  5  0  0  0  0  0  0  0  0  0  0
    0.7548    3.6849   -1.7884 O   0  0  0  0  0  0  0  0  0  0  0  0
    1.0555    0.1543    0.7423 C   0  0  0  0  0  0  0  0  0  0  0  0
    2.1372   -0.3194    1.0821 O   0  0  0  0  0  0  0  0  0  0  0  0
    0.1443    0.5254    1.7161 N   0  0  0  0  0  0  0  0  0  0  0  0
   -0.3741    1.3489    1.4013 H   0  0  0  0  0  0  0  0  0  0  0  0
    0.5108    0.5194    3.1245 C   0  0  0  0  0  0  0  0  0  0  0  0
    1.3407    1.2103    3.3058 H   0  0  0  0  0  0  0  0  0  0  0  0
   -0.3422    0.8314    3.7339 H   0  0  0  0  0  0  0  0  0  0  0  0
    0.8098   -0.4855    3.4397 H   0  0  0  0  0  0  0  0  0  0  0  0
  1  2  1  0  0  0  0
  2  3  1  0  0  0  0
  2  4  1  0  0  0  0
  2  5  1  0  0  0  0
  5  6  2  0  0  0  0
  5  7  1  0  0  0  0
  7  8  1  0  0  0  0
  7  9  1  0  0  0  0
  9 10  1  0  0  0  0
  9 11  1  0  0  0  0
  9 17  1  0  0  0  0
 11 12  1  0  0  0  0
 11 13  1  0  0  0  0
 11 14  1  0  0  0  0
 14 15  1  0  0  0  0
 14 16  2  0  0  0  0
 17 18  2  0  0  0  0
 17 19  1  0  0  0  0
 19 20  1  0  0  0  0
 19 21  1  0  0  0  0
 21 22  1  0  0  0  0
 21 23  1  0  0  0  0
 21 24  1  0  0  0  0
M  CHG  1  15  -1
M  END
$$$$

  -OEChem-03222214023D

 24 23  0     1  0  0  0  0  0999 V2000
   -2.3867   -3.4654   -0.2230 H   0  0  0  0  0  0  0  0  0  0  0  0
   -2.3537   -2.4146   -0.5244 C   0  0  0  0  0  0  0  0  0  0  0  0
   -2.9037   -1.8213    0.2102 H   0  0  0  0  0  0  0  0  0  0  0  0
   -2.8343   -2.3122   -1.5004 H   0  0  0  0  0  0  0  0  0  0  0  0
   -0.9147   -1.9364   -0.6024 C   0  0  0  0  0  0  0  0  0  0  0  0
   -0.0100   -2.7265   -0.3954 O   0  0  0  0  0  0  0  0  0  0  0  0
   -0.6633   -0.6298   -0.9624 N   0  0  0  0  0  0  0  0  0  0  0  0
   -1.4778   -0.0314   -1.0371 H   0  0  0  0  0  0  0  0  0  0  0  0
    0.6230    0.0533   -0.7476 C   0  0  1  0  0  0  0  0  0  0  0  0
    1.3925   -0.5674   -1.2201 H   0  0  0  0  0  0  0  0  0  0  0  0
    0.5273    1.3471   -1.6188 C   0  0  0  0  0  0  0  0  0  0  0  0
    1.3519    1.2966   -2.3348 H   0  0  0  0  0  0  0  0  0  0  0  0
   -0.3948    1.3363   -2.2070 H   0  0  0  0  0  0  0  0  0  0  0  0
    0.6252    2.7383   -0.9853 C   0  0  0  0  0  0  0  0  0  0  0  0
    0.7818    2.8810    0.2484 O   0  5  0  0  0  0  0  0  0  0  0  0
    0.4392    3.6866   -1.7838 O   0  0  0  0  0  0  0  0  0  0  0  0
    1.0676    0.1472    0.7401 C   0  0  0  0  0  0  0  0  0  0  0  0
    2.1339   -0.3560    1.0867 O   0  0  0  0  0  0  0  0  0  0  0  0
    0.1519    0.5245    1.7083 N   0  0  0  0  0  0  0  0  0  0  0  0
   -0.3690    1.3439    1.3952 H   0  0  0  0  0  0  0  0  0  0  0  0
    0.5096    0.5114    3.1190 C   0  0  0  0  0  0  0  0  0  0  0  0
    1.3499    1.1880    3.3060 H   0  0  0  0  0  0  0  0  0  0  0  0
   -0.3417    0.8372    3.7235 H   0  0  0  0  0  0  0  0  0  0  0  0
    0.7898   -0.4989    3.4346 H   0  0  0  0  0  0  0  0  0  0  0  0
  1  2  1  0  0  0  0
  2  3  1  0  0  0  0
  2  4  1  0  0  0  0
  2  5  1  0  0  0  0
  5  6  2  0  0  0  0
  5  7  1  0  0  0  0
  7  8  1  0  0  0  0
  7  9  1  0  0  0  0
  9 10  1  0  0  0  0
  9 11  1  0  0  0  0
  9 17  1  0  0  0  0
 11 12  1  0  0  0  0
 11 13  1  0  0  0  0
 11 14  1  0  0  0  0
 14 15  1  0  0  0  0
 14 16  2  0  0  0  0
 17 18  2  0  0  0  0
 17 19  1  0  0  0  0
 19 20  1  0  0  0  0
 19 21  1  0  0  0  0
 21 22  1  0  0  0  0
 21 23  1  0  0  0  0
 21 24  1  0  0  0  0
M  CHG  1  15  -1
M  END
$$$$

  -OEChem-03222214023D

 24 23  0     1  0  0  0  0  0999 V2000
   -2.4043   -3.4548   -0.2214 H   0  0  0  0  0  0  0  0  0  0  0  0
   -2.3617   -2.4057   -0.5274 C   0  0  0  0  0  0  0  0  0  0  0  0
   -2.9121   -1.8050    0.2009 H   0  0  0  0  0  0  0  0  0  0  0  0
   -2.8355   -2.3047   -1.5069 H   0  0  0  0  0  0  0  0  0  0  0  0
   -0.9184   -1.9386   -0.5981 C   0  0  0  0  0  0  0  0  0  0  0  0
   -0.0214   -2.7345   -0.3811 O   0  0  0  0  0  0  0  0  0  0  0  0
   -0.6545   -0.6357   -0.9629 N   0  0  0  0  0  0  0  0  0  0  0  0
   -1.4634   -0.0332   -1.0626 H   0  0  0  0  0  0  0  0  0  0  0  0
    0.6382    0.0394   -0.7573 C   0  0  1  0  0  0  0  0  0  0  0  0
    1.4067   -0.5752   -1.2389 H   0  0  0  0  0  0  0  0  0  0  0  0
    0.5207    1.3442   -1.6094 C   0  0  0  0  0  0  0  0  0  0  0  0
    1.3353    1.3086   -2.3374 H   0  0  0  0  0  0  0  0  0  0  0  0
   -0.4087    1.3362   -2.1867 H   0  0  0  0  0  0  0  0  0  0  0  0
    0.6298    2.7249   -0.9544 C   0  0  0  0  0  0  0  0  0  0  0  0
    1.0828    2.8662    0.2025 O   0  5  0  0  0  0  0  0  0  0  0  0
    0.1403    3.6575   -1.6350 O   0  0  0  0  0  0  0  0  0  0  0  0
    1.0769    0.1285    0.7323 C   0  0  0  0  0  0  0  0  0  0  0  0
    2.1350   -0.3874    1.0854 O   0  0  0  0  0  0  0  0  0  0  0  0
    0.1587    0.5127    1.6966 N   0  0  0  0  0  0  0  0  0  0  0  0
   -0.4195    1.2832    1.3701 H   0  0  0  0  0  0  0  0  0  0  0  0
    0.5232    0.5436    3.1052 C   0  0  0  0  0  0  0  0  0  0  0  0
    1.3613    1.2292    3.2676 H   0  0  0  0  0  0  0  0  0  0  0  0
   -0.3267    0.8840    3.7039 H   0  0  0  0  0  0  0  0  0  0  0  0
    0.8101   -0.4553    3.4497 H   0  0  0  0  0  0  0  0  0  0  0  0
  1  2  1  0  0  0  0
  2  3  1  0  0  0  0
  2  4  1  0  0  0  0
  2  5  1  0  0  0  0
  5  6  2  0  0  0  0
  5  7  1  0  0  0  0
  7  8  1  0  0  0  0
  7  9  1  0  0  0  0
  9 10  1  0  0  0  0
  9 11  1  0  0  0  0
  9 17  1  0  0  0  0
 11 12  1  0  0  0  0
 11 13  1  0  0  0  0
 11 14  1  0  0  0  0
 14 15  1  0  0  0  0
 14 16  2  0  0  0  0
 17 18  2  0  0  0  0
 17 19  1  0  0  0  0
 19 20  1  0  0  0  0
 19 21  1  0  0  0  0
 21 22  1  0  0  0  0
 21 23  1  0  0  0  0
 21 24  1  0  0  0  0
M  CHG  1  15  -1
M  END
$$$$

  -OEChem-03222214023D

 24 23  0     1  0  0  0  0  0999 V2000
   -2.4256   -3.4312   -0.1774 H   0  0  0  0  0  0  0  0  0  0  0  0
   -2.3702   -2.3969   -0.5288 C   0  0  0  0  0  0  0  0  0  0  0  0
   -2.9290   -1.7612    0.1625 H   0  0  0  0  0  0  0  0  0  0  0  0
   -2.8261   -2.3357   -1.5201 H   0  0  0  0  0  0  0  0  0  0  0  0
   -0.9225   -1.9430   -0.5947 C   0  0  0  0  0  0  0  0  0  0  0  0
   -0.0338   -2.7451   -0.3669 O   0  0  0  0  0  0  0  0  0  0  0  0
   -0.6447   -0.6462   -0.9707 N   0  0  0  0  0  0  0  0  0  0  0  0
   -1.4467   -0.0371   -1.0875 H   0  0  0  0  0  0  0  0  0  0  0  0
    0.6553    0.0185   -0.7767 C   0  0  1  0  0  0  0  0  0  0  0  0
    1.4231   -0.5882   -1.2692 H   0  0  0  0  0  0  0  0  0  0  0  0
    0.5130    1.3382   -1.5988 C   0  0  0  0  0  0  0  0  0  0  0  0
    1.3109    1.3249   -2.3453 H   0  0  0  0  0  0  0  0  0  0  0  0
   -0.4281    1.3440   -2.1576 H   0  0  0  0  0  0  0  0  0  0  0  0
    0.6417    2.6918   -0.8949 C   0  0  0  0  0  0  0  0  0  0  0  0
    1.3661    2.8311    0.1142 O   0  5  0  0  0  0  0  0  0  0  0  0
   -0.1201    3.5823   -1.3421 O   0  0  0  0  0  0  0  0  0  0  0  0
    1.0870    0.1082    0.7145 C   0  0  0  0  0  0  0  0  0  0  0  0
    2.1396   -0.4106    1.0782 O   0  0  0  0  0  0  0  0  0  0  0  0
    0.1652    0.5056    1.6707 N   0  0  0  0  0  0  0  0  0  0  0  0
   -0.4714    1.2172    1.3244 H   0  0  0  0  0  0  0  0  0  0  0  0
    0.5329    0.5959    3.0757 C   0  0  0  0  0  0  0  0  0  0  0  0
    1.3401    1.3231    3.2112 H   0  0  0  0  0  0  0  0  0  0  0  0
   -0.3287    0.9166    3.6683 H   0  0  0  0  0  0  0  0  0  0  0  0
    0.8649   -0.3778    3.4503 H   0  0  0  0  0  0  0  0  0  0  0  0
  1  2  1  0  0  0  0
  2  3  1  0  0  0  0
  2  4  1  0  0  0  0
  2  5  1  0  0  0  0
  5  6  2  0  0  0  0
  5  7  1  0  0  0  0
  7  8  1  0  0  0  0
  7  9  1  0  0  0  0
  9 10  1  0  0  0  0
  9 11  1  0  0  0  0
  9 17  1  0  0  0  0
 11 12  1  0  0  0  0
 11 13  1  0  0  0  0
 11 14  1  0  0  0  0
 14 15  1  0  0  0  0
 14 16  2  0  0  0  0
 17 18  2  0  0  0  0
 17 19  1  0  0  0  0
 19 20  1  0  0  0  0
 19 21  1  0  0  0  0
 21 22  1  0  0  0  0
 21 23  1  0  0  0  0
 21 24  1  0  0  0  0
M  CHG  1  15  -1
M  END
$$$$

  -OEChem-03222214023D

 24 23  0     1  0  0  0  0  0999 V2000
   -2.4133   -3.4245   -0.1587 H   0  0  0  0  0  0  0  0  0  0  0  0
   -2.3570   -2.3841   -0.4910 C   0  0  0  0  0  0  0  0  0  0  0  0
   -2.8761   -1.7548    0.2362 H   0  0  0  0  0  0  0  0  0  0  0  0
   -2.8533   -2.2955   -1.4605 H   0  0  0  0  0  0  0  0  0  0  0  0
   -0.9069   -1.9493   -0.6081 C   0  0  0  0  0  0  0  0  0  0  0  0
   -0.0204   -2.7605   -0.4046 O   0  0  0  0  0  0  0  0  0  0  0  0
   -0.6258   -0.6587   -1.0026 N   0  0  0  0  0  0  0  0  0  0  0  0
   -1.4261   -0.0420   -1.0902 H   0  0  0  0  0  0  0  0  0  0  0  0
    0.6771    0.0006   -0.8106 C   0  0  1  0  0  0  0  0  0  0  0  0
    1.4514   -0.5944   -1.3070 H   0  0  0  0  0  0  0  0  0  0  0  0
    0.5110    1.3336   -1.6010 C   0  0  0  0  0  0  0  0  0  0  0  0
    1.2963    1.3507   -2.3609 H   0  0  0  0  0  0  0  0  0  0  0  0
   -0.4392    1.3577   -2.1441 H   0  0  0  0  0  0  0  0  0  0  0  0
    0.6528    2.6451   -0.8292 C   0  0  0  0  0  0  0  0  0  0  0  0
    1.5910    2.8053   -0.0190 O   0  5  0  0  0  0  0  0  0  0  0  0
   -0.3202    3.4284   -0.9479 O   0  0  0  0  0  0  0  0  0  0  0  0
    1.0913    0.1028    0.6846 C   0  0  0  0  0  0  0  0  0  0  0  0
    2.1303   -0.4257    1.0721 O   0  0  0  0  0  0  0  0  0  0  0  0
    0.1556    0.5174    1.6203 N   0  0  0  0  0  0  0  0  0  0  0  0
   -0.4985    1.2024    1.2519 H   0  0  0  0  0  0  0  0  0  0  0  0
    0.5032    0.6412    3.0275 C   0  0  0  0  0  0  0  0  0  0  0  0
    1.3161    1.3634    3.1562 H   0  0  0  0  0  0  0  0  0  0  0  0
   -0.3637    0.9867    3.5978 H   0  0  0  0  0  0  0  0  0  0  0  0
    0.8191   -0.3253    3.4326 H   0  0  0  0  0  0  0  0  0  0  0  0
  1  2  1  0  0  0  0
  2  3  1  0  0  0  0
  2  4  1  0  0  0  0
  2  5  1  0  0  0  0
  5  6  2  0  0  0  0
  5  7  1  0  0  0  0
  7  8  1  0  0  0  0
  7  9  1  0  0  0  0
  9 10  1  0  0  0  0
  9 11  1  0  0  0  0
  9 17  1  0  0  0  0
 11 12  1  0  0  0  0
 11 13  1  0  0  0  0
 11 14  1  0  0  0  0
 14 15  1  0  0  0  0
 14 16  2  0  0  0  0
 17 18  2  0  0  0  0
 17 19  1  0  0  0  0
 19 20  1  0  0  0  0
 19 21  1  0  0  0  0
 21 22  1  0  0  0  0
 21 23  1  0  0  0  0
 21 24  1  0  0  0  0
M  CHG  1  15  -1
M  END
$$$$

  -OEChem-03222214023D

 24 23  0     1  0  0  0  0  0999 V2000
   -2.3857   -3.4146   -0.1151 H   0  0  0  0  0  0  0  0  0  0  0  0
   -2.3348   -2.3737   -0.4468 C   0  0  0  0  0  0  0  0  0  0  0  0
   -2.8203   -1.7425    0.3017 H   0  0  0  0  0  0  0  0  0  0  0  0
   -2.8677   -2.2789   -1.3960 H   0  0  0  0  0  0  0  0  0  0  0  0
   -0.8873   -1.9493   -0.6199 C   0  0  0  0  0  0  0  0  0  0  0  0
    0.0010   -2.7659   -0.4471 O   0  0  0  0  0  0  0  0  0  0  0  0
   -0.6115   -0.6648   -1.0368 N   0  0  0  0  0  0  0  0  0  0  0  0
   -1.4116   -0.0423   -1.0761 H   0  0  0  0  0  0  0  0  0  0  0  0
    0.6915   -0.0065   -0.8455 C   0  0  1  0  0  0  0  0  0  0  0  0
    1.4727   -0.5923   -1.3415 H   0  0  0  0  0  0  0  0  0  0  0  0
    0.5062    1.3332   -1.6142 C   0  0  0  0  0  0  0  0  0  0  0  0
    1.2781    1.3777   -2.3865 H   0  0  0  0  0  0  0  0  0  0  0  0
   -0.4541    1.3768   -2.1376 H   0  0  0  0  0  0  0  0  0  0  0  0
    0.6587    2.5958   -0.7751 C   0  0  0  0  0  0  0  0  0  0  0  0
    1.7404    2.8255   -0.1918 O   0  5  0  0  0  0  0  0  0  0  0  0
   -0.4234    3.1807   -0.5235 O   0  0  0  0  0  0  0  0  0  0  0  0
    1.0921    0.1164    0.6523 C   0  0  0  0  0  0  0  0  0  0  0  0
    2.1160   -0.4232    1.0633 O   0  0  0  0  0  0  0  0  0  0  0  0
    0.1433    0.5493    1.5665 N   0  0  0  0  0  0  0  0  0  0  0  0
   -0.4828    1.2557    1.1811 H   0  0  0  0  0  0  0  0  0  0  0  0
    0.4599    0.6661    2.9815 C   0  0  0  0  0  0  0  0  0  0  0  0
    1.2937    1.3602    3.1290 H   0  0  0  0  0  0  0  0  0  0  0  0
   -0.4088    1.0431    3.5288 H   0  0  0  0  0  0  0  0  0  0  0  0
    0.7322   -0.3096    3.3965 H   0  0  0  0  0  0  0  0  0  0  0  0
  1  2  1  0  0  0  0
  2  3  1  0  0  0  0
  2  4  1  0  0  0  0
  2  5  1  0  0  0  0
  5  6  2  0  0  0  0
  5  7  1  0  0  0  0
  7  8  1  0  0  0  0
  7  9  1  0  0  0  0
  9 10  1  0  0  0  0
  9 11  1  0  0  0  0
  9 17  1  0  0  0  0
 11 12  1  0  0  0  0
 11 13  1  0  0  0  0
 11 14  1  0  0  0  0
 14 15  1  0  0  0  0
 14 16  2  0  0  0  0
 17 18  2  0  0  0  0
 17 19  1  0  0  0  0
 19 20  1  0  0  0  0
 19 21  1  0  0  0  0
 21 22  1  0  0  0  0
 21 23  1  0  0  0  0
 21 24  1  0  0  0  0
M  CHG  1  15  -1
M  END
$$$$

  -OEChem-03222214023D

 24 23  0     1  0  0  0  0  0999 V2000
   -2.3699   -3.4117   -0.0862 H   0  0  0  0  0  0  0  0  0  0  0  0
   -2.3250   -2.3745   -0.4304 C   0  0  0  0  0  0  0  0  0  0  0  0
   -2.7946   -1.7347    0.3211 H   0  0  0  0  0  0  0  0  0  0  0  0
   -2.8770   -2.2892   -1.3696 H   0  0  0  0  0  0  0  0  0  0  0  0
   -0.8812   -1.9528   -0.6368 C   0  0  0  0  0  0  0  0  0  0  0  0
    0.0099   -2.7709   -0.4846 O   0  0  0  0  0  0  0  0  0  0  0  0
   -0.6133   -0.6688   -1.0594 N   0  0  0  0  0  0  0  0  0  0  0  0
   -1.4143   -0.0459   -1.0643 H   0  0  0  0  0  0  0  0  0  0  0  0
    0.6858   -0.0078   -0.8585 C   0  0  1  0  0  0  0  0  0  0  0  0
    1.4714   -0.5905   -1.3513 H   0  0  0  0  0  0  0  0  0  0  0  0
    0.5023    1.3332   -1.6220 C   0  0  0  0  0  0  0  0  0  0  0  0
    1.2736    1.3898   -2.3944 H   0  0  0  0  0  0  0  0  0  0  0  0
   -0.4603    1.3907   -2.1391 H   0  0  0  0  0  0  0  0  0  0  0  0
    0.6530    2.5636   -0.7419 C   0  0  0  0  0  0  0  0  0  0  0  0
    1.7932    2.9218   -0.3746 O   0  5  0  0  0  0  0  0  0  0  0  0
   -0.4246    2.9623   -0.2306 O   0  0  0  0  0  0  0  0  0  0  0  0
    1.0838    0.1276    0.6398 C   0  0  0  0  0  0  0  0  0  0  0  0
    2.1104   -0.4028    1.0549 O   0  0  0  0  0  0  0  0  0  0  0  0
    0.1330    0.5657    1.5486 N   0  0  0  0  0  0  0  0  0  0  0  0
   -0.4610    1.3019    1.1567 H   0  0  0  0  0  0  0  0  0  0  0  0
    0.4436    0.6787    2.9653 C   0  0  0  0  0  0  0  0  0  0  0  0
    1.2783    1.3705    3.1186 H   0  0  0  0  0  0  0  0  0  0  0  0
   -0.4266    1.0563    3.5097 H   0  0  0  0  0  0  0  0  0  0  0  0
    0.7118   -0.2987    3.3790 H   0  0  0  0  0  0  0  0  0  0  0  0
  1  2  1  0  0  0  0
  2  3  1  0  0  0  0
  2  4  1  0  0  0  0
  2  5  1  0  0  0  0
  5  6  2  0  0  0  0
  5  7  1  0  0  0  0
  7  8  1  0  0  0  0
  7  9  1  0  0  0  0
  9 10  1  0  0  0  0
  9 11  1  0  0  0  0
  9 17  1  0  0  0  0
 11 12  1  0  0  0  0
 11 13  1  0  0  0  0
 11 14  1  0  0  0  0
 14 15  1  0  0  0  0
 14 16  2  0  0  0  0
 17 18  2  0  0  0  0
 17 19  1  0  0  0  0
 19 20  1  0  0  0  0
 19 21  1  0  0  0  0
 21 22  1  0  0  0  0
 21 23  1  0  0  0  0
 21 24  1  0  0  0  0
M  CHG  1  15  -1
M  END
$$$$

  -OEChem-03222214023D

 24 23  0     1  0  0  0  0  0999 V2000
   -2.3769   -3.4333   -0.1168 H   0  0  0  0  0  0  0  0  0  0  0  0
   -2.3356   -2.3932   -0.4520 C   0  0  0  0  0  0  0  0  0  0  0  0
   -2.8193   -1.7629    0.2986 H   0  0  0  0  0  0  0  0  0  0  0  0
   -2.8767   -2.3048   -1.3972 H   0  0  0  0  0  0  0  0  0  0  0  0
   -0.8926   -1.9589   -0.6374 C   0  0  0  0  0  0  0  0  0  0  0  0
    0.0034   -2.7687   -0.4707 O   0  0  0  0  0  0  0  0  0  0  0  0
   -0.6290   -0.6713   -1.0517 N   0  0  0  0  0  0  0  0  0  0  0  0
   -1.4328   -0.0521   -1.0592 H   0  0  0  0  0  0  0  0  0  0  0  0
    0.6663   -0.0055   -0.8448 C   0  0  1  0  0  0  0  0  0  0  0  0
    1.4501   -0.5944   -1.3332 H   0  0  0  0  0  0  0  0  0  0  0  0
    0.5043    1.3299   -1.6208 C   0  0  0  0  0  0  0  0  0  0  0  0
    1.2831    1.3754   -2.3868 H   0  0  0  0  0  0  0  0  0  0  0  0
   -0.4537    1.3910   -2.1458 H   0  0  0  0  0  0  0  0  0  0  0  0
    0.6497    2.5624   -0.7439 C   0  0  0  0  0  0  0  0  0  0  0  0
    1.7759    3.0820   -0.5854 O   0  5  0  0  0  0  0  0  0  0  0  0
   -0.3900    2.8767   -0.1075 O   0  0  0  0  0  0  0  0  0  0  0  0
    1.0749    0.1303    0.6504 C   0  0  0  0  0  0  0  0  0  0  0  0
    2.1254   -0.3637    1.0491 O   0  0  0  0  0  0  0  0  0  0  0  0
    0.1354    0.5607    1.5731 N   0  0  0  0  0  0  0  0  0  0  0  0
   -0.4637    1.2977    1.1869 H   0  0  0  0  0  0  0  0  0  0  0  0
    0.4654    0.6793    2.9848 C   0  0  0  0  0  0  0  0  0  0  0  0
    1.2918    1.3836    3.1250 H   0  0  0  0  0  0  0  0  0  0  0  0
   -0.4023    1.0445    3.5419 H   0  0  0  0  0  0  0  0  0  0  0  0
    0.7543   -0.2935    3.3953 H   0  0  0  0  0  0  0  0  0  0  0  0
  1  2  1  0  0  0  0
  2  3  1  0  0  0  0
  2  4  1  0  0  0  0
  2  5  1  0  0  0  0
  5  6  2  0  0  0  0
  5  7  1  0  0  0  0
  7  8  1  0  0  0  0
  7  9  1  0  0  0  0
  9 10  1  0  0  0  0
  9 11  1  0  0  0  0
  9 17  1  0  0  0  0
 11 12  1  0  0  0  0
 11 13  1  0  0  0  0
 11 14  1  0  0  0  0
 14 15  1  0  0  0  0
 14 16  2  0  0  0  0
 17 18  2  0  0  0  0
 17 19  1  0  0  0  0
 19 20  1  0  0  0  0
 19 21  1  0  0  0  0
 21 22  1  0  0  0  0
 21 23  1  0  0  0  0
 21 24  1  0  0  0  0
M  CHG  1  15  -1
M  END
$$$$

  -OEChem-03222214023D

 24 23  0     1  0  0  0  0  0999 V2000
   -2.3866   -3.4525   -0.1523 H   0  0  0  0  0  0  0  0  0  0  0  0
   -2.3477   -2.4087   -0.4765 C   0  0  0  0  0  0  0  0  0  0  0  0
   -2.8462   -1.7891    0.2732 H   0  0  0  0  0  0  0  0  0  0  0  0
   -2.8758   -2.3144   -1.4284 H   0  0  0  0  0  0  0  0  0  0  0  0
   -0.9053   -1.9628   -0.6373 C   0  0  0  0  0  0  0  0  0  0  0  0
   -0.0058   -2.7658   -0.4565 O   0  0  0  0  0  0  0  0  0  0  0  0
   -0.6444   -0.6709   -1.0396 N   0  0  0  0  0  0  0  0  0  0  0  0
   -1.4505   -0.0549   -1.0548 H   0  0  0  0  0  0  0  0  0  0  0  0
    0.6479   -0.0026   -0.8258 C   0  0  1  0  0  0  0  0  0  0  0  0
    1.4279   -0.6004   -1.3096 H   0  0  0  0  0  0  0  0  0  0  0  0
    0.5126    1.3269   -1.6166 C   0  0  0  0  0  0  0  0  0  0  0  0
    1.3039    1.3545   -2.3710 H   0  0  0  0  0  0  0  0  0  0  0  0
   -0.4362    1.3895   -2.1570 H   0  0  0  0  0  0  0  0  0  0  0  0
    0.6521    2.5727   -0.7564 C   0  0  0  0  0  0  0  0  0  0  0  0
    1.7048    3.2469   -0.8038 O   0  5  0  0  0  0  0  0  0  0  0  0
   -0.3427    2.8280   -0.0274 O   0  0  0  0  0  0  0  0  0  0  0  0
    1.0667    0.1280    0.6666 C   0  0  0  0  0  0  0  0  0  0  0  0
    2.1407   -0.3290    1.0460 O   0  0  0  0  0  0  0  0  0  0  0  0
    0.1394    0.5485    1.6048 N   0  0  0  0  0  0  0  0  0  0  0  0
   -0.4684    1.2835    1.2270 H   0  0  0  0  0  0  0  0  0  0  0  0
    0.4907    0.6709    3.0111 C   0  0  0  0  0  0  0  0  0  0  0  0
    1.3057    1.3907    3.1394 H   0  0  0  0  0  0  0  0  0  0  0  0
   -0.3747    1.0179    3.5830 H   0  0  0  0  0  0  0  0  0  0  0  0
    0.8049   -0.2972    3.4140 H   0  0  0  0  0  0  0  0  0  0  0  0
  1  2  1  0  0  0  0
  2  3  1  0  0  0  0
  2  4  1  0  0  0  0
  2  5  1  0  0  0  0
  5  6  2  0  0  0  0
  5  7  1  0  0  0  0
  7  8  1  0  0  0  0
  7  9  1  0  0  0  0
  9 10  1  0  0  0  0
  9 11  1  0  0  0  0
  9 17  1  0  0  0  0
 11 12  1  0  0  0  0
 11 13  1  0  0  0  0
 11 14  1  0  0  0  0
 14 15  1  0  0  0  0
 14 16  2  0  0  0  0
 17 18  2  0  0  0  0
 17 19  1  0  0  0  0
 19 20  1  0  0  0  0
 19 21  1  0  0  0  0
 21 22  1  0  0  0  0
 21 23  1  0  0  0  0
 21 24  1  0  0  0  0
M  CHG  1  15  -1
M  END
$$$$

  -OEChem-03222214023D

 24 23  0     1  0  0  0  0  0999 V2000
   -2.3972   -3.4647   -0.1864 H   0  0  0  0  0  0  0  0  0  0  0  0
   -2.3581   -2.4183   -0.5018 C   0  0  0  0  0  0  0  0  0  0  0  0
   -2.8708   -1.8068    0.2450 H   0  0  0  0  0  0  0  0  0  0  0  0
   -2.8723   -2.3192   -1.4608 H   0  0  0  0  0  0  0  0  0  0  0  0
   -0.9155   -1.9647   -0.6376 C   0  0  0  0  0  0  0  0  0  0  0  0
   -0.0145   -2.7628   -0.4431 O   0  0  0  0  0  0  0  0  0  0  0  0
   -0.6556   -0.6683   -1.0253 N   0  0  0  0  0  0  0  0  0  0  0  0
   -1.4633   -0.0547   -1.0500 H   0  0  0  0  0  0  0  0  0  0  0  0
    0.6338    0.0022   -0.8049 C   0  0  1  0  0  0  0  0  0  0  0  0
    1.4101   -0.6041   -1.2846 H   0  0  0  0  0  0  0  0  0  0  0  0
    0.5231    1.3248   -1.6112 C   0  0  0  0  0  0  0  0  0  0  0  0
    1.3255    1.3324   -2.3544 H   0  0  0  0  0  0  0  0  0  0  0  0
   -0.4170    1.3848   -2.1664 H   0  0  0  0  0  0  0  0  0  0  0  0
    0.6555    2.5910   -0.7776 C   0  0  0  0  0  0  0  0  0  0  0  0
    1.5794    3.3972   -1.0291 O   0  5  0  0  0  0  0  0  0  0  0  0
   -0.2804    2.7941    0.0406 O   0  0  0  0  0  0  0  0  0  0  0  0
    1.0616    0.1239    0.6856 C   0  0  0  0  0  0  0  0  0  0  0  0
    2.1550   -0.3014    1.0464 O   0  0  0  0  0  0  0  0  0  0  0  0
    0.1449    0.5323    1.6386 N   0  0  0  0  0  0  0  0  0  0  0  0
   -0.4692    1.2665    1.2692 H   0  0  0  0  0  0  0  0  0  0  0  0
    0.5163    0.6562    3.0398 C   0  0  0  0  0  0  0  0  0  0  0  0
    1.3223    1.3879    3.1578 H   0  0  0  0  0  0  0  0  0  0  0  0
   -0.3452    0.9888    3.6261 H   0  0  0  0  0  0  0  0  0  0  0  0
    0.8508   -0.3082    3.4354 H   0  0  0  0  0  0  0  0  0  0  0  0
  1  2  1  0  0  0  0
  2  3  1  0  0  0  0
  2  4  1  0  0  0  0
  2  5  1  0  0  0  0
  5  6  2  0  0  0  0
  5  7  1  0  0  0  0
  7  8  1  0  0  0  0
  7  9  1  0  0  0  0
  9 10  1  0  0  0  0
  9 11  1  0  0  0  0
  9 17  1  0  0  0  0
 11 12  1  0  0  0  0
 11 13  1  0  0  0  0
 11 14  1  0  0  0  0
 14 15  1  0  0  0  0
 14 16  2  0  0  0  0
 17 18  2  0  0  0  0
 17 19  1  0  0  0  0
 19 20  1  0  0  0  0
 19 21  1  0  0  0  0
 21 22  1  0  0  0  0
 21 23  1  0  0  0  0
 21 24  1  0  0  0  0
M  CHG  1  15  -1
M  END
$$$$

  -OEChem-03222214023D

 24 23  0     1  0  0  0  0  0999 V2000
   -2.4078   -3.4604   -0.1776 H   0  0  0  0  0  0  0  0  0  0  0  0
   -2.3703   -2.4263   -0.5313 C   0  0  0  0  0  0  0  0  0  0  0  0
   -2.9140   -1.7940    0.1751 H   0  0  0  0  0  0  0  0  0  0  0  0
   -2.8545   -2.3696   -1.5091 H   0  0  0  0  0  0  0  0  0  0  0  0
   -0.9287   -1.9618   -0.6381 C   0  0  0  0  0  0  0  0  0  0  0  0
   -0.0264   -2.7563   -0.4345 O   0  0  0  0  0  0  0  0  0  0  0  0
   -0.6697   -0.6600   -1.0083 N   0  0  0  0  0  0  0  0  0  0  0  0
   -1.4785   -0.0487   -1.0435 H   0  0  0  0  0  0  0  0  0  0  0  0
    0.6182    0.0116   -0.7822 C   0  0  1  0  0  0  0  0  0  0  0  0
    1.3890   -0.6041   -1.2590 H   0  0  0  0  0  0  0  0  0  0  0  0
    0.5348    1.3273   -1.6055 C   0  0  0  0  0  0  0  0  0  0  0  0
    1.3512    1.3125   -2.3331 H   0  0  0  0  0  0  0  0  0  0  0  0
   -0.3937    1.3828   -2.1802 H   0  0  0  0  0  0  0  0  0  0  0  0
    0.6620    2.6185   -0.8073 C   0  0  0  0  0  0  0  0  0  0  0  0
    1.4086    3.5204   -1.2517 O   0  5  0  0  0  0  0  0  0  0  0  0
   -0.1885    2.7769    0.1075 O   0  0  0  0  0  0  0  0  0  0  0  0
    1.0587    0.1209    0.7057 C   0  0  0  0  0  0  0  0  0  0  0  0
    2.1661   -0.2848    1.0467 O   0  0  0  0  0  0  0  0  0  0  0  0
    0.1539    0.5154    1.6749 N   0  0  0  0  0  0  0  0  0  0  0  0
   -0.4588    1.2558    1.3169 H   0  0  0  0  0  0  0  0  0  0  0  0
    0.5447    0.6342    3.0715 C   0  0  0  0  0  0  0  0  0  0  0  0
    1.3287    1.3898    3.1854 H   0  0  0  0  0  0  0  0  0  0  0  0
   -0.3167    0.9319    3.6764 H   0  0  0  0  0  0  0  0  0  0  0  0
    0.9166   -0.3232    3.4501 H   0  0  0  0  0  0  0  0  0  0  0  0
  1  2  1  0  0  0  0
  2  3  1  0  0  0  0
  2  4  1  0  0  0  0
  2  5  1  0  0  0  0
  5  6  2  0  0  0  0
  5  7  1  0  0  0  0
  7  8  1  0  0  0  0
  7  9  1  0  0  0  0
  9 10  1  0  0  0  0
  9 11  1  0  0  0  0
  9 17  1  0  0  0  0
 11 12  1  0  0  0  0
 11 13  1  0  0  0  0
 11 14  1  0  0  0  0
 14 15  1  0  0  0  0
 14 16  2  0  0  0  0
 17 18  2  0  0  0  0
 17 19  1  0  0  0  0
 19 20  1  0  0  0  0
 19 21  1  0  0  0  0
 21 22  1  0  0  0  0
 21 23  1  0  0  0  0
 21 24  1  0  0  0  0
M  CHG  1  15  -1
M  END
$$$$

  -OEChem-03222214023D

 24 23  0     1  0  0  0  0  0999 V2000
   -2.4150   -3.4644   -0.2044 H   0  0  0  0  0  0  0  0  0  0  0  0
   -2.3747   -2.4295   -0.5553 C   0  0  0  0  0  0  0  0  0  0  0  0
   -2.9352   -1.8008    0.1410 H   0  0  0  0  0  0  0  0  0  0  0  0
   -2.8397   -2.3727   -1.5424 H   0  0  0  0  0  0  0  0  0  0  0  0
   -0.9336   -1.9573   -0.6333 C   0  0  0  0  0  0  0  0  0  0  0  0
   -0.0304   -2.7487   -0.4214 O   0  0  0  0  0  0  0  0  0  0  0  0
   -0.6773   -0.6510   -0.9891 N   0  0  0  0  0  0  0  0  0  0  0  0
   -1.4884   -0.0436   -1.0332 H   0  0  0  0  0  0  0  0  0  0  0  0
    0.6075    0.0246   -0.7586 C   0  0  1  0  0  0  0  0  0  0  0  0
    1.3741   -0.5999   -1.2308 H   0  0  0  0  0  0  0  0  0  0  0  0
    0.5433    1.3289   -1.6042 C   0  0  0  0  0  0  0  0  0  0  0  0
    1.3730    1.2925   -2.3158 H   0  0  0  0  0  0  0  0  0  0  0  0
   -0.3734    1.3689   -2.1986 H   0  0  0  0  0  0  0  0  0  0  0  0
    0.6601    2.6541   -0.8577 C   0  0  0  0  0  0  0  0  0  0  0  0
    1.1790    3.6104   -1.4789 O   0  5  0  0  0  0  0  0  0  0  0  0
   -0.0555    2.7809    0.1691 O   0  0  0  0  0  0  0  0  0  0  0  0
    1.0583    0.1256    0.7268 C   0  0  0  0  0  0  0  0  0  0  0  0
    2.1721   -0.2753    1.0537 O   0  0  0  0  0  0  0  0  0  0  0  0
    0.1614    0.5075    1.7081 N   0  0  0  0  0  0  0  0  0  0  0  0
   -0.4379    1.2650    1.3640 H   0  0  0  0  0  0  0  0  0  0  0  0
    0.5645    0.6042    3.1028 C   0  0  0  0  0  0  0  0  0  0  0  0
    1.3607    1.3463    3.2197 H   0  0  0  0  0  0  0  0  0  0  0  0
   -0.2879    0.9077    3.7173 H   0  0  0  0  0  0  0  0  0  0  0  0
    0.9248   -0.3632    3.4670 H   0  0  0  0  0  0  0  0  0  0  0  0
  1  2  1  0  0  0  0
  2  3  1  0  0  0  0
  2  4  1  0  0  0  0
  2  5  1  0  0  0  0
  5  6  2  0  0  0  0
  5  7  1  0  0  0  0
  7  8  1  0  0  0  0
  7  9  1  0  0  0  0
  9 10  1  0  0  0  0
  9 11  1  0  0  0  0
  9 17  1  0  0  0  0
 11 12  1  0  0  0  0
 11 13  1  0  0  0  0
 11 14  1  0  0  0  0
 14 15  1  0  0  0  0
 14 16  2  0  0  0  0
 17 18  2  0  0  0  0
 17 19  1  0  0  0  0
 19 20  1  0  0  0  0
 19 21  1  0  0  0  0
 21 22  1  0  0  0  0
 21 23  1  0  0  0  0
 21 24  1  0  0  0  0
M  CHG  1  15  -1
M  END
$$$$

  -OEChem-03222214023D

 24 23  0     1  0  0  0  0  0999 V2000
   -2.4072   -3.4702   -0.2401 H   0  0  0  0  0  0  0  0  0  0  0  0
   -2.3714   -2.4220   -0.5497 C   0  0  0  0  0  0  0  0  0  0  0  0
   -2.9237   -1.8222    0.1781 H   0  0  0  0  0  0  0  0  0  0  0  0
   -2.8478   -2.3260   -1.5284 H   0  0  0  0  0  0  0  0  0  0  0  0
   -0.9316   -1.9461   -0.6257 C   0  0  0  0  0  0  0  0  0  0  0  0
   -0.0272   -2.7368   -0.4165 O   0  0  0  0  0  0  0  0  0  0  0  0
   -0.6781   -0.6373   -0.9749 N   0  0  0  0  0  0  0  0  0  0  0  0
   -1.4904   -0.0324   -1.0245 H   0  0  0  0  0  0  0  0  0  0  0  0
    0.6064    0.0401   -0.7459 C   0  0  1  0  0  0  0  0  0  0  0  0
    1.3704   -0.5901   -1.2144 H   0  0  0  0  0  0  0  0  0  0  0  0
    0.5523    1.3349   -1.6117 C   0  0  0  0  0  0  0  0  0  0  0  0
    1.3879    1.2804   -2.3152 H   0  0  0  0  0  0  0  0  0  0  0  0
   -0.3588    1.3569   -2.2160 H   0  0  0  0  0  0  0  0  0  0  0  0
    0.6633    2.6944   -0.9229 C   0  0  0  0  0  0  0  0  0  0  0  0
    0.9110    3.6618   -1.6799 O   0  5  0  0  0  0  0  0  0  0  0  0
    0.1623    2.8121    0.2228 O   0  0  0  0  0  0  0  0  0  0  0  0
    1.0607    0.1329    0.7392 C   0  0  0  0  0  0  0  0  0  0  0  0
    2.1667   -0.2921    1.0642 O   0  0  0  0  0  0  0  0  0  0  0  0
    0.1625    0.5071    1.7227 N   0  0  0  0  0  0  0  0  0  0  0  0
   -0.4014    1.2966    1.3931 H   0  0  0  0  0  0  0  0  0  0  0  0
    0.5575    0.5571    3.1220 C   0  0  0  0  0  0  0  0  0  0  0  0
    1.3616    1.2860    3.2660 H   0  0  0  0  0  0  0  0  0  0  0  0
   -0.2954    0.8517    3.7402 H   0  0  0  0  0  0  0  0  0  0  0  0
    0.9044   -0.4249    3.4591 H   0  0  0  0  0  0  0  0  0  0  0  0
  1  2  1  0  0  0  0
  2  3  1  0  0  0  0
  2  4  1  0  0  0  0
  2  5  1  0  0  0  0
  5  6  2  0  0  0  0
  5  7  1  0  0  0  0
  7  8  1  0  0  0  0
  7  9  1  0  0  0  0
  9 10  1  0  0  0  0
  9 11  1  0  0  0  0
  9 17  1  0  0  0  0
 11 12  1  0  0  0  0
 11 13  1  0  0  0  0
 11 14  1  0  0  0  0
 14 15  1  0  0  0  0
 14 16  2  0  0  0  0
 17 18  2  0  0  0  0
 17 19  1  0  0  0  0
 19 20  1  0  0  0  0
 19 21  1  0  0  0  0
 21 22  1  0  0  0  0
 21 23  1  0  0  0  0
 21 24  1  0  0  0  0
M  CHG  1  15  -1
M  END
$$$$

  -OEChem-03222214023D

 24 23  0     1  0  0  0  0  0999 V2000
   -2.4182   -3.4216   -0.1699 H   0  0  0  0  0  0  0  0  0  0  0  0
   -2.3611   -2.3844   -0.5117 C   0  0  0  0  0  0  0  0  0  0  0  0
   -2.9046   -1.7523    0.1948 H   0  0  0  0  0  0  0  0  0  0  0  0
   -2.8319   -2.3100   -1.4949 H   0  0  0  0  0  0  0  0  0  0  0  0
   -0.9115   -1.9398   -0.5950 C   0  0  0  0  0  0  0  0  0  0  0  0
   -0.0254   -2.7471   -0.3760 O   0  0  0  0  0  0  0  0  0  0  0  0
   -0.6301   -0.6447   -0.9749 N   0  0  0  0  0  0  0  0  0  0  0  0
   -1.4310   -0.0331   -1.0773 H   0  0  0  0  0  0  0  0  0  0  0  0
    0.6719    0.0154   -0.7739 C   0  0  1  0  0  0  0  0  0  0  0  0
    1.4469   -0.5960   -1.2491 H   0  0  0  0  0  0  0  0  0  0  0  0
    0.5519    1.3281   -1.6149 C   0  0  0  0  0  0  0  0  0  0  0  0
    1.1200    1.1678   -2.5351 H   0  0  0  0  0  0  0  0  0  0  0  0
   -0.4884    1.4816   -1.9160 H   0  0  0  0  0  0  0  0  0  0  0  0
    1.0049    2.6806   -1.0570 C   0  0  0  0  0  0  0  0  0  0  0  0
    0.8473    3.6380   -1.8514 O   0  5  0  0  0  0  0  0  0  0  0  0
    1.2594    2.8185    0.1601 O   0  0  0  0  0  0  0  0  0  0  0  0
    1.0891    0.1059    0.7216 C   0  0  0  0  0  0  0  0  0  0  0  0
    2.1288   -0.4307    1.0968 O   0  0  0  0  0  0  0  0  0  0  0  0
    0.1588    0.5097    1.6660 N   0  0  0  0  0  0  0  0  0  0  0  0
   -0.4049    1.2824    1.3218 H   0  0  0  0  0  0  0  0  0  0  0  0
    0.4999    0.5503    3.0802 C   0  0  0  0  0  0  0  0  0  0  0  0
    1.3250    1.2492    3.2529 H   0  0  0  0  0  0  0  0  0  0  0  0
   -0.3646    0.8790    3.6640 H   0  0  0  0  0  0  0  0  0  0  0  0
    0.7962   -0.4425    3.4336 H   0  0  0  0  0  0  0  0  0  0  0  0
  1  2  1  0  0  0  0
  2  3  1  0  0  0  0
  2  4  1  0  0  0  0
  2  5  1  0  0  0  0
  5  6  2  0  0  0  0
  5  7  1  0  0  0  0
  7  8  1  0  0  0  0
  7  9  1  0  0  0  0
  9 10  1  0  0  0  0
  9 11  1  0  0  0  0
  9 17  1  0  0  0  0
 11 12  1  0  0  0  0
 11 13  1  0  0  0  0
 11 14  1  0  0  0  0
 14 15  1  0  0  0  0
 14 16  2  0  0  0  0
 17 18  2  0  0  0  0
 17 19  1  0  0  0  0
 19 20  1  0  0  0  0
 19 21  1  0  0  0  0
 21 22  1  0  0  0  0
 21 23  1  0  0  0  0
 21 24  1  0  0  0  0
M  CHG  1  15  -1
M  END
$$$$

  -OEChem-03222214023D

 24 23  0     1  0  0  0  0  0999 V2000
   -2.4320   -3.4169   -0.1642 H   0  0  0  0  0  0  0  0  0  0  0  0
   -2.3648   -2.3833   -0.5154 C   0  0  0  0  0  0  0  0  0  0  0  0
   -2.9149   -1.7412    0.1769 H   0  0  0  0  0  0  0  0  0  0  0  0
   -2.8214   -2.3167   -1.5059 H   0  0  0  0  0  0  0  0  0  0  0  0
   -0.9122   -1.9464   -0.5827 C   0  0  0  0  0  0  0  0  0  0  0  0
   -0.0338   -2.7562   -0.3445 O   0  0  0  0  0  0  0  0  0  0  0  0
   -0.6204   -0.6568   -0.9735 N   0  0  0  0  0  0  0  0  0  0  0  0
   -1.4163   -0.0468   -1.1163 H   0  0  0  0  0  0  0  0  0  0  0  0
    0.6878   -0.0012   -0.7905 C   0  0  1  0  0  0  0  0  0  0  0  0
    1.4644   -0.5977   -1.2813 H   0  0  0  0  0  0  0  0  0  0  0  0
    0.5309    1.3314   -1.5927 C   0  0  0  0  0  0  0  0  0  0  0  0
    1.0645    1.2040   -2.5378 H   0  0  0  0  0  0  0  0  0  0  0  0
   -0.5212    1.4861   -1.8496 H   0  0  0  0  0  0  0  0  0  0  0  0
    0.9988    2.6671   -1.0068 C   0  0  0  0  0  0  0  0  0  0  0  0
    0.5539    3.6742   -1.6081 O   0  5  0  0  0  0  0  0  0  0  0  0
    1.7037    2.7197    0.0235 O   0  0  0  0  0  0  0  0  0  0  0  0
    1.0976    0.0879    0.7072 C   0  0  0  0  0  0  0  0  0  0  0  0
    2.1238   -0.4635    1.0967 O   0  0  0  0  0  0  0  0  0  0  0  0
    0.1615    0.4994    1.6440 N   0  0  0  0  0  0  0  0  0  0  0  0
   -0.4862    1.1903    1.2813 H   0  0  0  0  0  0  0  0  0  0  0  0
    0.5021    0.5983    3.0554 C   0  0  0  0  0  0  0  0  0  0  0  0
    1.3217    1.3100    3.1999 H   0  0  0  0  0  0  0  0  0  0  0  0
   -0.3645    0.9432    3.6266 H   0  0  0  0  0  0  0  0  0  0  0  0
    0.8062   -0.3776    3.4472 H   0  0  0  0  0  0  0  0  0  0  0  0
  1  2  1  0  0  0  0
  2  3  1  0  0  0  0
  2  4  1  0  0  0  0
  2  5  1  0  0  0  0
  5  6  2  0  0  0  0
  5  7  1  0  0  0  0
  7  8  1  0  0  0  0
  7  9  1  0  0  0  0
  9 10  1  0  0  0  0
  9 11  1  0  0  0  0
  9 17  1  0  0  0  0
 11 12  1  0  0  0  0
 11 13  1  0  0  0  0
 11 14  1  0  0  0  0
 14 15  1  0  0  0  0
 14 16  2  0  0  0  0
 17 18  2  0  0  0  0
 17 19  1  0  0  0  0
 19 20  1  0  0  0  0
 19 21  1  0  0  0  0
 21 22  1  0  0  0  0
 21 23  1  0  0  0  0
 21 24  1  0  0  0  0
M  CHG  1  15  -1
M  END
$$$$

  -OEChem-03222214023D

 24 23  0     1  0  0  0  0  0999 V2000
   -2.4439   -3.4121   -0.1386 H   0  0  0  0  0  0  0  0  0  0  0  0
   -2.3690   -2.3922   -0.5263 C   0  0  0  0  0  0  0  0  0  0  0  0
   -2.9427   -1.7270    0.1238 H   0  0  0  0  0  0  0  0  0  0  0  0
   -2.7946   -2.3649   -1.5324 H   0  0  0  0  0  0  0  0  0  0  0  0
   -0.9160   -1.9525   -0.5663 C   0  0  0  0  0  0  0  0  0  0  0  0
   -0.0419   -2.7570   -0.2976 O   0  0  0  0  0  0  0  0  0  0  0  0
   -0.6179   -0.6695   -0.9741 N   0  0  0  0  0  0  0  0  0  0  0  0
   -1.4104   -0.0629   -1.1482 H   0  0  0  0  0  0  0  0  0  0  0  0
    0.6927   -0.0136   -0.8073 C   0  0  1  0  0  0  0  0  0  0  0  0
    1.4717   -0.5977   -1.3091 H   0  0  0  0  0  0  0  0  0  0  0  0
    0.5044    1.3299   -1.5782 C   0  0  0  0  0  0  0  0  0  0  0  0
    1.0166    1.2365   -2.5390 H   0  0  0  0  0  0  0  0  0  0  0  0
   -0.5540    1.4894   -1.8058 H   0  0  0  0  0  0  0  0  0  0  0  0
    0.9947    2.6293   -0.9376 C   0  0  0  0  0  0  0  0  0  0  0  0
    0.3415    3.6525   -1.2552 O   0  5  0  0  0  0  0  0  0  0  0  0
    2.0043    2.6360   -0.2014 O   0  0  0  0  0  0  0  0  0  0  0  0
    1.1078    0.0935    0.6880 C   0  0  0  0  0  0  0  0  0  0  0  0
    2.1300   -0.4567    1.0882 O   0  0  0  0  0  0  0  0  0  0  0  0
    0.1737    0.5191    1.6208 N   0  0  0  0  0  0  0  0  0  0  0  0
   -0.5168    1.1624    1.2500 H   0  0  0  0  0  0  0  0  0  0  0  0
    0.5107    0.6424    3.0312 C   0  0  0  0  0  0  0  0  0  0  0  0
    1.3277    1.3590    3.1660 H   0  0  0  0  0  0  0  0  0  0  0  0
   -0.3582    0.9931    3.5954 H   0  0  0  0  0  0  0  0  0  0  0  0
    0.8176   -0.3262    3.4389 H   0  0  0  0  0  0  0  0  0  0  0  0
  1  2  1  0  0  0  0
  2  3  1  0  0  0  0
  2  4  1  0  0  0  0
  2  5  1  0  0  0  0
  5  6  2  0  0  0  0
  5  7  1  0  0  0  0
  7  8  1  0  0  0  0
  7  9  1  0  0  0  0
  9 10  1  0  0  0  0
  9 11  1  0  0  0  0
  9 17  1  0  0  0  0
 11 12  1  0  0  0  0
 11 13  1  0  0  0  0
 11 14  1  0  0  0  0
 14 15  1  0  0  0  0
 14 16  2  0  0  0  0
 17 18  2  0  0  0  0
 17 19  1  0  0  0  0
 19 20  1  0  0  0  0
 19 21  1  0  0  0  0
 21 22  1  0  0  0  0
 21 23  1  0  0  0  0
 21 24  1  0  0  0  0
M  CHG  1  15  -1
M  END
$$$$

  -OEChem-03222214023D

 24 23  0     1  0  0  0  0  0999 V2000
   -2.4295   -3.4234   -0.1354 H   0  0  0  0  0  0  0  0  0  0  0  0
   -2.3616   -2.3966   -0.5057 C   0  0  0  0  0  0  0  0  0  0  0  0
   -2.9150   -1.7419    0.1722 H   0  0  0  0  0  0  0  0  0  0  0  0
   -2.8138   -2.3490   -1.4993 H   0  0  0  0  0  0  0  0  0  0  0  0
   -0.9089   -1.9600   -0.5749 C   0  0  0  0  0  0  0  0  0  0  0  0
   -0.0310   -2.7623   -0.3114 O   0  0  0  0  0  0  0  0  0  0  0  0
   -0.6157   -0.6801   -0.9954 N   0  0  0  0  0  0  0  0  0  0  0  0
   -1.4103   -0.0733   -1.1587 H   0  0  0  0  0  0  0  0  0  0  0  0
    0.6934   -0.0223   -0.8301 C   0  0  1  0  0  0  0  0  0  0  0  0
    1.4758   -0.5984   -1.3354 H   0  0  0  0  0  0  0  0  0  0  0  0
    0.4944    1.3291   -1.5770 C   0  0  0  0  0  0  0  0  0  0  0  0
    1.0051    1.2638   -2.5409 H   0  0  0  0  0  0  0  0  0  0  0  0
   -0.5645    1.4986   -1.7960 H   0  0  0  0  0  0  0  0  0  0  0  0
    1.0036    2.5861   -0.8762 C   0  0  0  0  0  0  0  0  0  0  0  0
    0.2196    3.5660   -0.8877 O   0  5  0  0  0  0  0  0  0  0  0  0
    2.1641    2.6080   -0.4123 O   0  0  0  0  0  0  0  0  0  0  0  0
    1.1071    0.1006    0.6642 C   0  0  0  0  0  0  0  0  0  0  0  0
    2.1306   -0.4384    1.0742 O   0  0  0  0  0  0  0  0  0  0  0  0
    0.1698    0.5357    1.5893 N   0  0  0  0  0  0  0  0  0  0  0  0
   -0.5282    1.1673    1.2097 H   0  0  0  0  0  0  0  0  0  0  0  0
    0.4982    0.6737    3.0002 C   0  0  0  0  0  0  0  0  0  0  0  0
    1.3178    1.3877    3.1322 H   0  0  0  0  0  0  0  0  0  0  0  0
   -0.3728    1.0355    3.5540 H   0  0  0  0  0  0  0  0  0  0  0  0
    0.7973   -0.2916    3.4211 H   0  0  0  0  0  0  0  0  0  0  0  0
  1  2  1  0  0  0  0
  2  3  1  0  0  0  0
  2  4  1  0  0  0  0
  2  5  1  0  0  0  0
  5  6  2  0  0  0  0
  5  7  1  0  0  0  0
  7  8  1  0  0  0  0
  7  9  1  0  0  0  0
  9 10  1  0  0  0  0
  9 11  1  0  0  0  0
  9 17  1  0  0  0  0
 11 12  1  0  0  0  0
 11 13  1  0  0  0  0
 11 14  1  0  0  0  0
 14 15  1  0  0  0  0
 14 16  2  0  0  0  0
 17 18  2  0  0  0  0
 17 19  1  0  0  0  0
 19 20  1  0  0  0  0
 19 21  1  0  0  0  0
 21 22  1  0  0  0  0
 21 23  1  0  0  0  0
 21 24  1  0  0  0  0
M  CHG  1  15  -1
M  END
$$$$

  -OEChem-03222214023D

 24 23  0     1  0  0  0  0  0999 V2000
   -2.4242   -3.4222   -0.1111 H   0  0  0  0  0  0  0  0  0  0  0  0
   -2.3594   -2.4019   -0.4996 C   0  0  0  0  0  0  0  0  0  0  0  0
   -2.9082   -1.7358    0.1707 H   0  0  0  0  0  0  0  0  0  0  0  0
   -2.8190   -2.3719   -1.4904 H   0  0  0  0  0  0  0  0  0  0  0  0
   -0.9072   -1.9666   -0.5876 C   0  0  0  0  0  0  0  0  0  0  0  0
   -0.0268   -2.7686   -0.3315 O   0  0  0  0  0  0  0  0  0  0  0  0
   -0.6168   -0.6885   -1.0149 N   0  0  0  0  0  0  0  0  0  0  0  0
   -1.4134   -0.0777   -1.1530 H   0  0  0  0  0  0  0  0  0  0  0  0
    0.6910   -0.0304   -0.8444 C   0  0  1  0  0  0  0  0  0  0  0  0
    1.4768   -0.6003   -1.3520 H   0  0  0  0  0  0  0  0  0  0  0  0
    0.4863    1.3258   -1.5753 C   0  0  0  0  0  0  0  0  0  0  0  0
    1.0003    1.2808   -2.5388 H   0  0  0  0  0  0  0  0  0  0  0  0
   -0.5715    1.5041   -1.7926 H   0  0  0  0  0  0  0  0  0  0  0  0
    1.0056    2.5480   -0.8282 C   0  0  0  0  0  0  0  0  0  0  0  0
    0.1466    3.4188   -0.5454 O   0  5  0  0  0  0  0  0  0  0  0  0
    2.2314    2.6498   -0.6043 O   0  0  0  0  0  0  0  0  0  0  0  0
    1.1042    0.1049    0.6490 C   0  0  0  0  0  0  0  0  0  0  0  0
    2.1339   -0.4193    1.0613 O   0  0  0  0  0  0  0  0  0  0  0  0
    0.1658    0.5483    1.5685 N   0  0  0  0  0  0  0  0  0  0  0  0
   -0.5091    1.2023    1.1811 H   0  0  0  0  0  0  0  0  0  0  0  0
    0.4967    0.6994    2.9776 C   0  0  0  0  0  0  0  0  0  0  0  0
    1.3101    1.4217    3.1022 H   0  0  0  0  0  0  0  0  0  0  0  0
   -0.3762    1.0577    3.5308 H   0  0  0  0  0  0  0  0  0  0  0  0
    0.8051   -0.2599    3.4056 H   0  0  0  0  0  0  0  0  0  0  0  0
  1  2  1  0  0  0  0
  2  3  1  0  0  0  0
  2  4  1  0  0  0  0
  2  5  1  0  0  0  0
  5  6  2  0  0  0  0
  5  7  1  0  0  0  0
  7  8  1  0  0  0  0
  7  9  1  0  0  0  0
  9 10  1  0  0  0  0
  9 11  1  0  0  0  0
  9 17  1  0  0  0  0
 11 12  1  0  0  0  0
 11 13  1  0  0  0  0
 11 14  1  0  0  0  0
 14 15  1  0  0  0  0
 14 16  2  0  0  0  0
 17 18  2  0  0  0  0
 17 19  1  0  0  0  0
 19 20  1  0  0  0  0
 19 21  1  0  0  0  0
 21 22  1  0  0  0  0
 21 23  1  0  0  0  0
 21 24  1  0  0  0  0
M  CHG  1  15  -1
M  END
$$$$

  -OEChem-03222214023D

 24 23  0     1  0  0  0  0  0999 V2000
   -2.4112   -3.4238   -0.0990 H   0  0  0  0  0  0  0  0  0  0  0  0
   -2.3516   -2.4015   -0.4828 C   0  0  0  0  0  0  0  0  0  0  0  0
   -2.8868   -1.7383    0.2013 H   0  0  0  0  0  0  0  0  0  0  0  0
   -2.8290   -2.3646   -1.4649 H   0  0  0  0  0  0  0  0  0  0  0  0
   -0.9006   -1.9682   -0.5954 C   0  0  0  0  0  0  0  0  0  0  0  0
   -0.0162   -2.7715   -0.3561 O   0  0  0  0  0  0  0  0  0  0  0  0
   -0.6158   -0.6916   -1.0306 N   0  0  0  0  0  0  0  0  0  0  0  0
   -1.4148   -0.0772   -1.1349 H   0  0  0  0  0  0  0  0  0  0  0  0
    0.6893   -0.0319   -0.8538 C   0  0  1  0  0  0  0  0  0  0  0  0
    1.4780   -0.6017   -1.3569 H   0  0  0  0  0  0  0  0  0  0  0  0
    0.4839    1.3218   -1.5857 C   0  0  0  0  0  0  0  0  0  0  0  0
    1.0042    1.2819   -2.5463 H   0  0  0  0  0  0  0  0  0  0  0  0
   -0.5719    1.5067   -1.8071 H   0  0  0  0  0  0  0  0  0  0  0  0
    1.0036    2.5255   -0.8145 C   0  0  0  0  0  0  0  0  0  0  0  0
    0.1222    3.2386   -0.2730 O   0  5  0  0  0  0  0  0  0  0  0  0
    2.2309    2.7648   -0.8082 O   0  0  0  0  0  0  0  0  0  0  0  0
    1.0999    0.1171    0.6392 C   0  0  0  0  0  0  0  0  0  0  0  0
    2.1339   -0.3971    1.0532 O   0  0  0  0  0  0  0  0  0  0  0  0
    0.1601    0.5680    1.5531 N   0  0  0  0  0  0  0  0  0  0  0  0
   -0.4607    1.2765    1.1634 H   0  0  0  0  0  0  0  0  0  0  0  0
    0.4822    0.6964    2.9665 C   0  0  0  0  0  0  0  0  0  0  0  0
    1.3052    1.4047    3.1069 H   0  0  0  0  0  0  0  0  0  0  0  0
   -0.3898    1.0609    3.5170 H   0  0  0  0  0  0  0  0  0  0  0  0
    0.7726   -0.2729    3.3845 H   0  0  0  0  0  0  0  0  0  0  0  0
  1  2  1  0  0  0  0
  2  3  1  0  0  0  0
  2  4  1  0  0  0  0
  2  5  1  0  0  0  0
  5  6  2  0  0  0  0
  5  7  1  0  0  0  0
  7  8  1  0  0  0  0
  7  9  1  0  0  0  0
  9 10  1  0  0  0  0
  9 11  1  0  0  0  0
  9 17  1  0  0  0  0
 11 12  1  0  0  0  0
 11 13  1  0  0  0  0
 11 14  1  0  0  0  0
 14 15  1  0  0  0  0
 14 16  2  0  0  0  0
 17 18  2  0  0  0  0
 17 19  1  0  0  0  0
 19 20  1  0  0  0  0
 19 21  1  0  0  0  0
 21 22  1  0  0  0  0
 21 23  1  0  0  0  0
 21 24  1  0  0  0  0
M  CHG  1  15  -1
M  END
$$$$

  -OEChem-03222214023D

 24 23  0     1  0  0  0  0  0999 V2000
   -2.3909   -3.4327   -0.0976 H   0  0  0  0  0  0  0  0  0  0  0  0
   -2.3413   -2.4029   -0.4627 C   0  0  0  0  0  0  0  0  0  0  0  0
   -2.8567   -1.7531    0.2490 H   0  0  0  0  0  0  0  0  0  0  0  0
   -2.8456   -2.3467   -1.4304 H   0  0  0  0  0  0  0  0  0  0  0  0
   -0.8938   -1.9670   -0.6062 C   0  0  0  0  0  0  0  0  0  0  0  0
   -0.0030   -2.7699   -0.3892 O   0  0  0  0  0  0  0  0  0  0  0  0
   -0.6194   -0.6881   -1.0413 N   0  0  0  0  0  0  0  0  0  0  0  0
   -1.4219   -0.0728   -1.1079 H   0  0  0  0  0  0  0  0  0  0  0  0
    0.6812   -0.0245   -0.8526 C   0  0  1  0  0  0  0  0  0  0  0  0
    1.4720   -0.6008   -1.3450 H   0  0  0  0  0  0  0  0  0  0  0  0
    0.4934    1.3204   -1.6051 C   0  0  0  0  0  0  0  0  0  0  0  0
    1.0289    1.2662   -2.5567 H   0  0  0  0  0  0  0  0  0  0  0  0
   -0.5579    1.5081   -1.8436 H   0  0  0  0  0  0  0  0  0  0  0  0
    1.0016    2.5294   -0.8362 C   0  0  0  0  0  0  0  0  0  0  0  0
    0.1531    3.0758   -0.0849 O   0  5  0  0  0  0  0  0  0  0  0  0
    2.1673    2.9392   -1.0307 O   0  0  0  0  0  0  0  0  0  0  0  0
    1.0884    0.1294    0.6410 C   0  0  0  0  0  0  0  0  0  0  0  0
    2.1279   -0.3764    1.0520 O   0  0  0  0  0  0  0  0  0  0  0  0
    0.1484    0.5783    1.5542 N   0  0  0  0  0  0  0  0  0  0  0  0
   -0.4117    1.3424    1.1697 H   0  0  0  0  0  0  0  0  0  0  0  0
    0.4641    0.6734    2.9717 C   0  0  0  0  0  0  0  0  0  0  0  0
    1.3084    1.3522    3.1305 H   0  0  0  0  0  0  0  0  0  0  0  0
   -0.3997    1.0573    3.5220 H   0  0  0  0  0  0  0  0  0  0  0  0
    0.7197   -0.3116    3.3753 H   0  0  0  0  0  0  0  0  0  0  0  0
  1  2  1  0  0  0  0
  2  3  1  0  0  0  0
  2  4  1  0  0  0  0
  2  5  1  0  0  0  0
  5  6  2  0  0  0  0
  5  7  1  0  0  0  0
  7  8  1  0  0  0  0
  7  9  1  0  0  0  0
  9 10  1  0  0  0  0
  9 11  1  0  0  0  0
  9 17  1  0  0  0  0
 11 12  1  0  0  0  0
 11 13  1  0  0  0  0
 11 14  1  0  0  0  0
 14 15  1  0  0  0  0
 14 16  2  0  0  0  0
 17 18  2  0  0  0  0
 17 19  1  0  0  0  0
 19 20  1  0  0  0  0
 19 21  1  0  0  0  0
 21 22  1  0  0  0  0
 21 23  1  0  0  0  0
 21 24  1  0  0  0  0
M  CHG  1  15  -1
M  END
$$$$

  -OEChem-03222214023D

 24 23  0     1  0  0  0  0  0999 V2000
   -2.3865   -3.4461   -0.1262 H   0  0  0  0  0  0  0  0  0  0  0  0
   -2.3420   -2.4092   -0.4708 C   0  0  0  0  0  0  0  0  0  0  0  0
   -2.8588   -1.7757    0.2544 H   0  0  0  0  0  0  0  0  0  0  0  0
   -2.8487   -2.3362   -1.4360 H   0  0  0  0  0  0  0  0  0  0  0  0
   -0.8970   -1.9641   -0.6082 C   0  0  0  0  0  0  0  0  0  0  0  0
   -0.0015   -2.7622   -0.3916 O   0  0  0  0  0  0  0  0  0  0  0  0
   -0.6306   -0.6797   -1.0311 N   0  0  0  0  0  0  0  0  0  0  0  0
   -1.4369   -0.0690   -1.0914 H   0  0  0  0  0  0  0  0  0  0  0  0
    0.6641   -0.0089   -0.8313 C   0  0  1  0  0  0  0  0  0  0  0  0
    1.4535   -0.5999   -1.3085 H   0  0  0  0  0  0  0  0  0  0  0  0
    0.5104    1.3185   -1.6240 C   0  0  0  0  0  0  0  0  0  0  0  0
    1.0665    1.2273   -2.5610 H   0  0  0  0  0  0  0  0  0  0  0  0
   -0.5343    1.5026   -1.8910 H   0  0  0  0  0  0  0  0  0  0  0  0
    0.9980    2.5603   -0.8928 C   0  0  0  0  0  0  0  0  0  0  0  0
    0.2440    2.9746    0.0261 O   0  5  0  0  0  0  0  0  0  0  0  0
    2.0389    3.1330   -1.2868 O   0  0  0  0  0  0  0  0  0  0  0  0
    1.0755    0.1406    0.6615 C   0  0  0  0  0  0  0  0  0  0  0  0
    2.1285   -0.3496    1.0579 O   0  0  0  0  0  0  0  0  0  0  0  0
    0.1420    0.5762    1.5863 N   0  0  0  0  0  0  0  0  0  0  0  0
   -0.3863    1.3710    1.2157 H   0  0  0  0  0  0  0  0  0  0  0  0
    0.4663    0.6424    3.0033 C   0  0  0  0  0  0  0  0  0  0  0  0
    1.3102    1.3197    3.1705 H   0  0  0  0  0  0  0  0  0  0  0  0
   -0.3949    1.0126    3.5667 H   0  0  0  0  0  0  0  0  0  0  0  0
    0.7264   -0.3503    3.3847 H   0  0  0  0  0  0  0  0  0  0  0  0
  1  2  1  0  0  0  0
  2  3  1  0  0  0  0
  2  4  1  0  0  0  0
  2  5  1  0  0  0  0
  5  6  2  0  0  0  0
  5  7  1  0  0  0  0
  7  8  1  0  0  0  0
  7  9  1  0  0  0  0
  9 10  1  0  0  0  0
  9 11  1  0  0  0  0
  9 17  1  0  0  0  0
 11 12  1  0  0  0  0
 11 13  1  0  0  0  0
 11 14  1  0  0  0  0
 14 15  1  0  0  0  0
 14 16  2  0  0  0  0
 17 18  2  0  0  0  0
 17 19  1  0  0  0  0
 19 20  1  0  0  0  0
 19 21  1  0  0  0  0
 21 22  1  0  0  0  0
 21 23  1  0  0  0  0
 21 24  1  0  0  0  0
M  CHG  1  15  -1
M  END
$$$$

  -OEChem-03222214023D

 24 23  0     1  0  0  0  0  0999 V2000
   -2.3817   -3.4530   -0.1430 H   0  0  0  0  0  0  0  0  0  0  0  0
   -2.3424   -2.4150   -0.4851 C   0  0  0  0  0  0  0  0  0  0  0  0
   -2.8703   -1.7873    0.2371 H   0  0  0  0  0  0  0  0  0  0  0  0
   -2.8408   -2.3434   -1.4548 H   0  0  0  0  0  0  0  0  0  0  0  0
   -0.8996   -1.9585   -0.6088 C   0  0  0  0  0  0  0  0  0  0  0  0
   -0.0001   -2.7530   -0.3958 O   0  0  0  0  0  0  0  0  0  0  0  0
   -0.6401   -0.6671   -1.0147 N   0  0  0  0  0  0  0  0  0  0  0  0
   -1.4500   -0.0610   -1.0712 H   0  0  0  0  0  0  0  0  0  0  0  0
    0.6499    0.0095   -0.8059 C   0  0  1  0  0  0  0  0  0  0  0  0
    1.4366   -0.5943   -1.2718 H   0  0  0  0  0  0  0  0  0  0  0  0
    0.5271    1.3205   -1.6357 C   0  0  0  0  0  0  0  0  0  0  0  0
    1.0999    1.1918   -2.5585 H   0  0  0  0  0  0  0  0  0  0  0  0
   -0.5116    1.4956   -1.9289 H   0  0  0  0  0  0  0  0  0  0  0  0
    0.9937    2.6038   -0.9592 C   0  0  0  0  0  0  0  0  0  0  0  0
    0.4002    2.9238    0.1026 O   0  5  0  0  0  0  0  0  0  0  0  0
    1.8516    3.3059   -1.5422 O   0  0  0  0  0  0  0  0  0  0  0  0
    1.0664    0.1461    0.6867 C   0  0  0  0  0  0  0  0  0  0  0  0
    2.1270   -0.3393    1.0701 O   0  0  0  0  0  0  0  0  0  0  0  0
    0.1367    0.5643    1.6228 N   0  0  0  0  0  0  0  0  0  0  0  0
   -0.3736    1.3765    1.2664 H   0  0  0  0  0  0  0  0  0  0  0  0
    0.4685    0.6068    3.0392 C   0  0  0  0  0  0  0  0  0  0  0  0
    1.3087    1.2866    3.2140 H   0  0  0  0  0  0  0  0  0  0  0  0
   -0.3920    0.9608    3.6140 H   0  0  0  0  0  0  0  0  0  0  0  0
    0.7377   -0.3906    3.4013 H   0  0  0  0  0  0  0  0  0  0  0  0
  1  2  1  0  0  0  0
  2  3  1  0  0  0  0
  2  4  1  0  0  0  0
  2  5  1  0  0  0  0
  5  6  2  0  0  0  0
  5  7  1  0  0  0  0
  7  8  1  0  0  0  0
  7  9  1  0  0  0  0
  9 10  1  0  0  0  0
  9 11  1  0  0  0  0
  9 17  1  0  0  0  0
 11 12  1  0  0  0  0
 11 13  1  0  0  0  0
 11 14  1  0  0  0  0
 14 15  1  0  0  0  0
 14 16  2  0  0  0  0
 17 18  2  0  0  0  0
 17 19  1  0  0  0  0
 19 20  1  0  0  0  0
 19 21  1  0  0  0  0
 21 22  1  0  0  0  0
 21 23  1  0  0  0  0
 21 24  1  0  0  0  0
M  CHG  1  15  -1
M  END
$$$$

  -OEChem-03222214023D

 24 23  0     1  0  0  0  0  0999 V2000
   -2.3740   -3.4574   -0.1618 H   0  0  0  0  0  0  0  0  0  0  0  0
   -2.3384   -2.4143   -0.4885 C   0  0  0  0  0  0  0  0  0  0  0  0
   -2.8686   -1.7992    0.2428 H   0  0  0  0  0  0  0  0  0  0  0  0
   -2.8374   -2.3306   -1.4570 H   0  0  0  0  0  0  0  0  0  0  0  0
   -0.8971   -1.9508   -0.6051 C   0  0  0  0  0  0  0  0  0  0  0  0
    0.0046   -2.7442   -0.3977 O   0  0  0  0  0  0  0  0  0  0  0  0
   -0.6416   -0.6549   -0.9994 N   0  0  0  0  0  0  0  0  0  0  0  0
   -1.4538   -0.0521   -1.0596 H   0  0  0  0  0  0  0  0  0  0  0  0
    0.6467    0.0251   -0.7867 C   0  0  1  0  0  0  0  0  0  0  0  0
    1.4316   -0.5858   -1.2464 H   0  0  0  0  0  0  0  0  0  0  0  0
    0.5387    1.3253   -1.6413 C   0  0  0  0  0  0  0  0  0  0  0  0
    1.1200    1.1687   -2.5545 H   0  0  0  0  0  0  0  0  0  0  0  0
   -0.4973    1.4883   -1.9495 H   0  0  0  0  0  0  0  0  0  0  0  0
    0.9884    2.6466   -1.0215 C   0  0  0  0  0  0  0  0  0  0  0  0
    0.6188    2.9019    0.1513 O   0  5  0  0  0  0  0  0  0  0  0  0
    1.6058    3.4452   -1.7639 O   0  0  0  0  0  0  0  0  0  0  0  0
    1.0643    0.1498    0.7067 C   0  0  0  0  0  0  0  0  0  0  0  0
    2.1208   -0.3491    1.0854 O   0  0  0  0  0  0  0  0  0  0  0  0
    0.1335    0.5559    1.6476 N   0  0  0  0  0  0  0  0  0  0  0  0
   -0.3614    1.3822    1.3061 H   0  0  0  0  0  0  0  0  0  0  0  0
    0.4617    0.5669    3.0655 C   0  0  0  0  0  0  0  0  0  0  0  0
    1.3070    1.2360    3.2567 H   0  0  0  0  0  0  0  0  0  0  0  0
   -0.3975    0.9163    3.6452 H   0  0  0  0  0  0  0  0  0  0  0  0
    0.7218   -0.4399    3.4078 H   0  0  0  0  0  0  0  0  0  0  0  0
  1  2  1  0  0  0  0
  2  3  1  0  0  0  0
  2  4  1  0  0  0  0
  2  5  1  0  0  0  0
  5  6  2  0  0  0  0
  5  7  1  0  0  0  0
  7  8  1  0  0  0  0
  7  9  1  0  0  0  0
  9 10  1  0  0  0  0
  9 11  1  0  0  0  0
  9 17  1  0  0  0  0
 11 12  1  0  0  0  0
 11 13  1  0  0  0  0
 11 14  1  0  0  0  0
 14 15  1  0  0  0  0
 14 16  2  0  0  0  0
 17 18  2  0  0  0  0
 17 19  1  0  0  0  0
 19 20  1  0  0  0  0
 19 21  1  0  0  0  0
 21 22  1  0  0  0  0
 21 23  1  0  0  0  0
 21 24  1  0  0  0  0
M  CHG  1  15  -1
M  END
$$$$

  -OEChem-03222214023D

 24 23  0     1  0  0  0  0  0999 V2000
   -2.3793   -3.4515   -0.1708 H   0  0  0  0  0  0  0  0  0  0  0  0
   -2.3404   -2.4085   -0.4977 C   0  0  0  0  0  0  0  0  0  0  0  0
   -2.8766   -1.7929    0.2289 H   0  0  0  0  0  0  0  0  0  0  0  0
   -2.8308   -2.3247   -1.4705 H   0  0  0  0  0  0  0  0  0  0  0  0
   -0.8979   -1.9458   -0.6019 C   0  0  0  0  0  0  0  0  0  0  0  0
    0.0014   -2.7418   -0.3942 O   0  0  0  0  0  0  0  0  0  0  0  0
   -0.6384   -0.6478   -0.9872 N   0  0  0  0  0  0  0  0  0  0  0  0
   -1.4496   -0.0450   -1.0560 H   0  0  0  0  0  0  0  0  0  0  0  0
    0.6524    0.0292   -0.7754 C   0  0  1  0  0  0  0  0  0  0  0  0
    1.4352   -0.5822   -1.2381 H   0  0  0  0  0  0  0  0  0  0  0  0
    0.5438    1.3312   -1.6324 C   0  0  0  0  0  0  0  0  0  0  0  0
    1.1238    1.1649   -2.5444 H   0  0  0  0  0  0  0  0  0  0  0  0
   -0.4931    1.4861   -1.9417 H   0  0  0  0  0  0  0  0  0  0  0  0
    0.9862    2.6758   -1.0518 C   0  0  0  0  0  0  0  0  0  0  0  0
    0.8919    2.8784    0.1817 O   0  5  0  0  0  0  0  0  0  0  0  0
    1.3197    3.5473   -1.8886 O   0  0  0  0  0  0  0  0  0  0  0  0
    1.0685    0.1389    0.7193 C   0  0  0  0  0  0  0  0  0  0  0  0
    2.1174   -0.3773    1.0972 O   0  0  0  0  0  0  0  0  0  0  0  0
    0.1343    0.5384    1.6606 N   0  0  0  0  0  0  0  0  0  0  0  0
   -0.3734    1.3555    1.3231 H   0  0  0  0  0  0  0  0  0  0  0  0
    0.4627    0.5476    3.0785 C   0  0  0  0  0  0  0  0  0  0  0  0
    1.3071    1.2178    3.2700 H   0  0  0  0  0  0  0  0  0  0  0  0
   -0.3968    0.8952    3.6587 H   0  0  0  0  0  0  0  0  0  0  0  0
    0.7243   -0.4593    3.4196 H   0  0  0  0  0  0  0  0  0  0  0  0
  1  2  1  0  0  0  0
  2  3  1  0  0  0  0
  2  4  1  0  0  0  0
  2  5  1  0  0  0  0
  5  6  2  0  0  0  0
  5  7  1  0  0  0  0
  7  8  1  0  0  0  0
  7  9  1  0  0  0  0
  9 10  1  0  0  0  0
  9 11  1  0  0  0  0
  9 17  1  0  0  0  0
 11 12  1  0  0  0  0
 11 13  1  0  0  0  0
 11 14  1  0  0  0  0
 14 15  1  0  0  0  0
 14 16  2  0  0  0  0
 17 18  2  0  0  0  0
 17 19  1  0  0  0  0
 19 20  1  0  0  0  0
 19 21  1  0  0  0  0
 21 22  1  0  0  0  0
 21 23  1  0  0  0  0
 21 24  1  0  0  0  0
M  CHG  1  15  -1
M  END
$$$$

  -OEChem-03222214023D

 24 23  0     1  0  0  0  0  0999 V2000
   -2.3974   -3.4402   -0.1842 H   0  0  0  0  0  0  0  0  0  0  0  0
   -2.3484   -2.3968   -0.5085 C   0  0  0  0  0  0  0  0  0  0  0  0
   -2.8893   -1.7795    0.2131 H   0  0  0  0  0  0  0  0  0  0  0  0
   -2.8278   -2.3084   -1.4865 H   0  0  0  0  0  0  0  0  0  0  0  0
   -0.9020   -1.9429   -0.5963 C   0  0  0  0  0  0  0  0  0  0  0  0
   -0.0098   -2.7448   -0.3821 O   0  0  0  0  0  0  0  0  0  0  0  0
   -0.6312   -0.6459   -0.9775 N   0  0  0  0  0  0  0  0  0  0  0  0
   -1.4375   -0.0401   -1.0704 H   0  0  0  0  0  0  0  0  0  0  0  0
    0.6655    0.0232   -0.7727 C   0  0  1  0  0  0  0  0  0  0  0  0
    1.4462   -0.5842   -1.2436 H   0  0  0  0  0  0  0  0  0  0  0  0
    0.5432    1.3336   -1.6174 C   0  0  0  0  0  0  0  0  0  0  0  0
    1.1121    1.1720   -2.5372 H   0  0  0  0  0  0  0  0  0  0  0  0
   -0.4986    1.4851   -1.9132 H   0  0  0  0  0  0  0  0  0  0  0  0
    0.9880    2.6866   -1.0548 C   0  0  0  0  0  0  0  0  0  0  0  0
    1.1942    2.8372    0.1703 O   0  5  0  0  0  0  0  0  0  0  0  0
    1.0144    3.6181   -1.8937 O   0  0  0  0  0  0  0  0  0  0  0  0
    1.0776    0.1180    0.7242 C   0  0  0  0  0  0  0  0  0  0  0  0
    2.1169   -0.4155    1.1048 O   0  0  0  0  0  0  0  0  0  0  0  0
    0.1409    0.5166    1.6644 N   0  0  0  0  0  0  0  0  0  0  0  0
   -0.4149    1.2950    1.3199 H   0  0  0  0  0  0  0  0  0  0  0  0
    0.4741    0.5525    3.0805 C   0  0  0  0  0  0  0  0  0  0  0  0
    1.3108    1.2363    3.2576 H   0  0  0  0  0  0  0  0  0  0  0  0
   -0.3874    0.8979    3.6589 H   0  0  0  0  0  0  0  0  0  0  0  0
    0.7499   -0.4455    3.4359 H   0  0  0  0  0  0  0  0  0  0  0  0
  1  2  1  0  0  0  0
  2  3  1  0  0  0  0
  2  4  1  0  0  0  0
  2  5  1  0  0  0  0
  5  6  2  0  0  0  0
  5  7  1  0  0  0  0
  7  8  1  0  0  0  0
  7  9  1  0  0  0  0
  9 10  1  0  0  0  0
  9 11  1  0  0  0  0
  9 17  1  0  0  0  0
 11 12  1  0  0  0  0
 11 13  1  0  0  0  0
 11 14  1  0  0  0  0
 14 15  1  0  0  0  0
 14 16  2  0  0  0  0
 17 18  2  0  0  0  0
 17 19  1  0  0  0  0
 19 20  1  0  0  0  0
 19 21  1  0  0  0  0
 21 22  1  0  0  0  0
 21 23  1  0  0  0  0
 21 24  1  0  0  0  0
M  CHG  1  15  -1
M  END
$$$$

  -OEChem-03222214023D

 24 23  0     1  0  0  0  0  0999 V2000
   -2.4213   -3.4276   -0.1795 H   0  0  0  0  0  0  0  0  0  0  0  0
   -2.3613   -2.3918   -0.5258 C   0  0  0  0  0  0  0  0  0  0  0  0
   -2.9180   -1.7571    0.1680 H   0  0  0  0  0  0  0  0  0  0  0  0
   -2.8153   -2.3243   -1.5176 H   0  0  0  0  0  0  0  0  0  0  0  0
   -0.9118   -1.9436   -0.5873 C   0  0  0  0  0  0  0  0  0  0  0  0
   -0.0280   -2.7488   -0.3532 O   0  0  0  0  0  0  0  0  0  0  0  0
   -0.6279   -0.6500   -0.9703 N   0  0  0  0  0  0  0  0  0  0  0  0
   -1.4277   -0.0420   -1.0993 H   0  0  0  0  0  0  0  0  0  0  0  0
    0.6756    0.0109   -0.7764 C   0  0  1  0  0  0  0  0  0  0  0  0
    1.4535   -0.5917   -1.2581 H   0  0  0  0  0  0  0  0  0  0  0  0
    0.5351    1.3330   -1.6002 C   0  0  0  0  0  0  0  0  0  0  0  0
    1.0908    1.1860   -2.5300 H   0  0  0  0  0  0  0  0  0  0  0  0
   -0.5118    1.4839   -1.8792 H   0  0  0  0  0  0  0  0  0  0  0  0
    0.9902    2.6814   -1.0328 C   0  0  0  0  0  0  0  0  0  0  0  0
    1.4897    2.7768    0.1092 O   0  5  0  0  0  0  0  0  0  0  0  0
    0.7265    3.6617   -1.7692 O   0  0  0  0  0  0  0  0  0  0  0  0
    1.0875    0.0990    0.7209 C   0  0  0  0  0  0  0  0  0  0  0  0
    2.1208   -0.4446    1.1037 O   0  0  0  0  0  0  0  0  0  0  0  0
    0.1530    0.5027    1.6621 N   0  0  0  0  0  0  0  0  0  0  0  0
   -0.4610    1.2288    1.3077 H   0  0  0  0  0  0  0  0  0  0  0  0
    0.4973    0.5798    3.0740 C   0  0  0  0  0  0  0  0  0  0  0  0
    1.3222    1.2836    3.2265 H   0  0  0  0  0  0  0  0  0  0  0  0
   -0.3659    0.9229    3.6515 H   0  0  0  0  0  0  0  0  0  0  0  0
    0.7954   -0.4033    3.4521 H   0  0  0  0  0  0  0  0  0  0  0  0
  1  2  1  0  0  0  0
  2  3  1  0  0  0  0
  2  4  1  0  0  0  0
  2  5  1  0  0  0  0
  5  6  2  0  0  0  0
  5  7  1  0  0  0  0
  7  8  1  0  0  0  0
  7  9  1  0  0  0  0
  9 10  1  0  0  0  0
  9 11  1  0  0  0  0
  9 17  1  0  0  0  0
 11 12  1  0  0  0  0
 11 13  1  0  0  0  0
 11 14  1  0  0  0  0
 14 15  1  0  0  0  0
 14 16  2  0  0  0  0
 17 18  2  0  0  0  0
 17 19  1  0  0  0  0
 19 20  1  0  0  0  0
 19 21  1  0  0  0  0
 21 22  1  0  0  0  0
 21 23  1  0  0  0  0
 21 24  1  0  0  0  0
M  CHG  1  15  -1
M  END
$$$$

  -OEChem-03222214023D

 24 23  0     1  0  0  0  0  0999 V2000
   -2.4299   -3.4148   -0.1564 H   0  0  0  0  0  0  0  0  0  0  0  0
   -2.3629   -2.3830   -0.5126 C   0  0  0  0  0  0  0  0  0  0  0  0
   -2.9112   -1.7373    0.1779 H   0  0  0  0  0  0  0  0  0  0  0  0
   -2.8210   -2.3212   -1.5027 H   0  0  0  0  0  0  0  0  0  0  0  0
   -0.9098   -1.9478   -0.5850 C   0  0  0  0  0  0  0  0  0  0  0  0
   -0.0315   -2.7584   -0.3492 O   0  0  0  0  0  0  0  0  0  0  0  0
   -0.6175   -0.6589   -0.9780 N   0  0  0  0  0  0  0  0  0  0  0  0
   -1.4133   -0.0483   -1.1197 H   0  0  0  0  0  0  0  0  0  0  0  0
    0.6907   -0.0033   -0.7951 C   0  0  1  0  0  0  0  0  0  0  0  0
    1.4695   -0.5963   -1.2866 H   0  0  0  0  0  0  0  0  0  0  0  0
    0.5264    1.3320   -1.5910 C   0  0  0  0  0  0  0  0  0  0  0  0
    1.0672    1.2090   -2.5328 H   0  0  0  0  0  0  0  0  0  0  0  0
   -0.5257    1.4842   -1.8502 H   0  0  0  0  0  0  0  0  0  0  0  0
    0.9956    2.6624   -0.9941 C   0  0  0  0  0  0  0  0  0  0  0  0
    1.7587    2.7024   -0.0054 O   0  5  0  0  0  0  0  0  0  0  0  0
    0.4770    3.6739   -1.5249 O   0  0  0  0  0  0  0  0  0  0  0  0
    1.0972    0.0872    0.7036 C   0  0  0  0  0  0  0  0  0  0  0  0
    2.1209   -0.4654    1.0980 O   0  0  0  0  0  0  0  0  0  0  0  0
    0.1584    0.5002    1.6370 N   0  0  0  0  0  0  0  0  0  0  0  0
   -0.4967    1.1816    1.2700 H   0  0  0  0  0  0  0  0  0  0  0  0
    0.4972    0.6090    3.0480 C   0  0  0  0  0  0  0  0  0  0  0  0
    1.3191    1.3189    3.1879 H   0  0  0  0  0  0  0  0  0  0  0  0
   -0.3690    0.9617    3.6154 H   0  0  0  0  0  0  0  0  0  0  0  0
    0.7975   -0.3649    3.4478 H   0  0  0  0  0  0  0  0  0  0  0  0
  1  2  1  0  0  0  0
  2  3  1  0  0  0  0
  2  4  1  0  0  0  0
  2  5  1  0  0  0  0
  5  6  2  0  0  0  0
  5  7  1  0  0  0  0
  7  8  1  0  0  0  0
  7  9  1  0  0  0  0
  9 10  1  0  0  0  0
  9 11  1  0  0  0  0
  9 17  1  0  0  0  0
 11 12  1  0  0  0  0
 11 13  1  0  0  0  0
 11 14  1  0  0  0  0
 14 15  1  0  0  0  0
 14 16  2  0  0  0  0
 17 18  2  0  0  0  0
 17 19  1  0  0  0  0
 19 20  1  0  0  0  0
 19 21  1  0  0  0  0
 21 22  1  0  0  0  0
 21 23  1  0  0  0  0
 21 24  1  0  0  0  0
M  CHG  1  15  -1
M  END
$$$$

  -OEChem-03222214023D

 24 23  0     1  0  0  0  0  0999 V2000
   -2.4268   -3.4108   -0.1301 H   0  0  0  0  0  0  0  0  0  0  0  0
   -2.3582   -2.3825   -0.4962 C   0  0  0  0  0  0  0  0  0  0  0  0
   -2.8998   -1.7287    0.1919 H   0  0  0  0  0  0  0  0  0  0  0  0
   -2.8227   -2.3275   -1.4838 H   0  0  0  0  0  0  0  0  0  0  0  0
   -0.9043   -1.9525   -0.5819 C   0  0  0  0  0  0  0  0  0  0  0  0
   -0.0268   -2.7638   -0.3454 O   0  0  0  0  0  0  0  0  0  0  0  0
   -0.6105   -0.6690   -0.9912 N   0  0  0  0  0  0  0  0  0  0  0  0
   -1.4057   -0.0568   -1.1295 H   0  0  0  0  0  0  0  0  0  0  0  0
    0.6994   -0.0140   -0.8176 C   0  0  1  0  0  0  0  0  0  0  0  0
    1.4806   -0.5987   -1.3153 H   0  0  0  0  0  0  0  0  0  0  0  0
    0.5133    1.3298   -1.5901 C   0  0  0  0  0  0  0  0  0  0  0  0
    1.0457    1.2323   -2.5391 H   0  0  0  0  0  0  0  0  0  0  0  0
   -0.5418    1.4843   -1.8368 H   0  0  0  0  0  0  0  0  0  0  0  0
    0.9983    2.6328   -0.9505 C   0  0  0  0  0  0  0  0  0  0  0  0
    1.9752    2.6388   -0.1713 O   0  5  0  0  0  0  0  0  0  0  0  0
    0.2809    3.6332   -1.1937 O   0  0  0  0  0  0  0  0  0  0  0  0
    1.1044    0.0923    0.6806 C   0  0  0  0  0  0  0  0  0  0  0  0
    2.1175   -0.4694    1.0882 O   0  0  0  0  0  0  0  0  0  0  0  0
    0.1630    0.5190    1.6057 N   0  0  0  0  0  0  0  0  0  0  0  0
   -0.5045    1.1841    1.2299 H   0  0  0  0  0  0  0  0  0  0  0  0
    0.4909    0.6376    3.0186 C   0  0  0  0  0  0  0  0  0  0  0  0
    1.3223    1.3364    3.1591 H   0  0  0  0  0  0  0  0  0  0  0  0
   -0.3749    1.0092    3.5741 H   0  0  0  0  0  0  0  0  0  0  0  0
    0.7727   -0.3367    3.4311 H   0  0  0  0  0  0  0  0  0  0  0  0
  1  2  1  0  0  0  0
  2  3  1  0  0  0  0
  2  4  1  0  0  0  0
  2  5  1  0  0  0  0
  5  6  2  0  0  0  0
  5  7  1  0  0  0  0
  7  8  1  0  0  0  0
  7  9  1  0  0  0  0
  9 10  1  0  0  0  0
  9 11  1  0  0  0  0
  9 17  1  0  0  0  0
 11 12  1  0  0  0  0
 11 13  1  0  0  0  0
 11 14  1  0  0  0  0
 14 15  1  0  0  0  0
 14 16  2  0  0  0  0
 17 18  2  0  0  0  0
 17 19  1  0  0  0  0
 19 20  1  0  0  0  0
 19 21  1  0  0  0  0
 21 22  1  0  0  0  0
 21 23  1  0  0  0  0
 21 24  1  0  0  0  0
M  CHG  1  15  -1
M  END
$$$$

  -OEChem-03222214023D

 24 23  0     1  0  0  0  0  0999 V2000
   -2.4079   -3.4065   -0.0968 H   0  0  0  0  0  0  0  0  0  0  0  0
   -2.3438   -2.3776   -0.4620 C   0  0  0  0  0  0  0  0  0  0  0  0
   -2.8592   -1.7222    0.2445 H   0  0  0  0  0  0  0  0  0  0  0  0
   -2.8387   -2.3164   -1.4343 H   0  0  0  0  0  0  0  0  0  0  0  0
   -0.8905   -1.9567   -0.5919 C   0  0  0  0  0  0  0  0  0  0  0  0
   -0.0107   -2.7719   -0.3781 O   0  0  0  0  0  0  0  0  0  0  0  0
   -0.6024   -0.6775   -1.0174 N   0  0  0  0  0  0  0  0  0  0  0  0
   -1.4003   -0.0613   -1.1193 H   0  0  0  0  0  0  0  0  0  0  0  0
    0.7065   -0.0208   -0.8457 C   0  0  1  0  0  0  0  0  0  0  0  0
    1.4932   -0.5960   -1.3456 H   0  0  0  0  0  0  0  0  0  0  0  0
    0.5038    1.3283   -1.5974 C   0  0  0  0  0  0  0  0  0  0  0  0
    1.0309    1.2572   -2.5520 H   0  0  0  0  0  0  0  0  0  0  0  0
   -0.5525    1.4905   -1.8345 H   0  0  0  0  0  0  0  0  0  0  0  0
    1.0038    2.5928   -0.9025 C   0  0  0  0  0  0  0  0  0  0  0  0
    2.1328    2.6042   -0.3663 O   0  5  0  0  0  0  0  0  0  0  0  0
    0.1553    3.5118   -0.7971 O   0  0  0  0  0  0  0  0  0  0  0  0
    1.1063    0.1035    0.6526 C   0  0  0  0  0  0  0  0  0  0  0  0
    2.1115   -0.4601    1.0758 O   0  0  0  0  0  0  0  0  0  0  0  0
    0.1573    0.5424    1.5639 N   0  0  0  0  0  0  0  0  0  0  0  0
   -0.4948    1.2184    1.1770 H   0  0  0  0  0  0  0  0  0  0  0  0
    0.4647    0.6596    2.9814 C   0  0  0  0  0  0  0  0  0  0  0  0
    1.2888    1.3641    3.1349 H   0  0  0  0  0  0  0  0  0  0  0  0
   -0.4113    1.0231    3.5261 H   0  0  0  0  0  0  0  0  0  0  0  0
    0.7477   -0.3135    3.3954 H   0  0  0  0  0  0  0  0  0  0  0  0
  1  2  1  0  0  0  0
  2  3  1  0  0  0  0
  2  4  1  0  0  0  0
  2  5  1  0  0  0  0
  5  6  2  0  0  0  0
  5  7  1  0  0  0  0
  7  8  1  0  0  0  0
  7  9  1  0  0  0  0
  9 10  1  0  0  0  0
  9 11  1  0  0  0  0
  9 17  1  0  0  0  0
 11 12  1  0  0  0  0
 11 13  1  0  0  0  0
 11 14  1  0  0  0  0
 14 15  1  0  0  0  0
 14 16  2  0  0  0  0
 17 18  2  0  0  0  0
 17 19  1  0  0  0  0
 19 20  1  0  0  0  0
 19 21  1  0  0  0  0
 21 22  1  0  0  0  0
 21 23  1  0  0  0  0
 21 24  1  0  0  0  0
M  CHG  1  15  -1
M  END
$$$$

  -OEChem-03222214023D

 24 23  0     1  0  0  0  0  0999 V2000
   -2.3797   -3.4126   -0.0801 H   0  0  0  0  0  0  0  0  0  0  0  0
   -2.3255   -2.3785   -0.4319 C   0  0  0  0  0  0  0  0  0  0  0  0
   -2.8139   -1.7321    0.3017 H   0  0  0  0  0  0  0  0  0  0  0  0
   -2.8531   -2.3017   -1.3857 H   0  0  0  0  0  0  0  0  0  0  0  0
   -0.8765   -1.9596   -0.6052 C   0  0  0  0  0  0  0  0  0  0  0  0
    0.0085   -2.7756   -0.4152 O   0  0  0  0  0  0  0  0  0  0  0  0
   -0.5987   -0.6835   -1.0465 N   0  0  0  0  0  0  0  0  0  0  0  0
   -1.3994   -0.0655   -1.1076 H   0  0  0  0  0  0  0  0  0  0  0  0
    0.7063   -0.0229   -0.8680 C   0  0  1  0  0  0  0  0  0  0  0  0
    1.4996   -0.5919   -1.3648 H   0  0  0  0  0  0  0  0  0  0  0  0
    0.4932    1.3271   -1.6091 C   0  0  0  0  0  0  0  0  0  0  0  0
    1.0215    1.2778   -2.5644 H   0  0  0  0  0  0  0  0  0  0  0  0
   -0.5626    1.4979   -1.8421 H   0  0  0  0  0  0  0  0  0  0  0  0
    0.9989    2.5555   -0.8643 C   0  0  0  0  0  0  0  0  0  0  0  0
    2.2120    2.6390   -0.5741 O   0  5  0  0  0  0  0  0  0  0  0  0
    0.0988    3.3060   -0.4123 O   0  0  0  0  0  0  0  0  0  0  0  0
    1.1019    0.1253    0.6297 C   0  0  0  0  0  0  0  0  0  0  0  0
    2.0990   -0.4427    1.0652 O   0  0  0  0  0  0  0  0  0  0  0  0
    0.1476    0.5775    1.5286 N   0  0  0  0  0  0  0  0  0  0  0  0
   -0.4460    1.3073    1.1371 H   0  0  0  0  0  0  0  0  0  0  0  0
    0.4366    0.6719    2.9517 C   0  0  0  0  0  0  0  0  0  0  0  0
    1.2892    1.3367    3.1249 H   0  0  0  0  0  0  0  0  0  0  0  0
   -0.4314    1.0722    3.4833 H   0  0  0  0  0  0  0  0  0  0  0  0
    0.6675   -0.3161    3.3629 H   0  0  0  0  0  0  0  0  0  0  0  0
  1  2  1  0  0  0  0
  2  3  1  0  0  0  0
  2  4  1  0  0  0  0
  2  5  1  0  0  0  0
  5  6  2  0  0  0  0
  5  7  1  0  0  0  0
  7  8  1  0  0  0  0
  7  9  1  0  0  0  0
  9 10  1  0  0  0  0
  9 11  1  0  0  0  0
  9 17  1  0  0  0  0
 11 12  1  0  0  0  0
 11 13  1  0  0  0  0
 11 14  1  0  0  0  0
 14 15  1  0  0  0  0
 14 16  2  0  0  0  0
 17 18  2  0  0  0  0
 17 19  1  0  0  0  0
 19 20  1  0  0  0  0
 19 21  1  0  0  0  0
 21 22  1  0  0  0  0
 21 23  1  0  0  0  0
 21 24  1  0  0  0  0
M  CHG  1  15  -1
M  END
$$$$

  -OEChem-03222214023D

 24 23  0     1  0  0  0  0  0999 V2000
   -2.3676   -3.4162   -0.0669 H   0  0  0  0  0  0  0  0  0  0  0  0
   -2.3200   -2.3834   -0.4236 C   0  0  0  0  0  0  0  0  0  0  0  0
   -2.8004   -1.7349    0.3133 H   0  0  0  0  0  0  0  0  0  0  0  0
   -2.8597   -2.3113   -1.3709 H   0  0  0  0  0  0  0  0  0  0  0  0
   -0.8743   -1.9619   -0.6165 C   0  0  0  0  0  0  0  0  0  0  0  0
    0.0153   -2.7752   -0.4360 O   0  0  0  0  0  0  0  0  0  0  0  0
   -0.6044   -0.6847   -1.0587 N   0  0  0  0  0  0  0  0  0  0  0  0
   -1.4073   -0.0676   -1.0978 H   0  0  0  0  0  0  0  0  0  0  0  0
    0.6959   -0.0198   -0.8703 C   0  0  1  0  0  0  0  0  0  0  0  0
    1.4917   -0.5888   -1.3630 H   0  0  0  0  0  0  0  0  0  0  0  0
    0.4889    1.3263   -1.6174 C   0  0  0  0  0  0  0  0  0  0  0  0
    1.0253    1.2801   -2.5687 H   0  0  0  0  0  0  0  0  0  0  0  0
   -0.5641    1.5033   -1.8570 H   0  0  0  0  0  0  0  0  0  0  0  0
    0.9903    2.5393   -0.8506 C   0  0  0  0  0  0  0  0  0  0  0  0
    2.2193    2.7585   -0.7839 O   0  5  0  0  0  0  0  0  0  0  0  0
    0.1103    3.1368   -0.1799 O   0  0  0  0  0  0  0  0  0  0  0  0
    1.0931    0.1375    0.6262 C   0  0  0  0  0  0  0  0  0  0  0  0
    2.0999   -0.4160    1.0576 O   0  0  0  0  0  0  0  0  0  0  0  0
    0.1405    0.5902    1.5256 N   0  0  0  0  0  0  0  0  0  0  0  0
   -0.4086    1.3601    1.1379 H   0  0  0  0  0  0  0  0  0  0  0  0
    0.4295    0.6679    2.9497 C   0  0  0  0  0  0  0  0  0  0  0  0
    1.2849    1.3270    3.1299 H   0  0  0  0  0  0  0  0  0  0  0  0
   -0.4366    1.0659    3.4862 H   0  0  0  0  0  0  0  0  0  0  0  0
    0.6565   -0.3252    3.3504 H   0  0  0  0  0  0  0  0  0  0  0  0
  1  2  1  0  0  0  0
  2  3  1  0  0  0  0
  2  4  1  0  0  0  0
  2  5  1  0  0  0  0
  5  6  2  0  0  0  0
  5  7  1  0  0  0  0
  7  8  1  0  0  0  0
  7  9  1  0  0  0  0
  9 10  1  0  0  0  0
  9 11  1  0  0  0  0
  9 17  1  0  0  0  0
 11 12  1  0  0  0  0
 11 13  1  0  0  0  0
 11 14  1  0  0  0  0
 14 15  1  0  0  0  0
 14 16  2  0  0  0  0
 17 18  2  0  0  0  0
 17 19  1  0  0  0  0
 19 20  1  0  0  0  0
 19 21  1  0  0  0  0
 21 22  1  0  0  0  0
 21 23  1  0  0  0  0
 21 24  1  0  0  0  0
M  CHG  1  15  -1
M  END
$$$$

  -OEChem-03222214023D

 24 23  0     1  0  0  0  0  0999 V2000
   -2.3695   -3.4292   -0.0772 H   0  0  0  0  0  0  0  0  0  0  0  0
   -2.3277   -2.3976   -0.4378 C   0  0  0  0  0  0  0  0  0  0  0  0
   -2.8216   -1.7509    0.2918 H   0  0  0  0  0  0  0  0  0  0  0  0
   -2.8589   -2.3348   -1.3906 H   0  0  0  0  0  0  0  0  0  0  0  0
   -0.8835   -1.9642   -0.6183 C   0  0  0  0  0  0  0  0  0  0  0  0
    0.0109   -2.7707   -0.4308 O   0  0  0  0  0  0  0  0  0  0  0  0
   -0.6175   -0.6832   -1.0523 N   0  0  0  0  0  0  0  0  0  0  0  0
   -1.4222   -0.0686   -1.0925 H   0  0  0  0  0  0  0  0  0  0  0  0
    0.6807   -0.0160   -0.8580 C   0  0  1  0  0  0  0  0  0  0  0  0
    1.4747   -0.5913   -1.3465 H   0  0  0  0  0  0  0  0  0  0  0  0
    0.4940    1.3260   -1.6171 C   0  0  0  0  0  0  0  0  0  0  0  0
    1.0373    1.2680   -2.5641 H   0  0  0  0  0  0  0  0  0  0  0  0
   -0.5557    1.5093   -1.8656 H   0  0  0  0  0  0  0  0  0  0  0  0
    0.9923    2.5421   -0.8535 C   0  0  0  0  0  0  0  0  0  0  0  0
    2.1764    2.9187   -0.9960 O   0  5  0  0  0  0  0  0  0  0  0  0
    0.1570    3.0494   -0.0607 O   0  0  0  0  0  0  0  0  0  0  0  0
    1.0842    0.1371    0.6368 C   0  0  0  0  0  0  0  0  0  0  0  0
    2.1129   -0.3864    1.0533 O   0  0  0  0  0  0  0  0  0  0  0  0
    0.1391    0.5823    1.5463 N   0  0  0  0  0  0  0  0  0  0  0  0
   -0.3984    1.3647    1.1642 H   0  0  0  0  0  0  0  0  0  0  0  0
    0.4431    0.6591    2.9673 C   0  0  0  0  0  0  0  0  0  0  0  0
    1.2932    1.3270    3.1406 H   0  0  0  0  0  0  0  0  0  0  0  0
   -0.4215    1.0469    3.5135 H   0  0  0  0  0  0  0  0  0  0  0  0
    0.6843   -0.3328    3.3628 H   0  0  0  0  0  0  0  0  0  0  0  0
  1  2  1  0  0  0  0
  2  3  1  0  0  0  0
  2  4  1  0  0  0  0
  2  5  1  0  0  0  0
  5  6  2  0  0  0  0
  5  7  1  0  0  0  0
  7  8  1  0  0  0  0
  7  9  1  0  0  0  0
  9 10  1  0  0  0  0
  9 11  1  0  0  0  0
  9 17  1  0  0  0  0
 11 12  1  0  0  0  0
 11 13  1  0  0  0  0
 11 14  1  0  0  0  0
 14 15  1  0  0  0  0
 14 16  2  0  0  0  0
 17 18  2  0  0  0  0
 17 19  1  0  0  0  0
 19 20  1  0  0  0  0
 19 21  1  0  0  0  0
 21 22  1  0  0  0  0
 21 23  1  0  0  0  0
 21 24  1  0  0  0  0
M  CHG  1  15  -1
M  END
$$$$

  -OEChem-03222214023D

 24 23  0     1  0  0  0  0  0999 V2000
   -2.3831   -3.4472   -0.1230 H   0  0  0  0  0  0  0  0  0  0  0  0
   -2.3397   -2.4093   -0.4650 C   0  0  0  0  0  0  0  0  0  0  0  0
   -2.8505   -1.7774    0.2659 H   0  0  0  0  0  0  0  0  0  0  0  0
   -2.8531   -2.3328   -1.4264 H   0  0  0  0  0  0  0  0  0  0  0  0
   -0.8947   -1.9657   -0.6115 C   0  0  0  0  0  0  0  0  0  0  0  0
    0.0010   -2.7657   -0.4031 O   0  0  0  0  0  0  0  0  0  0  0  0
   -0.6284   -0.6814   -1.0355 N   0  0  0  0  0  0  0  0  0  0  0  0
   -1.4345   -0.0695   -1.0875 H   0  0  0  0  0  0  0  0  0  0  0  0
    0.6672   -0.0117   -0.8369 C   0  0  1  0  0  0  0  0  0  0  0  0
    1.4571   -0.5976   -1.3197 H   0  0  0  0  0  0  0  0  0  0  0  0
    0.5026    1.3210   -1.6177 C   0  0  0  0  0  0  0  0  0  0  0  0
    1.0571    1.2411   -2.5567 H   0  0  0  0  0  0  0  0  0  0  0  0
   -0.5423    1.5058   -1.8830 H   0  0  0  0  0  0  0  0  0  0  0  0
    0.9934    2.5537   -0.8743 C   0  0  0  0  0  0  0  0  0  0  0  0
    2.0743    3.0862   -1.2123 O   0  5  0  0  0  0  0  0  0  0  0  0
    0.2118    2.9912    0.0102 O   0  0  0  0  0  0  0  0  0  0  0  0
    1.0789    0.1374    0.6558 C   0  0  0  0  0  0  0  0  0  0  0  0
    2.1292   -0.3564    1.0543 O   0  0  0  0  0  0  0  0  0  0  0  0
    0.1441    0.5744    1.5788 N   0  0  0  0  0  0  0  0  0  0  0  0
   -0.3891    1.3647    1.2059 H   0  0  0  0  0  0  0  0  0  0  0  0
    0.4667    0.6456    2.9961 C   0  0  0  0  0  0  0  0  0  0  0  0
    1.3148    1.3179    3.1617 H   0  0  0  0  0  0  0  0  0  0  0  0
   -0.3930    1.0248    3.5559 H   0  0  0  0  0  0  0  0  0  0  0  0
    0.7191   -0.3469    3.3830 H   0  0  0  0  0  0  0  0  0  0  0  0
  1  2  1  0  0  0  0
  2  3  1  0  0  0  0
  2  4  1  0  0  0  0
  2  5  1  0  0  0  0
  5  6  2  0  0  0  0
  5  7  1  0  0  0  0
  7  8  1  0  0  0  0
  7  9  1  0  0  0  0
  9 10  1  0  0  0  0
  9 11  1  0  0  0  0
  9 17  1  0  0  0  0
 11 12  1  0  0  0  0
 11 13  1  0  0  0  0
 11 14  1  0  0  0  0
 14 15  1  0  0  0  0
 14 16  2  0  0  0  0
 17 18  2  0  0  0  0
 17 19  1  0  0  0  0
 19 20  1  0  0  0  0
 19 21  1  0  0  0  0
 21 22  1  0  0  0  0
 21 23  1  0  0  0  0
 21 24  1  0  0  0  0
M  CHG  1  15  -1
M  END
$$$$

  -OEChem-03222214023D

 24 23  0     1  0  0  0  0  0999 V2000
   -2.3895   -3.4510   -0.1421 H   0  0  0  0  0  0  0  0  0  0  0  0
   -2.3458   -2.4121   -0.4809 C   0  0  0  0  0  0  0  0  0  0  0  0
   -2.8665   -1.7833    0.2456 H   0  0  0  0  0  0  0  0  0  0  0  0
   -2.8489   -2.3350   -1.4478 H   0  0  0  0  0  0  0  0  0  0  0  0
   -0.9011   -1.9633   -0.6103 C   0  0  0  0  0  0  0  0  0  0  0  0
   -0.0047   -2.7607   -0.3945 O   0  0  0  0  0  0  0  0  0  0  0  0
   -0.6354   -0.6752   -1.0226 N   0  0  0  0  0  0  0  0  0  0  0  0
   -1.4419   -0.0644   -1.0793 H   0  0  0  0  0  0  0  0  0  0  0  0
    0.6585   -0.0049   -0.8186 C   0  0  1  0  0  0  0  0  0  0  0  0
    1.4447   -0.6009   -1.2949 H   0  0  0  0  0  0  0  0  0  0  0  0
    0.5182    1.3194   -1.6200 C   0  0  0  0  0  0  0  0  0  0  0  0
    1.0833    1.2159   -2.5506 H   0  0  0  0  0  0  0  0  0  0  0  0
   -0.5217    1.5045   -1.9031 H   0  0  0  0  0  0  0  0  0  0  0  0
    1.0014    2.5720   -0.9025 C   0  0  0  0  0  0  0  0  0  0  0  0
    1.9253    3.2426   -1.4168 O   0  5  0  0  0  0  0  0  0  0  0  0
    0.2911    2.9450    0.0672 O   0  0  0  0  0  0  0  0  0  0  0  0
    1.0744    0.1344    0.6737 C   0  0  0  0  0  0  0  0  0  0  0  0
    2.1374   -0.3437    1.0584 O   0  0  0  0  0  0  0  0  0  0  0  0
    0.1460    0.5615    1.6074 N   0  0  0  0  0  0  0  0  0  0  0  0
   -0.3830    1.3589    1.2435 H   0  0  0  0  0  0  0  0  0  0  0  0
    0.4804    0.6226    3.0225 C   0  0  0  0  0  0  0  0  0  0  0  0
    1.3163    1.3100    3.1884 H   0  0  0  0  0  0  0  0  0  0  0  0
   -0.3814    0.9773    3.5949 H   0  0  0  0  0  0  0  0  0  0  0  0
    0.7570   -0.3688    3.3951 H   0  0  0  0  0  0  0  0  0  0  0  0
  1  2  1  0  0  0  0
  2  3  1  0  0  0  0
  2  4  1  0  0  0  0
  2  5  1  0  0  0  0
  5  6  2  0  0  0  0
  5  7  1  0  0  0  0
  7  8  1  0  0  0  0
  7  9  1  0  0  0  0
  9 10  1  0  0  0  0
  9 11  1  0  0  0  0
  9 17  1  0  0  0  0
 11 12  1  0  0  0  0
 11 13  1  0  0  0  0
 11 14  1  0  0  0  0
 14 15  1  0  0  0  0
 14 16  2  0  0  0  0
 17 18  2  0  0  0  0
 17 19  1  0  0  0  0
 19 20  1  0  0  0  0
 19 21  1  0  0  0  0
 21 22  1  0  0  0  0
 21 23  1  0  0  0  0
 21 24  1  0  0  0  0
M  CHG  1  15  -1
M  END
$$$$

  -OEChem-03222214023D

 24 23  0     1  0  0  0  0  0999 V2000
   -2.3956   -3.4530   -0.1645 H   0  0  0  0  0  0  0  0  0  0  0  0
   -2.3517   -2.4125   -0.4989 C   0  0  0  0  0  0  0  0  0  0  0  0
   -2.8820   -1.7885    0.2249 H   0  0  0  0  0  0  0  0  0  0  0  0
   -2.8450   -2.3330   -1.4707 H   0  0  0  0  0  0  0  0  0  0  0  0
   -0.9072   -1.9587   -0.6114 C   0  0  0  0  0  0  0  0  0  0  0  0
   -0.0107   -2.7558   -0.3945 O   0  0  0  0  0  0  0  0  0  0  0  0
   -0.6414   -0.6662   -1.0095 N   0  0  0  0  0  0  0  0  0  0  0  0
   -1.4485   -0.0563   -1.0708 H   0  0  0  0  0  0  0  0  0  0  0  0
    0.6516    0.0036   -0.7985 C   0  0  1  0  0  0  0  0  0  0  0  0
    1.4338   -0.6023   -1.2690 H   0  0  0  0  0  0  0  0  0  0  0  0
    0.5354    1.3192   -1.6212 C   0  0  0  0  0  0  0  0  0  0  0  0
    1.1138    1.1905   -2.5403 H   0  0  0  0  0  0  0  0  0  0  0  0
   -0.4991    1.5014   -1.9250 H   0  0  0  0  0  0  0  0  0  0  0  0
    1.0087    2.5980   -0.9400 C   0  0  0  0  0  0  0  0  0  0  0  0
    1.7253    3.3800   -1.6069 O   0  5  0  0  0  0  0  0  0  0  0  0
    0.4067    2.9088    0.1198 O   0  0  0  0  0  0  0  0  0  0  0  0
    1.0722    0.1305    0.6936 C   0  0  0  0  0  0  0  0  0  0  0  0
    2.1426   -0.3410    1.0671 O   0  0  0  0  0  0  0  0  0  0  0  0
    0.1487    0.5470    1.6365 N   0  0  0  0  0  0  0  0  0  0  0  0
   -0.3732    1.3525    1.2816 H   0  0  0  0  0  0  0  0  0  0  0  0
    0.4939    0.5982    3.0494 C   0  0  0  0  0  0  0  0  0  0  0  0
    1.3304    1.2853    3.2138 H   0  0  0  0  0  0  0  0  0  0  0  0
   -0.3638    0.9480    3.6309 H   0  0  0  0  0  0  0  0  0  0  0  0
    0.7744   -0.3956    3.4127 H   0  0  0  0  0  0  0  0  0  0  0  0
  1  2  1  0  0  0  0
  2  3  1  0  0  0  0
  2  4  1  0  0  0  0
  2  5  1  0  0  0  0
  5  6  2  0  0  0  0
  5  7  1  0  0  0  0
  7  8  1  0  0  0  0
  7  9  1  0  0  0  0
  9 10  1  0  0  0  0
  9 11  1  0  0  0  0
  9 17  1  0  0  0  0
 11 12  1  0  0  0  0
 11 13  1  0  0  0  0
 11 14  1  0  0  0  0
 14 15  1  0  0  0  0
 14 16  2  0  0  0  0
 17 18  2  0  0  0  0
 17 19  1  0  0  0  0
 19 20  1  0  0  0  0
 19 21  1  0  0  0  0
 21 22  1  0  0  0  0
 21 23  1  0  0  0  0
 21 24  1  0  0  0  0
M  CHG  1  15  -1
M  END
$$$$

  -OEChem-03222214023D

 24 23  0     1  0  0  0  0  0999 V2000
   -2.3995   -3.4478   -0.1781 H   0  0  0  0  0  0  0  0  0  0  0  0
   -2.3540   -2.4060   -0.5079 C   0  0  0  0  0  0  0  0  0  0  0  0
   -2.8910   -1.7855    0.2139 H   0  0  0  0  0  0  0  0  0  0  0  0
   -2.8393   -2.3232   -1.4834 H   0  0  0  0  0  0  0  0  0  0  0  0
   -0.9091   -1.9502   -0.6067 C   0  0  0  0  0  0  0  0  0  0  0  0
   -0.0135   -2.7482   -0.3896 O   0  0  0  0  0  0  0  0  0  0  0  0
   -0.6422   -0.6548   -0.9946 N   0  0  0  0  0  0  0  0  0  0  0  0
   -1.4491   -0.0453   -1.0596 H   0  0  0  0  0  0  0  0  0  0  0  0
    0.6510    0.0144   -0.7820 C   0  0  1  0  0  0  0  0  0  0  0  0
    1.4296   -0.5997   -1.2479 H   0  0  0  0  0  0  0  0  0  0  0  0
    0.5494    1.3210   -1.6257 C   0  0  0  0  0  0  0  0  0  0  0  0
    1.1356    1.1682   -2.5364 H   0  0  0  0  0  0  0  0  0  0  0  0
   -0.4820    1.4944   -1.9443 H   0  0  0  0  0  0  0  0  0  0  0  0
    1.0120    2.6311   -0.9932 C   0  0  0  0  0  0  0  0  0  0  0  0
    1.4710    3.4924   -1.7794 O   0  5  0  0  0  0  0  0  0  0  0  0
    0.5850    2.8856    0.1606 O   0  0  0  0  0  0  0  0  0  0  0  0
    1.0753    0.1303    0.7100 C   0  0  0  0  0  0  0  0  0  0  0  0
    2.1432   -0.3527    1.0773 O   0  0  0  0  0  0  0  0  0  0  0  0
    0.1534    0.5389    1.6583 N   0  0  0  0  0  0  0  0  0  0  0  0
   -0.3530    1.3582    1.3154 H   0  0  0  0  0  0  0  0  0  0  0  0
    0.4980    0.5643    3.0720 C   0  0  0  0  0  0  0  0  0  0  0  0
    1.3339    1.2488    3.2493 H   0  0  0  0  0  0  0  0  0  0  0  0
   -0.3604    0.9020    3.6599 H   0  0  0  0  0  0  0  0  0  0  0  0
    0.7793   -0.4358    3.4171 H   0  0  0  0  0  0  0  0  0  0  0  0
  1  2  1  0  0  0  0
  2  3  1  0  0  0  0
  2  4  1  0  0  0  0
  2  5  1  0  0  0  0
  5  6  2  0  0  0  0
  5  7  1  0  0  0  0
  7  8  1  0  0  0  0
  7  9  1  0  0  0  0
  9 10  1  0  0  0  0
  9 11  1  0  0  0  0
  9 17  1  0  0  0  0
 11 12  1  0  0  0  0
 11 13  1  0  0  0  0
 11 14  1  0  0  0  0
 14 15  1  0  0  0  0
 14 16  2  0  0  0  0
 17 18  2  0  0  0  0
 17 19  1  0  0  0  0
 19 20  1  0  0  0  0
 19 21  1  0  0  0  0
 21 22  1  0  0  0  0
 21 23  1  0  0  0  0
 21 24  1  0  0  0  0
M  CHG  1  15  -1
M  END
$$$$

  -OEChem-03222214023D

 24 23  0     1  0  0  0  0  0999 V2000
   -2.4060   -3.4328   -0.1669 H   0  0  0  0  0  0  0  0  0  0  0  0
   -2.3572   -2.3958   -0.5111 C   0  0  0  0  0  0  0  0  0  0  0  0
   -2.8994   -1.7653    0.1979 H   0  0  0  0  0  0  0  0  0  0  0  0
   -2.8348   -2.3259   -1.4914 H   0  0  0  0  0  0  0  0  0  0  0  0
   -0.9109   -1.9427   -0.6053 C   0  0  0  0  0  0  0  0  0  0  0  0
   -0.0181   -2.7451   -0.3937 O   0  0  0  0  0  0  0  0  0  0  0  0
   -0.6396   -0.6452   -0.9839 N   0  0  0  0  0  0  0  0  0  0  0  0
   -1.4445   -0.0346   -1.0596 H   0  0  0  0  0  0  0  0  0  0  0  0
    0.6565    0.0203   -0.7719 C   0  0  1  0  0  0  0  0  0  0  0  0
    1.4322   -0.5964   -1.2391 H   0  0  0  0  0  0  0  0  0  0  0  0
    0.5571    1.3251   -1.6239 C   0  0  0  0  0  0  0  0  0  0  0  0
    1.1447    1.1595   -2.5312 H   0  0  0  0  0  0  0  0  0  0  0  0
   -0.4743    1.4876   -1.9480 H   0  0  0  0  0  0  0  0  0  0  0  0
    1.0110    2.6629   -1.0385 C   0  0  0  0  0  0  0  0  0  0  0  0
    1.1724    3.5774   -1.8807 O   0  5  0  0  0  0  0  0  0  0  0  0
    0.8600    2.8631    0.1900 O   0  0  0  0  0  0  0  0  0  0  0  0
    1.0804    0.1212    0.7210 C   0  0  0  0  0  0  0  0  0  0  0  0
    2.1380   -0.3854    1.0875 O   0  0  0  0  0  0  0  0  0  0  0  0
    0.1560    0.5236    1.6702 N   0  0  0  0  0  0  0  0  0  0  0  0
   -0.3588    1.3370    1.3324 H   0  0  0  0  0  0  0  0  0  0  0  0
    0.5006    0.5436    3.0840 C   0  0  0  0  0  0  0  0  0  0  0  0
    1.3335    1.2313    3.2637 H   0  0  0  0  0  0  0  0  0  0  0  0
   -0.3590    0.8753    3.6733 H   0  0  0  0  0  0  0  0  0  0  0  0
    0.7866   -0.4566    3.4252 H   0  0  0  0  0  0  0  0  0  0  0  0
  1  2  1  0  0  0  0
  2  3  1  0  0  0  0
  2  4  1  0  0  0  0
  2  5  1  0  0  0  0
  5  6  2  0  0  0  0
  5  7  1  0  0  0  0
  7  8  1  0  0  0  0
  7  9  1  0  0  0  0
  9 10  1  0  0  0  0
  9 11  1  0  0  0  0
  9 17  1  0  0  0  0
 11 12  1  0  0  0  0
 11 13  1  0  0  0  0
 11 14  1  0  0  0  0
 14 15  1  0  0  0  0
 14 16  2  0  0  0  0
 17 18  2  0  0  0  0
 17 19  1  0  0  0  0
 19 20  1  0  0  0  0
 19 21  1  0  0  0  0
 21 22  1  0  0  0  0
 21 23  1  0  0  0  0
 21 24  1  0  0  0  0
M  CHG  1  15  -1
M  END
$$$$

  -OEChem-03222214023D

 24 23  0     1  0  0  0  0  0999 V2000
   -2.4621   -3.4019   -0.1723 H   0  0  0  0  0  0  0  0  0  0  0  0
   -2.3728   -2.3752   -0.5383 C   0  0  0  0  0  0  0  0  0  0  0  0
   -2.9417   -1.7165    0.1226 H   0  0  0  0  0  0  0  0  0  0  0  0
   -2.7920   -2.3222   -1.5460 H   0  0  0  0  0  0  0  0  0  0  0  0
   -0.9149   -1.9519   -0.5608 C   0  0  0  0  0  0  0  0  0  0  0  0
   -0.0540   -2.7634   -0.2718 O   0  0  0  0  0  0  0  0  0  0  0  0
   -0.5986   -0.6743   -0.9717 N   0  0  0  0  0  0  0  0  0  0  0  0
   -1.3805   -0.0659   -1.1812 H   0  0  0  0  0  0  0  0  0  0  0  0
    0.7171   -0.0301   -0.8000 C   0  0  1  0  0  0  0  0  0  0  0  0
    1.4993   -0.6155   -1.2951 H   0  0  0  0  0  0  0  0  0  0  0  0
    0.5246    1.3058   -1.5813 C   0  0  0  0  0  0  0  0  0  0  0  0
    0.7627    1.1108   -2.6305 H   0  0  0  0  0  0  0  0  0  0  0  0
   -0.5283    1.5996   -1.5408 H   0  0  0  0  0  0  0  0  0  0  0  0
    1.2830    2.5699   -1.1706 C   0  0  0  0  0  0  0  0  0  0  0  0
    1.0337    3.5706   -1.8848 O   0  5  0  0  0  0  0  0  0  0  0  0
    2.0015    2.5960   -0.1488 O   0  0  0  0  0  0  0  0  0  0  0  0
    1.1188    0.0777    0.6989 C   0  0  0  0  0  0  0  0  0  0  0  0
    2.1283   -0.4874    1.1111 O   0  0  0  0  0  0  0  0  0  0  0  0
    0.1796    0.5155    1.6207 N   0  0  0  0  0  0  0  0  0  0  0  0
   -0.4897    1.1736    1.2389 H   0  0  0  0  0  0  0  0  0  0  0  0
    0.5036    0.6387    3.0340 C   0  0  0  0  0  0  0  0  0  0  0  0
    1.3345    1.3380    3.1747 H   0  0  0  0  0  0  0  0  0  0  0  0
   -0.3637    1.0120    3.5862 H   0  0  0  0  0  0  0  0  0  0  0  0
    0.7840   -0.3344    3.4500 H   0  0  0  0  0  0  0  0  0  0  0  0
  1  2  1  0  0  0  0
  2  3  1  0  0  0  0
  2  4  1  0  0  0  0
  2  5  1  0  0  0  0
  5  6  2  0  0  0  0
  5  7  1  0  0  0  0
  7  8  1  0  0  0  0
  7  9  1  0  0  0  0
  9 10  1  0  0  0  0
  9 11  1  0  0  0  0
  9 17  1  0  0  0  0
 11 12  1  0  0  0  0
 11 13  1  0  0  0  0
 11 14  1  0  0  0  0
 14 15  1  0  0  0  0
 14 16  2  0  0  0  0
 17 18  2  0  0  0  0
 17 19  1  0  0  0  0
 19 20  1  0  0  0  0
 19 21  1  0  0  0  0
 21 22  1  0  0  0  0
 21 23  1  0  0  0  0
 21 24  1  0  0  0  0
M  CHG  1  15  -1
M  END
$$$$

  -OEChem-03222214023D

 24 23  0     1  0  0  0  0  0999 V2000
   -2.4710   -3.3993   -0.1521 H   0  0  0  0  0  0  0  0  0  0  0  0
   -2.3763   -2.3834   -0.5460 C   0  0  0  0  0  0  0  0  0  0  0  0
   -2.9655   -1.7084    0.0793 H   0  0  0  0  0  0  0  0  0  0  0  0
   -2.7689   -2.3627   -1.5656 H   0  0  0  0  0  0  0  0  0  0  0  0
   -0.9198   -1.9541   -0.5423 C   0  0  0  0  0  0  0  0  0  0  0  0
   -0.0635   -2.7576   -0.2201 O   0  0  0  0  0  0  0  0  0  0  0  0
   -0.5989   -0.6823   -0.9677 N   0  0  0  0  0  0  0  0  0  0  0  0
   -1.3756   -0.0825   -1.2173 H   0  0  0  0  0  0  0  0  0  0  0  0
    0.7194   -0.0382   -0.8139 C   0  0  1  0  0  0  0  0  0  0  0  0
    1.5011   -0.6126   -1.3222 H   0  0  0  0  0  0  0  0  0  0  0  0
    0.5002    1.3097   -1.5625 C   0  0  0  0  0  0  0  0  0  0  0  0
    0.7126    1.1477   -2.6222 H   0  0  0  0  0  0  0  0  0  0  0  0
   -0.5518    1.6005   -1.4856 H   0  0  0  0  0  0  0  0  0  0  0  0
    1.2783    2.5499   -1.1228 C   0  0  0  0  0  0  0  0  0  0  0  0
    0.8296    3.6323   -1.5715 O   0  5  0  0  0  0  0  0  0  0  0  0
    2.2941    2.4497   -0.4027 O   0  0  0  0  0  0  0  0  0  0  0  0
    1.1302    0.0838    0.6818 C   0  0  0  0  0  0  0  0  0  0  0  0
    2.1354   -0.4811    1.1029 O   0  0  0  0  0  0  0  0  0  0  0  0
    0.1941    0.5329    1.6016 N   0  0  0  0  0  0  0  0  0  0  0  0
   -0.5128    1.1477    1.2158 H   0  0  0  0  0  0  0  0  0  0  0  0
    0.5107    0.6680    3.0155 C   0  0  0  0  0  0  0  0  0  0  0  0
    1.3445    1.3641    3.1542 H   0  0  0  0  0  0  0  0  0  0  0  0
   -0.3578    1.0509    3.5590 H   0  0  0  0  0  0  0  0  0  0  0  0
    0.7837   -0.3025    3.4424 H   0  0  0  0  0  0  0  0  0  0  0  0
  1  2  1  0  0  0  0
  2  3  1  0  0  0  0
  2  4  1  0  0  0  0
  2  5  1  0  0  0  0
  5  6  2  0  0  0  0
  5  7  1  0  0  0  0
  7  8  1  0  0  0  0
  7  9  1  0  0  0  0
  9 10  1  0  0  0  0
  9 11  1  0  0  0  0
  9 17  1  0  0  0  0
 11 12  1  0  0  0  0
 11 13  1  0  0  0  0
 11 14  1  0  0  0  0
 14 15  1  0  0  0  0
 14 16  2  0  0  0  0
 17 18  2  0  0  0  0
 17 19  1  0  0  0  0
 19 20  1  0  0  0  0
 19 21  1  0  0  0  0
 21 22  1  0  0  0  0
 21 23  1  0  0  0  0
 21 24  1  0  0  0  0
M  CHG  1  15  -1
M  END
$$$$

  -OEChem-03222214023D

 24 23  0     1  0  0  0  0  0999 V2000
   -2.4687   -3.4100   -0.1459 H   0  0  0  0  0  0  0  0  0  0  0  0
   -2.3761   -2.3968   -0.5474 C   0  0  0  0  0  0  0  0  0  0  0  0
   -2.9689   -1.7187    0.0715 H   0  0  0  0  0  0  0  0  0  0  0  0
   -2.7660   -2.3845   -1.5683 H   0  0  0  0  0  0  0  0  0  0  0  0
   -0.9207   -1.9632   -0.5432 C   0  0  0  0  0  0  0  0  0  0  0  0
   -0.0629   -2.7601   -0.2088 O   0  0  0  0  0  0  0  0  0  0  0  0
   -0.6027   -0.6940   -0.9778 N   0  0  0  0  0  0  0  0  0  0  0  0
   -1.3801   -0.0985   -1.2356 H   0  0  0  0  0  0  0  0  0  0  0  0
    0.7140   -0.0463   -0.8293 C   0  0  1  0  0  0  0  0  0  0  0  0
    1.4981   -0.6096   -1.3463 H   0  0  0  0  0  0  0  0  0  0  0  0
    0.4807    1.3111   -1.5496 C   0  0  0  0  0  0  0  0  0  0  0  0
    0.6869    1.1811   -2.6149 H   0  0  0  0  0  0  0  0  0  0  0  0
   -0.5705    1.6017   -1.4569 H   0  0  0  0  0  0  0  0  0  0  0  0
    1.2824    2.5149   -1.0610 C   0  0  0  0  0  0  0  0  0  0  0  0
    0.7154    3.6265   -1.1949 O   0  5  0  0  0  0  0  0  0  0  0  0
    2.4535    2.3576   -0.6540 O   0  0  0  0  0  0  0  0  0  0  0  0
    1.1315    0.0901    0.6630 C   0  0  0  0  0  0  0  0  0  0  0  0
    2.1452   -0.4552    1.0878 O   0  0  0  0  0  0  0  0  0  0  0  0
    0.1970    0.5459    1.5810 N   0  0  0  0  0  0  0  0  0  0  0  0
   -0.5266    1.1386    1.1906 H   0  0  0  0  0  0  0  0  0  0  0  0
    0.5170    0.7046    2.9917 C   0  0  0  0  0  0  0  0  0  0  0  0
    1.3539    1.3995    3.1167 H   0  0  0  0  0  0  0  0  0  0  0  0
   -0.3486    1.1011    3.5302 H   0  0  0  0  0  0  0  0  0  0  0  0
    0.7869   -0.2595    3.4347 H   0  0  0  0  0  0  0  0  0  0  0  0
  1  2  1  0  0  0  0
  2  3  1  0  0  0  0
  2  4  1  0  0  0  0
  2  5  1  0  0  0  0
  5  6  2  0  0  0  0
  5  7  1  0  0  0  0
  7  8  1  0  0  0  0
  7  9  1  0  0  0  0
  9 10  1  0  0  0  0
  9 11  1  0  0  0  0
  9 17  1  0  0  0  0
 11 12  1  0  0  0  0
 11 13  1  0  0  0  0
 11 14  1  0  0  0  0
 14 15  1  0  0  0  0
 14 16  2  0  0  0  0
 17 18  2  0  0  0  0
 17 19  1  0  0  0  0
 19 20  1  0  0  0  0
 19 21  1  0  0  0  0
 21 22  1  0  0  0  0
 21 23  1  0  0  0  0
 21 24  1  0  0  0  0
M  CHG  1  15  -1
M  END
$$$$

  -OEChem-03222214023D

 24 23  0     1  0  0  0  0  0999 V2000
   -2.4642   -3.4237   -0.1510 H   0  0  0  0  0  0  0  0  0  0  0  0
   -2.3767   -2.4084   -0.5482 C   0  0  0  0  0  0  0  0  0  0  0  0
   -2.9697   -1.7354    0.0760 H   0  0  0  0  0  0  0  0  0  0  0  0
   -2.7710   -2.3934   -1.5672 H   0  0  0  0  0  0  0  0  0  0  0  0
   -0.9229   -1.9696   -0.5484 C   0  0  0  0  0  0  0  0  0  0  0  0
   -0.0616   -2.7609   -0.2099 O   0  0  0  0  0  0  0  0  0  0  0  0
   -0.6101   -0.7009   -0.9884 N   0  0  0  0  0  0  0  0  0  0  0  0
   -1.3907   -0.1056   -1.2367 H   0  0  0  0  0  0  0  0  0  0  0  0
    0.7043   -0.0501   -0.8401 C   0  0  1  0  0  0  0  0  0  0  0  0
    1.4898   -0.6090   -1.3601 H   0  0  0  0  0  0  0  0  0  0  0  0
    0.4687    1.3105   -1.5464 C   0  0  0  0  0  0  0  0  0  0  0  0
    0.6803    1.1987   -2.6125 H   0  0  0  0  0  0  0  0  0  0  0  0
   -0.5816    1.6049   -1.4544 H   0  0  0  0  0  0  0  0  0  0  0  0
    1.2893    2.4816   -1.0182 C   0  0  0  0  0  0  0  0  0  0  0  0
    0.6616    3.5541   -0.8407 O   0  5  0  0  0  0  0  0  0  0  0  0
    2.5251    2.3445   -0.8875 O   0  0  0  0  0  0  0  0  0  0  0  0
    1.1280    0.0974    0.6489 C   0  0  0  0  0  0  0  0  0  0  0  0
    2.1556   -0.4230    1.0701 O   0  0  0  0  0  0  0  0  0  0  0  0
    0.1964    0.5570    1.5674 N   0  0  0  0  0  0  0  0  0  0  0  0
   -0.5237    1.1538    1.1744 H   0  0  0  0  0  0  0  0  0  0  0  0
    0.5236    0.7300    2.9747 C   0  0  0  0  0  0  0  0  0  0  0  0
    1.3524    1.4364    3.0893 H   0  0  0  0  0  0  0  0  0  0  0  0
   -0.3437    1.1188    3.5159 H   0  0  0  0  0  0  0  0  0  0  0  0
    0.8086   -0.2275    3.4227 H   0  0  0  0  0  0  0  0  0  0  0  0
  1  2  1  0  0  0  0
  2  3  1  0  0  0  0
  2  4  1  0  0  0  0
  2  5  1  0  0  0  0
  5  6  2  0  0  0  0
  5  7  1  0  0  0  0
  7  8  1  0  0  0  0
  7  9  1  0  0  0  0
  9 10  1  0  0  0  0
  9 11  1  0  0  0  0
  9 17  1  0  0  0  0
 11 12  1  0  0  0  0
 11 13  1  0  0  0  0
 11 14  1  0  0  0  0
 14 15  1  0  0  0  0
 14 16  2  0  0  0  0
 17 18  2  0  0  0  0
 17 19  1  0  0  0  0
 19 20  1  0  0  0  0
 19 21  1  0  0  0  0
 21 22  1  0  0  0  0
 21 23  1  0  0  0  0
 21 24  1  0  0  0  0
M  CHG  1  15  -1
M  END
$$$$

  -OEChem-03222214023D

 24 23  0     1  0  0  0  0  0999 V2000
   -2.4595   -3.4307   -0.1481 H   0  0  0  0  0  0  0  0  0  0  0  0
   -2.3768   -2.4153   -0.5460 C   0  0  0  0  0  0  0  0  0  0  0  0
   -2.9612   -1.7423    0.0862 H   0  0  0  0  0  0  0  0  0  0  0  0
   -2.7840   -2.3996   -1.5598 H   0  0  0  0  0  0  0  0  0  0  0  0
   -0.9233   -1.9766   -0.5641 C   0  0  0  0  0  0  0  0  0  0  0  0
   -0.0573   -2.7667   -0.2339 O   0  0  0  0  0  0  0  0  0  0  0  0
   -0.6159   -0.7069   -1.0039 N   0  0  0  0  0  0  0  0  0  0  0  0
   -1.4008   -0.1091   -1.2319 H   0  0  0  0  0  0  0  0  0  0  0  0
    0.6950   -0.0524   -0.8462 C   0  0  1  0  0  0  0  0  0  0  0  0
    1.4832   -0.6099   -1.3636 H   0  0  0  0  0  0  0  0  0  0  0  0
    0.4646    1.3083   -1.5492 C   0  0  0  0  0  0  0  0  0  0  0  0
    0.6927    1.2043   -2.6129 H   0  0  0  0  0  0  0  0  0  0  0  0
   -0.5853    1.6074   -1.4716 H   0  0  0  0  0  0  0  0  0  0  0  0
    1.2920    2.4574   -0.9898 C   0  0  0  0  0  0  0  0  0  0  0  0
    0.6430    3.4279   -0.5277 O   0  5  0  0  0  0  0  0  0  0  0  0
    2.5367    2.4107   -1.1019 O   0  0  0  0  0  0  0  0  0  0  0  0
    1.1175    0.1017    0.6422 C   0  0  0  0  0  0  0  0  0  0  0  0
    2.1598   -0.3940    1.0560 O   0  0  0  0  0  0  0  0  0  0  0  0
    0.1878    0.5612    1.5621 N   0  0  0  0  0  0  0  0  0  0  0  0
   -0.5097    1.1850    1.1677 H   0  0  0  0  0  0  0  0  0  0  0  0
    0.5275    0.7445    2.9655 C   0  0  0  0  0  0  0  0  0  0  0  0
    1.3452    1.4653    3.0689 H   0  0  0  0  0  0  0  0  0  0  0  0
   -0.3403    1.1203    3.5151 H   0  0  0  0  0  0  0  0  0  0  0  0
    0.8333   -0.2060    3.4143 H   0  0  0  0  0  0  0  0  0  0  0  0
  1  2  1  0  0  0  0
  2  3  1  0  0  0  0
  2  4  1  0  0  0  0
  2  5  1  0  0  0  0
  5  6  2  0  0  0  0
  5  7  1  0  0  0  0
  7  8  1  0  0  0  0
  7  9  1  0  0  0  0
  9 10  1  0  0  0  0
  9 11  1  0  0  0  0
  9 17  1  0  0  0  0
 11 12  1  0  0  0  0
 11 13  1  0  0  0  0
 11 14  1  0  0  0  0
 14 15  1  0  0  0  0
 14 16  2  0  0  0  0
 17 18  2  0  0  0  0
 17 19  1  0  0  0  0
 19 20  1  0  0  0  0
 19 21  1  0  0  0  0
 21 22  1  0  0  0  0
 21 23  1  0  0  0  0
 21 24  1  0  0  0  0
M  CHG  1  15  -1
M  END
$$$$

  -OEChem-03222214023D

 24 23  0     1  0  0  0  0  0999 V2000
   -2.4459   -3.4381   -0.1420 H   0  0  0  0  0  0  0  0  0  0  0  0
   -2.3722   -2.4201   -0.5350 C   0  0  0  0  0  0  0  0  0  0  0  0
   -2.9470   -1.7520    0.1111 H   0  0  0  0  0  0  0  0  0  0  0  0
   -2.7970   -2.3990   -1.5415 H   0  0  0  0  0  0  0  0  0  0  0  0
   -0.9199   -1.9784   -0.5759 C   0  0  0  0  0  0  0  0  0  0  0  0
   -0.0462   -2.7691   -0.2671 O   0  0  0  0  0  0  0  0  0  0  0  0
   -0.6207   -0.7071   -1.0170 N   0  0  0  0  0  0  0  0  0  0  0  0
   -1.4112   -0.1031   -1.2067 H   0  0  0  0  0  0  0  0  0  0  0  0
    0.6869   -0.0503   -0.8487 C   0  0  1  0  0  0  0  0  0  0  0  0
    1.4773   -0.6111   -1.3595 H   0  0  0  0  0  0  0  0  0  0  0  0
    0.4663    1.3056   -1.5608 C   0  0  0  0  0  0  0  0  0  0  0  0
    0.7101    1.1971   -2.6209 H   0  0  0  0  0  0  0  0  0  0  0  0
   -0.5828    1.6116   -1.4995 H   0  0  0  0  0  0  0  0  0  0  0  0
    1.2933    2.4446   -0.9846 C   0  0  0  0  0  0  0  0  0  0  0  0
    0.6645    3.2692   -0.2754 O   0  5  0  0  0  0  0  0  0  0  0  0
    2.4968    2.5411   -1.3126 O   0  0  0  0  0  0  0  0  0  0  0  0
    1.1066    0.1102    0.6398 C   0  0  0  0  0  0  0  0  0  0  0  0
    2.1543   -0.3777    1.0496 O   0  0  0  0  0  0  0  0  0  0  0  0
    0.1766    0.5710    1.5581 N   0  0  0  0  0  0  0  0  0  0  0  0
   -0.4683    1.2504    1.1624 H   0  0  0  0  0  0  0  0  0  0  0  0
    0.5199    0.7396    2.9625 C   0  0  0  0  0  0  0  0  0  0  0  0
    1.3381    1.4590    3.0711 H   0  0  0  0  0  0  0  0  0  0  0  0
   -0.3465    1.1106    3.5176 H   0  0  0  0  0  0  0  0  0  0  0  0
    0.8265   -0.2154    3.4013 H   0  0  0  0  0  0  0  0  0  0  0  0
  1  2  1  0  0  0  0
  2  3  1  0  0  0  0
  2  4  1  0  0  0  0
  2  5  1  0  0  0  0
  5  6  2  0  0  0  0
  5  7  1  0  0  0  0
  7  8  1  0  0  0  0
  7  9  1  0  0  0  0
  9 10  1  0  0  0  0
  9 11  1  0  0  0  0
  9 17  1  0  0  0  0
 11 12  1  0  0  0  0
 11 13  1  0  0  0  0
 11 14  1  0  0  0  0
 14 15  1  0  0  0  0
 14 16  2  0  0  0  0
 17 18  2  0  0  0  0
 17 19  1  0  0  0  0
 19 20  1  0  0  0  0
 19 21  1  0  0  0  0
 21 22  1  0  0  0  0
 21 23  1  0  0  0  0
 21 24  1  0  0  0  0
M  CHG  1  15  -1
M  END
$$$$

  -OEChem-03222214023D

 24 23  0     1  0  0  0  0  0999 V2000
   -2.4379   -3.4328   -0.1220 H   0  0  0  0  0  0  0  0  0  0  0  0
   -2.3681   -2.4195   -0.5275 C   0  0  0  0  0  0  0  0  0  0  0  0
   -2.9380   -1.7448    0.1160 H   0  0  0  0  0  0  0  0  0  0  0  0
   -2.8015   -2.4098   -1.5306 H   0  0  0  0  0  0  0  0  0  0  0  0
   -0.9165   -1.9775   -0.5855 C   0  0  0  0  0  0  0  0  0  0  0  0
   -0.0387   -2.7706   -0.2942 O   0  0  0  0  0  0  0  0  0  0  0  0
   -0.6231   -0.7036   -1.0226 N   0  0  0  0  0  0  0  0  0  0  0  0
   -1.4179   -0.0968   -1.1827 H   0  0  0  0  0  0  0  0  0  0  0  0
    0.6804   -0.0430   -0.8411 C   0  0  1  0  0  0  0  0  0  0  0  0
    1.4730   -0.6113   -1.3399 H   0  0  0  0  0  0  0  0  0  0  0  0
    0.4748    1.3017   -1.5798 C   0  0  0  0  0  0  0  0  0  0  0  0
    0.7359    1.1724   -2.6335 H   0  0  0  0  0  0  0  0  0  0  0  0
   -0.5743    1.6106   -1.5416 H   0  0  0  0  0  0  0  0  0  0  0  0
    1.2876    2.4530   -1.0090 C   0  0  0  0  0  0  0  0  0  0  0  0
    0.7208    3.1158   -0.1034 O   0  5  0  0  0  0  0  0  0  0  0  0
    2.3963    2.7263   -1.5220 O   0  0  0  0  0  0  0  0  0  0  0  0
    1.0975    0.1207    0.6477 C   0  0  0  0  0  0  0  0  0  0  0  0
    2.1469   -0.3695    1.0519 O   0  0  0  0  0  0  0  0  0  0  0  0
    0.1683    0.5786    1.5672 N   0  0  0  0  0  0  0  0  0  0  0  0
   -0.4196    1.3126    1.1767 H   0  0  0  0  0  0  0  0  0  0  0  0
    0.5124    0.7170    2.9746 C   0  0  0  0  0  0  0  0  0  0  0  0
    1.3312    1.4337    3.0976 H   0  0  0  0  0  0  0  0  0  0  0  0
   -0.3536    1.0765    3.5379 H   0  0  0  0  0  0  0  0  0  0  0  0
    0.8189   -0.2472    3.3930 H   0  0  0  0  0  0  0  0  0  0  0  0
  1  2  1  0  0  0  0
  2  3  1  0  0  0  0
  2  4  1  0  0  0  0
  2  5  1  0  0  0  0
  5  6  2  0  0  0  0
  5  7  1  0  0  0  0
  7  8  1  0  0  0  0
  7  9  1  0  0  0  0
  9 10  1  0  0  0  0
  9 11  1  0  0  0  0
  9 17  1  0  0  0  0
 11 12  1  0  0  0  0
 11 13  1  0  0  0  0
 11 14  1  0  0  0  0
 14 15  1  0  0  0  0
 14 16  2  0  0  0  0
 17 18  2  0  0  0  0
 17 19  1  0  0  0  0
 19 20  1  0  0  0  0
 19 21  1  0  0  0  0
 21 22  1  0  0  0  0
 21 23  1  0  0  0  0
 21 24  1  0  0  0  0
M  CHG  1  15  -1
M  END
$$$$

  -OEChem-03222214023D

 24 23  0     1  0  0  0  0  0999 V2000
   -2.4128   -3.4432   -0.1377 H   0  0  0  0  0  0  0  0  0  0  0  0
   -2.3542   -2.4148   -0.5054 C   0  0  0  0  0  0  0  0  0  0  0  0
   -2.9011   -1.7645    0.1818 H   0  0  0  0  0  0  0  0  0  0  0  0
   -2.8193   -2.3656   -1.4929 H   0  0  0  0  0  0  0  0  0  0  0  0
   -0.9046   -1.9719   -0.5926 C   0  0  0  0  0  0  0  0  0  0  0  0
   -0.0196   -2.7668   -0.3292 O   0  0  0  0  0  0  0  0  0  0  0  0
   -0.6224   -0.6932   -1.0228 N   0  0  0  0  0  0  0  0  0  0  0  0
   -1.4231   -0.0858   -1.1465 H   0  0  0  0  0  0  0  0  0  0  0  0
    0.6763   -0.0272   -0.8304 C   0  0  1  0  0  0  0  0  0  0  0  0
    1.4701   -0.6069   -1.3142 H   0  0  0  0  0  0  0  0  0  0  0  0
    0.4937    1.3020   -1.6072 C   0  0  0  0  0  0  0  0  0  0  0  0
    0.7710    1.1385   -2.6522 H   0  0  0  0  0  0  0  0  0  0  0  0
   -0.5554    1.6113   -1.5948 H   0  0  0  0  0  0  0  0  0  0  0  0
    1.2855    2.4831   -1.0655 C   0  0  0  0  0  0  0  0  0  0  0  0
    0.8405    3.0032   -0.0111 O   0  5  0  0  0  0  0  0  0  0  0  0
    2.2461    2.9222   -1.7384 O   0  0  0  0  0  0  0  0  0  0  0  0
    1.0872    0.1307    0.6607 C   0  0  0  0  0  0  0  0  0  0  0  0
    2.1321   -0.3710    1.0640 O   0  0  0  0  0  0  0  0  0  0  0  0
    0.1535    0.5784    1.5803 N   0  0  0  0  0  0  0  0  0  0  0  0
   -0.3910    1.3510    1.1997 H   0  0  0  0  0  0  0  0  0  0  0  0
    0.4867    0.6763    2.9937 C   0  0  0  0  0  0  0  0  0  0  0  0
    1.3293    1.3599    3.1402 H   0  0  0  0  0  0  0  0  0  0  0  0
   -0.3718    1.0563    3.5547 H   0  0  0  0  0  0  0  0  0  0  0  0
    0.7534   -0.3067    3.3949 H   0  0  0  0  0  0  0  0  0  0  0  0
  1  2  1  0  0  0  0
  2  3  1  0  0  0  0
  2  4  1  0  0  0  0
  2  5  1  0  0  0  0
  5  6  2  0  0  0  0
  5  7  1  0  0  0  0
  7  8  1  0  0  0  0
  7  9  1  0  0  0  0
  9 10  1  0  0  0  0
  9 11  1  0  0  0  0
  9 17  1  0  0  0  0
 11 12  1  0  0  0  0
 11 13  1  0  0  0  0
 11 14  1  0  0  0  0
 14 15  1  0  0  0  0
 14 16  2  0  0  0  0
 17 18  2  0  0  0  0
 17 19  1  0  0  0  0
 19 20  1  0  0  0  0
 19 21  1  0  0  0  0
 21 22  1  0  0  0  0
 21 23  1  0  0  0  0
 21 24  1  0  0  0  0
M  CHG  1  15  -1
M  END
$$$$

  -OEChem-03222214023D

 24 23  0     1  0  0  0  0  0999 V2000
   -2.4131   -3.4393   -0.1425 H   0  0  0  0  0  0  0  0  0  0  0  0
   -2.3545   -2.4118   -0.5126 C   0  0  0  0  0  0  0  0  0  0  0  0
   -2.9105   -1.7618    0.1676 H   0  0  0  0  0  0  0  0  0  0  0  0
   -2.8110   -2.3674   -1.5044 H   0  0  0  0  0  0  0  0  0  0  0  0
   -0.9054   -1.9644   -0.5882 C   0  0  0  0  0  0  0  0  0  0  0  0
   -0.0202   -2.7608   -0.3298 O   0  0  0  0  0  0  0  0  0  0  0  0
   -0.6233   -0.6814   -1.0064 N   0  0  0  0  0  0  0  0  0  0  0  0
   -1.4241   -0.0751   -1.1341 H   0  0  0  0  0  0  0  0  0  0  0  0
    0.6753   -0.0149   -0.8112 C   0  0  1  0  0  0  0  0  0  0  0  0
    1.4658   -0.6051   -1.2877 H   0  0  0  0  0  0  0  0  0  0  0  0
    0.5117    1.3035   -1.6173 C   0  0  0  0  0  0  0  0  0  0  0  0
    0.7904    1.1083   -2.6567 H   0  0  0  0  0  0  0  0  0  0  0  0
   -0.5372    1.6128   -1.6156 H   0  0  0  0  0  0  0  0  0  0  0  0
    1.2863    2.5198   -1.1222 C   0  0  0  0  0  0  0  0  0  0  0  0
    1.0349    2.9224    0.0402 O   0  5  0  0  0  0  0  0  0  0  0  0
    2.0349    3.1058   -1.9386 O   0  0  0  0  0  0  0  0  0  0  0  0
    1.0852    0.1277    0.6818 C   0  0  0  0  0  0  0  0  0  0  0  0
    2.1275   -0.3843    1.0805 O   0  0  0  0  0  0  0  0  0  0  0  0
    0.1500    0.5636    1.6058 N   0  0  0  0  0  0  0  0  0  0  0  0
   -0.3941    1.3385    1.2329 H   0  0  0  0  0  0  0  0  0  0  0  0
    0.4819    0.6481    3.0203 C   0  0  0  0  0  0  0  0  0  0  0  0
    1.3068    1.3510    3.1764 H   0  0  0  0  0  0  0  0  0  0  0  0
   -0.3861    0.9962    3.5876 H   0  0  0  0  0  0  0  0  0  0  0  0
    0.7742   -0.3335    3.4068 H   0  0  0  0  0  0  0  0  0  0  0  0
  1  2  1  0  0  0  0
  2  3  1  0  0  0  0
  2  4  1  0  0  0  0
  2  5  1  0  0  0  0
  5  6  2  0  0  0  0
  5  7  1  0  0  0  0
  7  8  1  0  0  0  0
  7  9  1  0  0  0  0
  9 10  1  0  0  0  0
  9 11  1  0  0  0  0
  9 17  1  0  0  0  0
 11 12  1  0  0  0  0
 11 13  1  0  0  0  0
 11 14  1  0  0  0  0
 14 15  1  0  0  0  0
 14 16  2  0  0  0  0
 17 18  2  0  0  0  0
 17 19  1  0  0  0  0
 19 20  1  0  0  0  0
 19 21  1  0  0  0  0
 21 22  1  0  0  0  0
 21 23  1  0  0  0  0
 21 24  1  0  0  0  0
M  CHG  1  15  -1
M  END
$$$$

  -OEChem-03222214023D

 24 23  0     1  0  0  0  0  0999 V2000
   -2.4129   -3.4433   -0.1812 H   0  0  0  0  0  0  0  0  0  0  0  0
   -2.3530   -2.4054   -0.5208 C   0  0  0  0  0  0  0  0  0  0  0  0
   -2.9080   -1.7749    0.1782 H   0  0  0  0  0  0  0  0  0  0  0  0
   -2.8091   -2.3316   -1.5110 H   0  0  0  0  0  0  0  0  0  0  0  0
   -0.9033   -1.9575   -0.5827 C   0  0  0  0  0  0  0  0  0  0  0  0
   -0.0204   -2.7554   -0.3219 O   0  0  0  0  0  0  0  0  0  0  0  0
   -0.6185   -0.6720   -0.9917 N   0  0  0  0  0  0  0  0  0  0  0  0
   -1.4181   -0.0665   -1.1305 H   0  0  0  0  0  0  0  0  0  0  0  0
    0.6818   -0.0074   -0.7967 C   0  0  1  0  0  0  0  0  0  0  0  0
    1.4711   -0.6021   -1.2695 H   0  0  0  0  0  0  0  0  0  0  0  0
    0.5246    1.3061   -1.6182 C   0  0  0  0  0  0  0  0  0  0  0  0
    0.8013    1.0891   -2.6540 H   0  0  0  0  0  0  0  0  0  0  0  0
   -0.5253    1.6107   -1.6197 H   0  0  0  0  0  0  0  0  0  0  0  0
    1.2838    2.5531   -1.1681 C   0  0  0  0  0  0  0  0  0  0  0  0
    1.2782    2.8535    0.0490 O   0  5  0  0  0  0  0  0  0  0  0  0
    1.7722    3.2668   -2.0757 O   0  0  0  0  0  0  0  0  0  0  0  0
    1.0867    0.1190    0.6994 C   0  0  0  0  0  0  0  0  0  0  0  0
    2.1225   -0.4069    1.0979 O   0  0  0  0  0  0  0  0  0  0  0  0
    0.1485    0.5459    1.6255 N   0  0  0  0  0  0  0  0  0  0  0  0
   -0.4233    1.3000    1.2559 H   0  0  0  0  0  0  0  0  0  0  0  0
    0.4787    0.6276    3.0406 C   0  0  0  0  0  0  0  0  0  0  0  0
    1.3172    1.3142    3.1970 H   0  0  0  0  0  0  0  0  0  0  0  0
   -0.3830    0.9948    3.6054 H   0  0  0  0  0  0  0  0  0  0  0  0
    0.7502   -0.3590    3.4297 H   0  0  0  0  0  0  0  0  0  0  0  0
  1  2  1  0  0  0  0
  2  3  1  0  0  0  0
  2  4  1  0  0  0  0
  2  5  1  0  0  0  0
  5  6  2  0  0  0  0
  5  7  1  0  0  0  0
  7  8  1  0  0  0  0
  7  9  1  0  0  0  0
  9 10  1  0  0  0  0
  9 11  1  0  0  0  0
  9 17  1  0  0  0  0
 11 12  1  0  0  0  0
 11 13  1  0  0  0  0
 11 14  1  0  0  0  0
 14 15  1  0  0  0  0
 14 16  2  0  0  0  0
 17 18  2  0  0  0  0
 17 19  1  0  0  0  0
 19 20  1  0  0  0  0
 19 21  1  0  0  0  0
 21 22  1  0  0  0  0
 21 23  1  0  0  0  0
 21 24  1  0  0  0  0
M  CHG  1  15  -1
M  END
$$$$

  -OEChem-03222214023D

 24 23  0     1  0  0  0  0  0999 V2000
   -2.4430   -3.4248   -0.1839 H   0  0  0  0  0  0  0  0  0  0  0  0
   -2.3669   -2.3985   -0.5540 C   0  0  0  0  0  0  0  0  0  0  0  0
   -2.9484   -1.7457    0.1014 H   0  0  0  0  0  0  0  0  0  0  0  0
   -2.7826   -2.3560   -1.5636 H   0  0  0  0  0  0  0  0  0  0  0  0
   -0.9149   -1.9542   -0.5715 C   0  0  0  0  0  0  0  0  0  0  0  0
   -0.0430   -2.7548   -0.2842 O   0  0  0  0  0  0  0  0  0  0  0  0
   -0.6144   -0.6702   -0.9738 N   0  0  0  0  0  0  0  0  0  0  0  0
   -1.4047   -0.0657   -1.1606 H   0  0  0  0  0  0  0  0  0  0  0  0
    0.6917   -0.0138   -0.7844 C   0  0  1  0  0  0  0  0  0  0  0  0
    1.4772   -0.6072   -1.2647 H   0  0  0  0  0  0  0  0  0  0  0  0
    0.5260    1.3057   -1.5984 C   0  0  0  0  0  0  0  0  0  0  0  0
    0.7904    1.0867   -2.6369 H   0  0  0  0  0  0  0  0  0  0  0  0
   -0.5254    1.6054   -1.5865 H   0  0  0  0  0  0  0  0  0  0  0  0
    1.2780    2.5703   -1.1791 C   0  0  0  0  0  0  0  0  0  0  0  0
    1.5530    2.7689    0.0256 O   0  5  0  0  0  0  0  0  0  0  0  0
    1.4724    3.4030   -2.0964 O   0  0  0  0  0  0  0  0  0  0  0  0
    1.0971    0.0998    0.7126 C   0  0  0  0  0  0  0  0  0  0  0  0
    2.1271   -0.4390    1.1100 O   0  0  0  0  0  0  0  0  0  0  0  0
    0.1613    0.5263    1.6420 N   0  0  0  0  0  0  0  0  0  0  0  0
   -0.4559    1.2399    1.2695 H   0  0  0  0  0  0  0  0  0  0  0  0
    0.5016    0.6339    3.0529 C   0  0  0  0  0  0  0  0  0  0  0  0
    1.3292    1.3374    3.1922 H   0  0  0  0  0  0  0  0  0  0  0  0
   -0.3616    0.9934    3.6202 H   0  0  0  0  0  0  0  0  0  0  0  0
    0.7945   -0.3419    3.4535 H   0  0  0  0  0  0  0  0  0  0  0  0
  1  2  1  0  0  0  0
  2  3  1  0  0  0  0
  2  4  1  0  0  0  0
  2  5  1  0  0  0  0
  5  6  2  0  0  0  0
  5  7  1  0  0  0  0
  7  8  1  0  0  0  0
  7  9  1  0  0  0  0
  9 10  1  0  0  0  0
  9 11  1  0  0  0  0
  9 17  1  0  0  0  0
 11 12  1  0  0  0  0
 11 13  1  0  0  0  0
 11 14  1  0  0  0  0
 14 15  1  0  0  0  0
 14 16  2  0  0  0  0
 17 18  2  0  0  0  0
 17 19  1  0  0  0  0
 19 20  1  0  0  0  0
 19 21  1  0  0  0  0
 21 22  1  0  0  0  0
 21 23  1  0  0  0  0
 21 24  1  0  0  0  0
M  CHG  1  15  -1
M  END
$$$$

  -OEChem-03222214023D

 24 23  0     1  0  0  0  0  0999 V2000
   -2.4546   -3.4120   -0.1814 H   0  0  0  0  0  0  0  0  0  0  0  0
   -2.3702   -2.3860   -0.5508 C   0  0  0  0  0  0  0  0  0  0  0  0
   -2.9490   -1.7290    0.1031 H   0  0  0  0  0  0  0  0  0  0  0  0
   -2.7824   -2.3400   -1.5618 H   0  0  0  0  0  0  0  0  0  0  0  0
   -0.9150   -1.9517   -0.5638 C   0  0  0  0  0  0  0  0  0  0  0  0
   -0.0500   -2.7565   -0.2684 O   0  0  0  0  0  0  0  0  0  0  0  0
   -0.6049   -0.6709   -0.9694 N   0  0  0  0  0  0  0  0  0  0  0  0
   -1.3892   -0.0663   -1.1803 H   0  0  0  0  0  0  0  0  0  0  0  0
    0.7065   -0.0209   -0.7895 C   0  0  1  0  0  0  0  0  0  0  0  0
    1.4906   -0.6101   -1.2771 H   0  0  0  0  0  0  0  0  0  0  0  0
    0.5259    1.3072   -1.5873 C   0  0  0  0  0  0  0  0  0  0  0  0
    0.7754    1.0982   -2.6314 H   0  0  0  0  0  0  0  0  0  0  0  0
   -0.5266    1.6024   -1.5562 H   0  0  0  0  0  0  0  0  0  0  0  0
    1.2778    2.5764   -1.1798 C   0  0  0  0  0  0  0  0  0  0  0  0
    1.8272    2.6725   -0.0611 O   0  5  0  0  0  0  0  0  0  0  0  0
    1.1985    3.5127   -2.0107 O   0  0  0  0  0  0  0  0  0  0  0  0
    1.1078    0.0871    0.7094 C   0  0  0  0  0  0  0  0  0  0  0  0
    2.1264   -0.4669    1.1149 O   0  0  0  0  0  0  0  0  0  0  0  0
    0.1694    0.5179    1.6350 N   0  0  0  0  0  0  0  0  0  0  0  0
   -0.4832    1.1952    1.2575 H   0  0  0  0  0  0  0  0  0  0  0  0
    0.5013    0.6359    3.0472 C   0  0  0  0  0  0  0  0  0  0  0  0
    1.3273    1.3414    3.1865 H   0  0  0  0  0  0  0  0  0  0  0  0
   -0.3657    0.9981    3.6069 H   0  0  0  0  0  0  0  0  0  0  0  0
    0.7931   -0.3368    3.4564 H   0  0  0  0  0  0  0  0  0  0  0  0
  1  2  1  0  0  0  0
  2  3  1  0  0  0  0
  2  4  1  0  0  0  0
  2  5  1  0  0  0  0
  5  6  2  0  0  0  0
  5  7  1  0  0  0  0
  7  8  1  0  0  0  0
  7  9  1  0  0  0  0
  9 10  1  0  0  0  0
  9 11  1  0  0  0  0
  9 17  1  0  0  0  0
 11 12  1  0  0  0  0
 11 13  1  0  0  0  0
 11 14  1  0  0  0  0
 14 15  1  0  0  0  0
 14 16  2  0  0  0  0
 17 18  2  0  0  0  0
 17 19  1  0  0  0  0
 19 20  1  0  0  0  0
 19 21  1  0  0  0  0
 21 22  1  0  0  0  0
 21 23  1  0  0  0  0
 21 24  1  0  0  0  0
M  CHG  1  15  -1
M  END
$$$$

  -OEChem-03222214023D

 24 23  0     1  0  0  0  0  0999 V2000
   -2.4599   -3.4029   -0.1669 H   0  0  0  0  0  0  0  0  0  0  0  0
   -2.3712   -2.3787   -0.5402 C   0  0  0  0  0  0  0  0  0  0  0  0
   -2.9458   -1.7167    0.1122 H   0  0  0  0  0  0  0  0  0  0  0  0
   -2.7852   -2.3347   -1.5504 H   0  0  0  0  0  0  0  0  0  0  0  0
   -0.9138   -1.9520   -0.5576 C   0  0  0  0  0  0  0  0  0  0  0  0
   -0.0527   -2.7608   -0.2622 O   0  0  0  0  0  0  0  0  0  0  0  0
   -0.5973   -0.6756   -0.9721 N   0  0  0  0  0  0  0  0  0  0  0  0
   -1.3784   -0.0691   -1.1890 H   0  0  0  0  0  0  0  0  0  0  0  0
    0.7182   -0.0307   -0.8024 C   0  0  1  0  0  0  0  0  0  0  0  0
    1.5022   -0.6127   -1.2984 H   0  0  0  0  0  0  0  0  0  0  0  0
    0.5186    1.3075   -1.5777 C   0  0  0  0  0  0  0  0  0  0  0  0
    0.7558    1.1173   -2.6277 H   0  0  0  0  0  0  0  0  0  0  0  0
   -0.5350    1.5983   -1.5281 H   0  0  0  0  0  0  0  0  0  0  0  0
    1.2782    2.5690   -1.1617 C   0  0  0  0  0  0  0  0  0  0  0  0
    2.0732    2.5634   -0.1980 O   0  5  0  0  0  0  0  0  0  0  0  0
    0.9624    3.5943   -1.8118 O   0  0  0  0  0  0  0  0  0  0  0  0
    1.1185    0.0810    0.6966 C   0  0  0  0  0  0  0  0  0  0  0  0
    2.1236   -0.4885    1.1134 O   0  0  0  0  0  0  0  0  0  0  0  0
    0.1778    0.5212    1.6159 N   0  0  0  0  0  0  0  0  0  0  0  0
   -0.4943    1.1750    1.2320 H   0  0  0  0  0  0  0  0  0  0  0  0
    0.4995    0.6474    3.0296 C   0  0  0  0  0  0  0  0  0  0  0  0
    1.3324    1.3441    3.1695 H   0  0  0  0  0  0  0  0  0  0  0  0
   -0.3674    1.0250    3.5793 H   0  0  0  0  0  0  0  0  0  0  0  0
    0.7762   -0.3251    3.4493 H   0  0  0  0  0  0  0  0  0  0  0  0
  1  2  1  0  0  0  0
  2  3  1  0  0  0  0
  2  4  1  0  0  0  0
  2  5  1  0  0  0  0
  5  6  2  0  0  0  0
  5  7  1  0  0  0  0
  7  8  1  0  0  0  0
  7  9  1  0  0  0  0
  9 10  1  0  0  0  0
  9 11  1  0  0  0  0
  9 17  1  0  0  0  0
 11 12  1  0  0  0  0
 11 13  1  0  0  0  0
 11 14  1  0  0  0  0
 14 15  1  0  0  0  0
 14 16  2  0  0  0  0
 17 18  2  0  0  0  0
 17 19  1  0  0  0  0
 19 20  1  0  0  0  0
 19 21  1  0  0  0  0
 21 22  1  0  0  0  0
 21 23  1  0  0  0  0
 21 24  1  0  0  0  0
M  CHG  1  15  -1
M  END
$$$$

  -OEChem-03222214023D

 24 23  0     1  0  0  0  0  0999 V2000
   -2.4635   -3.3946   -0.1372 H   0  0  0  0  0  0  0  0  0  0  0  0
   -2.3715   -2.3786   -0.5314 C   0  0  0  0  0  0  0  0  0  0  0  0
   -2.9494   -1.7026    0.1034 H   0  0  0  0  0  0  0  0  0  0  0  0
   -2.7791   -2.3552   -1.5450 H   0  0  0  0  0  0  0  0  0  0  0  0
   -0.9137   -1.9536   -0.5493 C   0  0  0  0  0  0  0  0  0  0  0  0
   -0.0546   -2.7607   -0.2438 O   0  0  0  0  0  0  0  0  0  0  0  0
   -0.5960   -0.6813   -0.9752 N   0  0  0  0  0  0  0  0  0  0  0  0
   -1.3762   -0.0774   -1.2032 H   0  0  0  0  0  0  0  0  0  0  0  0
    0.7214   -0.0363   -0.8185 C   0  0  1  0  0  0  0  0  0  0  0  0
    1.5049   -0.6114   -1.3232 H   0  0  0  0  0  0  0  0  0  0  0  0
    0.5043    1.3095   -1.5722 C   0  0  0  0  0  0  0  0  0  0  0  0
    0.7316    1.1398   -2.6277 H   0  0  0  0  0  0  0  0  0  0  0  0
   -0.5497    1.5970   -1.5061 H   0  0  0  0  0  0  0  0  0  0  0  0
    1.2804    2.5521   -1.1334 C   0  0  0  0  0  0  0  0  0  0  0  0
    2.2748    2.4587   -0.3832 O   0  5  0  0  0  0  0  0  0  0  0  0
    0.7925    3.6369   -1.5332 O   0  0  0  0  0  0  0  0  0  0  0  0
    1.1274    0.0851    0.6785 C   0  0  0  0  0  0  0  0  0  0  0  0
    2.1294   -0.4842    1.1018 O   0  0  0  0  0  0  0  0  0  0  0  0
    0.1881    0.5332    1.5956 N   0  0  0  0  0  0  0  0  0  0  0  0
   -0.5055    1.1625    1.2087 H   0  0  0  0  0  0  0  0  0  0  0  0
    0.5011    0.6626    3.0108 C   0  0  0  0  0  0  0  0  0  0  0  0
    1.3288    1.3648    3.1546 H   0  0  0  0  0  0  0  0  0  0  0  0
   -0.3712    1.0346    3.5555 H   0  0  0  0  0  0  0  0  0  0  0  0
    0.7820   -0.3079    3.4323 H   0  0  0  0  0  0  0  0  0  0  0  0
  1  2  1  0  0  0  0
  2  3  1  0  0  0  0
  2  4  1  0  0  0  0
  2  5  1  0  0  0  0
  5  6  2  0  0  0  0
  5  7  1  0  0  0  0
  7  8  1  0  0  0  0
  7  9  1  0  0  0  0
  9 10  1  0  0  0  0
  9 11  1  0  0  0  0
  9 17  1  0  0  0  0
 11 12  1  0  0  0  0
 11 13  1  0  0  0  0
 11 14  1  0  0  0  0
 14 15  1  0  0  0  0
 14 16  2  0  0  0  0
 17 18  2  0  0  0  0
 17 19  1  0  0  0  0
 19 20  1  0  0  0  0
 19 21  1  0  0  0  0
 21 22  1  0  0  0  0
 21 23  1  0  0  0  0
 21 24  1  0  0  0  0
M  CHG  1  15  -1
M  END
$$$$

  -OEChem-03222214023D

 24 23  0     1  0  0  0  0  0999 V2000
   -2.4533   -3.4044   -0.1302 H   0  0  0  0  0  0  0  0  0  0  0  0
   -2.3658   -2.3853   -0.5176 C   0  0  0  0  0  0  0  0  0  0  0  0
   -2.9352   -1.7142    0.1301 H   0  0  0  0  0  0  0  0  0  0  0  0
   -2.7866   -2.3536   -1.5255 H   0  0  0  0  0  0  0  0  0  0  0  0
   -0.9084   -1.9601   -0.5506 C   0  0  0  0  0  0  0  0  0  0  0  0
   -0.0461   -2.7647   -0.2472 O   0  0  0  0  0  0  0  0  0  0  0  0
   -0.5956   -0.6904   -0.9878 N   0  0  0  0  0  0  0  0  0  0  0  0
   -1.3791   -0.0873   -1.2061 H   0  0  0  0  0  0  0  0  0  0  0  0
    0.7202   -0.0413   -0.8372 C   0  0  1  0  0  0  0  0  0  0  0  0
    1.5061   -0.6082   -1.3475 H   0  0  0  0  0  0  0  0  0  0  0  0
    0.4882    1.3108   -1.5700 C   0  0  0  0  0  0  0  0  0  0  0  0
    0.7135    1.1642   -2.6291 H   0  0  0  0  0  0  0  0  0  0  0  0
   -0.5659    1.5968   -1.4965 H   0  0  0  0  0  0  0  0  0  0  0  0
    1.2816    2.5262   -1.0938 C   0  0  0  0  0  0  0  0  0  0  0  0
    2.4184    2.3778   -0.5967 O   0  5  0  0  0  0  0  0  0  0  0  0
    0.6791    3.6238   -1.1827 O   0  0  0  0  0  0  0  0  0  0  0  0
    1.1310    0.0958    0.6572 C   0  0  0  0  0  0  0  0  0  0  0  0
    2.1326   -0.4678    1.0878 O   0  0  0  0  0  0  0  0  0  0  0  0
    0.1912    0.5514    1.5701 N   0  0  0  0  0  0  0  0  0  0  0  0
   -0.5053    1.1756    1.1786 H   0  0  0  0  0  0  0  0  0  0  0  0
    0.4969    0.6844    2.9867 C   0  0  0  0  0  0  0  0  0  0  0  0
    1.3358    1.3728    3.1326 H   0  0  0  0  0  0  0  0  0  0  0  0
   -0.3726    1.0756    3.5226 H   0  0  0  0  0  0  0  0  0  0  0  0
    0.7571   -0.2885    3.4160 H   0  0  0  0  0  0  0  0  0  0  0  0
  1  2  1  0  0  0  0
  2  3  1  0  0  0  0
  2  4  1  0  0  0  0
  2  5  1  0  0  0  0
  5  6  2  0  0  0  0
  5  7  1  0  0  0  0
  7  8  1  0  0  0  0
  7  9  1  0  0  0  0
  9 10  1  0  0  0  0
  9 11  1  0  0  0  0
  9 17  1  0  0  0  0
 11 12  1  0  0  0  0
 11 13  1  0  0  0  0
 11 14  1  0  0  0  0
 14 15  1  0  0  0  0
 14 16  2  0  0  0  0
 17 18  2  0  0  0  0
 17 19  1  0  0  0  0
 19 20  1  0  0  0  0
 19 21  1  0  0  0  0
 21 22  1  0  0  0  0
 21 23  1  0  0  0  0
 21 24  1  0  0  0  0
M  CHG  1  15  -1
M  END
$$$$

  -OEChem-03222214023D

 24 23  0     1  0  0  0  0  0999 V2000
   -2.4450   -3.4146   -0.1208 H   0  0  0  0  0  0  0  0  0  0  0  0
   -2.3641   -2.3982   -0.5164 C   0  0  0  0  0  0  0  0  0  0  0  0
   -2.9317   -1.7244    0.1300 H   0  0  0  0  0  0  0  0  0  0  0  0
   -2.7914   -2.3761   -1.5219 H   0  0  0  0  0  0  0  0  0  0  0  0
   -0.9085   -1.9679   -0.5620 C   0  0  0  0  0  0  0  0  0  0  0  0
   -0.0410   -2.7681   -0.2618 O   0  0  0  0  0  0  0  0  0  0  0  0
   -0.6025   -0.6985   -1.0045 N   0  0  0  0  0  0  0  0  0  0  0  0
   -1.3900   -0.0954   -1.2081 H   0  0  0  0  0  0  0  0  0  0  0  0
    0.7099   -0.0446   -0.8502 C   0  0  1  0  0  0  0  0  0  0  0  0
    1.4991   -0.6041   -1.3636 H   0  0  0  0  0  0  0  0  0  0  0  0
    0.4729    1.3116   -1.5668 C   0  0  0  0  0  0  0  0  0  0  0  0
    0.7056    1.1866   -2.6271 H   0  0  0  0  0  0  0  0  0  0  0  0
   -0.5807    1.5997   -1.4958 H   0  0  0  0  0  0  0  0  0  0  0  0
    1.2821    2.4943   -1.0455 C   0  0  0  0  0  0  0  0  0  0  0  0
    2.5017    2.3471   -0.8143 O   0  5  0  0  0  0  0  0  0  0  0  0
    0.6265    3.5381   -0.8078 O   0  0  0  0  0  0  0  0  0  0  0  0
    1.1253    0.1059    0.6413 C   0  0  0  0  0  0  0  0  0  0  0  0
    2.1356   -0.4414    1.0713 O   0  0  0  0  0  0  0  0  0  0  0  0
    0.1874    0.5654    1.5538 N   0  0  0  0  0  0  0  0  0  0  0  0
   -0.4980    1.2014    1.1592 H   0  0  0  0  0  0  0  0  0  0  0  0
    0.5025    0.7127    2.9671 C   0  0  0  0  0  0  0  0  0  0  0  0
    1.3386    1.4070    3.1013 H   0  0  0  0  0  0  0  0  0  0  0  0
   -0.3655    1.1035    3.5057 H   0  0  0  0  0  0  0  0  0  0  0  0
    0.7715   -0.2546    3.4035 H   0  0  0  0  0  0  0  0  0  0  0  0
  1  2  1  0  0  0  0
  2  3  1  0  0  0  0
  2  4  1  0  0  0  0
  2  5  1  0  0  0  0
  5  6  2  0  0  0  0
  5  7  1  0  0  0  0
  7  8  1  0  0  0  0
  7  9  1  0  0  0  0
  9 10  1  0  0  0  0
  9 11  1  0  0  0  0
  9 17  1  0  0  0  0
 11 12  1  0  0  0  0
 11 13  1  0  0  0  0
 11 14  1  0  0  0  0
 14 15  1  0  0  0  0
 14 16  2  0  0  0  0
 17 18  2  0  0  0  0
 17 19  1  0  0  0  0
 19 20  1  0  0  0  0
 19 21  1  0  0  0  0
 21 22  1  0  0  0  0
 21 23  1  0  0  0  0
 21 24  1  0  0  0  0
M  CHG  1  15  -1
M  END
$$$$

  -OEChem-03222214023D

 24 23  0     1  0  0  0  0  0999 V2000
   -2.4334   -3.4225   -0.1148 H   0  0  0  0  0  0  0  0  0  0  0  0
   -2.3601   -2.4043   -0.5076 C   0  0  0  0  0  0  0  0  0  0  0  0
   -2.9158   -1.7329    0.1517 H   0  0  0  0  0  0  0  0  0  0  0  0
   -2.8061   -2.3777   -1.5048 H   0  0  0  0  0  0  0  0  0  0  0  0
   -0.9056   -1.9740   -0.5780 C   0  0  0  0  0  0  0  0  0  0  0  0
   -0.0325   -2.7747   -0.2950 O   0  0  0  0  0  0  0  0  0  0  0  0
   -0.6069   -0.7039   -1.0229 N   0  0  0  0  0  0  0  0  0  0  0  0
   -1.3992   -0.0966   -1.1924 H   0  0  0  0  0  0  0  0  0  0  0  0
    0.7020   -0.0465   -0.8596 C   0  0  1  0  0  0  0  0  0  0  0  0
    1.4948   -0.6021   -1.3721 H   0  0  0  0  0  0  0  0  0  0  0  0
    0.4653    1.3108   -1.5689 C   0  0  0  0  0  0  0  0  0  0  0  0
    0.7068    1.1997   -2.6288 H   0  0  0  0  0  0  0  0  0  0  0  0
   -0.5872    1.6043   -1.5038 H   0  0  0  0  0  0  0  0  0  0  0  0
    1.2825    2.4678   -1.0114 C   0  0  0  0  0  0  0  0  0  0  0  0
    2.5305    2.3948   -1.0368 O   0  5  0  0  0  0  0  0  0  0  0  0
    0.6224    3.3899   -0.4720 O   0  0  0  0  0  0  0  0  0  0  0  0
    1.1171    0.1135    0.6307 C   0  0  0  0  0  0  0  0  0  0  0  0
    2.1369   -0.4169    1.0587 O   0  0  0  0  0  0  0  0  0  0  0  0
    0.1780    0.5756    1.5399 N   0  0  0  0  0  0  0  0  0  0  0  0
   -0.4723    1.2469    1.1412 H   0  0  0  0  0  0  0  0  0  0  0  0
    0.4969    0.7270    2.9519 C   0  0  0  0  0  0  0  0  0  0  0  0
    1.3185    1.4389    3.0826 H   0  0  0  0  0  0  0  0  0  0  0  0
   -0.3766    1.0990    3.4950 H   0  0  0  0  0  0  0  0  0  0  0  0
    0.7884   -0.2349    3.3862 H   0  0  0  0  0  0  0  0  0  0  0  0
  1  2  1  0  0  0  0
  2  3  1  0  0  0  0
  2  4  1  0  0  0  0
  2  5  1  0  0  0  0
  5  6  2  0  0  0  0
  5  7  1  0  0  0  0
  7  8  1  0  0  0  0
  7  9  1  0  0  0  0
  9 10  1  0  0  0  0
  9 11  1  0  0  0  0
  9 17  1  0  0  0  0
 11 12  1  0  0  0  0
 11 13  1  0  0  0  0
 11 14  1  0  0  0  0
 14 15  1  0  0  0  0
 14 16  2  0  0  0  0
 17 18  2  0  0  0  0
 17 19  1  0  0  0  0
 19 20  1  0  0  0  0
 19 21  1  0  0  0  0
 21 22  1  0  0  0  0
 21 23  1  0  0  0  0
 21 24  1  0  0  0  0
M  CHG  1  15  -1
M  END
$$$$

  -OEChem-03222214023D

 24 23  0     1  0  0  0  0  0999 V2000
   -2.4215   -3.4344   -0.1233 H   0  0  0  0  0  0  0  0  0  0  0  0
   -2.3552   -2.4101   -0.5010 C   0  0  0  0  0  0  0  0  0  0  0  0
   -2.9024   -1.7500    0.1766 H   0  0  0  0  0  0  0  0  0  0  0  0
   -2.8150   -2.3687   -1.4914 H   0  0  0  0  0  0  0  0  0  0  0  0
   -0.9025   -1.9760   -0.5846 C   0  0  0  0  0  0  0  0  0  0  0  0
   -0.0243   -2.7729   -0.3056 O   0  0  0  0  0  0  0  0  0  0  0  0
   -0.6111   -0.7049   -1.0315 N   0  0  0  0  0  0  0  0  0  0  0  0
   -1.4074   -0.0976   -1.1817 H   0  0  0  0  0  0  0  0  0  0  0  0
    0.6937   -0.0430   -0.8594 C   0  0  1  0  0  0  0  0  0  0  0  0
    1.4889   -0.6005   -1.3662 H   0  0  0  0  0  0  0  0  0  0  0  0
    0.4627    1.3087   -1.5781 C   0  0  0  0  0  0  0  0  0  0  0  0
    0.7153    1.1956   -2.6357 H   0  0  0  0  0  0  0  0  0  0  0  0
   -0.5892    1.6063   -1.5253 H   0  0  0  0  0  0  0  0  0  0  0  0
    1.2775    2.4573   -1.0053 C   0  0  0  0  0  0  0  0  0  0  0  0
    2.5008    2.5197   -1.2580 O   0  5  0  0  0  0  0  0  0  0  0  0
    0.6505    3.2383   -0.2464 O   0  0  0  0  0  0  0  0  0  0  0  0
    1.1083    0.1264    0.6298 C   0  0  0  0  0  0  0  0  0  0  0  0
    2.1346   -0.3956    1.0525 O   0  0  0  0  0  0  0  0  0  0  0  0
    0.1706    0.5897    1.5388 N   0  0  0  0  0  0  0  0  0  0  0  0
   -0.4274    1.3125    1.1439 H   0  0  0  0  0  0  0  0  0  0  0  0
    0.4904    0.7182    2.9529 C   0  0  0  0  0  0  0  0  0  0  0  0
    1.3232    1.4150    3.0936 H   0  0  0  0  0  0  0  0  0  0  0  0
   -0.3779    1.0969    3.4999 H   0  0  0  0  0  0  0  0  0  0  0  0
    0.7657   -0.2537    3.3753 H   0  0  0  0  0  0  0  0  0  0  0  0
  1  2  1  0  0  0  0
  2  3  1  0  0  0  0
  2  4  1  0  0  0  0
  2  5  1  0  0  0  0
  5  6  2  0  0  0  0
  5  7  1  0  0  0  0
  7  8  1  0  0  0  0
  7  9  1  0  0  0  0
  9 10  1  0  0  0  0
  9 11  1  0  0  0  0
  9 17  1  0  0  0  0
 11 12  1  0  0  0  0
 11 13  1  0  0  0  0
 11 14  1  0  0  0  0
 14 15  1  0  0  0  0
 14 16  2  0  0  0  0
 17 18  2  0  0  0  0
 17 19  1  0  0  0  0
 19 20  1  0  0  0  0
 19 21  1  0  0  0  0
 21 22  1  0  0  0  0
 21 23  1  0  0  0  0
 21 24  1  0  0  0  0
M  CHG  1  15  -1
M  END
$$$$

  -OEChem-03222214023D

 24 23  0     1  0  0  0  0  0999 V2000
   -2.4325   -3.4334   -0.1195 H   0  0  0  0  0  0  0  0  0  0  0  0
   -2.3642   -2.4205   -0.5263 C   0  0  0  0  0  0  0  0  0  0  0  0
   -2.9348   -1.7457    0.1164 H   0  0  0  0  0  0  0  0  0  0  0  0
   -2.7976   -2.4123   -1.5294 H   0  0  0  0  0  0  0  0  0  0  0  0
   -0.9132   -1.9768   -0.5861 C   0  0  0  0  0  0  0  0  0  0  0  0
   -0.0339   -2.7700   -0.3004 O   0  0  0  0  0  0  0  0  0  0  0  0
   -0.6225   -0.7026   -1.0237 N   0  0  0  0  0  0  0  0  0  0  0  0
   -1.4189   -0.0958   -1.1750 H   0  0  0  0  0  0  0  0  0  0  0  0
    0.6803   -0.0403   -0.8437 C   0  0  1  0  0  0  0  0  0  0  0  0
    1.4735   -0.6049   -1.3457 H   0  0  0  0  0  0  0  0  0  0  0  0
    0.4659    1.3052   -1.5788 C   0  0  0  0  0  0  0  0  0  0  0  0
    0.7275    1.1789   -2.6329 H   0  0  0  0  0  0  0  0  0  0  0  0
   -0.5843    1.6103   -1.5397 H   0  0  0  0  0  0  0  0  0  0  0  0
    1.2764    2.4573   -1.0075 C   0  0  0  0  0  0  0  0  0  0  0  0
    2.4222    2.6789   -1.4593 O   0  5  0  0  0  0  0  0  0  0  0  0
    0.7028    3.1292   -0.1131 O   0  0  0  0  0  0  0  0  0  0  0  0
    1.0997    0.1245    0.6447 C   0  0  0  0  0  0  0  0  0  0  0  0
    2.1435   -0.3758    1.0509 O   0  0  0  0  0  0  0  0  0  0  0  0
    0.1703    0.5819    1.5644 N   0  0  0  0  0  0  0  0  0  0  0  0
   -0.4135    1.3200    1.1753 H   0  0  0  0  0  0  0  0  0  0  0  0
    0.5123    0.7144    2.9732 C   0  0  0  0  0  0  0  0  0  0  0  0
    1.3400    1.4200    3.0994 H   0  0  0  0  0  0  0  0  0  0  0  0
   -0.3503    1.0850    3.5344 H   0  0  0  0  0  0  0  0  0  0  0  0
    0.8049   -0.2540    3.3916 H   0  0  0  0  0  0  0  0  0  0  0  0
  1  2  1  0  0  0  0
  2  3  1  0  0  0  0
  2  4  1  0  0  0  0
  2  5  1  0  0  0  0
  5  6  2  0  0  0  0
  5  7  1  0  0  0  0
  7  8  1  0  0  0  0
  7  9  1  0  0  0  0
  9 10  1  0  0  0  0
  9 11  1  0  0  0  0
  9 17  1  0  0  0  0
 11 12  1  0  0  0  0
 11 13  1  0  0  0  0
 11 14  1  0  0  0  0
 14 15  1  0  0  0  0
 14 16  2  0  0  0  0
 17 18  2  0  0  0  0
 17 19  1  0  0  0  0
 19 20  1  0  0  0  0
 19 21  1  0  0  0  0
 21 22  1  0  0  0  0
 21 23  1  0  0  0  0
 21 24  1  0  0  0  0
M  CHG  1  15  -1
M  END
$$$$

  -OEChem-03222214023D

 24 23  0     1  0  0  0  0  0999 V2000
   -2.4238   -3.4413   -0.1349 H   0  0  0  0  0  0  0  0  0  0  0  0
   -2.3616   -2.4180   -0.5158 C   0  0  0  0  0  0  0  0  0  0  0  0
   -2.9170   -1.7593    0.1563 H   0  0  0  0  0  0  0  0  0  0  0  0
   -2.8156   -2.3829   -1.5090 H   0  0  0  0  0  0  0  0  0  0  0  0
   -0.9111   -1.9752   -0.5923 C   0  0  0  0  0  0  0  0  0  0  0  0
   -0.0285   -2.7702   -0.3208 O   0  0  0  0  0  0  0  0  0  0  0  0
   -0.6237   -0.6977   -1.0232 N   0  0  0  0  0  0  0  0  0  0  0  0
   -1.4215   -0.0888   -1.1587 H   0  0  0  0  0  0  0  0  0  0  0  0
    0.6779   -0.0358   -0.8352 C   0  0  1  0  0  0  0  0  0  0  0  0
    1.4696   -0.6095   -1.3295 H   0  0  0  0  0  0  0  0  0  0  0  0
    0.4841    1.3042   -1.5876 C   0  0  0  0  0  0  0  0  0  0  0  0
    0.7532    1.1616   -2.6378 H   0  0  0  0  0  0  0  0  0  0  0  0
   -0.5644    1.6155   -1.5623 H   0  0  0  0  0  0  0  0  0  0  0  0
    1.2881    2.4670   -1.0264 C   0  0  0  0  0  0  0  0  0  0  0  0
    2.3046    2.8540   -1.6468 O   0  5  0  0  0  0  0  0  0  0  0  0
    0.7805    3.0446   -0.0317 O   0  0  0  0  0  0  0  0  0  0  0  0
    1.0941    0.1216    0.6543 C   0  0  0  0  0  0  0  0  0  0  0  0
    2.1432   -0.3729    1.0549 O   0  0  0  0  0  0  0  0  0  0  0  0
    0.1633    0.5731    1.5749 N   0  0  0  0  0  0  0  0  0  0  0  0
   -0.3977    1.3319    1.1905 H   0  0  0  0  0  0  0  0  0  0  0  0
    0.5024    0.6886    2.9854 C   0  0  0  0  0  0  0  0  0  0  0  0
    1.3342    1.3876    3.1217 H   0  0  0  0  0  0  0  0  0  0  0  0
   -0.3597    1.0586    3.5477 H   0  0  0  0  0  0  0  0  0  0  0  0
    0.7875   -0.2863    3.3936 H   0  0  0  0  0  0  0  0  0  0  0  0
  1  2  1  0  0  0  0
  2  3  1  0  0  0  0
  2  4  1  0  0  0  0
  2  5  1  0  0  0  0
  5  6  2  0  0  0  0
  5  7  1  0  0  0  0
  7  8  1  0  0  0  0
  7  9  1  0  0  0  0
  9 10  1  0  0  0  0
  9 11  1  0  0  0  0
  9 17  1  0  0  0  0
 11 12  1  0  0  0  0
 11 13  1  0  0  0  0
 11 14  1  0  0  0  0
 14 15  1  0  0  0  0
 14 16  2  0  0  0  0
 17 18  2  0  0  0  0
 17 19  1  0  0  0  0
 19 20  1  0  0  0  0
 19 21  1  0  0  0  0
 21 22  1  0  0  0  0
 21 23  1  0  0  0  0
 21 24  1  0  0  0  0
M  CHG  1  15  -1
M  END
$$$$

  -OEChem-03222214023D

 24 23  0     1  0  0  0  0  0999 V2000
   -2.4207   -3.4476   -0.1630 H   0  0  0  0  0  0  0  0  0  0  0  0
   -2.3607   -2.4144   -0.5166 C   0  0  0  0  0  0  0  0  0  0  0  0
   -2.9116   -1.7737    0.1764 H   0  0  0  0  0  0  0  0  0  0  0  0
   -2.8215   -2.3530   -1.5056 H   0  0  0  0  0  0  0  0  0  0  0  0
   -0.9107   -1.9700   -0.5907 C   0  0  0  0  0  0  0  0  0  0  0  0
   -0.0275   -2.7656   -0.3231 O   0  0  0  0  0  0  0  0  0  0  0  0
   -0.6243   -0.6900   -1.0145 N   0  0  0  0  0  0  0  0  0  0  0  0
   -1.4224   -0.0812   -1.1484 H   0  0  0  0  0  0  0  0  0  0  0  0
    0.6764   -0.0282   -0.8207 C   0  0  1  0  0  0  0  0  0  0  0  0
    1.4657   -0.6131   -1.3052 H   0  0  0  0  0  0  0  0  0  0  0  0
    0.5033    1.3010   -1.6005 C   0  0  0  0  0  0  0  0  0  0  0  0
    0.7830    1.1304   -2.6440 H   0  0  0  0  0  0  0  0  0  0  0  0
   -0.5441    1.6156   -1.5962 H   0  0  0  0  0  0  0  0  0  0  0  0
    1.2960    2.4857   -1.0657 C   0  0  0  0  0  0  0  0  0  0  0  0
    2.1334    3.0267   -1.8245 O   0  5  0  0  0  0  0  0  0  0  0  0
    0.8783    2.9770    0.0132 O   0  0  0  0  0  0  0  0  0  0  0  0
    1.0911    0.1221    0.6702 C   0  0  0  0  0  0  0  0  0  0  0  0
    2.1411   -0.3760    1.0654 O   0  0  0  0  0  0  0  0  0  0  0  0
    0.1622    0.5675    1.5956 N   0  0  0  0  0  0  0  0  0  0  0  0
   -0.3817    1.3430    1.2202 H   0  0  0  0  0  0  0  0  0  0  0  0
    0.5007    0.6591    3.0082 C   0  0  0  0  0  0  0  0  0  0  0  0
    1.3410    1.3456    3.1552 H   0  0  0  0  0  0  0  0  0  0  0  0
   -0.3572    1.0323    3.5747 H   0  0  0  0  0  0  0  0  0  0  0  0
    0.7727   -0.3250    3.4036 H   0  0  0  0  0  0  0  0  0  0  0  0
  1  2  1  0  0  0  0
  2  3  1  0  0  0  0
  2  4  1  0  0  0  0
  2  5  1  0  0  0  0
  5  6  2  0  0  0  0
  5  7  1  0  0  0  0
  7  8  1  0  0  0  0
  7  9  1  0  0  0  0
  9 10  1  0  0  0  0
  9 11  1  0  0  0  0
  9 17  1  0  0  0  0
 11 12  1  0  0  0  0
 11 13  1  0  0  0  0
 11 14  1  0  0  0  0
 14 15  1  0  0  0  0
 14 16  2  0  0  0  0
 17 18  2  0  0  0  0
 17 19  1  0  0  0  0
 19 20  1  0  0  0  0
 19 21  1  0  0  0  0
 21 22  1  0  0  0  0
 21 23  1  0  0  0  0
 21 24  1  0  0  0  0
M  CHG  1  15  -1
M  END
$$$$

  -OEChem-03222214023D

 24 23  0     1  0  0  0  0  0999 V2000
   -2.4314   -3.4339   -0.1583 H   0  0  0  0  0  0  0  0  0  0  0  0
   -2.3659   -2.4062   -0.5269 C   0  0  0  0  0  0  0  0  0  0  0  0
   -2.9232   -1.7545    0.1505 H   0  0  0  0  0  0  0  0  0  0  0  0
   -2.8158   -2.3587   -1.5215 H   0  0  0  0  0  0  0  0  0  0  0  0
   -0.9144   -1.9645   -0.5916 C   0  0  0  0  0  0  0  0  0  0  0  0
   -0.0341   -2.7637   -0.3248 O   0  0  0  0  0  0  0  0  0  0  0  0
   -0.6237   -0.6815   -1.0033 N   0  0  0  0  0  0  0  0  0  0  0  0
   -1.4200   -0.0707   -1.1393 H   0  0  0  0  0  0  0  0  0  0  0  0
    0.6782   -0.0230   -0.8056 C   0  0  1  0  0  0  0  0  0  0  0  0
    1.4649   -0.6163   -1.2850 H   0  0  0  0  0  0  0  0  0  0  0  0
    0.5230    1.2994   -1.6056 C   0  0  0  0  0  0  0  0  0  0  0  0
    0.8083    1.1049   -2.6434 H   0  0  0  0  0  0  0  0  0  0  0  0
   -0.5237    1.6158   -1.6152 H   0  0  0  0  0  0  0  0  0  0  0  0
    1.3051    2.5085   -1.1044 C   0  0  0  0  0  0  0  0  0  0  0  0
    1.9141    3.1864   -1.9650 O   0  5  0  0  0  0  0  0  0  0  0  0
    1.0288    2.9100    0.0529 O   0  0  0  0  0  0  0  0  0  0  0  0
    1.0915    0.1116    0.6868 C   0  0  0  0  0  0  0  0  0  0  0  0
    2.1424   -0.3901    1.0759 O   0  0  0  0  0  0  0  0  0  0  0  0
    0.1628    0.5483    1.6168 N   0  0  0  0  0  0  0  0  0  0  0  0
   -0.3874    1.3203    1.2461 H   0  0  0  0  0  0  0  0  0  0  0  0
    0.5069    0.6378    3.0281 C   0  0  0  0  0  0  0  0  0  0  0  0
    1.3313    1.3433    3.1748 H   0  0  0  0  0  0  0  0  0  0  0  0
   -0.3565    0.9857    3.6022 H   0  0  0  0  0  0  0  0  0  0  0  0
    0.8053   -0.3419    3.4152 H   0  0  0  0  0  0  0  0  0  0  0  0
  1  2  1  0  0  0  0
  2  3  1  0  0  0  0
  2  4  1  0  0  0  0
  2  5  1  0  0  0  0
  5  6  2  0  0  0  0
  5  7  1  0  0  0  0
  7  8  1  0  0  0  0
  7  9  1  0  0  0  0
  9 10  1  0  0  0  0
  9 11  1  0  0  0  0
  9 17  1  0  0  0  0
 11 12  1  0  0  0  0
 11 13  1  0  0  0  0
 11 14  1  0  0  0  0
 14 15  1  0  0  0  0
 14 16  2  0  0  0  0
 17 18  2  0  0  0  0
 17 19  1  0  0  0  0
 19 20  1  0  0  0  0
 19 21  1  0  0  0  0
 21 22  1  0  0  0  0
 21 23  1  0  0  0  0
 21 24  1  0  0  0  0
M  CHG  1  15  -1
M  END
$$$$

  -OEChem-03222214023D

 24 23  0     1  0  0  0  0  0999 V2000
   -2.4368   -3.4258   -0.1721 H   0  0  0  0  0  0  0  0  0  0  0  0
   -2.3675   -2.3953   -0.5317 C   0  0  0  0  0  0  0  0  0  0  0  0
   -2.9241   -1.7479    0.1504 H   0  0  0  0  0  0  0  0  0  0  0  0
   -2.8159   -2.3377   -1.5265 H   0  0  0  0  0  0  0  0  0  0  0  0
   -0.9145   -1.9578   -0.5907 C   0  0  0  0  0  0  0  0  0  0  0  0
   -0.0375   -2.7623   -0.3301 O   0  0  0  0  0  0  0  0  0  0  0  0
   -0.6189   -0.6728   -0.9931 N   0  0  0  0  0  0  0  0  0  0  0  0
   -1.4127   -0.0603   -1.1352 H   0  0  0  0  0  0  0  0  0  0  0  0
    0.6857   -0.0190   -0.7940 C   0  0  1  0  0  0  0  0  0  0  0  0
    1.4695   -0.6177   -1.2708 H   0  0  0  0  0  0  0  0  0  0  0  0
    0.5387    1.2998   -1.6075 C   0  0  0  0  0  0  0  0  0  0  0  0
    0.8250    1.0852   -2.6411 H   0  0  0  0  0  0  0  0  0  0  0  0
   -0.5091    1.6118   -1.6243 H   0  0  0  0  0  0  0  0  0  0  0  0
    1.3066    2.5386   -1.1502 C   0  0  0  0  0  0  0  0  0  0  0  0
    1.6420    3.3330   -2.0605 O   0  5  0  0  0  0  0  0  0  0  0  0
    1.2610    2.8398    0.0660 O   0  0  0  0  0  0  0  0  0  0  0  0
    1.0948    0.0994    0.7010 C   0  0  0  0  0  0  0  0  0  0  0  0
    2.1372   -0.4201    1.0909 O   0  0  0  0  0  0  0  0  0  0  0  0
    0.1634    0.5296    1.6320 N   0  0  0  0  0  0  0  0  0  0  0  0
   -0.4080    1.2847    1.2626 H   0  0  0  0  0  0  0  0  0  0  0  0
    0.5077    0.6215    3.0430 C   0  0  0  0  0  0  0  0  0  0  0  0
    1.3361    1.3228    3.1875 H   0  0  0  0  0  0  0  0  0  0  0  0
   -0.3536    0.9760    3.6163 H   0  0  0  0  0  0  0  0  0  0  0  0
    0.8006   -0.3588    3.4324 H   0  0  0  0  0  0  0  0  0  0  0  0
  1  2  1  0  0  0  0
  2  3  1  0  0  0  0
  2  4  1  0  0  0  0
  2  5  1  0  0  0  0
  5  6  2  0  0  0  0
  5  7  1  0  0  0  0
  7  8  1  0  0  0  0
  7  9  1  0  0  0  0
  9 10  1  0  0  0  0
  9 11  1  0  0  0  0
  9 17  1  0  0  0  0
 11 12  1  0  0  0  0
 11 13  1  0  0  0  0
 11 14  1  0  0  0  0
 14 15  1  0  0  0  0
 14 16  2  0  0  0  0
 17 18  2  0  0  0  0
 17 19  1  0  0  0  0
 19 20  1  0  0  0  0
 19 21  1  0  0  0  0
 21 22  1  0  0  0  0
 21 23  1  0  0  0  0
 21 24  1  0  0  0  0
M  CHG  1  15  -1
M  END
$$$$

  -OEChem-03222214023D

 24 23  0     1  0  0  0  0  0999 V2000
   -2.4511   -3.4113   -0.1789 H   0  0  0  0  0  0  0  0  0  0  0  0
   -2.3711   -2.3812   -0.5376 C   0  0  0  0  0  0  0  0  0  0  0  0
   -2.9306   -1.7302    0.1387 H   0  0  0  0  0  0  0  0  0  0  0  0
   -2.8081   -2.3208   -1.5373 H   0  0  0  0  0  0  0  0  0  0  0  0
   -0.9149   -1.9529   -0.5809 C   0  0  0  0  0  0  0  0  0  0  0  0
   -0.0456   -2.7633   -0.3133 O   0  0  0  0  0  0  0  0  0  0  0  0
   -0.6088   -0.6695   -0.9809 N   0  0  0  0  0  0  0  0  0  0  0  0
   -1.3971   -0.0571   -1.1503 H   0  0  0  0  0  0  0  0  0  0  0  0
    0.7013   -0.0219   -0.7907 C   0  0  1  0  0  0  0  0  0  0  0  0
    1.4836   -0.6180   -1.2727 H   0  0  0  0  0  0  0  0  0  0  0  0
    0.5404    1.3015   -1.5990 C   0  0  0  0  0  0  0  0  0  0  0  0
    0.8099    1.0842   -2.6364 H   0  0  0  0  0  0  0  0  0  0  0  0
   -0.5103    1.6046   -1.5985 H   0  0  0  0  0  0  0  0  0  0  0  0
    1.2971    2.5635   -1.1810 C   0  0  0  0  0  0  0  0  0  0  0  0
    1.3284    3.4621   -2.0554 O   0  5  0  0  0  0  0  0  0  0  0  0
    1.6069    2.7402    0.0184 O   0  0  0  0  0  0  0  0  0  0  0  0
    1.1041    0.0832    0.7076 C   0  0  0  0  0  0  0  0  0  0  0  0
    2.1310   -0.4611    1.1054 O   0  0  0  0  0  0  0  0  0  0  0  0
    0.1681    0.5122    1.6359 N   0  0  0  0  0  0  0  0  0  0  0  0
   -0.4506    1.2236    1.2615 H   0  0  0  0  0  0  0  0  0  0  0  0
    0.5080    0.6224    3.0468 C   0  0  0  0  0  0  0  0  0  0  0  0
    1.3370    1.3244    3.1846 H   0  0  0  0  0  0  0  0  0  0  0  0
   -0.3544    0.9862    3.6126 H   0  0  0  0  0  0  0  0  0  0  0  0
    0.7982   -0.3531    3.4501 H   0  0  0  0  0  0  0  0  0  0  0  0
  1  2  1  0  0  0  0
  2  3  1  0  0  0  0
  2  4  1  0  0  0  0
  2  5  1  0  0  0  0
  5  6  2  0  0  0  0
  5  7  1  0  0  0  0
  7  8  1  0  0  0  0
  7  9  1  0  0  0  0
  9 10  1  0  0  0  0
  9 11  1  0  0  0  0
  9 17  1  0  0  0  0
 11 12  1  0  0  0  0
 11 13  1  0  0  0  0
 11 14  1  0  0  0  0
 14 15  1  0  0  0  0
 14 16  2  0  0  0  0
 17 18  2  0  0  0  0
 17 19  1  0  0  0  0
 19 20  1  0  0  0  0
 19 21  1  0  0  0  0
 21 22  1  0  0  0  0
 21 23  1  0  0  0  0
 21 24  1  0  0  0  0
M  CHG  1  15  -1
M  END
$$$$

  -OEChem-03222214023D

 24 23  0     1  0  0  0  0  0999 V2000
   -2.4982   -3.4013   -0.1861 H   0  0  0  0  0  0  0  0  0  0  0  0
   -2.3879   -2.3882   -0.5835 C   0  0  0  0  0  0  0  0  0  0  0  0
   -3.0047   -1.7094    0.0106 H   0  0  0  0  0  0  0  0  0  0  0  0
   -2.7365   -2.3764   -1.6190 H   0  0  0  0  0  0  0  0  0  0  0  0
   -0.9334   -1.9563   -0.5208 C   0  0  0  0  0  0  0  0  0  0  0  0
   -0.0949   -2.7486   -0.1320 O   0  0  0  0  0  0  0  0  0  0  0  0
   -0.5939   -0.6937   -0.9592 N   0  0  0  0  0  0  0  0  0  0  0  0
   -1.3506   -0.1094   -1.2929 H   0  0  0  0  0  0  0  0  0  0  0  0
    0.7285   -0.0583   -0.8126 C   0  0  1  0  0  0  0  0  0  0  0  0
    1.5076   -0.6282   -1.3299 H   0  0  0  0  0  0  0  0  0  0  0  0
    0.4829    1.2865   -1.5472 C   0  0  0  0  0  0  0  0  0  0  0  0
    0.4205    1.0831   -2.6197 H   0  0  0  0  0  0  0  0  0  0  0  0
   -0.4817    1.6952   -1.2319 H   0  0  0  0  0  0  0  0  0  0  0  0
    1.4825    2.4255   -1.3573 C   0  0  0  0  0  0  0  0  0  0  0  0
    1.2024    3.4734   -1.9878 O   0  5  0  0  0  0  0  0  0  0  0  0
    2.4843    2.2855   -0.6245 O   0  0  0  0  0  0  0  0  0  0  0  0
    1.1498    0.0846    0.6779 C   0  0  0  0  0  0  0  0  0  0  0  0
    2.1533   -0.4761    1.1080 O   0  0  0  0  0  0  0  0  0  0  0  0
    0.2212    0.5555    1.5944 N   0  0  0  0  0  0  0  0  0  0  0  0
   -0.5120    1.1333    1.2017 H   0  0  0  0  0  0  0  0  0  0  0  0
    0.5339    0.7073    3.0075 C   0  0  0  0  0  0  0  0  0  0  0  0
    1.3857    1.3827    3.1389 H   0  0  0  0  0  0  0  0  0  0  0  0
   -0.3262    1.1235    3.5396 H   0  0  0  0  0  0  0  0  0  0  0  0
    0.7780   -0.2629    3.4520 H   0  0  0  0  0  0  0  0  0  0  0  0
  1  2  1  0  0  0  0
  2  3  1  0  0  0  0
  2  4  1  0  0  0  0
  2  5  1  0  0  0  0
  5  6  2  0  0  0  0
  5  7  1  0  0  0  0
  7  8  1  0  0  0  0
  7  9  1  0  0  0  0
  9 10  1  0  0  0  0
  9 11  1  0  0  0  0
  9 17  1  0  0  0  0
 11 12  1  0  0  0  0
 11 13  1  0  0  0  0
 11 14  1  0  0  0  0
 14 15  1  0  0  0  0
 14 16  2  0  0  0  0
 17 18  2  0  0  0  0
 17 19  1  0  0  0  0
 19 20  1  0  0  0  0
 19 21  1  0  0  0  0
 21 22  1  0  0  0  0
 21 23  1  0  0  0  0
 21 24  1  0  0  0  0
M  CHG  1  15  -1
M  END
$$$$

  -OEChem-03222214023D

 24 23  0     1  0  0  0  0  0999 V2000
   -2.5013   -3.4121   -0.1897 H   0  0  0  0  0  0  0  0  0  0  0  0
   -2.3909   -2.4012   -0.5924 C   0  0  0  0  0  0  0  0  0  0  0  0
   -3.0180   -1.7212   -0.0107 H   0  0  0  0  0  0  0  0  0  0  0  0
   -2.7265   -2.3978   -1.6324 H   0  0  0  0  0  0  0  0  0  0  0  0
   -0.9395   -1.9614   -0.5136 C   0  0  0  0  0  0  0  0  0  0  0  0
   -0.1038   -2.7434   -0.0991 O   0  0  0  0  0  0  0  0  0  0  0  0
   -0.6010   -0.7014   -0.9599 N   0  0  0  0  0  0  0  0  0  0  0  0
   -1.3545   -0.1274   -1.3180 H   0  0  0  0  0  0  0  0  0  0  0  0
    0.7211   -0.0639   -0.8220 C   0  0  1  0  0  0  0  0  0  0  0  0
    1.4993   -0.6252   -1.3499 H   0  0  0  0  0  0  0  0  0  0  0  0
    0.4652    1.2905   -1.5297 C   0  0  0  0  0  0  0  0  0  0  0  0
    0.3916    1.1160   -2.6063 H   0  0  0  0  0  0  0  0  0  0  0  0
   -0.4940    1.6954   -1.1931 H   0  0  0  0  0  0  0  0  0  0  0  0
    1.4851    2.4040   -1.3127 C   0  0  0  0  0  0  0  0  0  0  0  0
    1.0975    3.5492   -1.6493 O   0  5  0  0  0  0  0  0  0  0  0  0
    2.6350    2.1322   -0.9064 O   0  0  0  0  0  0  0  0  0  0  0  0
    1.1535    0.0907    0.6639 C   0  0  0  0  0  0  0  0  0  0  0  0
    2.1699   -0.4449    1.0941 O   0  0  0  0  0  0  0  0  0  0  0  0
    0.2298    0.5674    1.5820 N   0  0  0  0  0  0  0  0  0  0  0  0
   -0.5293    1.1119    1.1903 H   0  0  0  0  0  0  0  0  0  0  0  0
    0.5455    0.7348    2.9925 C   0  0  0  0  0  0  0  0  0  0  0  0
    1.4010    1.4072    3.1145 H   0  0  0  0  0  0  0  0  0  0  0  0
   -0.3115    1.1623    3.5208 H   0  0  0  0  0  0  0  0  0  0  0  0
    0.7853   -0.2314    3.4479 H   0  0  0  0  0  0  0  0  0  0  0  0
  1  2  1  0  0  0  0
  2  3  1  0  0  0  0
  2  4  1  0  0  0  0
  2  5  1  0  0  0  0
  5  6  2  0  0  0  0
  5  7  1  0  0  0  0
  7  8  1  0  0  0  0
  7  9  1  0  0  0  0
  9 10  1  0  0  0  0
  9 11  1  0  0  0  0
  9 17  1  0  0  0  0
 11 12  1  0  0  0  0
 11 13  1  0  0  0  0
 11 14  1  0  0  0  0
 14 15  1  0  0  0  0
 14 16  2  0  0  0  0
 17 18  2  0  0  0  0
 17 19  1  0  0  0  0
 19 20  1  0  0  0  0
 19 21  1  0  0  0  0
 21 22  1  0  0  0  0
 21 23  1  0  0  0  0
 21 24  1  0  0  0  0
M  CHG  1  15  -1
M  END
$$$$

  -OEChem-03222214023D

 24 23  0     1  0  0  0  0  0999 V2000
   -2.5031   -3.4317   -0.2130 H   0  0  0  0  0  0  0  0  0  0  0  0
   -2.3969   -2.4175   -0.6084 C   0  0  0  0  0  0  0  0  0  0  0  0
   -3.0375   -1.7463   -0.0312 H   0  0  0  0  0  0  0  0  0  0  0  0
   -2.7191   -2.4110   -1.6525 H   0  0  0  0  0  0  0  0  0  0  0  0
   -0.9506   -1.9654   -0.5083 C   0  0  0  0  0  0  0  0  0  0  0  0
   -0.1167   -2.7341   -0.0661 O   0  0  0  0  0  0  0  0  0  0  0  0
   -0.6150   -0.7063   -0.9587 N   0  0  0  0  0  0  0  0  0  0  0  0
   -1.3643   -0.1435   -1.3425 H   0  0  0  0  0  0  0  0  0  0  0  0
    0.7060   -0.0667   -0.8273 C   0  0  1  0  0  0  0  0  0  0  0  0
    1.4819   -0.6252   -1.3616 H   0  0  0  0  0  0  0  0  0  0  0  0
    0.4502    1.2930   -1.5184 C   0  0  0  0  0  0  0  0  0  0  0  0
    0.3748    1.1388   -2.5978 H   0  0  0  0  0  0  0  0  0  0  0  0
   -0.5054    1.7003   -1.1737 H   0  0  0  0  0  0  0  0  0  0  0  0
    1.4960    2.3740   -1.2722 C   0  0  0  0  0  0  0  0  0  0  0  0
    1.0707    3.5546   -1.2932 O   0  5  0  0  0  0  0  0  0  0  0  0
    2.6998    2.0486   -1.1838 O   0  0  0  0  0  0  0  0  0  0  0  0
    1.1497    0.0953    0.6537 C   0  0  0  0  0  0  0  0  0  0  0  0
    2.1911   -0.3985    1.0718 O   0  0  0  0  0  0  0  0  0  0  0  0
    0.2340    0.5739    1.5782 N   0  0  0  0  0  0  0  0  0  0  0  0
   -0.5444    1.0937    1.1904 H   0  0  0  0  0  0  0  0  0  0  0  0
    0.5642    0.7642    2.9825 C   0  0  0  0  0  0  0  0  0  0  0  0
    1.3970    1.4674    3.0869 H   0  0  0  0  0  0  0  0  0  0  0  0
   -0.2999    1.1652    3.5201 H   0  0  0  0  0  0  0  0  0  0  0  0
    0.8449   -0.1890    3.4421 H   0  0  0  0  0  0  0  0  0  0  0  0
  1  2  1  0  0  0  0
  2  3  1  0  0  0  0
  2  4  1  0  0  0  0
  2  5  1  0  0  0  0
  5  6  2  0  0  0  0
  5  7  1  0  0  0  0
  7  8  1  0  0  0  0
  7  9  1  0  0  0  0
  9 10  1  0  0  0  0
  9 11  1  0  0  0  0
  9 17  1  0  0  0  0
 11 12  1  0  0  0  0
 11 13  1  0  0  0  0
 11 14  1  0  0  0  0
 14 15  1  0  0  0  0
 14 16  2  0  0  0  0
 17 18  2  0  0  0  0
 17 19  1  0  0  0  0
 19 20  1  0  0  0  0
 19 21  1  0  0  0  0
 21 22  1  0  0  0  0
 21 23  1  0  0  0  0
 21 24  1  0  0  0  0
M  CHG  1  15  -1
M  END
$$$$

  -OEChem-03222214023D

 24 23  0     1  0  0  0  0  0999 V2000
   -2.5017   -3.4498   -0.2267 H   0  0  0  0  0  0  0  0  0  0  0  0
   -2.4010   -2.4343   -0.6203 C   0  0  0  0  0  0  0  0  0  0  0  0
   -3.0480   -1.7685   -0.0440 H   0  0  0  0  0  0  0  0  0  0  0  0
   -2.7204   -2.4286   -1.6652 H   0  0  0  0  0  0  0  0  0  0  0  0
   -0.9579   -1.9730   -0.5167 C   0  0  0  0  0  0  0  0  0  0  0  0
   -0.1192   -2.7369   -0.0749 O   0  0  0  0  0  0  0  0  0  0  0  0
   -0.6282   -0.7116   -0.9652 N   0  0  0  0  0  0  0  0  0  0  0  0
   -1.3815   -0.1475   -1.3391 H   0  0  0  0  0  0  0  0  0  0  0  0
    0.6902   -0.0682   -0.8304 C   0  0  1  0  0  0  0  0  0  0  0  0
    1.4667   -0.6246   -1.3668 H   0  0  0  0  0  0  0  0  0  0  0  0
    0.4405    1.2941   -1.5130 C   0  0  0  0  0  0  0  0  0  0  0  0
    0.3745    1.1520   -2.5946 H   0  0  0  0  0  0  0  0  0  0  0  0
   -0.5154    1.7050   -1.1737 H   0  0  0  0  0  0  0  0  0  0  0  0
    1.5041    2.3486   -1.2371 C   0  0  0  0  0  0  0  0  0  0  0  0
    1.0827    3.4956   -0.9505 O   0  5  0  0  0  0  0  0  0  0  0  0
    2.7040    2.0495   -1.4258 O   0  0  0  0  0  0  0  0  0  0  0  0
    1.1398    0.0968    0.6479 C   0  0  0  0  0  0  0  0  0  0  0  0
    2.2003   -0.3662    1.0524 O   0  0  0  0  0  0  0  0  0  0  0  0
    0.2289    0.5729    1.5780 N   0  0  0  0  0  0  0  0  0  0  0  0
   -0.5423    1.1046    1.1908 H   0  0  0  0  0  0  0  0  0  0  0  0
    0.5806    0.7892    2.9735 C   0  0  0  0  0  0  0  0  0  0  0  0
    1.4015    1.5093    3.0531 H   0  0  0  0  0  0  0  0  0  0  0  0
   -0.2811    1.1815    3.5210 H   0  0  0  0  0  0  0  0  0  0  0  0
    0.8872   -0.1520    3.4412 H   0  0  0  0  0  0  0  0  0  0  0  0
  1  2  1  0  0  0  0
  2  3  1  0  0  0  0
  2  4  1  0  0  0  0
  2  5  1  0  0  0  0
  5  6  2  0  0  0  0
  5  7  1  0  0  0  0
  7  8  1  0  0  0  0
  7  9  1  0  0  0  0
  9 10  1  0  0  0  0
  9 11  1  0  0  0  0
  9 17  1  0  0  0  0
 11 12  1  0  0  0  0
 11 13  1  0  0  0  0
 11 14  1  0  0  0  0
 14 15  1  0  0  0  0
 14 16  2  0  0  0  0
 17 18  2  0  0  0  0
 17 19  1  0  0  0  0
 19 20  1  0  0  0  0
 19 21  1  0  0  0  0
 21 22  1  0  0  0  0
 21 23  1  0  0  0  0
 21 24  1  0  0  0  0
M  CHG  1  15  -1
M  END
$$$$

  -OEChem-03222214023D

 24 23  0     1  0  0  0  0  0999 V2000
   -2.5006   -3.4615   -0.2383 H   0  0  0  0  0  0  0  0  0  0  0  0
   -2.4044   -2.4434   -0.6263 C   0  0  0  0  0  0  0  0  0  0  0  0
   -3.0473   -1.7820   -0.0402 H   0  0  0  0  0  0  0  0  0  0  0  0
   -2.7323   -2.4313   -1.6686 H   0  0  0  0  0  0  0  0  0  0  0  0
   -0.9612   -1.9805   -0.5314 C   0  0  0  0  0  0  0  0  0  0  0  0
   -0.1177   -2.7445   -0.0986 O   0  0  0  0  0  0  0  0  0  0  0  0
   -0.6365   -0.7162   -0.9746 N   0  0  0  0  0  0  0  0  0  0  0  0
   -1.3947   -0.1475   -1.3312 H   0  0  0  0  0  0  0  0  0  0  0  0
    0.6786   -0.0694   -0.8307 C   0  0  1  0  0  0  0  0  0  0  0  0
    1.4571   -0.6249   -1.3654 H   0  0  0  0  0  0  0  0  0  0  0  0
    0.4364    1.2922   -1.5128 C   0  0  0  0  0  0  0  0  0  0  0  0
    0.3859    1.1539   -2.5959 H   0  0  0  0  0  0  0  0  0  0  0  0
   -0.5225    1.7072   -1.1870 H   0  0  0  0  0  0  0  0  0  0  0  0
    1.5088    2.3290   -1.2122 C   0  0  0  0  0  0  0  0  0  0  0  0
    1.1217    3.3799   -0.6449 O   0  5  0  0  0  0  0  0  0  0  0  0
    2.6661    2.1246   -1.6430 O   0  0  0  0  0  0  0  0  0  0  0  0
    1.1281    0.0955    0.6470 C   0  0  0  0  0  0  0  0  0  0  0  0
    2.2028   -0.3447    1.0389 O   0  0  0  0  0  0  0  0  0  0  0  0
    0.2195    0.5669    1.5809 N   0  0  0  0  0  0  0  0  0  0  0  0
   -0.5347    1.1213    1.1914 H   0  0  0  0  0  0  0  0  0  0  0  0
    0.5915    0.8071    2.9670 C   0  0  0  0  0  0  0  0  0  0  0  0
    1.3892    1.5550    3.0235 H   0  0  0  0  0  0  0  0  0  0  0  0
   -0.2720    1.1750    3.5285 H   0  0  0  0  0  0  0  0  0  0  0  0
    0.9390   -0.1188    3.4365 H   0  0  0  0  0  0  0  0  0  0  0  0
  1  2  1  0  0  0  0
  2  3  1  0  0  0  0
  2  4  1  0  0  0  0
  2  5  1  0  0  0  0
  5  6  2  0  0  0  0
  5  7  1  0  0  0  0
  7  8  1  0  0  0  0
  7  9  1  0  0  0  0
  9 10  1  0  0  0  0
  9 11  1  0  0  0  0
  9 17  1  0  0  0  0
 11 12  1  0  0  0  0
 11 13  1  0  0  0  0
 11 14  1  0  0  0  0
 14 15  1  0  0  0  0
 14 16  2  0  0  0  0
 17 18  2  0  0  0  0
 17 19  1  0  0  0  0
 19 20  1  0  0  0  0
 19 21  1  0  0  0  0
 21 22  1  0  0  0  0
 21 23  1  0  0  0  0
 21 24  1  0  0  0  0
M  CHG  1  15  -1
M  END
$$$$

  -OEChem-03222214023D

 24 23  0     1  0  0  0  0  0999 V2000
   -2.4921   -3.4627   -0.2266 H   0  0  0  0  0  0  0  0  0  0  0  0
   -2.4013   -2.4450   -0.6168 C   0  0  0  0  0  0  0  0  0  0  0  0
   -3.0302   -1.7818   -0.0178 H   0  0  0  0  0  0  0  0  0  0  0  0
   -2.7504   -2.4324   -1.6522 H   0  0  0  0  0  0  0  0  0  0  0  0
   -0.9553   -1.9864   -0.5514 C   0  0  0  0  0  0  0  0  0  0  0  0
   -0.1035   -2.7567   -0.1465 O   0  0  0  0  0  0  0  0  0  0  0  0
   -0.6372   -0.7188   -0.9897 N   0  0  0  0  0  0  0  0  0  0  0  0
   -1.4056   -0.1385   -1.3029 H   0  0  0  0  0  0  0  0  0  0  0  0
    0.6736   -0.0677   -0.8312 C   0  0  1  0  0  0  0  0  0  0  0  0
    1.4561   -0.6244   -1.3590 H   0  0  0  0  0  0  0  0  0  0  0  0
    0.4391    1.2892   -1.5238 C   0  0  0  0  0  0  0  0  0  0  0  0
    0.4053    1.1439   -2.6069 H   0  0  0  0  0  0  0  0  0  0  0  0
   -0.5240    1.7084   -1.2166 H   0  0  0  0  0  0  0  0  0  0  0  0
    1.5080    2.3234   -1.2071 C   0  0  0  0  0  0  0  0  0  0  0  0
    1.1788    3.2298   -0.4029 O   0  5  0  0  0  0  0  0  0  0  0  0
    2.5895    2.2702   -1.8360 O   0  0  0  0  0  0  0  0  0  0  0  0
    1.1174    0.0989    0.6478 C   0  0  0  0  0  0  0  0  0  0  0  0
    2.1922   -0.3453    1.0362 O   0  0  0  0  0  0  0  0  0  0  0  0
    0.2069    0.5663    1.5814 N   0  0  0  0  0  0  0  0  0  0  0  0
   -0.5138    1.1621    1.1884 H   0  0  0  0  0  0  0  0  0  0  0  0
    0.5886    0.8062    2.9650 C   0  0  0  0  0  0  0  0  0  0  0  0
    1.3868    1.5540    3.0160 H   0  0  0  0  0  0  0  0  0  0  0  0
   -0.2709    1.1744    3.5325 H   0  0  0  0  0  0  0  0  0  0  0  0
    0.9388   -0.1196    3.4326 H   0  0  0  0  0  0  0  0  0  0  0  0
  1  2  1  0  0  0  0
  2  3  1  0  0  0  0
  2  4  1  0  0  0  0
  2  5  1  0  0  0  0
  5  6  2  0  0  0  0
  5  7  1  0  0  0  0
  7  8  1  0  0  0  0
  7  9  1  0  0  0  0
  9 10  1  0  0  0  0
  9 11  1  0  0  0  0
  9 17  1  0  0  0  0
 11 12  1  0  0  0  0
 11 13  1  0  0  0  0
 11 14  1  0  0  0  0
 14 15  1  0  0  0  0
 14 16  2  0  0  0  0
 17 18  2  0  0  0  0
 17 19  1  0  0  0  0
 19 20  1  0  0  0  0
 19 21  1  0  0  0  0
 21 22  1  0  0  0  0
 21 23  1  0  0  0  0
 21 24  1  0  0  0  0
M  CHG  1  15  -1
M  END
$$$$

  -OEChem-03222214023D

 24 23  0     1  0  0  0  0  0999 V2000
   -2.4778   -3.4596   -0.2043 H   0  0  0  0  0  0  0  0  0  0  0  0
   -2.3932   -2.4438   -0.6011 C   0  0  0  0  0  0  0  0  0  0  0  0
   -3.0119   -1.7779    0.0054 H   0  0  0  0  0  0  0  0  0  0  0  0
   -2.7599   -2.4356   -1.6304 H   0  0  0  0  0  0  0  0  0  0  0  0
   -0.9460   -1.9849   -0.5616 C   0  0  0  0  0  0  0  0  0  0  0  0
   -0.0853   -2.7584   -0.1823 O   0  0  0  0  0  0  0  0  0  0  0  0
   -0.6364   -0.7137   -0.9955 N   0  0  0  0  0  0  0  0  0  0  0  0
   -1.4134   -0.1277   -1.2745 H   0  0  0  0  0  0  0  0  0  0  0  0
    0.6705   -0.0571   -0.8283 C   0  0  1  0  0  0  0  0  0  0  0  0
    1.4553   -0.6201   -1.3457 H   0  0  0  0  0  0  0  0  0  0  0  0
    0.4477    1.2900   -1.5463 C   0  0  0  0  0  0  0  0  0  0  0  0
    0.4263    1.1247   -2.6271 H   0  0  0  0  0  0  0  0  0  0  0  0
   -0.5182    1.7153   -1.2582 H   0  0  0  0  0  0  0  0  0  0  0  0
    1.5074    2.3344   -1.2325 C   0  0  0  0  0  0  0  0  0  0  0  0
    1.2757    3.0766   -0.2467 O   0  5  0  0  0  0  0  0  0  0  0  0
    2.4713    2.4589   -2.0230 O   0  0  0  0  0  0  0  0  0  0  0  0
    1.1090    0.1074    0.6529 C   0  0  0  0  0  0  0  0  0  0  0  0
    2.1787   -0.3514    1.0399 O   0  0  0  0  0  0  0  0  0  0  0  0
    0.1955    0.5677    1.5871 N   0  0  0  0  0  0  0  0  0  0  0  0
   -0.4923    1.2023    1.1953 H   0  0  0  0  0  0  0  0  0  0  0  0
    0.5755    0.7831    2.9753 C   0  0  0  0  0  0  0  0  0  0  0  0
    1.3923    1.5096    3.0385 H   0  0  0  0  0  0  0  0  0  0  0  0
   -0.2775    1.1678    3.5416 H   0  0  0  0  0  0  0  0  0  0  0  0
    0.8994   -0.1561    3.4354 H   0  0  0  0  0  0  0  0  0  0  0  0
  1  2  1  0  0  0  0
  2  3  1  0  0  0  0
  2  4  1  0  0  0  0
  2  5  1  0  0  0  0
  5  6  2  0  0  0  0
  5  7  1  0  0  0  0
  7  8  1  0  0  0  0
  7  9  1  0  0  0  0
  9 10  1  0  0  0  0
  9 11  1  0  0  0  0
  9 17  1  0  0  0  0
 11 12  1  0  0  0  0
 11 13  1  0  0  0  0
 11 14  1  0  0  0  0
 14 15  1  0  0  0  0
 14 16  2  0  0  0  0
 17 18  2  0  0  0  0
 17 19  1  0  0  0  0
 19 20  1  0  0  0  0
 19 21  1  0  0  0  0
 21 22  1  0  0  0  0
 21 23  1  0  0  0  0
 21 24  1  0  0  0  0
M  CHG  1  15  -1
M  END
$$$$

  -OEChem-03222214023D

 24 23  0     1  0  0  0  0  0999 V2000
   -2.4714   -3.4524   -0.1987 H   0  0  0  0  0  0  0  0  0  0  0  0
   -2.3877   -2.4360   -0.5936 C   0  0  0  0  0  0  0  0  0  0  0  0
   -3.0008   -1.7703    0.0189 H   0  0  0  0  0  0  0  0  0  0  0  0
   -2.7614   -2.4246   -1.6203 H   0  0  0  0  0  0  0  0  0  0  0  0
   -0.9394   -1.9805   -0.5636 C   0  0  0  0  0  0  0  0  0  0  0  0
   -0.0762   -2.7602   -0.2025 O   0  0  0  0  0  0  0  0  0  0  0  0
   -0.6318   -0.7067   -0.9914 N   0  0  0  0  0  0  0  0  0  0  0  0
   -1.4116   -0.1175   -1.2550 H   0  0  0  0  0  0  0  0  0  0  0  0
    0.6733   -0.0485   -0.8166 C   0  0  1  0  0  0  0  0  0  0  0  0
    1.4588   -0.6202   -1.3229 H   0  0  0  0  0  0  0  0  0  0  0  0
    0.4611    1.2865   -1.5654 C   0  0  0  0  0  0  0  0  0  0  0  0
    0.4458    1.0925   -2.6416 H   0  0  0  0  0  0  0  0  0  0  0  0
   -0.5074    1.7152   -1.2924 H   0  0  0  0  0  0  0  0  0  0  0  0
    1.5020    2.3584   -1.2755 C   0  0  0  0  0  0  0  0  0  0  0  0
    1.4168    2.9392   -0.1664 O   0  5  0  0  0  0  0  0  0  0  0  0
    2.2984    2.6668   -2.1928 O   0  0  0  0  0  0  0  0  0  0  0  0
    1.1060    0.1106    0.6669 C   0  0  0  0  0  0  0  0  0  0  0  0
    2.1652   -0.3715    1.0563 O   0  0  0  0  0  0  0  0  0  0  0  0
    0.1883    0.5653    1.5997 N   0  0  0  0  0  0  0  0  0  0  0  0
   -0.4748    1.2264    1.2096 H   0  0  0  0  0  0  0  0  0  0  0  0
    0.5629    0.7574    2.9927 C   0  0  0  0  0  0  0  0  0  0  0  0
    1.3777    1.4848    3.0710 H   0  0  0  0  0  0  0  0  0  0  0  0
   -0.2930    1.1291    3.5631 H   0  0  0  0  0  0  0  0  0  0  0  0
    0.8880   -0.1887    3.4374 H   0  0  0  0  0  0  0  0  0  0  0  0
  1  2  1  0  0  0  0
  2  3  1  0  0  0  0
  2  4  1  0  0  0  0
  2  5  1  0  0  0  0
  5  6  2  0  0  0  0
  5  7  1  0  0  0  0
  7  8  1  0  0  0  0
  7  9  1  0  0  0  0
  9 10  1  0  0  0  0
  9 11  1  0  0  0  0
  9 17  1  0  0  0  0
 11 12  1  0  0  0  0
 11 13  1  0  0  0  0
 11 14  1  0  0  0  0
 14 15  1  0  0  0  0
 14 16  2  0  0  0  0
 17 18  2  0  0  0  0
 17 19  1  0  0  0  0
 19 20  1  0  0  0  0
 19 21  1  0  0  0  0
 21 22  1  0  0  0  0
 21 23  1  0  0  0  0
 21 24  1  0  0  0  0
M  CHG  1  15  -1
M  END
$$$$

  -OEChem-03222214023D

 24 23  0     1  0  0  0  0  0999 V2000
   -2.4692   -3.4442   -0.2024 H   0  0  0  0  0  0  0  0  0  0  0  0
   -2.3834   -2.4259   -0.5926 C   0  0  0  0  0  0  0  0  0  0  0  0
   -2.9985   -1.7623    0.0203 H   0  0  0  0  0  0  0  0  0  0  0  0
   -2.7534   -2.4098   -1.6207 H   0  0  0  0  0  0  0  0  0  0  0  0
   -0.9349   -1.9712   -0.5559 C   0  0  0  0  0  0  0  0  0  0  0  0
   -0.0738   -2.7542   -0.1971 O   0  0  0  0  0  0  0  0  0  0  0  0
   -0.6245   -0.6965   -0.9793 N   0  0  0  0  0  0  0  0  0  0  0  0
   -1.4024   -0.1064   -1.2470 H   0  0  0  0  0  0  0  0  0  0  0  0
    0.6825   -0.0409   -0.8048 C   0  0  1  0  0  0  0  0  0  0  0  0
    1.4663   -0.6201   -1.3050 H   0  0  0  0  0  0  0  0  0  0  0  0
    0.4758    1.2859   -1.5766 C   0  0  0  0  0  0  0  0  0  0  0  0
    0.4547    1.0669   -2.6482 H   0  0  0  0  0  0  0  0  0  0  0  0
   -0.4933    1.7144   -1.3073 H   0  0  0  0  0  0  0  0  0  0  0  0
    1.4983    2.3888   -1.3247 C   0  0  0  0  0  0  0  0  0  0  0  0
    1.6169    2.8183   -0.1530 O   0  5  0  0  0  0  0  0  0  0  0  0
    2.0746    2.8722   -2.3279 O   0  0  0  0  0  0  0  0  0  0  0  0
    1.1093    0.1074    0.6819 C   0  0  0  0  0  0  0  0  0  0  0  0
    2.1558   -0.3990    1.0763 O   0  0  0  0  0  0  0  0  0  0  0  0
    0.1873    0.5580    1.6133 N   0  0  0  0  0  0  0  0  0  0  0  0
   -0.4765    1.2192    1.2264 H   0  0  0  0  0  0  0  0  0  0  0  0
    0.5499    0.7300    3.0119 C   0  0  0  0  0  0  0  0  0  0  0  0
    1.3659    1.4540    3.1075 H   0  0  0  0  0  0  0  0  0  0  0  0
   -0.3103    1.0964    3.5796 H   0  0  0  0  0  0  0  0  0  0  0  0
    0.8685   -0.2230    3.4464 H   0  0  0  0  0  0  0  0  0  0  0  0
  1  2  1  0  0  0  0
  2  3  1  0  0  0  0
  2  4  1  0  0  0  0
  2  5  1  0  0  0  0
  5  6  2  0  0  0  0
  5  7  1  0  0  0  0
  7  8  1  0  0  0  0
  7  9  1  0  0  0  0
  9 10  1  0  0  0  0
  9 11  1  0  0  0  0
  9 17  1  0  0  0  0
 11 12  1  0  0  0  0
 11 13  1  0  0  0  0
 11 14  1  0  0  0  0
 14 15  1  0  0  0  0
 14 16  2  0  0  0  0
 17 18  2  0  0  0  0
 17 19  1  0  0  0  0
 19 20  1  0  0  0  0
 19 21  1  0  0  0  0
 21 22  1  0  0  0  0
 21 23  1  0  0  0  0
 21 24  1  0  0  0  0
M  CHG  1  15  -1
M  END
$$$$

  -OEChem-03222214023D

 24 23  0     1  0  0  0  0  0999 V2000
   -2.4725   -3.4311   -0.2045 H   0  0  0  0  0  0  0  0  0  0  0  0
   -2.3810   -2.4132   -0.5943 C   0  0  0  0  0  0  0  0  0  0  0  0
   -2.9980   -1.7478    0.0147 H   0  0  0  0  0  0  0  0  0  0  0  0
   -2.7443   -2.3962   -1.6248 H   0  0  0  0  0  0  0  0  0  0  0  0
   -0.9313   -1.9635   -0.5471 C   0  0  0  0  0  0  0  0  0  0  0  0
   -0.0758   -2.7501   -0.1835 O   0  0  0  0  0  0  0  0  0  0  0  0
   -0.6134   -0.6898   -0.9684 N   0  0  0  0  0  0  0  0  0  0  0  0
   -1.3858   -0.1009   -1.2541 H   0  0  0  0  0  0  0  0  0  0  0  0
    0.6974   -0.0391   -0.7969 C   0  0  1  0  0  0  0  0  0  0  0  0
    1.4801   -0.6207   -1.2957 H   0  0  0  0  0  0  0  0  0  0  0  0
    0.4871    1.2857   -1.5771 C   0  0  0  0  0  0  0  0  0  0  0  0
    0.4577    1.0516   -2.6453 H   0  0  0  0  0  0  0  0  0  0  0  0
   -0.4828    1.7097   -1.3034 H   0  0  0  0  0  0  0  0  0  0  0  0
    1.4912    2.4161   -1.3621 C   0  0  0  0  0  0  0  0  0  0  0  0
    1.8484    2.7002   -0.1965 O   0  5  0  0  0  0  0  0  0  0  0  0
    1.8115    3.0677   -2.3847 O   0  0  0  0  0  0  0  0  0  0  0  0
    1.1173    0.0999    0.6933 C   0  0  0  0  0  0  0  0  0  0  0  0
    2.1487   -0.4307    1.0964 O   0  0  0  0  0  0  0  0  0  0  0  0
    0.1911    0.5499    1.6214 N   0  0  0  0  0  0  0  0  0  0  0  0
   -0.4872    1.1958    1.2353 H   0  0  0  0  0  0  0  0  0  0  0  0
    0.5401    0.7096    3.0254 C   0  0  0  0  0  0  0  0  0  0  0  0
    1.3705    1.4152    3.1338 H   0  0  0  0  0  0  0  0  0  0  0  0
   -0.3184    1.0931    3.5840 H   0  0  0  0  0  0  0  0  0  0  0  0
    0.8322   -0.2517    3.4604 H   0  0  0  0  0  0  0  0  0  0  0  0
  1  2  1  0  0  0  0
  2  3  1  0  0  0  0
  2  4  1  0  0  0  0
  2  5  1  0  0  0  0
  5  6  2  0  0  0  0
  5  7  1  0  0  0  0
  7  8  1  0  0  0  0
  7  9  1  0  0  0  0
  9 10  1  0  0  0  0
  9 11  1  0  0  0  0
  9 17  1  0  0  0  0
 11 12  1  0  0  0  0
 11 13  1  0  0  0  0
 11 14  1  0  0  0  0
 14 15  1  0  0  0  0
 14 16  2  0  0  0  0
 17 18  2  0  0  0  0
 17 19  1  0  0  0  0
 19 20  1  0  0  0  0
 19 21  1  0  0  0  0
 21 22  1  0  0  0  0
 21 23  1  0  0  0  0
 21 24  1  0  0  0  0
M  CHG  1  15  -1
M  END
$$$$

  -OEChem-03222214023D

 24 23  0     1  0  0  0  0  0999 V2000
   -2.4819   -3.4153   -0.2024 H   0  0  0  0  0  0  0  0  0  0  0  0
   -2.3817   -2.3980   -0.5912 C   0  0  0  0  0  0  0  0  0  0  0  0
   -2.9959   -1.7283    0.0156 H   0  0  0  0  0  0  0  0  0  0  0  0
   -2.7408   -2.3780   -1.6231 H   0  0  0  0  0  0  0  0  0  0  0  0
   -0.9291   -1.9587   -0.5386 C   0  0  0  0  0  0  0  0  0  0  0  0
   -0.0809   -2.7508   -0.1705 O   0  0  0  0  0  0  0  0  0  0  0  0
   -0.6018   -0.6883   -0.9628 N   0  0  0  0  0  0  0  0  0  0  0  0
   -1.3685   -0.0984   -1.2617 H   0  0  0  0  0  0  0  0  0  0  0  0
    0.7135   -0.0443   -0.7970 C   0  0  1  0  0  0  0  0  0  0  0  0
    1.4953   -0.6244   -1.2987 H   0  0  0  0  0  0  0  0  0  0  0  0
    0.4935    1.2843   -1.5704 C   0  0  0  0  0  0  0  0  0  0  0  0
    0.4541    1.0498   -2.6381 H   0  0  0  0  0  0  0  0  0  0  0  0
   -0.4753    1.7031   -1.2847 H   0  0  0  0  0  0  0  0  0  0  0  0
    1.4867    2.4300   -1.3787 C   0  0  0  0  0  0  0  0  0  0  0  0
    2.0879    2.5676   -0.2911 O   0  5  0  0  0  0  0  0  0  0  0  0
    1.5525    3.2403   -2.3341 O   0  0  0  0  0  0  0  0  0  0  0  0
    1.1278    0.0905    0.6955 C   0  0  0  0  0  0  0  0  0  0  0  0
    2.1453   -0.4585    1.1094 O   0  0  0  0  0  0  0  0  0  0  0  0
    0.1977    0.5455    1.6179 N   0  0  0  0  0  0  0  0  0  0  0  0
   -0.4970    1.1716    1.2291 H   0  0  0  0  0  0  0  0  0  0  0  0
    0.5317    0.6994    3.0258 C   0  0  0  0  0  0  0  0  0  0  0  0
    1.3659    1.3988    3.1447 H   0  0  0  0  0  0  0  0  0  0  0  0
   -0.3303    1.0874    3.5760 H   0  0  0  0  0  0  0  0  0  0  0  0
    0.8125   -0.2651    3.4609 H   0  0  0  0  0  0  0  0  0  0  0  0
  1  2  1  0  0  0  0
  2  3  1  0  0  0  0
  2  4  1  0  0  0  0
  2  5  1  0  0  0  0
  5  6  2  0  0  0  0
  5  7  1  0  0  0  0
  7  8  1  0  0  0  0
  7  9  1  0  0  0  0
  9 10  1  0  0  0  0
  9 11  1  0  0  0  0
  9 17  1  0  0  0  0
 11 12  1  0  0  0  0
 11 13  1  0  0  0  0
 11 14  1  0  0  0  0
 14 15  1  0  0  0  0
 14 16  2  0  0  0  0
 17 18  2  0  0  0  0
 17 19  1  0  0  0  0
 19 20  1  0  0  0  0
 19 21  1  0  0  0  0
 21 22  1  0  0  0  0
 21 23  1  0  0  0  0
 21 24  1  0  0  0  0
M  CHG  1  15  -1
M  END
$$$$

  -OEChem-03222214023D

 24 23  0     1  0  0  0  0  0999 V2000
   -2.4892   -3.4044   -0.1891 H   0  0  0  0  0  0  0  0  0  0  0  0
   -2.3829   -2.3902   -0.5847 C   0  0  0  0  0  0  0  0  0  0  0  0
   -2.9971   -1.7138    0.0145 H   0  0  0  0  0  0  0  0  0  0  0  0
   -2.7378   -2.3763   -1.6181 H   0  0  0  0  0  0  0  0  0  0  0  0
   -0.9286   -1.9561   -0.5295 C   0  0  0  0  0  0  0  0  0  0  0  0
   -0.0857   -2.7503   -0.1537 O   0  0  0  0  0  0  0  0  0  0  0  0
   -0.5940   -0.6898   -0.9610 N   0  0  0  0  0  0  0  0  0  0  0  0
   -1.3558   -0.1014   -1.2749 H   0  0  0  0  0  0  0  0  0  0  0  0
    0.7254   -0.0506   -0.8044 C   0  0  1  0  0  0  0  0  0  0  0  0
    1.5063   -0.6263   -1.3126 H   0  0  0  0  0  0  0  0  0  0  0  0
    0.4917    1.2855   -1.5616 C   0  0  0  0  0  0  0  0  0  0  0  0
    0.4413    1.0624   -2.6312 H   0  0  0  0  0  0  0  0  0  0  0  0
   -0.4755    1.6973   -1.2592 H   0  0  0  0  0  0  0  0  0  0  0  0
    1.4825    2.4343   -1.3787 C   0  0  0  0  0  0  0  0  0  0  0  0
    2.3057    2.4286   -0.4390 O   0  5  0  0  0  0  0  0  0  0  0  0
    1.3294    3.3849   -2.1831 O   0  0  0  0  0  0  0  0  0  0  0  0
    1.1397    0.0871    0.6885 C   0  0  0  0  0  0  0  0  0  0  0  0
    2.1447   -0.4759    1.1132 O   0  0  0  0  0  0  0  0  0  0  0  0
    0.2086    0.5502    1.6062 N   0  0  0  0  0  0  0  0  0  0  0  0
   -0.5015    1.1573    1.2152 H   0  0  0  0  0  0  0  0  0  0  0  0
    0.5280    0.6974    3.0183 C   0  0  0  0  0  0  0  0  0  0  0  0
    1.3792    1.3739    3.1481 H   0  0  0  0  0  0  0  0  0  0  0  0
   -0.3304    1.1095    3.5564 H   0  0  0  0  0  0  0  0  0  0  0  0
    0.7765   -0.2738    3.4583 H   0  0  0  0  0  0  0  0  0  0  0  0
  1  2  1  0  0  0  0
  2  3  1  0  0  0  0
  2  4  1  0  0  0  0
  2  5  1  0  0  0  0
  5  6  2  0  0  0  0
  5  7  1  0  0  0  0
  7  8  1  0  0  0  0
  7  9  1  0  0  0  0
  9 10  1  0  0  0  0
  9 11  1  0  0  0  0
  9 17  1  0  0  0  0
 11 12  1  0  0  0  0
 11 13  1  0  0  0  0
 11 14  1  0  0  0  0
 14 15  1  0  0  0  0
 14 16  2  0  0  0  0
 17 18  2  0  0  0  0
 17 19  1  0  0  0  0
 19 20  1  0  0  0  0
 19 21  1  0  0  0  0
 21 22  1  0  0  0  0
 21 23  1  0  0  0  0
 21 24  1  0  0  0  0
M  CHG  1  15  -1
M  END
$$$$

  -OEChem-03222214023D

 24 23  0     1  0  0  0  0  0999 V2000
   -2.4929   -3.4002   -0.1767 H   0  0  0  0  0  0  0  0  0  0  0  0
   -2.3843   -2.3888   -0.5783 C   0  0  0  0  0  0  0  0  0  0  0  0
   -2.9975   -1.7077    0.0166 H   0  0  0  0  0  0  0  0  0  0  0  0
   -2.7382   -2.3804   -1.6120 H   0  0  0  0  0  0  0  0  0  0  0  0
   -0.9291   -1.9573   -0.5245 C   0  0  0  0  0  0  0  0  0  0  0  0
   -0.0880   -2.7512   -0.1441 O   0  0  0  0  0  0  0  0  0  0  0  0
   -0.5918   -0.6946   -0.9641 N   0  0  0  0  0  0  0  0  0  0  0  0
   -1.3521   -0.1074   -1.2839 H   0  0  0  0  0  0  0  0  0  0  0  0
    0.7296   -0.0576   -0.8157 C   0  0  1  0  0  0  0  0  0  0  0  0
    1.5101   -0.6267   -1.3318 H   0  0  0  0  0  0  0  0  0  0  0  0
    0.4825    1.2863   -1.5516 C   0  0  0  0  0  0  0  0  0  0  0  0
    0.4236    1.0808   -2.6239 H   0  0  0  0  0  0  0  0  0  0  0  0
   -0.4826    1.6919   -1.2337 H   0  0  0  0  0  0  0  0  0  0  0  0
    1.4805    2.4262   -1.3601 C   0  0  0  0  0  0  0  0  0  0  0  0
    2.4815    2.2870   -0.6261 O   0  5  0  0  0  0  0  0  0  0  0  0
    1.1677    3.4926   -1.9425 O   0  0  0  0  0  0  0  0  0  0  0  0
    1.1486    0.0877    0.6754 C   0  0  0  0  0  0  0  0  0  0  0  0
    2.1495   -0.4759    1.1077 O   0  0  0  0  0  0  0  0  0  0  0  0
    0.2186    0.5590    1.5904 N   0  0  0  0  0  0  0  0  0  0  0  0
   -0.5068    1.1460    1.1968 H   0  0  0  0  0  0  0  0  0  0  0  0
    0.5294    0.7074    3.0042 C   0  0  0  0  0  0  0  0  0  0  0  0
    1.3881    1.3734    3.1381 H   0  0  0  0  0  0  0  0  0  0  0  0
   -0.3274    1.1329    3.5344 H   0  0  0  0  0  0  0  0  0  0  0  0
    0.7618   -0.2655    3.4491 H   0  0  0  0  0  0  0  0  0  0  0  0
  1  2  1  0  0  0  0
  2  3  1  0  0  0  0
  2  4  1  0  0  0  0
  2  5  1  0  0  0  0
  5  6  2  0  0  0  0
  5  7  1  0  0  0  0
  7  8  1  0  0  0  0
  7  9  1  0  0  0  0
  9 10  1  0  0  0  0
  9 11  1  0  0  0  0
  9 17  1  0  0  0  0
 11 12  1  0  0  0  0
 11 13  1  0  0  0  0
 11 14  1  0  0  0  0
 14 15  1  0  0  0  0
 14 16  2  0  0  0  0
 17 18  2  0  0  0  0
 17 19  1  0  0  0  0
 19 20  1  0  0  0  0
 19 21  1  0  0  0  0
 21 22  1  0  0  0  0
 21 23  1  0  0  0  0
 21 24  1  0  0  0  0
M  CHG  1  15  -1
M  END
$$$$

  -OEChem-03222214023D

 24 23  0     1  0  0  0  0  0999 V2000
   -2.4936   -3.4059   -0.1698 H   0  0  0  0  0  0  0  0  0  0  0  0
   -2.3860   -2.3962   -0.5765 C   0  0  0  0  0  0  0  0  0  0  0  0
   -3.0010   -1.7128    0.0143 H   0  0  0  0  0  0  0  0  0  0  0  0
   -2.7388   -2.3935   -1.6107 H   0  0  0  0  0  0  0  0  0  0  0  0
   -0.9316   -1.9623   -0.5235 C   0  0  0  0  0  0  0  0  0  0  0  0
   -0.0901   -2.7513   -0.1348 O   0  0  0  0  0  0  0  0  0  0  0  0
   -0.5965   -0.7012   -0.9691 N   0  0  0  0  0  0  0  0  0  0  0  0
   -1.3574   -0.1173   -1.2944 H   0  0  0  0  0  0  0  0  0  0  0  0
    0.7249   -0.0625   -0.8273 C   0  0  1  0  0  0  0  0  0  0  0  0
    1.5053   -0.6244   -1.3518 H   0  0  0  0  0  0  0  0  0  0  0  0
    0.4680    1.2896   -1.5407 C   0  0  0  0  0  0  0  0  0  0  0  0
    0.4072    1.1041   -2.6162 H   0  0  0  0  0  0  0  0  0  0  0  0
   -0.4960    1.6907   -1.2133 H   0  0  0  0  0  0  0  0  0  0  0  0
    1.4812    2.4108   -1.3276 C   0  0  0  0  0  0  0  0  0  0  0  0
    2.6063    2.1631   -0.8441 O   0  5  0  0  0  0  0  0  0  0  0  0
    1.0726    3.5563   -1.6366 O   0  0  0  0  0  0  0  0  0  0  0  0
    1.1528    0.0912    0.6602 C   0  0  0  0  0  0  0  0  0  0  0  0
    2.1604   -0.4584    1.0937 O   0  0  0  0  0  0  0  0  0  0  0  0
    0.2257    0.5667    1.5756 N   0  0  0  0  0  0  0  0  0  0  0  0
   -0.5153    1.1335    1.1810 H   0  0  0  0  0  0  0  0  0  0  0  0
    0.5373    0.7267    2.9881 C   0  0  0  0  0  0  0  0  0  0  0  0
    1.3994    1.3895    3.1163 H   0  0  0  0  0  0  0  0  0  0  0  0
   -0.3173    1.1618    3.5140 H   0  0  0  0  0  0  0  0  0  0  0  0
    0.7646   -0.2433    3.4418 H   0  0  0  0  0  0  0  0  0  0  0  0
  1  2  1  0  0  0  0
  2  3  1  0  0  0  0
  2  4  1  0  0  0  0
  2  5  1  0  0  0  0
  5  6  2  0  0  0  0
  5  7  1  0  0  0  0
  7  8  1  0  0  0  0
  7  9  1  0  0  0  0
  9 10  1  0  0  0  0
  9 11  1  0  0  0  0
  9 17  1  0  0  0  0
 11 12  1  0  0  0  0
 11 13  1  0  0  0  0
 11 14  1  0  0  0  0
 14 15  1  0  0  0  0
 14 16  2  0  0  0  0
 17 18  2  0  0  0  0
 17 19  1  0  0  0  0
 19 20  1  0  0  0  0
 19 21  1  0  0  0  0
 21 22  1  0  0  0  0
 21 23  1  0  0  0  0
 21 24  1  0  0  0  0
M  CHG  1  15  -1
M  END
$$$$

  -OEChem-03222214023D

 24 23  0     1  0  0  0  0  0999 V2000
   -2.4913   -3.4198   -0.1765 H   0  0  0  0  0  0  0  0  0  0  0  0
   -2.3882   -2.4097   -0.5831 C   0  0  0  0  0  0  0  0  0  0  0  0
   -3.0084   -1.7297    0.0060 H   0  0  0  0  0  0  0  0  0  0  0  0
   -2.7386   -2.4090   -1.6181 H   0  0  0  0  0  0  0  0  0  0  0  0
   -0.9364   -1.9683   -0.5262 C   0  0  0  0  0  0  0  0  0  0  0  0
   -0.0928   -2.7492   -0.1252 O   0  0  0  0  0  0  0  0  0  0  0  0
   -0.6066   -0.7068   -0.9742 N   0  0  0  0  0  0  0  0  0  0  0  0
   -1.3681   -0.1281   -1.3066 H   0  0  0  0  0  0  0  0  0  0  0  0
    0.7126   -0.0643   -0.8361 C   0  0  1  0  0  0  0  0  0  0  0  0
    1.4923   -0.6200   -1.3680 H   0  0  0  0  0  0  0  0  0  0  0  0
    0.4516    1.2942   -1.5304 C   0  0  0  0  0  0  0  0  0  0  0  0
    0.3922    1.1287   -2.6090 H   0  0  0  0  0  0  0  0  0  0  0  0
   -0.5112    1.6942   -1.1977 H   0  0  0  0  0  0  0  0  0  0  0  0
    1.4852    2.3883   -1.2875 C   0  0  0  0  0  0  0  0  0  0  0  0
    2.6778    2.0764   -1.0806 O   0  5  0  0  0  0  0  0  0  0  0  0
    1.0413    3.5621   -1.2979 O   0  0  0  0  0  0  0  0  0  0  0  0
    1.1495    0.0952    0.6476 C   0  0  0  0  0  0  0  0  0  0  0  0
    2.1745   -0.4257    1.0744 O   0  0  0  0  0  0  0  0  0  0  0  0
    0.2267    0.5704    1.5672 N   0  0  0  0  0  0  0  0  0  0  0  0
   -0.5263    1.1233    1.1745 H   0  0  0  0  0  0  0  0  0  0  0  0
    0.5510    0.7512    2.9742 C   0  0  0  0  0  0  0  0  0  0  0  0
    1.4045    1.4280    3.0854 H   0  0  0  0  0  0  0  0  0  0  0  0
   -0.3044    1.1800    3.5041 H   0  0  0  0  0  0  0  0  0  0  0  0
    0.7974   -0.2100    3.4368 H   0  0  0  0  0  0  0  0  0  0  0  0
  1  2  1  0  0  0  0
  2  3  1  0  0  0  0
  2  4  1  0  0  0  0
  2  5  1  0  0  0  0
  5  6  2  0  0  0  0
  5  7  1  0  0  0  0
  7  8  1  0  0  0  0
  7  9  1  0  0  0  0
  9 10  1  0  0  0  0
  9 11  1  0  0  0  0
  9 17  1  0  0  0  0
 11 12  1  0  0  0  0
 11 13  1  0  0  0  0
 11 14  1  0  0  0  0
 14 15  1  0  0  0  0
 14 16  2  0  0  0  0
 17 18  2  0  0  0  0
 17 19  1  0  0  0  0
 19 20  1  0  0  0  0
 19 21  1  0  0  0  0
 21 22  1  0  0  0  0
 21 23  1  0  0  0  0
 21 24  1  0  0  0  0
M  CHG  1  15  -1
M  END
$$$$

  -OEChem-03222214023D

 24 23  0     1  0  0  0  0  0999 V2000
   -2.4913   -3.4409   -0.2028 H   0  0  0  0  0  0  0  0  0  0  0  0
   -2.3934   -2.4258   -0.5982 C   0  0  0  0  0  0  0  0  0  0  0  0
   -3.0225   -1.7563   -0.0064 H   0  0  0  0  0  0  0  0  0  0  0  0
   -2.7369   -2.4170   -1.6355 H   0  0  0  0  0  0  0  0  0  0  0  0
   -0.9452   -1.9738   -0.5275 C   0  0  0  0  0  0  0  0  0  0  0  0
   -0.1003   -2.7468   -0.1143 O   0  0  0  0  0  0  0  0  0  0  0  0
   -0.6196   -0.7115   -0.9763 N   0  0  0  0  0  0  0  0  0  0  0  0
   -1.3821   -0.1374   -1.3142 H   0  0  0  0  0  0  0  0  0  0  0  0
    0.6970   -0.0647   -0.8384 C   0  0  1  0  0  0  0  0  0  0  0  0
    1.4771   -0.6176   -1.3728 H   0  0  0  0  0  0  0  0  0  0  0  0
    0.4384    1.2959   -1.5237 C   0  0  0  0  0  0  0  0  0  0  0  0
    0.3861    1.1431   -2.6046 H   0  0  0  0  0  0  0  0  0  0  0  0
   -0.5245    1.6995   -1.1951 H   0  0  0  0  0  0  0  0  0  0  0  0
    1.4909    2.3630   -1.2528 C   0  0  0  0  0  0  0  0  0  0  0  0
    2.6999    2.0510   -1.3251 O   0  5  0  0  0  0  0  0  0  0  0  0
    1.0558    3.5044   -0.9642 O   0  0  0  0  0  0  0  0  0  0  0  0
    1.1417    0.1017    0.6414 C   0  0  0  0  0  0  0  0  0  0  0  0
    2.1869   -0.3877    1.0552 O   0  0  0  0  0  0  0  0  0  0  0  0
    0.2253    0.5762    1.5670 N   0  0  0  0  0  0  0  0  0  0  0  0
   -0.5262    1.1332    1.1765 H   0  0  0  0  0  0  0  0  0  0  0  0
    0.5678    0.7752    2.9672 C   0  0  0  0  0  0  0  0  0  0  0  0
    1.3952    1.4863    3.0606 H   0  0  0  0  0  0  0  0  0  0  0  0
   -0.2945    1.1704    3.5116 H   0  0  0  0  0  0  0  0  0  0  0  0
    0.8615   -0.1734    3.4283 H   0  0  0  0  0  0  0  0  0  0  0  0
  1  2  1  0  0  0  0
  2  3  1  0  0  0  0
  2  4  1  0  0  0  0
  2  5  1  0  0  0  0
  5  6  2  0  0  0  0
  5  7  1  0  0  0  0
  7  8  1  0  0  0  0
  7  9  1  0  0  0  0
  9 10  1  0  0  0  0
  9 11  1  0  0  0  0
  9 17  1  0  0  0  0
 11 12  1  0  0  0  0
 11 13  1  0  0  0  0
 11 14  1  0  0  0  0
 14 15  1  0  0  0  0
 14 16  2  0  0  0  0
 17 18  2  0  0  0  0
 17 19  1  0  0  0  0
 19 20  1  0  0  0  0
 19 21  1  0  0  0  0
 21 22  1  0  0  0  0
 21 23  1  0  0  0  0
 21 24  1  0  0  0  0
M  CHG  1  15  -1
M  END
$$$$

  -OEChem-03222214023D

 24 23  0     1  0  0  0  0  0999 V2000
   -2.4871   -3.4552   -0.2126 H   0  0  0  0  0  0  0  0  0  0  0  0
   -2.3954   -2.4391   -0.6071 C   0  0  0  0  0  0  0  0  0  0  0  0
   -3.0265   -1.7736   -0.0132 H   0  0  0  0  0  0  0  0  0  0  0  0
   -2.7414   -2.4310   -1.6435 H   0  0  0  0  0  0  0  0  0  0  0  0
   -0.9496   -1.9795   -0.5388 C   0  0  0  0  0  0  0  0  0  0  0  0
   -0.0998   -2.7485   -0.1277 O   0  0  0  0  0  0  0  0  0  0  0  0
   -0.6300   -0.7142   -0.9836 N   0  0  0  0  0  0  0  0  0  0  0  0
   -1.3951   -0.1403   -1.3157 H   0  0  0  0  0  0  0  0  0  0  0  0
    0.6833   -0.0636   -0.8386 C   0  0  1  0  0  0  0  0  0  0  0  0
    1.4649   -0.6148   -1.3731 H   0  0  0  0  0  0  0  0  0  0  0  0
    0.4314    1.2973   -1.5211 C   0  0  0  0  0  0  0  0  0  0  0  0
    0.3884    1.1524   -2.6036 H   0  0  0  0  0  0  0  0  0  0  0  0
   -0.5320    1.7060   -1.2004 H   0  0  0  0  0  0  0  0  0  0  0  0
    1.4952    2.3439   -1.2240 C   0  0  0  0  0  0  0  0  0  0  0  0
    2.6778    2.1040   -1.5553 O   0  5  0  0  0  0  0  0  0  0  0  0
    1.0982    3.3941   -0.6623 O   0  0  0  0  0  0  0  0  0  0  0  0
    1.1304    0.1039    0.6400 C   0  0  0  0  0  0  0  0  0  0  0  0
    2.1909   -0.3620    1.0416 O   0  0  0  0  0  0  0  0  0  0  0  0
    0.2175    0.5743    1.5706 N   0  0  0  0  0  0  0  0  0  0  0  0
   -0.5207    1.1494    1.1800 H   0  0  0  0  0  0  0  0  0  0  0  0
    0.5792    0.7916    2.9633 C   0  0  0  0  0  0  0  0  0  0  0  0
    1.3974    1.5153    3.0365 H   0  0  0  0  0  0  0  0  0  0  0  0
   -0.2800    1.1800    3.5175 H   0  0  0  0  0  0  0  0  0  0  0  0
    0.8937   -0.1482    3.4287 H   0  0  0  0  0  0  0  0  0  0  0  0
  1  2  1  0  0  0  0
  2  3  1  0  0  0  0
  2  4  1  0  0  0  0
  2  5  1  0  0  0  0
  5  6  2  0  0  0  0
  5  7  1  0  0  0  0
  7  8  1  0  0  0  0
  7  9  1  0  0  0  0
  9 10  1  0  0  0  0
  9 11  1  0  0  0  0
  9 17  1  0  0  0  0
 11 12  1  0  0  0  0
 11 13  1  0  0  0  0
 11 14  1  0  0  0  0
 14 15  1  0  0  0  0
 14 16  2  0  0  0  0
 17 18  2  0  0  0  0
 17 19  1  0  0  0  0
 19 20  1  0  0  0  0
 19 21  1  0  0  0  0
 21 22  1  0  0  0  0
 21 23  1  0  0  0  0
 21 24  1  0  0  0  0
M  CHG  1  15  -1
M  END
$$$$

  -OEChem-03222214023D

 24 23  0     1  0  0  0  0  0999 V2000
   -2.4853   -3.4640   -0.2254 H   0  0  0  0  0  0  0  0  0  0  0  0
   -2.3972   -2.4447   -0.6121 C   0  0  0  0  0  0  0  0  0  0  0  0
   -3.0254   -1.7847   -0.0089 H   0  0  0  0  0  0  0  0  0  0  0  0
   -2.7494   -2.4287   -1.6464 H   0  0  0  0  0  0  0  0  0  0  0  0
   -0.9519   -1.9836   -0.5488 C   0  0  0  0  0  0  0  0  0  0  0  0
   -0.0983   -2.7529   -0.1458 O   0  0  0  0  0  0  0  0  0  0  0  0
   -0.6366   -0.7156   -0.9883 N   0  0  0  0  0  0  0  0  0  0  0  0
   -1.4057   -0.1380   -1.3044 H   0  0  0  0  0  0  0  0  0  0  0  0
    0.6739   -0.0622   -0.8344 C   0  0  1  0  0  0  0  0  0  0  0  0
    1.4562   -0.6164   -1.3648 H   0  0  0  0  0  0  0  0  0  0  0  0
    0.4329    1.2954   -1.5243 C   0  0  0  0  0  0  0  0  0  0  0  0
    0.3997    1.1494   -2.6073 H   0  0  0  0  0  0  0  0  0  0  0  0
   -0.5310    1.7113   -1.2152 H   0  0  0  0  0  0  0  0  0  0  0  0
    1.5003    2.3322   -1.2119 C   0  0  0  0  0  0  0  0  0  0  0  0
    2.6172    2.2224   -1.7669 O   0  5  0  0  0  0  0  0  0  0  0  0
    1.1616    3.2598   -0.4366 O   0  0  0  0  0  0  0  0  0  0  0  0
    1.1202    0.1044    0.6443 C   0  0  0  0  0  0  0  0  0  0  0  0
    2.1903   -0.3491    1.0350 O   0  0  0  0  0  0  0  0  0  0  0  0
    0.2092    0.5703    1.5785 N   0  0  0  0  0  0  0  0  0  0  0  0
   -0.5103    1.1689    1.1876 H   0  0  0  0  0  0  0  0  0  0  0  0
    0.5850    0.7961    2.9661 C   0  0  0  0  0  0  0  0  0  0  0  0
    1.3861    1.5401    3.0279 H   0  0  0  0  0  0  0  0  0  0  0  0
   -0.2758    1.1628    3.5325 H   0  0  0  0  0  0  0  0  0  0  0  0
    0.9291   -0.1355    3.4271 H   0  0  0  0  0  0  0  0  0  0  0  0
  1  2  1  0  0  0  0
  2  3  1  0  0  0  0
  2  4  1  0  0  0  0
  2  5  1  0  0  0  0
  5  6  2  0  0  0  0
  5  7  1  0  0  0  0
  7  8  1  0  0  0  0
  7  9  1  0  0  0  0
  9 10  1  0  0  0  0
  9 11  1  0  0  0  0
  9 17  1  0  0  0  0
 11 12  1  0  0  0  0
 11 13  1  0  0  0  0
 11 14  1  0  0  0  0
 14 15  1  0  0  0  0
 14 16  2  0  0  0  0
 17 18  2  0  0  0  0
 17 19  1  0  0  0  0
 19 20  1  0  0  0  0
 19 21  1  0  0  0  0
 21 22  1  0  0  0  0
 21 23  1  0  0  0  0
 21 24  1  0  0  0  0
M  CHG  1  15  -1
M  END
$$$$

  -OEChem-03222214023D

 24 23  0     1  0  0  0  0  0999 V2000
   -2.4805   -3.4644   -0.2223 H   0  0  0  0  0  0  0  0  0  0  0  0
   -2.3951   -2.4449   -0.6088 C   0  0  0  0  0  0  0  0  0  0  0  0
   -3.0189   -1.7855   -0.0003 H   0  0  0  0  0  0  0  0  0  0  0  0
   -2.7545   -2.4278   -1.6406 H   0  0  0  0  0  0  0  0  0  0  0  0
   -0.9493   -1.9842   -0.5566 C   0  0  0  0  0  0  0  0  0  0  0  0
   -0.0908   -2.7561   -0.1691 O   0  0  0  0  0  0  0  0  0  0  0  0
   -0.6384   -0.7137   -0.9915 N   0  0  0  0  0  0  0  0  0  0  0  0
   -1.4132   -0.1301   -1.2817 H   0  0  0  0  0  0  0  0  0  0  0  0
    0.6696   -0.0584   -0.8288 C   0  0  1  0  0  0  0  0  0  0  0  0
    1.4530   -0.6182   -1.3516 H   0  0  0  0  0  0  0  0  0  0  0  0
    0.4405    1.2925   -1.5354 C   0  0  0  0  0  0  0  0  0  0  0  0
    0.4157    1.1346   -2.6171 H   0  0  0  0  0  0  0  0  0  0  0  0
   -0.5247    1.7156   -1.2410 H   0  0  0  0  0  0  0  0  0  0  0  0
    1.5046    2.3312   -1.2190 C   0  0  0  0  0  0  0  0  0  0  0  0
    2.5167    2.3893   -1.9547 O   0  5  0  0  0  0  0  0  0  0  0  0
    1.2381    3.1268   -0.2848 O   0  0  0  0  0  0  0  0  0  0  0  0
    1.1129    0.1063    0.6511 C   0  0  0  0  0  0  0  0  0  0  0  0
    2.1846   -0.3493    1.0363 O   0  0  0  0  0  0  0  0  0  0  0  0
    0.2020    0.5680    1.5870 N   0  0  0  0  0  0  0  0  0  0  0  0
   -0.4940    1.1945    1.1969 H   0  0  0  0  0  0  0  0  0  0  0  0
    0.5830    0.7840    2.9748 C   0  0  0  0  0  0  0  0  0  0  0  0
    1.3908    1.5206    3.0379 H   0  0  0  0  0  0  0  0  0  0  0  0
   -0.2731    1.1555    3.5451 H   0  0  0  0  0  0  0  0  0  0  0  0
    0.9198   -0.1526    3.4305 H   0  0  0  0  0  0  0  0  0  0  0  0
  1  2  1  0  0  0  0
  2  3  1  0  0  0  0
  2  4  1  0  0  0  0
  2  5  1  0  0  0  0
  5  6  2  0  0  0  0
  5  7  1  0  0  0  0
  7  8  1  0  0  0  0
  7  9  1  0  0  0  0
  9 10  1  0  0  0  0
  9 11  1  0  0  0  0
  9 17  1  0  0  0  0
 11 12  1  0  0  0  0
 11 13  1  0  0  0  0
 11 14  1  0  0  0  0
 14 15  1  0  0  0  0
 14 16  2  0  0  0  0
 17 18  2  0  0  0  0
 17 19  1  0  0  0  0
 19 20  1  0  0  0  0
 19 21  1  0  0  0  0
 21 22  1  0  0  0  0
 21 23  1  0  0  0  0
 21 24  1  0  0  0  0
M  CHG  1  15  -1
M  END
$$$$

  -OEChem-03222214023D

 24 23  0     1  0  0  0  0  0999 V2000
   -2.4785   -3.4572   -0.2097 H   0  0  0  0  0  0  0  0  0  0  0  0
   -2.3937   -2.4400   -0.6024 C   0  0  0  0  0  0  0  0  0  0  0  0
   -3.0092   -1.7753    0.0087 H   0  0  0  0  0  0  0  0  0  0  0  0
   -2.7636   -2.4273   -1.6306 H   0  0  0  0  0  0  0  0  0  0  0  0
   -0.9459   -1.9837   -0.5661 C   0  0  0  0  0  0  0  0  0  0  0  0
   -0.0844   -2.7613   -0.1968 O   0  0  0  0  0  0  0  0  0  0  0  0
   -0.6365   -0.7103   -0.9937 N   0  0  0  0  0  0  0  0  0  0  0  0
   -1.4145   -0.1208   -1.2626 H   0  0  0  0  0  0  0  0  0  0  0  0
    0.6703   -0.0553   -0.8212 C   0  0  1  0  0  0  0  0  0  0  0  0
    1.4540   -0.6222   -1.3355 H   0  0  0  0  0  0  0  0  0  0  0  0
    0.4559    1.2893   -1.5475 C   0  0  0  0  0  0  0  0  0  0  0  0
    0.4393    1.1147   -2.6271 H   0  0  0  0  0  0  0  0  0  0  0  0
   -0.5108    1.7188   -1.2689 H   0  0  0  0  0  0  0  0  0  0  0  0
    1.5118    2.3393   -1.2368 C   0  0  0  0  0  0  0  0  0  0  0  0
    2.3777    2.5810   -2.1099 O   0  5  0  0  0  0  0  0  0  0  0  0
    1.3302    3.0110   -0.1917 O   0  0  0  0  0  0  0  0  0  0  0  0
    1.1078    0.1024    0.6608 C   0  0  0  0  0  0  0  0  0  0  0  0
    2.1764   -0.3628    1.0440 O   0  0  0  0  0  0  0  0  0  0  0  0
    0.1949    0.5587    1.5975 N   0  0  0  0  0  0  0  0  0  0  0  0
   -0.4819    1.2069    1.2087 H   0  0  0  0  0  0  0  0  0  0  0  0
    0.5782    0.7649    2.9861 C   0  0  0  0  0  0  0  0  0  0  0  0
    1.3909    1.4959    3.0519 H   0  0  0  0  0  0  0  0  0  0  0  0
   -0.2753    1.1392    3.5585 H   0  0  0  0  0  0  0  0  0  0  0  0
    0.9094   -0.1760    3.4375 H   0  0  0  0  0  0  0  0  0  0  0  0
  1  2  1  0  0  0  0
  2  3  1  0  0  0  0
  2  4  1  0  0  0  0
  2  5  1  0  0  0  0
  5  6  2  0  0  0  0
  5  7  1  0  0  0  0
  7  8  1  0  0  0  0
  7  9  1  0  0  0  0
  9 10  1  0  0  0  0
  9 11  1  0  0  0  0
  9 17  1  0  0  0  0
 11 12  1  0  0  0  0
 11 13  1  0  0  0  0
 11 14  1  0  0  0  0
 14 15  1  0  0  0  0
 14 16  2  0  0  0  0
 17 18  2  0  0  0  0
 17 19  1  0  0  0  0
 19 20  1  0  0  0  0
 19 21  1  0  0  0  0
 21 22  1  0  0  0  0
 21 23  1  0  0  0  0
 21 24  1  0  0  0  0
M  CHG  1  15  -1
M  END
$$$$

  -OEChem-03222214023D

 24 23  0     1  0  0  0  0  0999 V2000
   -2.4791   -3.4480   -0.2058 H   0  0  0  0  0  0  0  0  0  0  0  0
   -2.3929   -2.4305   -0.5975 C   0  0  0  0  0  0  0  0  0  0  0  0
   -3.0053   -1.7653    0.0162 H   0  0  0  0  0  0  0  0  0  0  0  0
   -2.7655   -2.4153   -1.6246 H   0  0  0  0  0  0  0  0  0  0  0  0
   -0.9436   -1.9781   -0.5647 C   0  0  0  0  0  0  0  0  0  0  0  0
   -0.0824   -2.7609   -0.2054 O   0  0  0  0  0  0  0  0  0  0  0  0
   -0.6317   -0.7038   -0.9879 N   0  0  0  0  0  0  0  0  0  0  0  0
   -1.4086   -0.1109   -1.2525 H   0  0  0  0  0  0  0  0  0  0  0  0
    0.6764   -0.0520   -0.8115 C   0  0  1  0  0  0  0  0  0  0  0  0
    1.4584   -0.6283   -1.3181 H   0  0  0  0  0  0  0  0  0  0  0  0
    0.4739    1.2847   -1.5606 C   0  0  0  0  0  0  0  0  0  0  0  0
    0.4599    1.0873   -2.6365 H   0  0  0  0  0  0  0  0  0  0  0  0
   -0.4937    1.7195   -1.2947 H   0  0  0  0  0  0  0  0  0  0  0  0
    1.5182    2.3551   -1.2726 C   0  0  0  0  0  0  0  0  0  0  0  0
    2.1919    2.7782   -2.2415 O   0  5  0  0  0  0  0  0  0  0  0  0
    1.4570    2.9048   -0.1462 O   0  0  0  0  0  0  0  0  0  0  0  0
    1.1097    0.0984    0.6725 C   0  0  0  0  0  0  0  0  0  0  0  0
    2.1706   -0.3842    1.0573 O   0  0  0  0  0  0  0  0  0  0  0  0
    0.1940    0.5527    1.6076 N   0  0  0  0  0  0  0  0  0  0  0  0
   -0.4682    1.2163    1.2200 H   0  0  0  0  0  0  0  0  0  0  0  0
    0.5704    0.7395    3.0006 C   0  0  0  0  0  0  0  0  0  0  0  0
    1.3836    1.4685    3.0805 H   0  0  0  0  0  0  0  0  0  0  0  0
   -0.2855    1.1070    3.5737 H   0  0  0  0  0  0  0  0  0  0  0  0
    0.8983   -0.2078    3.4406 H   0  0  0  0  0  0  0  0  0  0  0  0
  1  2  1  0  0  0  0
  2  3  1  0  0  0  0
  2  4  1  0  0  0  0
  2  5  1  0  0  0  0
  5  6  2  0  0  0  0
  5  7  1  0  0  0  0
  7  8  1  0  0  0  0
  7  9  1  0  0  0  0
  9 10  1  0  0  0  0
  9 11  1  0  0  0  0
  9 17  1  0  0  0  0
 11 12  1  0  0  0  0
 11 13  1  0  0  0  0
 11 14  1  0  0  0  0
 14 15  1  0  0  0  0
 14 16  2  0  0  0  0
 17 18  2  0  0  0  0
 17 19  1  0  0  0  0
 19 20  1  0  0  0  0
 19 21  1  0  0  0  0
 21 22  1  0  0  0  0
 21 23  1  0  0  0  0
 21 24  1  0  0  0  0
M  CHG  1  15  -1
M  END
$$$$

  -OEChem-03222214023D

 24 23  0     1  0  0  0  0  0999 V2000
   -2.4813   -3.4352   -0.2037 H   0  0  0  0  0  0  0  0  0  0  0  0
   -2.3906   -2.4180   -0.5950 C   0  0  0  0  0  0  0  0  0  0  0  0
   -3.0022   -1.7509    0.0173 H   0  0  0  0  0  0  0  0  0  0  0  0
   -2.7607   -2.4016   -1.6229 H   0  0  0  0  0  0  0  0  0  0  0  0
   -0.9399   -1.9703   -0.5588 C   0  0  0  0  0  0  0  0  0  0  0  0
   -0.0817   -2.7584   -0.2041 O   0  0  0  0  0  0  0  0  0  0  0  0
   -0.6231   -0.6959   -0.9789 N   0  0  0  0  0  0  0  0  0  0  0  0
   -1.3981   -0.1001   -1.2423 H   0  0  0  0  0  0  0  0  0  0  0  0
    0.6873   -0.0478   -0.8024 C   0  0  1  0  0  0  0  0  0  0  0  0
    1.4674   -0.6319   -1.3025 H   0  0  0  0  0  0  0  0  0  0  0  0
    0.4907    1.2809   -1.5735 C   0  0  0  0  0  0  0  0  0  0  0  0
    0.4765    1.0586   -2.6445 H   0  0  0  0  0  0  0  0  0  0  0  0
   -0.4790    1.7162   -1.3168 H   0  0  0  0  0  0  0  0  0  0  0  0
    1.5178    2.3800   -1.3220 C   0  0  0  0  0  0  0  0  0  0  0  0
    1.9571    2.9736   -2.3358 O   0  5  0  0  0  0  0  0  0  0  0  0
    1.6352    2.7987   -0.1463 O   0  0  0  0  0  0  0  0  0  0  0  0
    1.1150    0.0948    0.6845 C   0  0  0  0  0  0  0  0  0  0  0  0
    2.1620   -0.4138    1.0750 O   0  0  0  0  0  0  0  0  0  0  0  0
    0.1964    0.5478    1.6178 N   0  0  0  0  0  0  0  0  0  0  0  0
   -0.4631    1.2152    1.2332 H   0  0  0  0  0  0  0  0  0  0  0  0
    0.5615    0.7130    3.0168 C   0  0  0  0  0  0  0  0  0  0  0  0
    1.3900    1.4224    3.1135 H   0  0  0  0  0  0  0  0  0  0  0  0
   -0.2921    1.0938    3.5847 H   0  0  0  0  0  0  0  0  0  0  0  0
    0.8631   -0.2459    3.4503 H   0  0  0  0  0  0  0  0  0  0  0  0
  1  2  1  0  0  0  0
  2  3  1  0  0  0  0
  2  4  1  0  0  0  0
  2  5  1  0  0  0  0
  5  6  2  0  0  0  0
  5  7  1  0  0  0  0
  7  8  1  0  0  0  0
  7  9  1  0  0  0  0
  9 10  1  0  0  0  0
  9 11  1  0  0  0  0
  9 17  1  0  0  0  0
 11 12  1  0  0  0  0
 11 13  1  0  0  0  0
 11 14  1  0  0  0  0
 14 15  1  0  0  0  0
 14 16  2  0  0  0  0
 17 18  2  0  0  0  0
 17 19  1  0  0  0  0
 19 20  1  0  0  0  0
 19 21  1  0  0  0  0
 21 22  1  0  0  0  0
 21 23  1  0  0  0  0
 21 24  1  0  0  0  0
M  CHG  1  15  -1
M  END
$$$$

  -OEChem-03222214023D

 24 23  0     1  0  0  0  0  0999 V2000
   -2.4878   -3.4172   -0.2015 H   0  0  0  0  0  0  0  0  0  0  0  0
   -2.3897   -2.3993   -0.5894 C   0  0  0  0  0  0  0  0  0  0  0  0
   -2.9963   -1.7295    0.0250 H   0  0  0  0  0  0  0  0  0  0  0  0
   -2.7600   -2.3768   -1.6171 H   0  0  0  0  0  0  0  0  0  0  0  0
   -0.9356   -1.9629   -0.5520 C   0  0  0  0  0  0  0  0  0  0  0  0
   -0.0839   -2.7590   -0.2003 O   0  0  0  0  0  0  0  0  0  0  0  0
   -0.6098   -0.6905   -0.9713 N   0  0  0  0  0  0  0  0  0  0  0  0
   -1.3804   -0.0927   -1.2431 H   0  0  0  0  0  0  0  0  0  0  0  0
    0.7048   -0.0482   -0.7979 C   0  0  1  0  0  0  0  0  0  0  0  0
    1.4846   -0.6341   -1.2966 H   0  0  0  0  0  0  0  0  0  0  0  0
    0.5023    1.2785   -1.5768 C   0  0  0  0  0  0  0  0  0  0  0  0
    0.4819    1.0416   -2.6446 H   0  0  0  0  0  0  0  0  0  0  0  0
   -0.4693    1.7078   -1.3177 H   0  0  0  0  0  0  0  0  0  0  0  0
    1.5088    2.4078   -1.3655 C   0  0  0  0  0  0  0  0  0  0  0  0
    1.6821    3.1616   -2.3531 O   0  5  0  0  0  0  0  0  0  0  0  0
    1.8964    2.6653   -0.2036 O   0  0  0  0  0  0  0  0  0  0  0  0
    1.1238    0.0857    0.6928 C   0  0  0  0  0  0  0  0  0  0  0  0
    2.1529   -0.4502    1.0950 O   0  0  0  0  0  0  0  0  0  0  0  0
    0.1994    0.5398    1.6207 N   0  0  0  0  0  0  0  0  0  0  0  0
   -0.4743    1.1909    1.2349 H   0  0  0  0  0  0  0  0  0  0  0  0
    0.5489    0.6955    3.0246 C   0  0  0  0  0  0  0  0  0  0  0  0
    1.3792    1.4009    3.1342 H   0  0  0  0  0  0  0  0  0  0  0  0
   -0.3096    1.0769    3.5847 H   0  0  0  0  0  0  0  0  0  0  0  0
    0.8417   -0.2671    3.4564 H   0  0  0  0  0  0  0  0  0  0  0  0
  1  2  1  0  0  0  0
  2  3  1  0  0  0  0
  2  4  1  0  0  0  0
  2  5  1  0  0  0  0
  5  6  2  0  0  0  0
  5  7  1  0  0  0  0
  7  8  1  0  0  0  0
  7  9  1  0  0  0  0
  9 10  1  0  0  0  0
  9 11  1  0  0  0  0
  9 17  1  0  0  0  0
 11 12  1  0  0  0  0
 11 13  1  0  0  0  0
 11 14  1  0  0  0  0
 14 15  1  0  0  0  0
 14 16  2  0  0  0  0
 17 18  2  0  0  0  0
 17 19  1  0  0  0  0
 19 20  1  0  0  0  0
 19 21  1  0  0  0  0
 21 22  1  0  0  0  0
 21 23  1  0  0  0  0
 21 24  1  0  0  0  0
M  CHG  1  15  -1
M  END
$$$$

  -OEChem-03222214023D

 24 23  0     1  0  0  0  0  0999 V2000
   -2.4936   -3.4025   -0.1907 H   0  0  0  0  0  0  0  0  0  0  0  0
   -2.3876   -2.3873   -0.5836 C   0  0  0  0  0  0  0  0  0  0  0  0
   -2.9962   -1.7116    0.0222 H   0  0  0  0  0  0  0  0  0  0  0  0
   -2.7493   -2.3692   -1.6146 H   0  0  0  0  0  0  0  0  0  0  0  0
   -0.9320   -1.9567   -0.5362 C   0  0  0  0  0  0  0  0  0  0  0  0
   -0.0880   -2.7543   -0.1703 O   0  0  0  0  0  0  0  0  0  0  0  0
   -0.5972   -0.6891   -0.9632 N   0  0  0  0  0  0  0  0  0  0  0  0
   -1.3604   -0.0970   -1.2668 H   0  0  0  0  0  0  0  0  0  0  0  0
    0.7225   -0.0520   -0.8025 C   0  0  1  0  0  0  0  0  0  0  0  0
    1.5018   -0.6312   -1.3087 H   0  0  0  0  0  0  0  0  0  0  0  0
    0.4983    1.2818   -1.5656 C   0  0  0  0  0  0  0  0  0  0  0  0
    0.4576    1.0523   -2.6343 H   0  0  0  0  0  0  0  0  0  0  0  0
   -0.4717    1.6995   -1.2814 H   0  0  0  0  0  0  0  0  0  0  0  0
    1.4912    2.4287   -1.3813 C   0  0  0  0  0  0  0  0  0  0  0  0
    1.4029    3.3369   -2.2424 O   0  5  0  0  0  0  0  0  0  0  0  0
    2.2196    2.4846   -0.3672 O   0  0  0  0  0  0  0  0  0  0  0  0
    1.1379    0.0816    0.6900 C   0  0  0  0  0  0  0  0  0  0  0  0
    2.1475   -0.4779    1.1088 O   0  0  0  0  0  0  0  0  0  0  0  0
    0.2089    0.5430    1.6105 N   0  0  0  0  0  0  0  0  0  0  0  0
   -0.4931    1.1604    1.2213 H   0  0  0  0  0  0  0  0  0  0  0  0
    0.5361    0.6916    3.0205 C   0  0  0  0  0  0  0  0  0  0  0  0
    1.3828    1.3748    3.1453 H   0  0  0  0  0  0  0  0  0  0  0  0
   -0.3221    1.0969    3.5642 H   0  0  0  0  0  0  0  0  0  0  0  0
    0.7951   -0.2780    3.4580 H   0  0  0  0  0  0  0  0  0  0  0  0
  1  2  1  0  0  0  0
  2  3  1  0  0  0  0
  2  4  1  0  0  0  0
  2  5  1  0  0  0  0
  5  6  2  0  0  0  0
  5  7  1  0  0  0  0
  7  8  1  0  0  0  0
  7  9  1  0  0  0  0
  9 10  1  0  0  0  0
  9 11  1  0  0  0  0
  9 17  1  0  0  0  0
 11 12  1  0  0  0  0
 11 13  1  0  0  0  0
 11 14  1  0  0  0  0
 14 15  1  0  0  0  0
 14 16  2  0  0  0  0
 17 18  2  0  0  0  0
 17 19  1  0  0  0  0
 19 20  1  0  0  0  0
 19 21  1  0  0  0  0
 21 22  1  0  0  0  0
 21 23  1  0  0  0  0
 21 24  1  0  0  0  0
M  CHG  1  15  -1
M  END
$$$$
