
  -OEChem-05262216003D

 43 42  0     1  0  0  0  0  0999 V2000
   -3.5649   -4.6423    1.3080 C   0  0  0  0  0  0  0  0  0  0  0  0
   -2.8472   -5.0133    2.2237 O   0  0  0  0  0  0  0  0  0  0  0  0
   -5.0419   -4.9893    1.3086 C   0  0  0  0  0  0  0  0  0  0  0  0
   -5.2743   -5.6263    0.4516 H   0  0  0  0  0  0  0  0  0  0  0  0
   -5.3040   -5.5227    2.2268 H   0  0  0  0  0  0  0  0  0  0  0  0
   -5.6401   -4.0766    1.2482 H   0  0  0  0  0  0  0  0  0  0  0  0
   -3.0360   -3.9021    0.2729 N   0  0  0  0  0  0  0  0  0  0  0  0
   -1.6692   -3.3665    0.2469 C   0  0  2  0  0  0  0  0  0  0  0  0
   -1.6119   -2.0280   -0.5197 C   0  0  0  0  0  0  0  0  0  0  0  0
   -2.5462   -1.6967   -1.2406 O   0  0  0  0  0  0  0  0  0  0  0  0
   -0.7526   -4.4107   -0.3990 C   0  0  0  0  0  0  0  0  0  0  0  0
   -3.6916   -3.4976   -0.3960 H   0  0  0  0  0  0  0  0  0  0  0  0
   -1.3298   -3.1695    1.2694 H   0  0  0  0  0  0  0  0  0  0  0  0
   -1.0705   -4.6153   -1.4264 H   0  0  0  0  0  0  0  0  0  0  0  0
    0.2829   -4.0580   -0.4174 H   0  0  0  0  0  0  0  0  0  0  0  0
   -0.7858   -5.3459    0.1690 H   0  0  0  0  0  0  0  0  0  0  0  0
   -0.4637   -1.2604   -0.5198 N   0  0  0  0  0  0  0  0  0  0  0  0
   -0.3875    0.1978   -0.7420 C   0  0  2  0  0  0  0  0  0  0  0  0
    1.0921    0.6488   -0.6675 C   0  0  0  0  0  0  0  0  0  0  0  0
    1.9659   -0.1494   -0.3413 O   0  0  0  0  0  0  0  0  0  0  0  0
   -1.0988    1.0056    0.3825 C   0  0  0  0  0  0  0  0  0  0  0  0
   -2.9202    0.7905    0.5257 S   0  0  0  0  0  0  0  0  0  0  0  0
    0.3367   -1.6609   -0.0314 H   0  0  0  0  0  0  0  0  0  0  0  0
   -0.8062    0.4525   -1.7209 H   0  0  0  0  0  0  0  0  0  0  0  0
   -0.6486    0.7315    1.3426 H   0  0  0  0  0  0  0  0  0  0  0  0
   -0.9197    2.0749    0.2309 H   0  0  0  0  0  0  0  0  0  0  0  0
   -3.2033    1.5999    1.5695 H   0  0  0  0  0  0  0  0  0  0  0  0
    1.4453    1.9741   -0.8446 N   0  0  0  0  0  0  0  0  0  0  0  0
    2.7736    2.5368   -0.5670 C   0  0  2  0  0  0  0  0  0  0  0  0
    2.6695    4.0092   -0.1131 C   0  0  0  0  0  0  0  0  0  0  0  0
    1.5883    4.5868   -0.1574 O   0  0  0  0  0  0  0  0  0  0  0  0
    3.6267    2.4141   -1.8339 C   0  0  0  0  0  0  0  0  0  0  0  0
    0.6929    2.6477   -0.9905 H   0  0  0  0  0  0  0  0  0  0  0  0
    3.2519    1.9791    0.2452 H   0  0  0  0  0  0  0  0  0  0  0  0
    3.1707    2.9722   -2.6580 H   0  0  0  0  0  0  0  0  0  0  0  0
    4.6332    2.8073   -1.6617 H   0  0  0  0  0  0  0  0  0  0  0  0
    3.7148    1.3642   -2.1316 H   0  0  0  0  0  0  0  0  0  0  0  0
    3.7778    4.6829    0.3661 N   0  0  0  0  0  0  0  0  0  0  0  0
    3.7388    6.0712    0.8108 C   0  0  0  0  0  0  0  0  0  0  0  0
    4.6600    4.1800    0.3982 H   0  0  0  0  0  0  0  0  0  0  0  0
    3.4342    6.7283   -0.0106 H   0  0  0  0  0  0  0  0  0  0  0  0
    3.0306    6.1897    1.6376 H   0  0  0  0  0  0  0  0  0  0  0  0
    4.7280    6.3864    1.1565 H   0  0  0  0  0  0  0  0  0  0  0  0
  1  2  2  0  0  0  0
  1  3  1  0  0  0  0
  1  7  1  0  0  0  0
  3  4  1  0  0  0  0
  3  5  1  0  0  0  0
  3  6  1  0  0  0  0
  7  8  1  0  0  0  0
  7 12  1  0  0  0  0
  8  9  1  0  0  0  0
  8 11  1  0  0  0  0
  8 13  1  0  0  0  0
  9 10  2  0  0  0  0
  9 17  1  0  0  0  0
 11 14  1  0  0  0  0
 11 15  1  0  0  0  0
 11 16  1  0  0  0  0
 17 18  1  0  0  0  0
 17 23  1  0  0  0  0
 18 19  1  0  0  0  0
 18 21  1  0  0  0  0
 18 24  1  0  0  0  0
 19 20  2  0  0  0  0
 19 28  1  0  0  0  0
 21 22  1  0  0  0  0
 21 25  1  0  0  0  0
 21 26  1  0  0  0  0
 22 27  1  0  0  0  0
 28 29  1  0  0  0  0
 28 33  1  0  0  0  0
 29 30  1  0  0  0  0
 29 32  1  0  0  0  0
 29 34  1  0  0  0  0
 30 31  2  0  0  0  0
 30 38  1  0  0  0  0
 32 35  1  0  0  0  0
 32 36  1  0  0  0  0
 32 37  1  0  0  0  0
 38 39  1  0  0  0  0
 38 40  1  0  0  0  0
 39 41  1  0  0  0  0
 39 42  1  0  0  0  0
 39 43  1  0  0  0  0
M  END
$$$$

  -OEChem-05262216003D

 43 42  0     1  0  0  0  0  0999 V2000
   -3.4817   -4.7020    1.2946 C   0  0  0  0  0  0  0  0  0  0  0  0
   -2.7220   -5.0908    2.1681 O   0  0  0  0  0  0  0  0  0  0  0  0
   -4.9478   -5.0923    1.3312 C   0  0  0  0  0  0  0  0  0  0  0  0
   -5.2092   -5.6440    0.4248 H   0  0  0  0  0  0  0  0  0  0  0  0
   -5.1477   -5.7264    2.1995 H   0  0  0  0  0  0  0  0  0  0  0  0
   -5.5716   -4.1974    1.3976 H   0  0  0  0  0  0  0  0  0  0  0  0
   -3.0092   -3.9049    0.2744 N   0  0  0  0  0  0  0  0  0  0  0  0
   -1.6521   -3.3468    0.2140 C   0  0  2  0  0  0  0  0  0  0  0  0
   -1.6450   -1.9752   -0.4931 C   0  0  0  0  0  0  0  0  0  0  0  0
   -2.5860   -1.6591   -1.2111 O   0  0  0  0  0  0  0  0  0  0  0  0
   -0.7522   -4.3445   -0.5225 C   0  0  0  0  0  0  0  0  0  0  0  0
   -3.6957   -3.4990   -0.3618 H   0  0  0  0  0  0  0  0  0  0  0  0
   -1.2697   -3.1928    1.2287 H   0  0  0  0  0  0  0  0  0  0  0  0
   -1.1126   -4.5025   -1.5441 H   0  0  0  0  0  0  0  0  0  0  0  0
    0.2767   -3.9753   -0.5684 H   0  0  0  0  0  0  0  0  0  0  0  0
   -0.7488   -5.3071   -0.0015 H   0  0  0  0  0  0  0  0  0  0  0  0
   -0.5206   -1.1730   -0.4637 N   0  0  0  0  0  0  0  0  0  0  0  0
   -0.4591    0.2859   -0.6932 C   0  0  2  0  0  0  0  0  0  0  0  0
    1.0189    0.7486   -0.5687 C   0  0  0  0  0  0  0  0  0  0  0  0
    1.9132   -0.0845   -0.4548 O   0  0  0  0  0  0  0  0  0  0  0  0
   -1.2417    1.0888    0.3903 C   0  0  0  0  0  0  0  0  0  0  0  0
   -3.0640    0.8468    0.4509 S   0  0  0  0  0  0  0  0  0  0  0  0
    0.3007   -1.5741   -0.0124 H   0  0  0  0  0  0  0  0  0  0  0  0
   -0.8393    0.5269   -1.6907 H   0  0  0  0  0  0  0  0  0  0  0  0
   -0.8313    0.8365    1.3739 H   0  0  0  0  0  0  0  0  0  0  0  0
   -1.0847    2.1600    0.2332 H   0  0  0  0  0  0  0  0  0  0  0  0
   -3.4119    1.6749    1.4596 H   0  0  0  0  0  0  0  0  0  0  0  0
    1.3638    2.0822   -0.4336 N   0  0  0  0  0  0  0  0  0  0  0  0
    2.7033    2.5863   -0.1018 C   0  0  2  0  0  0  0  0  0  0  0  0
    2.6168    3.9445    0.6279 C   0  0  0  0  0  0  0  0  0  0  0  0
    1.5349    4.5135    0.7336 O   0  0  0  0  0  0  0  0  0  0  0  0
    3.5114    2.7176   -1.3976 C   0  0  0  0  0  0  0  0  0  0  0  0
    0.6089    2.7677   -0.4113 H   0  0  0  0  0  0  0  0  0  0  0  0
    3.2078    1.8849    0.5715 H   0  0  0  0  0  0  0  0  0  0  0  0
    3.0287    3.4256   -2.0788 H   0  0  0  0  0  0  0  0  0  0  0  0
    4.5246    3.0722   -1.1867 H   0  0  0  0  0  0  0  0  0  0  0  0
    3.5862    1.7477   -1.8993 H   0  0  0  0  0  0  0  0  0  0  0  0
    3.7436    4.5226    1.1831 N   0  0  0  0  0  0  0  0  0  0  0  0
    3.7224    5.7961    1.8938 C   0  0  0  0  0  0  0  0  0  0  0  0
    4.6243    4.0241    1.0922 H   0  0  0  0  0  0  0  0  0  0  0  0
    3.3344    6.5904    1.2473 H   0  0  0  0  0  0  0  0  0  0  0  0
    3.0899    5.7272    2.7853 H   0  0  0  0  0  0  0  0  0  0  0  0
    4.7339    6.0713    2.2080 H   0  0  0  0  0  0  0  0  0  0  0  0
  1  2  2  0  0  0  0
  1  3  1  0  0  0  0
  1  7  1  0  0  0  0
  3  4  1  0  0  0  0
  3  5  1  0  0  0  0
  3  6  1  0  0  0  0
  7  8  1  0  0  0  0
  7 12  1  0  0  0  0
  8  9  1  0  0  0  0
  8 11  1  0  0  0  0
  8 13  1  0  0  0  0
  9 10  2  0  0  0  0
  9 17  1  0  0  0  0
 11 14  1  0  0  0  0
 11 15  1  0  0  0  0
 11 16  1  0  0  0  0
 17 18  1  0  0  0  0
 17 23  1  0  0  0  0
 18 19  1  0  0  0  0
 18 21  1  0  0  0  0
 18 24  1  0  0  0  0
 19 20  2  0  0  0  0
 19 28  1  0  0  0  0
 21 22  1  0  0  0  0
 21 25  1  0  0  0  0
 21 26  1  0  0  0  0
 22 27  1  0  0  0  0
 28 29  1  0  0  0  0
 28 33  1  0  0  0  0
 29 30  1  0  0  0  0
 29 32  1  0  0  0  0
 29 34  1  0  0  0  0
 30 31  2  0  0  0  0
 30 38  1  0  0  0  0
 32 35  1  0  0  0  0
 32 36  1  0  0  0  0
 32 37  1  0  0  0  0
 38 39  1  0  0  0  0
 38 40  1  0  0  0  0
 39 41  1  0  0  0  0
 39 42  1  0  0  0  0
 39 43  1  0  0  0  0
M  END
$$$$

  -OEChem-05262216003D

 43 42  0     1  0  0  0  0  0999 V2000
   -3.4243   -4.7116    1.3020 C   0  0  0  0  0  0  0  0  0  0  0  0
   -2.6556   -5.0793    2.1768 O   0  0  0  0  0  0  0  0  0  0  0  0
   -4.8789   -5.1418    1.3345 C   0  0  0  0  0  0  0  0  0  0  0  0
   -5.1218   -5.7023    0.4283 H   0  0  0  0  0  0  0  0  0  0  0  0
   -5.0660   -5.7786    2.2038 H   0  0  0  0  0  0  0  0  0  0  0  0
   -5.5259   -4.2633    1.3953 H   0  0  0  0  0  0  0  0  0  0  0  0
   -2.9734   -3.9015    0.2825 N   0  0  0  0  0  0  0  0  0  0  0  0
   -1.6321   -3.3085    0.2205 C   0  0  2  0  0  0  0  0  0  0  0  0
   -1.6626   -1.9337   -0.4792 C   0  0  0  0  0  0  0  0  0  0  0  0
   -2.6088   -1.6431   -1.2003 O   0  0  0  0  0  0  0  0  0  0  0  0
   -0.7113   -4.2796   -0.5250 C   0  0  0  0  0  0  0  0  0  0  0  0
   -3.6697   -3.5163   -0.3559 H   0  0  0  0  0  0  0  0  0  0  0  0
   -1.2488   -3.1506    1.2343 H   0  0  0  0  0  0  0  0  0  0  0  0
   -1.0748   -4.4451   -1.5445 H   0  0  0  0  0  0  0  0  0  0  0  0
    0.3071   -3.8831   -0.5784 H   0  0  0  0  0  0  0  0  0  0  0  0
   -0.6787   -5.2425   -0.0055 H   0  0  0  0  0  0  0  0  0  0  0  0
   -0.5603   -1.1025   -0.4337 N   0  0  0  0  0  0  0  0  0  0  0  0
   -0.5158    0.3560   -0.6738 C   0  0  2  0  0  0  0  0  0  0  0  0
    0.9586    0.8272   -0.5148 C   0  0  0  0  0  0  0  0  0  0  0  0
    1.8673    0.0120   -0.6379 O   0  0  0  0  0  0  0  0  0  0  0  0
   -1.3592    1.1620    0.3617 C   0  0  0  0  0  0  0  0  0  0  0  0
   -3.1791    0.8977    0.3486 S   0  0  0  0  0  0  0  0  0  0  0  0
    0.2769   -1.5000   -0.0101 H   0  0  0  0  0  0  0  0  0  0  0  0
   -0.8604    0.5796   -1.6884 H   0  0  0  0  0  0  0  0  0  0  0  0
   -0.9887    0.9316    1.3664 H   0  0  0  0  0  0  0  0  0  0  0  0
   -1.2141    2.2323    0.1894 H   0  0  0  0  0  0  0  0  0  0  0  0
   -3.5765    1.7045    1.3562 H   0  0  0  0  0  0  0  0  0  0  0  0
    1.3041    2.0964   -0.0815 N   0  0  0  0  0  0  0  0  0  0  0  0
    2.6555    2.5258    0.3027 C   0  0  2  0  0  0  0  0  0  0  0  0
    2.5947    3.6685    1.3392 C   0  0  0  0  0  0  0  0  0  0  0  0
    1.5148    4.1778    1.6221 O   0  0  0  0  0  0  0  0  0  0  0  0
    3.4058    2.9746   -0.9565 C   0  0  0  0  0  0  0  0  0  0  0  0
    0.5492    2.7396    0.1548 H   0  0  0  0  0  0  0  0  0  0  0  0
    3.1921    1.6911    0.7664 H   0  0  0  0  0  0  0  0  0  0  0  0
    2.8933    3.8201   -1.4268 H   0  0  0  0  0  0  0  0  0  0  0  0
    4.4268    3.2799   -0.7088 H   0  0  0  0  0  0  0  0  0  0  0  0
    3.4603    2.1547   -1.6799 H   0  0  0  0  0  0  0  0  0  0  0  0
    3.7404    4.1127    1.9732 N   0  0  0  0  0  0  0  0  0  0  0  0
    3.7393    5.1743    2.9730 C   0  0  0  0  0  0  0  0  0  0  0  0
    4.6197    3.6649    1.7311 H   0  0  0  0  0  0  0  0  0  0  0  0
    3.3051    6.0908    2.5596 H   0  0  0  0  0  0  0  0  0  0  0  0
    3.1566    4.8732    3.8499 H   0  0  0  0  0  0  0  0  0  0  0  0
    4.7619    5.3931    3.2954 H   0  0  0  0  0  0  0  0  0  0  0  0
  1  2  2  0  0  0  0
  1  3  1  0  0  0  0
  1  7  1  0  0  0  0
  3  4  1  0  0  0  0
  3  5  1  0  0  0  0
  3  6  1  0  0  0  0
  7  8  1  0  0  0  0
  7 12  1  0  0  0  0
  8  9  1  0  0  0  0
  8 11  1  0  0  0  0
  8 13  1  0  0  0  0
  9 10  2  0  0  0  0
  9 17  1  0  0  0  0
 11 14  1  0  0  0  0
 11 15  1  0  0  0  0
 11 16  1  0  0  0  0
 17 18  1  0  0  0  0
 17 23  1  0  0  0  0
 18 19  1  0  0  0  0
 18 21  1  0  0  0  0
 18 24  1  0  0  0  0
 19 20  2  0  0  0  0
 19 28  1  0  0  0  0
 21 22  1  0  0  0  0
 21 25  1  0  0  0  0
 21 26  1  0  0  0  0
 22 27  1  0  0  0  0
 28 29  1  0  0  0  0
 28 33  1  0  0  0  0
 29 30  1  0  0  0  0
 29 32  1  0  0  0  0
 29 34  1  0  0  0  0
 30 31  2  0  0  0  0
 30 38  1  0  0  0  0
 32 35  1  0  0  0  0
 32 36  1  0  0  0  0
 32 37  1  0  0  0  0
 38 39  1  0  0  0  0
 38 40  1  0  0  0  0
 39 41  1  0  0  0  0
 39 42  1  0  0  0  0
 39 43  1  0  0  0  0
M  END
$$$$

  -OEChem-05262216003D

 43 42  0     1  0  0  0  0  0999 V2000
   -3.4023   -4.7006    1.3102 C   0  0  0  0  0  0  0  0  0  0  0  0
   -2.6377   -5.0394    2.2002 O   0  0  0  0  0  0  0  0  0  0  0  0
   -4.8452   -5.1681    1.3258 C   0  0  0  0  0  0  0  0  0  0  0  0
   -5.0624   -5.7332    0.4162 H   0  0  0  0  0  0  0  0  0  0  0  0
   -5.0242   -5.8115    2.1918 H   0  0  0  0  0  0  0  0  0  0  0  0
   -5.5161   -4.3075    1.3804 H   0  0  0  0  0  0  0  0  0  0  0  0
   -2.9548   -3.8949    0.2857 N   0  0  0  0  0  0  0  0  0  0  0  0
   -1.6209   -3.2847    0.2294 C   0  0  2  0  0  0  0  0  0  0  0  0
   -1.6630   -1.9062   -0.4623 C   0  0  0  0  0  0  0  0  0  0  0  0
   -2.6056   -1.6260   -1.1912 O   0  0  0  0  0  0  0  0  0  0  0  0
   -0.6885   -4.2434   -0.5175 C   0  0  0  0  0  0  0  0  0  0  0  0
   -3.6496   -3.5310   -0.3665 H   0  0  0  0  0  0  0  0  0  0  0  0
   -1.2420   -3.1270    1.2448 H   0  0  0  0  0  0  0  0  0  0  0  0
   -1.0491   -4.4097   -1.5378 H   0  0  0  0  0  0  0  0  0  0  0  0
    0.3255   -3.8358   -0.5684 H   0  0  0  0  0  0  0  0  0  0  0  0
   -0.6460   -5.2076   -0.0008 H   0  0  0  0  0  0  0  0  0  0  0  0
   -0.5719   -1.0610   -0.3945 N   0  0  0  0  0  0  0  0  0  0  0  0
   -0.5339    0.3970   -0.6402 C   0  0  2  0  0  0  0  0  0  0  0  0
    0.9343    0.8721   -0.4442 C   0  0  0  0  0  0  0  0  0  0  0  0
    1.8491    0.1371   -0.7987 O   0  0  0  0  0  0  0  0  0  0  0  0
   -1.4222    1.2161    0.3454 C   0  0  0  0  0  0  0  0  0  0  0  0
   -3.2394    0.9488    0.2624 S   0  0  0  0  0  0  0  0  0  0  0  0
    0.2667   -1.4587    0.0240 H   0  0  0  0  0  0  0  0  0  0  0  0
   -0.8420    0.6077   -1.6693 H   0  0  0  0  0  0  0  0  0  0  0  0
   -1.0965    1.0010    1.3688 H   0  0  0  0  0  0  0  0  0  0  0  0
   -1.2666    2.2833    0.1585 H   0  0  0  0  0  0  0  0  0  0  0  0
   -3.6774    1.7515    1.2563 H   0  0  0  0  0  0  0  0  0  0  0  0
    1.2794    2.0103    0.2660 N   0  0  0  0  0  0  0  0  0  0  0  0
    2.6403    2.3723    0.6846 C   0  0  2  0  0  0  0  0  0  0  0  0
    2.6078    3.2268    1.9705 C   0  0  0  0  0  0  0  0  0  0  0  0
    1.5330    3.6217    2.4117 O   0  0  0  0  0  0  0  0  0  0  0  0
    3.3176    3.1350   -0.4590 C   0  0  0  0  0  0  0  0  0  0  0  0
    0.5265    2.5425    0.7012 H   0  0  0  0  0  0  0  0  0  0  0  0
    3.2148    1.4666    0.9062 H   0  0  0  0  0  0  0  0  0  0  0  0
    2.7655    4.0523   -0.6874 H   0  0  0  0  0  0  0  0  0  0  0  0
    4.3431    3.4032   -0.1888 H   0  0  0  0  0  0  0  0  0  0  0  0
    3.3520    2.5159   -1.3613 H   0  0  0  0  0  0  0  0  0  0  0  0
    3.7741    3.5379    2.6451 N   0  0  0  0  0  0  0  0  0  0  0  0
    3.8039    4.3266    3.8715 C   0  0  0  0  0  0  0  0  0  0  0  0
    4.6477    3.1818    2.2682 H   0  0  0  0  0  0  0  0  0  0  0  0
    3.3084    5.2916    3.7205 H   0  0  0  0  0  0  0  0  0  0  0  0
    3.2971    3.7930    4.6823 H   0  0  0  0  0  0  0  0  0  0  0  0
    4.8381    4.5161    4.1748 H   0  0  0  0  0  0  0  0  0  0  0  0
  1  2  2  0  0  0  0
  1  3  1  0  0  0  0
  1  7  1  0  0  0  0
  3  4  1  0  0  0  0
  3  5  1  0  0  0  0
  3  6  1  0  0  0  0
  7  8  1  0  0  0  0
  7 12  1  0  0  0  0
  8  9  1  0  0  0  0
  8 11  1  0  0  0  0
  8 13  1  0  0  0  0
  9 10  2  0  0  0  0
  9 17  1  0  0  0  0
 11 14  1  0  0  0  0
 11 15  1  0  0  0  0
 11 16  1  0  0  0  0
 17 18  1  0  0  0  0
 17 23  1  0  0  0  0
 18 19  1  0  0  0  0
 18 21  1  0  0  0  0
 18 24  1  0  0  0  0
 19 20  2  0  0  0  0
 19 28  1  0  0  0  0
 21 22  1  0  0  0  0
 21 25  1  0  0  0  0
 21 26  1  0  0  0  0
 22 27  1  0  0  0  0
 28 29  1  0  0  0  0
 28 33  1  0  0  0  0
 29 30  1  0  0  0  0
 29 32  1  0  0  0  0
 29 34  1  0  0  0  0
 30 31  2  0  0  0  0
 30 38  1  0  0  0  0
 32 35  1  0  0  0  0
 32 36  1  0  0  0  0
 32 37  1  0  0  0  0
 38 39  1  0  0  0  0
 38 40  1  0  0  0  0
 39 41  1  0  0  0  0
 39 42  1  0  0  0  0
 39 43  1  0  0  0  0
M  END
$$$$

  -OEChem-05262216003D

 43 42  0     1  0  0  0  0  0999 V2000
   -3.4032   -4.7169    1.2792 C   0  0  0  0  0  0  0  0  0  0  0  0
   -2.6427   -5.0728    2.1659 O   0  0  0  0  0  0  0  0  0  0  0  0
   -4.8591   -5.1427    1.3081 C   0  0  0  0  0  0  0  0  0  0  0  0
   -5.1013   -5.7032    0.4020 H   0  0  0  0  0  0  0  0  0  0  0  0
   -5.0491   -5.7784    2.1775 H   0  0  0  0  0  0  0  0  0  0  0  0
   -5.5043   -4.2626    1.3676 H   0  0  0  0  0  0  0  0  0  0  0  0
   -2.9430   -3.9173    0.2554 N   0  0  0  0  0  0  0  0  0  0  0  0
   -1.6091   -3.3048    0.2157 C   0  0  2  0  0  0  0  0  0  0  0  0
   -1.6530   -1.9099   -0.4425 C   0  0  0  0  0  0  0  0  0  0  0  0
   -2.5854   -1.6238   -1.1815 O   0  0  0  0  0  0  0  0  0  0  0  0
   -0.6730   -4.2409   -0.5546 C   0  0  0  0  0  0  0  0  0  0  0  0
   -3.6347   -3.5391   -0.3921 H   0  0  0  0  0  0  0  0  0  0  0  0
   -1.2306   -3.1721    1.2348 H   0  0  0  0  0  0  0  0  0  0  0  0
   -1.0304   -4.3792   -1.5801 H   0  0  0  0  0  0  0  0  0  0  0  0
    0.3401   -3.8295   -0.5914 H   0  0  0  0  0  0  0  0  0  0  0  0
   -0.6304   -5.2189   -0.0650 H   0  0  0  0  0  0  0  0  0  0  0  0
   -0.5669   -1.0613   -0.3395 N   0  0  0  0  0  0  0  0  0  0  0  0
   -0.5263    0.3992   -0.5717 C   0  0  2  0  0  0  0  0  0  0  0  0
    0.9313    0.8793   -0.3350 C   0  0  0  0  0  0  0  0  0  0  0  0
    1.8441    0.2922   -0.9018 O   0  0  0  0  0  0  0  0  0  0  0  0
   -1.4504    1.2235    0.3746 C   0  0  0  0  0  0  0  0  0  0  0  0
   -3.2639    0.9649    0.2176 S   0  0  0  0  0  0  0  0  0  0  0  0
    0.2562   -1.4636    0.1025 H   0  0  0  0  0  0  0  0  0  0  0  0
   -0.8003    0.6099   -1.6106 H   0  0  0  0  0  0  0  0  0  0  0  0
   -1.1759    1.0003    1.4111 H   0  0  0  0  0  0  0  0  0  0  0  0
   -1.2700    2.2894    0.1986 H   0  0  0  0  0  0  0  0  0  0  0  0
   -3.7396    1.7761    1.1869 H   0  0  0  0  0  0  0  0  0  0  0  0
    1.2808    1.8183    0.6220 N   0  0  0  0  0  0  0  0  0  0  0  0
    2.6526    2.1384    1.0390 C   0  0  2  0  0  0  0  0  0  0  0  0
    2.6739    2.6793    2.4851 C   0  0  0  0  0  0  0  0  0  0  0  0
    1.6183    2.9387    3.0543 O   0  0  0  0  0  0  0  0  0  0  0  0
    3.2344    3.1698    0.0659 C   0  0  0  0  0  0  0  0  0  0  0  0
    0.5390    2.1899    1.2149 H   0  0  0  0  0  0  0  0  0  0  0  0
    3.2678    1.2325    1.0176 H   0  0  0  0  0  0  0  0  0  0  0  0
    2.6357    4.0863    0.0766 H   0  0  0  0  0  0  0  0  0  0  0  0
    4.2630    3.4215    0.3406 H   0  0  0  0  0  0  0  0  0  0  0  0
    3.2407    2.7700   -0.9532 H   0  0  0  0  0  0  0  0  0  0  0  0
    3.8696    2.8569    3.1563 N   0  0  0  0  0  0  0  0  0  0  0  0
    3.9549    3.3645    4.5207 C   0  0  0  0  0  0  0  0  0  0  0  0
    4.7278    2.6305    2.6618 H   0  0  0  0  0  0  0  0  0  0  0  0
    3.5345    4.3740    4.5818 H   0  0  0  0  0  0  0  0  0  0  0  0
    3.4064    2.7117    5.2083 H   0  0  0  0  0  0  0  0  0  0  0  0
    4.9997    3.4060    4.8442 H   0  0  0  0  0  0  0  0  0  0  0  0
  1  2  2  0  0  0  0
  1  3  1  0  0  0  0
  1  7  1  0  0  0  0
  3  4  1  0  0  0  0
  3  5  1  0  0  0  0
  3  6  1  0  0  0  0
  7  8  1  0  0  0  0
  7 12  1  0  0  0  0
  8  9  1  0  0  0  0
  8 11  1  0  0  0  0
  8 13  1  0  0  0  0
  9 10  2  0  0  0  0
  9 17  1  0  0  0  0
 11 14  1  0  0  0  0
 11 15  1  0  0  0  0
 11 16  1  0  0  0  0
 17 18  1  0  0  0  0
 17 23  1  0  0  0  0
 18 19  1  0  0  0  0
 18 21  1  0  0  0  0
 18 24  1  0  0  0  0
 19 20  2  0  0  0  0
 19 28  1  0  0  0  0
 21 22  1  0  0  0  0
 21 25  1  0  0  0  0
 21 26  1  0  0  0  0
 22 27  1  0  0  0  0
 28 29  1  0  0  0  0
 28 33  1  0  0  0  0
 29 30  1  0  0  0  0
 29 32  1  0  0  0  0
 29 34  1  0  0  0  0
 30 31  2  0  0  0  0
 30 38  1  0  0  0  0
 32 35  1  0  0  0  0
 32 36  1  0  0  0  0
 32 37  1  0  0  0  0
 38 39  1  0  0  0  0
 38 40  1  0  0  0  0
 39 41  1  0  0  0  0
 39 42  1  0  0  0  0
 39 43  1  0  0  0  0
M  END
$$$$

  -OEChem-05262216003D

 43 42  0     1  0  0  0  0  0999 V2000
   -3.4726   -4.6339    1.2729 C   0  0  0  0  0  0  0  0  0  0  0  0
   -2.7716   -4.9505    2.2216 O   0  0  0  0  0  0  0  0  0  0  0  0
   -4.9330   -5.0432    1.2349 C   0  0  0  0  0  0  0  0  0  0  0  0
   -5.1293   -5.6448    0.3441 H   0  0  0  0  0  0  0  0  0  0  0  0
   -5.1829   -5.6337    2.1207 H   0  0  0  0  0  0  0  0  0  0  0  0
   -5.5680   -4.1543    1.2131 H   0  0  0  0  0  0  0  0  0  0  0  0
   -2.9391   -3.8969    0.2376 N   0  0  0  0  0  0  0  0  0  0  0  0
   -1.5942   -3.3084    0.2457 C   0  0  2  0  0  0  0  0  0  0  0  0
   -1.5777   -1.9431   -0.4726 C   0  0  0  0  0  0  0  0  0  0  0  0
   -2.4585   -1.6750   -1.2791 O   0  0  0  0  0  0  0  0  0  0  0  0
   -0.6362   -4.2933   -0.4312 C   0  0  0  0  0  0  0  0  0  0  0  0
   -3.5848   -3.5437   -0.4690 H   0  0  0  0  0  0  0  0  0  0  0  0
   -1.2691   -3.1377    1.2776 H   0  0  0  0  0  0  0  0  0  0  0  0
   -0.9424   -4.4744   -1.4667 H   0  0  0  0  0  0  0  0  0  0  0  0
    0.3845   -3.8996   -0.4338 H   0  0  0  0  0  0  0  0  0  0  0  0
   -0.6357   -5.2481    0.1043 H   0  0  0  0  0  0  0  0  0  0  0  0
   -0.4956   -1.0949   -0.3305 N   0  0  0  0  0  0  0  0  0  0  0  0
   -0.4827    0.3695   -0.5385 C   0  0  2  0  0  0  0  0  0  0  0  0
    0.9524    0.8914   -0.2741 C   0  0  0  0  0  0  0  0  0  0  0  0
    1.8509    0.5687   -1.0387 O   0  0  0  0  0  0  0  0  0  0  0  0
   -1.4441    1.1576    0.4001 C   0  0  0  0  0  0  0  0  0  0  0  0
   -3.2462    0.8570    0.1936 S   0  0  0  0  0  0  0  0  0  0  0  0
    0.2713   -1.4735    0.2183 H   0  0  0  0  0  0  0  0  0  0  0  0
   -0.7444    0.5887   -1.5794 H   0  0  0  0  0  0  0  0  0  0  0  0
   -1.1959    0.9185    1.4394 H   0  0  0  0  0  0  0  0  0  0  0  0
   -1.2755    2.2296    0.2508 H   0  0  0  0  0  0  0  0  0  0  0  0
   -3.7674    1.6789    1.1298 H   0  0  0  0  0  0  0  0  0  0  0  0
    1.3062    1.5820    0.8732 N   0  0  0  0  0  0  0  0  0  0  0  0
    2.6828    1.8998    1.2768 C   0  0  2  0  0  0  0  0  0  0  0  0
    2.7990    1.9885    2.8137 C   0  0  0  0  0  0  0  0  0  0  0  0
    1.7849    1.9585    3.5039 O   0  0  0  0  0  0  0  0  0  0  0  0
    3.0900    3.2235    0.6217 C   0  0  0  0  0  0  0  0  0  0  0  0
    0.5932    1.7010    1.5924 H   0  0  0  0  0  0  0  0  0  0  0  0
    3.3616    1.1078    0.9424 H   0  0  0  0  0  0  0  0  0  0  0  0
    2.4319    4.0331    0.9532 H   0  0  0  0  0  0  0  0  0  0  0  0
    4.1205    3.4820    0.8827 H   0  0  0  0  0  0  0  0  0  0  0  0
    3.0228    3.1436   -0.4680 H   0  0  0  0  0  0  0  0  0  0  0  0
    4.0356    2.0754    3.4258 N   0  0  0  0  0  0  0  0  0  0  0  0
    4.2102    2.1409    4.8721 C   0  0  0  0  0  0  0  0  0  0  0  0
    4.8587    2.0807    2.8301 H   0  0  0  0  0  0  0  0  0  0  0  0
    3.6787    3.0053    5.2842 H   0  0  0  0  0  0  0  0  0  0  0  0
    3.8255    1.2319    5.3465 H   0  0  0  0  0  0  0  0  0  0  0  0
    5.2713    2.2382    5.1211 H   0  0  0  0  0  0  0  0  0  0  0  0
  1  2  2  0  0  0  0
  1  3  1  0  0  0  0
  1  7  1  0  0  0  0
  3  4  1  0  0  0  0
  3  5  1  0  0  0  0
  3  6  1  0  0  0  0
  7  8  1  0  0  0  0
  7 12  1  0  0  0  0
  8  9  1  0  0  0  0
  8 11  1  0  0  0  0
  8 13  1  0  0  0  0
  9 10  2  0  0  0  0
  9 17  1  0  0  0  0
 11 14  1  0  0  0  0
 11 15  1  0  0  0  0
 11 16  1  0  0  0  0
 17 18  1  0  0  0  0
 17 23  1  0  0  0  0
 18 19  1  0  0  0  0
 18 21  1  0  0  0  0
 18 24  1  0  0  0  0
 19 20  2  0  0  0  0
 19 28  1  0  0  0  0
 21 22  1  0  0  0  0
 21 25  1  0  0  0  0
 21 26  1  0  0  0  0
 22 27  1  0  0  0  0
 28 29  1  0  0  0  0
 28 33  1  0  0  0  0
 29 30  1  0  0  0  0
 29 32  1  0  0  0  0
 29 34  1  0  0  0  0
 30 31  2  0  0  0  0
 30 38  1  0  0  0  0
 32 35  1  0  0  0  0
 32 36  1  0  0  0  0
 32 37  1  0  0  0  0
 38 39  1  0  0  0  0
 38 40  1  0  0  0  0
 39 41  1  0  0  0  0
 39 42  1  0  0  0  0
 39 43  1  0  0  0  0
M  END
$$$$

  -OEChem-05262216003D

 43 42  0     1  0  0  0  0  0999 V2000
   -3.5383   -4.6189    1.2341 C   0  0  0  0  0  0  0  0  0  0  0  0
   -2.8746   -4.9445    2.2060 O   0  0  0  0  0  0  0  0  0  0  0  0
   -5.0106   -4.9776    1.1615 C   0  0  0  0  0  0  0  0  0  0  0  0
   -5.2047   -5.5830    0.2727 H   0  0  0  0  0  0  0  0  0  0  0  0
   -5.3036   -5.5480    2.0474 H   0  0  0  0  0  0  0  0  0  0  0  0
   -5.6136   -4.0676    1.1125 H   0  0  0  0  0  0  0  0  0  0  0  0
   -2.9548   -3.9122    0.2050 N   0  0  0  0  0  0  0  0  0  0  0  0
   -1.6010   -3.3471    0.2511 C   0  0  2  0  0  0  0  0  0  0  0  0
   -1.5467   -1.9794   -0.4605 C   0  0  0  0  0  0  0  0  0  0  0  0
   -2.3987   -1.6985   -1.2932 O   0  0  0  0  0  0  0  0  0  0  0  0
   -0.6422   -4.3422   -0.4086 C   0  0  0  0  0  0  0  0  0  0  0  0
   -3.5738   -3.5437   -0.5173 H   0  0  0  0  0  0  0  0  0  0  0  0
   -1.2981   -3.1878    1.2914 H   0  0  0  0  0  0  0  0  0  0  0  0
   -0.9143   -4.4971   -1.4578 H   0  0  0  0  0  0  0  0  0  0  0  0
    0.3868   -3.9729   -0.3664 H   0  0  0  0  0  0  0  0  0  0  0  0
   -0.6838   -5.3062    0.1083 H   0  0  0  0  0  0  0  0  0  0  0  0
   -0.4598   -1.1434   -0.2853 N   0  0  0  0  0  0  0  0  0  0  0  0
   -0.4447    0.3228   -0.4836 C   0  0  2  0  0  0  0  0  0  0  0  0
    0.9786    0.8498   -0.1870 C   0  0  0  0  0  0  0  0  0  0  0  0
    1.8257    0.8235   -1.0680 O   0  0  0  0  0  0  0  0  0  0  0  0
   -1.4174    1.1160    0.4383 C   0  0  0  0  0  0  0  0  0  0  0  0
   -3.2167    0.8223    0.1984 S   0  0  0  0  0  0  0  0  0  0  0  0
    0.2674   -1.5214    0.3156 H   0  0  0  0  0  0  0  0  0  0  0  0
   -0.6868    0.5458   -1.5288 H   0  0  0  0  0  0  0  0  0  0  0  0
   -1.1921    0.8810    1.4831 H   0  0  0  0  0  0  0  0  0  0  0  0
   -1.2377    2.1865    0.2903 H   0  0  0  0  0  0  0  0  0  0  0  0
   -3.7528    1.6649    1.1077 H   0  0  0  0  0  0  0  0  0  0  0  0
    1.3678    1.2559    1.0778 N   0  0  0  0  0  0  0  0  0  0  0  0
    2.7464    1.5735    1.4714 C   0  0  2  0  0  0  0  0  0  0  0  0
    2.9821    1.2567    2.9633 C   0  0  0  0  0  0  0  0  0  0  0  0
    2.0341    0.9446    3.6766 O   0  0  0  0  0  0  0  0  0  0  0  0
    3.0025    3.0559    1.1809 C   0  0  0  0  0  0  0  0  0  0  0  0
    0.7073    1.1157    1.8419 H   0  0  0  0  0  0  0  0  0  0  0  0
    3.4496    0.9640    0.8937 H   0  0  0  0  0  0  0  0  0  0  0  0
    2.3098    3.6837    1.7506 H   0  0  0  0  0  0  0  0  0  0  0  0
    4.0261    3.3314    1.4520 H   0  0  0  0  0  0  0  0  0  0  0  0
    2.8629    3.2622    0.1148 H   0  0  0  0  0  0  0  0  0  0  0  0
    4.2551    1.2950    3.5007 N   0  0  0  0  0  0  0  0  0  0  0  0
    4.5411    1.0066    4.9012 C   0  0  0  0  0  0  0  0  0  0  0  0
    5.0206    1.5532    2.8845 H   0  0  0  0  0  0  0  0  0  0  0  0
    4.0351    1.7284    5.5511 H   0  0  0  0  0  0  0  0  0  0  0  0
    4.2027   -0.0015    5.1638 H   0  0  0  0  0  0  0  0  0  0  0  0
    5.6176    1.0676    5.0881 H   0  0  0  0  0  0  0  0  0  0  0  0
  1  2  2  0  0  0  0
  1  3  1  0  0  0  0
  1  7  1  0  0  0  0
  3  4  1  0  0  0  0
  3  5  1  0  0  0  0
  3  6  1  0  0  0  0
  7  8  1  0  0  0  0
  7 12  1  0  0  0  0
  8  9  1  0  0  0  0
  8 11  1  0  0  0  0
  8 13  1  0  0  0  0
  9 10  2  0  0  0  0
  9 17  1  0  0  0  0
 11 14  1  0  0  0  0
 11 15  1  0  0  0  0
 11 16  1  0  0  0  0
 17 18  1  0  0  0  0
 17 23  1  0  0  0  0
 18 19  1  0  0  0  0
 18 21  1  0  0  0  0
 18 24  1  0  0  0  0
 19 20  2  0  0  0  0
 19 28  1  0  0  0  0
 21 22  1  0  0  0  0
 21 25  1  0  0  0  0
 21 26  1  0  0  0  0
 22 27  1  0  0  0  0
 28 29  1  0  0  0  0
 28 33  1  0  0  0  0
 29 30  1  0  0  0  0
 29 32  1  0  0  0  0
 29 34  1  0  0  0  0
 30 31  2  0  0  0  0
 30 38  1  0  0  0  0
 32 35  1  0  0  0  0
 32 36  1  0  0  0  0
 32 37  1  0  0  0  0
 38 39  1  0  0  0  0
 38 40  1  0  0  0  0
 39 41  1  0  0  0  0
 39 42  1  0  0  0  0
 39 43  1  0  0  0  0
M  END
$$$$

  -OEChem-05262216003D

 43 42  0     1  0  0  0  0  0999 V2000
   -3.6255   -4.5469    1.2293 C   0  0  0  0  0  0  0  0  0  0  0  0
   -3.0301   -4.8329    2.2563 O   0  0  0  0  0  0  0  0  0  0  0  0
   -5.0989   -4.8774    1.0848 C   0  0  0  0  0  0  0  0  0  0  0  0
   -5.2516   -5.5324    0.2237 H   0  0  0  0  0  0  0  0  0  0  0  0
   -5.4616   -5.3849    1.9830 H   0  0  0  0  0  0  0  0  0  0  0  0
   -5.6741   -3.9594    0.9415 H   0  0  0  0  0  0  0  0  0  0  0  0
   -2.9632   -3.9102    0.2022 N   0  0  0  0  0  0  0  0  0  0  0  0
   -1.6027   -3.3684    0.3030 C   0  0  2  0  0  0  0  0  0  0  0  0
   -1.4845   -2.0294   -0.4535 C   0  0  0  0  0  0  0  0  0  0  0  0
   -2.2839   -1.7664   -1.3426 O   0  0  0  0  0  0  0  0  0  0  0  0
   -0.6317   -4.4056   -0.2679 C   0  0  0  0  0  0  0  0  0  0  0  0
   -3.5287   -3.5657   -0.5738 H   0  0  0  0  0  0  0  0  0  0  0  0
   -1.3523   -3.1760    1.3516 H   0  0  0  0  0  0  0  0  0  0  0  0
   -0.8581   -4.6018   -1.3211 H   0  0  0  0  0  0  0  0  0  0  0  0
    0.4005   -4.0506   -0.1936 H   0  0  0  0  0  0  0  0  0  0  0  0
   -0.7138   -5.3453    0.2877 H   0  0  0  0  0  0  0  0  0  0  0  0
   -0.4007   -1.1958   -0.2475 N   0  0  0  0  0  0  0  0  0  0  0  0
   -0.3958    0.2675   -0.4696 C   0  0  2  0  0  0  0  0  0  0  0  0
    1.0042    0.8254   -0.1357 C   0  0  0  0  0  0  0  0  0  0  0  0
    1.7774    1.1175   -1.0360 O   0  0  0  0  0  0  0  0  0  0  0  0
   -1.3893    1.0666    0.4217 C   0  0  0  0  0  0  0  0  0  0  0  0
   -3.1798    0.7463    0.1517 S   0  0  0  0  0  0  0  0  0  0  0  0
    0.2795   -1.5528    0.4182 H   0  0  0  0  0  0  0  0  0  0  0  0
   -0.6158    0.4726   -1.5235 H   0  0  0  0  0  0  0  0  0  0  0  0
   -1.1784    0.8579    1.4748 H   0  0  0  0  0  0  0  0  0  0  0  0
   -1.2165    2.1356    0.2550 H   0  0  0  0  0  0  0  0  0  0  0  0
   -3.7433    1.6040    1.0295 H   0  0  0  0  0  0  0  0  0  0  0  0
    1.4290    0.9674    1.1735 N   0  0  0  0  0  0  0  0  0  0  0  0
    2.8095    1.2730    1.5718 C   0  0  2  0  0  0  0  0  0  0  0  0
    3.1959    0.5037    2.8528 C   0  0  0  0  0  0  0  0  0  0  0  0
    2.3446   -0.1478    3.4499 O   0  0  0  0  0  0  0  0  0  0  0  0
    2.9225    2.7861    1.7792 C   0  0  0  0  0  0  0  0  0  0  0  0
    0.8352    0.5689    1.9004 H   0  0  0  0  0  0  0  0  0  0  0  0
    3.5076    0.9646    0.7860 H   0  0  0  0  0  0  0  0  0  0  0  0
    2.2388    3.1165    2.5678 H   0  0  0  0  0  0  0  0  0  0  0  0
    3.9424    3.0631    2.0627 H   0  0  0  0  0  0  0  0  0  0  0  0
    2.6688    3.3134    0.8538 H   0  0  0  0  0  0  0  0  0  0  0  0
    4.4967    0.5157    3.3207 N   0  0  0  0  0  0  0  0  0  0  0  0
    4.9259   -0.2022    4.5151 C   0  0  0  0  0  0  0  0  0  0  0  0
    5.1824    1.0510    2.7959 H   0  0  0  0  0  0  0  0  0  0  0  0
    4.3913    0.1656    5.3973 H   0  0  0  0  0  0  0  0  0  0  0  0
    4.7335   -1.2749    4.4086 H   0  0  0  0  0  0  0  0  0  0  0  0
    5.9986   -0.0589    4.6773 H   0  0  0  0  0  0  0  0  0  0  0  0
  1  2  2  0  0  0  0
  1  3  1  0  0  0  0
  1  7  1  0  0  0  0
  3  4  1  0  0  0  0
  3  5  1  0  0  0  0
  3  6  1  0  0  0  0
  7  8  1  0  0  0  0
  7 12  1  0  0  0  0
  8  9  1  0  0  0  0
  8 11  1  0  0  0  0
  8 13  1  0  0  0  0
  9 10  2  0  0  0  0
  9 17  1  0  0  0  0
 11 14  1  0  0  0  0
 11 15  1  0  0  0  0
 11 16  1  0  0  0  0
 17 18  1  0  0  0  0
 17 23  1  0  0  0  0
 18 19  1  0  0  0  0
 18 21  1  0  0  0  0
 18 24  1  0  0  0  0
 19 20  2  0  0  0  0
 19 28  1  0  0  0  0
 21 22  1  0  0  0  0
 21 25  1  0  0  0  0
 21 26  1  0  0  0  0
 22 27  1  0  0  0  0
 28 29  1  0  0  0  0
 28 33  1  0  0  0  0
 29 30  1  0  0  0  0
 29 32  1  0  0  0  0
 29 34  1  0  0  0  0
 30 31  2  0  0  0  0
 30 38  1  0  0  0  0
 32 35  1  0  0  0  0
 32 36  1  0  0  0  0
 32 37  1  0  0  0  0
 38 39  1  0  0  0  0
 38 40  1  0  0  0  0
 39 41  1  0  0  0  0
 39 42  1  0  0  0  0
 39 43  1  0  0  0  0
M  END
$$$$

  -OEChem-05262216003D

 43 42  0     1  0  0  0  0  0999 V2000
   -2.1052   -2.4979    1.7949 C   0  0  0  0  0  0  0  0  0  0  0  0
   -1.2285   -1.7125    2.1361 O   0  0  0  0  0  0  0  0  0  0  0  0
   -3.5212   -2.3008    2.3018 C   0  0  0  0  0  0  0  0  0  0  0  0
   -3.8564   -3.1969    2.8299 H   0  0  0  0  0  0  0  0  0  0  0  0
   -3.5630   -1.4514    2.9891 H   0  0  0  0  0  0  0  0  0  0  0  0
   -4.1936   -2.1078    1.4621 H   0  0  0  0  0  0  0  0  0  0  0  0
   -1.8459   -3.5253    0.9070 N   0  0  0  0  0  0  0  0  0  0  0  0
   -0.5666   -3.7065    0.2032 C   0  0  2  0  0  0  0  0  0  0  0  0
   -0.3365   -2.5880   -0.8366 C   0  0  0  0  0  0  0  0  0  0  0  0
   -0.6662   -2.7024   -2.0092 O   0  0  0  0  0  0  0  0  0  0  0  0
   -0.5707   -5.1012   -0.4313 C   0  0  0  0  0  0  0  0  0  0  0  0
   -2.6571   -4.0082    0.5313 H   0  0  0  0  0  0  0  0  0  0  0  0
    0.2576   -3.6651    0.9245 H   0  0  0  0  0  0  0  0  0  0  0  0
   -1.3881   -5.1955   -1.1537 H   0  0  0  0  0  0  0  0  0  0  0  0
    0.3740   -5.2798   -0.9542 H   0  0  0  0  0  0  0  0  0  0  0  0
   -0.6918   -5.8695    0.3383 H   0  0  0  0  0  0  0  0  0  0  0  0
    0.1852   -1.4102   -0.3595 N   0  0  0  0  0  0  0  0  0  0  0  0
   -0.1419   -0.0475   -0.8096 C   0  0  2  0  0  0  0  0  0  0  0  0
    0.7291    0.8733    0.0580 C   0  0  0  0  0  0  0  0  0  0  0  0
    1.6485    1.5243   -0.4204 O   0  0  0  0  0  0  0  0  0  0  0  0
   -1.6105    0.3966   -0.5886 C   0  0  0  0  0  0  0  0  0  0  0  0
   -2.8785   -0.5312   -1.5448 S   0  0  0  0  0  0  0  0  0  0  0  0
    0.5216   -1.4890    0.6065 H   0  0  0  0  0  0  0  0  0  0  0  0
    0.1272    0.0722   -1.8643 H   0  0  0  0  0  0  0  0  0  0  0  0
   -1.8643    0.3153    0.4723 H   0  0  0  0  0  0  0  0  0  0  0  0
   -1.6898    1.4534   -0.8645 H   0  0  0  0  0  0  0  0  0  0  0  0
   -3.9832    0.2047   -1.3003 H   0  0  0  0  0  0  0  0  0  0  0  0
    0.5548    0.8206    1.4325 N   0  0  0  0  0  0  0  0  0  0  0  0
    1.7179    0.9559    2.3149 C   0  0  2  0  0  0  0  0  0  0  0  0
    2.5771   -0.3314    2.3148 C   0  0  0  0  0  0  0  0  0  0  0  0
    2.0930   -1.4028    1.9557 O   0  0  0  0  0  0  0  0  0  0  0  0
    1.1970    1.2515    3.7224 C   0  0  0  0  0  0  0  0  0  0  0  0
   -0.1224    0.1103    1.7256 H   0  0  0  0  0  0  0  0  0  0  0  0
    2.3442    1.7932    1.9887 H   0  0  0  0  0  0  0  0  0  0  0  0
    0.5735    0.4254    4.0806 H   0  0  0  0  0  0  0  0  0  0  0  0
    2.0302    1.3859    4.4189 H   0  0  0  0  0  0  0  0  0  0  0  0
    0.5965    2.1666    3.7203 H   0  0  0  0  0  0  0  0  0  0  0  0
    3.8987   -0.2895    2.7185 N   0  0  0  0  0  0  0  0  0  0  0  0
    4.7839   -1.4467    2.6647 C   0  0  0  0  0  0  0  0  0  0  0  0
    4.2983    0.6240    2.9128 H   0  0  0  0  0  0  0  0  0  0  0  0
    4.3688   -2.2751    3.2486 H   0  0  0  0  0  0  0  0  0  0  0  0
    4.9187   -1.7778    1.6295 H   0  0  0  0  0  0  0  0  0  0  0  0
    5.7645   -1.1927    3.0785 H   0  0  0  0  0  0  0  0  0  0  0  0
  1  2  2  0  0  0  0
  1  3  1  0  0  0  0
  1  7  1  0  0  0  0
  3  4  1  0  0  0  0
  3  5  1  0  0  0  0
  3  6  1  0  0  0  0
  7  8  1  0  0  0  0
  7 12  1  0  0  0  0
  8  9  1  0  0  0  0
  8 11  1  0  0  0  0
  8 13  1  0  0  0  0
  9 10  2  0  0  0  0
  9 17  1  0  0  0  0
 11 14  1  0  0  0  0
 11 15  1  0  0  0  0
 11 16  1  0  0  0  0
 17 18  1  0  0  0  0
 17 23  1  0  0  0  0
 18 19  1  0  0  0  0
 18 21  1  0  0  0  0
 18 24  1  0  0  0  0
 19 20  2  0  0  0  0
 19 28  1  0  0  0  0
 21 22  1  0  0  0  0
 21 25  1  0  0  0  0
 21 26  1  0  0  0  0
 22 27  1  0  0  0  0
 28 29  1  0  0  0  0
 28 33  1  0  0  0  0
 29 30  1  0  0  0  0
 29 32  1  0  0  0  0
 29 34  1  0  0  0  0
 30 31  2  0  0  0  0
 30 38  1  0  0  0  0
 32 35  1  0  0  0  0
 32 36  1  0  0  0  0
 32 37  1  0  0  0  0
 38 39  1  0  0  0  0
 38 40  1  0  0  0  0
 39 41  1  0  0  0  0
 39 42  1  0  0  0  0
 39 43  1  0  0  0  0
M  END
$$$$

  -OEChem-05262216003D

 43 42  0     1  0  0  0  0  0999 V2000
   -3.1421   -3.6944    1.6148 C   0  0  0  0  0  0  0  0  0  0  0  0
   -2.7718   -3.0079    2.5557 O   0  0  0  0  0  0  0  0  0  0  0  0
   -4.6022   -4.0877    1.4919 C   0  0  0  0  0  0  0  0  0  0  0  0
   -4.6937   -5.1759    1.4528 H   0  0  0  0  0  0  0  0  0  0  0  0
   -5.1672   -3.7175    2.3518 H   0  0  0  0  0  0  0  0  0  0  0  0
   -5.0273   -3.6599    0.5805 H   0  0  0  0  0  0  0  0  0  0  0  0
   -2.2472   -4.0934    0.6434 N   0  0  0  0  0  0  0  0  0  0  0  0
   -0.9087   -3.5012    0.5249 C   0  0  2  0  0  0  0  0  0  0  0  0
   -0.9369   -2.2443   -0.3672 C   0  0  0  0  0  0  0  0  0  0  0  0
   -1.5673   -2.2607   -1.4155 O   0  0  0  0  0  0  0  0  0  0  0  0
    0.0352   -4.5572   -0.0530 C   0  0  0  0  0  0  0  0  0  0  0  0
   -2.6679   -4.4287   -0.2199 H   0  0  0  0  0  0  0  0  0  0  0  0
   -0.5290   -3.2146    1.5119 H   0  0  0  0  0  0  0  0  0  0  0  0
   -0.2940   -4.8644   -1.0508 H   0  0  0  0  0  0  0  0  0  0  0  0
    1.0507   -4.1559   -0.1299 H   0  0  0  0  0  0  0  0  0  0  0  0
    0.0597   -5.4385    0.5951 H   0  0  0  0  0  0  0  0  0  0  0  0
   -0.1240   -1.1758   -0.0516 N   0  0  0  0  0  0  0  0  0  0  0  0
   -0.1749    0.2044   -0.5853 C   0  0  2  0  0  0  0  0  0  0  0  0
    0.9538    1.0084    0.0845 C   0  0  0  0  0  0  0  0  0  0  0  0
    1.8296    1.5292   -0.5913 O   0  0  0  0  0  0  0  0  0  0  0  0
   -1.4627    1.0000   -0.2470 C   0  0  0  0  0  0  0  0  0  0  0  0
   -3.0332    0.3721   -0.9675 S   0  0  0  0  0  0  0  0  0  0  0  0
    0.5602   -1.3701    0.6862 H   0  0  0  0  0  0  0  0  0  0  0  0
   -0.0256    0.1878   -1.6701 H   0  0  0  0  0  0  0  0  0  0  0  0
   -1.5861    1.0285    0.8403 H   0  0  0  0  0  0  0  0  0  0  0  0
   -1.3307    2.0315   -0.5920 H   0  0  0  0  0  0  0  0  0  0  0  0
   -3.9180    1.2836   -0.5108 H   0  0  0  0  0  0  0  0  0  0  0  0
    1.1337    0.8816    1.4521 N   0  0  0  0  0  0  0  0  0  0  0  0
    2.4792    0.7271    2.0190 C   0  0  2  0  0  0  0  0  0  0  0  0
    2.9313   -0.7500    1.9538 C   0  0  0  0  0  0  0  0  0  0  0  0
    2.0955   -1.6385    1.7939 O   0  0  0  0  0  0  0  0  0  0  0  0
    2.4366    1.2182    3.4672 C   0  0  0  0  0  0  0  0  0  0  0  0
    0.4104    0.3263    1.9046 H   0  0  0  0  0  0  0  0  0  0  0  0
    3.2029    1.3366    1.4668 H   0  0  0  0  0  0  0  0  0  0  0  0
    1.7359    0.6181    4.0571 H   0  0  0  0  0  0  0  0  0  0  0  0
    3.4277    1.1456    3.9255 H   0  0  0  0  0  0  0  0  0  0  0  0
    2.1156    2.2641    3.5023 H   0  0  0  0  0  0  0  0  0  0  0  0
    4.2673   -1.0853    2.0599 N   0  0  0  0  0  0  0  0  0  0  0  0
    4.7609   -2.4519    1.9378 C   0  0  0  0  0  0  0  0  0  0  0  0
    4.9397   -0.3250    2.1113 H   0  0  0  0  0  0  0  0  0  0  0  0
    4.3171   -3.0912    2.7086 H   0  0  0  0  0  0  0  0  0  0  0  0
    4.5139   -2.8628    0.9530 H   0  0  0  0  0  0  0  0  0  0  0  0
    5.8486   -2.4727    2.0577 H   0  0  0  0  0  0  0  0  0  0  0  0
  1  2  2  0  0  0  0
  1  3  1  0  0  0  0
  1  7  1  0  0  0  0
  3  4  1  0  0  0  0
  3  5  1  0  0  0  0
  3  6  1  0  0  0  0
  7  8  1  0  0  0  0
  7 12  1  0  0  0  0
  8  9  1  0  0  0  0
  8 11  1  0  0  0  0
  8 13  1  0  0  0  0
  9 10  2  0  0  0  0
  9 17  1  0  0  0  0
 11 14  1  0  0  0  0
 11 15  1  0  0  0  0
 11 16  1  0  0  0  0
 17 18  1  0  0  0  0
 17 23  1  0  0  0  0
 18 19  1  0  0  0  0
 18 21  1  0  0  0  0
 18 24  1  0  0  0  0
 19 20  2  0  0  0  0
 19 28  1  0  0  0  0
 21 22  1  0  0  0  0
 21 25  1  0  0  0  0
 21 26  1  0  0  0  0
 22 27  1  0  0  0  0
 28 29  1  0  0  0  0
 28 33  1  0  0  0  0
 29 30  1  0  0  0  0
 29 32  1  0  0  0  0
 29 34  1  0  0  0  0
 30 31  2  0  0  0  0
 30 38  1  0  0  0  0
 32 35  1  0  0  0  0
 32 36  1  0  0  0  0
 32 37  1  0  0  0  0
 38 39  1  0  0  0  0
 38 40  1  0  0  0  0
 39 41  1  0  0  0  0
 39 42  1  0  0  0  0
 39 43  1  0  0  0  0
M  END
$$$$

  -OEChem-05262216003D

 43 42  0     1  0  0  0  0  0999 V2000
   -3.8727   -4.5406    1.1429 C   0  0  0  0  0  0  0  0  0  0  0  0
   -3.3544   -4.8353    2.2086 O   0  0  0  0  0  0  0  0  0  0  0  0
   -5.3501   -4.8029    0.9163 C   0  0  0  0  0  0  0  0  0  0  0  0
   -5.4839   -5.4730    0.0636 H   0  0  0  0  0  0  0  0  0  0  0  0
   -5.7914   -5.2683    1.8023 H   0  0  0  0  0  0  0  0  0  0  0  0
   -5.8700   -3.8627    0.7159 H   0  0  0  0  0  0  0  0  0  0  0  0
   -3.1196   -3.9577    0.1465 N   0  0  0  0  0  0  0  0  0  0  0  0
   -1.7422   -3.4801    0.3210 C   0  0  2  0  0  0  0  0  0  0  0  0
   -1.5228   -2.1406   -0.4116 C   0  0  0  0  0  0  0  0  0  0  0  0
   -2.2565   -1.8295   -1.3412 O   0  0  0  0  0  0  0  0  0  0  0  0
   -0.7904   -4.5544   -0.2121 C   0  0  0  0  0  0  0  0  0  0  0  0
   -3.6243   -3.5920   -0.6609 H   0  0  0  0  0  0  0  0  0  0  0  0
   -1.5354   -3.3088    1.3829 H   0  0  0  0  0  0  0  0  0  0  0  0
   -0.9700   -4.7302   -1.2777 H   0  0  0  0  0  0  0  0  0  0  0  0
    0.2514   -4.2470   -0.0803 H   0  0  0  0  0  0  0  0  0  0  0  0
   -0.9424   -5.4944    0.3274 H   0  0  0  0  0  0  0  0  0  0  0  0
   -0.4159   -1.3607   -0.1303 N   0  0  0  0  0  0  0  0  0  0  0  0
   -0.3295    0.1046   -0.3502 C   0  0  2  0  0  0  0  0  0  0  0  0
    1.0518    0.6560    0.0623 C   0  0  0  0  0  0  0  0  0  0  0  0
    1.5350    1.6105   -0.5292 O   0  0  0  0  0  0  0  0  0  0  0  0
   -1.3061    0.9206    0.5392 C   0  0  0  0  0  0  0  0  0  0  0  0
   -3.1029    0.6674    0.2357 S   0  0  0  0  0  0  0  0  0  0  0  0
    0.2209   -1.7727    0.5440 H   0  0  0  0  0  0  0  0  0  0  0  0
   -0.5080    0.3310   -1.4073 H   0  0  0  0  0  0  0  0  0  0  0  0
   -1.1053    0.6899    1.5906 H   0  0  0  0  0  0  0  0  0  0  0  0
   -1.0996    1.9869    0.3919 H   0  0  0  0  0  0  0  0  0  0  0  0
   -3.6461    1.5676    1.0829 H   0  0  0  0  0  0  0  0  0  0  0  0
    1.7837    0.0614    1.0741 N   0  0  0  0  0  0  0  0  0  0  0  0
    3.2224    0.2567    1.2853 C   0  0  2  0  0  0  0  0  0  0  0  0
    3.8851   -1.0841    1.6694 C   0  0  0  0  0  0  0  0  0  0  0  0
    3.1796   -2.0632    1.8998 O   0  0  0  0  0  0  0  0  0  0  0  0
    3.4154    1.3082    2.3819 C   0  0  0  0  0  0  0  0  0  0  0  0
    1.3931   -0.7726    1.5048 H   0  0  0  0  0  0  0  0  0  0  0  0
    3.6975    0.6070    0.3624 H   0  0  0  0  0  0  0  0  0  0  0  0
    2.9648    0.9719    3.3213 H   0  0  0  0  0  0  0  0  0  0  0  0
    4.4796    1.4960    2.5530 H   0  0  0  0  0  0  0  0  0  0  0  0
    2.9435    2.2510    2.0869 H   0  0  0  0  0  0  0  0  0  0  0  0
    5.2607   -1.2057    1.7305 N   0  0  0  0  0  0  0  0  0  0  0  0
    5.9393   -2.4517    2.0684 C   0  0  0  0  0  0  0  0  0  0  0  0
    5.8184   -0.3860    1.5077 H   0  0  0  0  0  0  0  0  0  0  0  0
    5.6386   -2.7941    3.0644 H   0  0  0  0  0  0  0  0  0  0  0  0
    5.6952   -3.2318    1.3393 H   0  0  0  0  0  0  0  0  0  0  0  0
    7.0240   -2.3054    2.0676 H   0  0  0  0  0  0  0  0  0  0  0  0
  1  2  2  0  0  0  0
  1  3  1  0  0  0  0
  1  7  1  0  0  0  0
  3  4  1  0  0  0  0
  3  5  1  0  0  0  0
  3  6  1  0  0  0  0
  7  8  1  0  0  0  0
  7 12  1  0  0  0  0
  8  9  1  0  0  0  0
  8 11  1  0  0  0  0
  8 13  1  0  0  0  0
  9 10  2  0  0  0  0
  9 17  1  0  0  0  0
 11 14  1  0  0  0  0
 11 15  1  0  0  0  0
 11 16  1  0  0  0  0
 17 18  1  0  0  0  0
 17 23  1  0  0  0  0
 18 19  1  0  0  0  0
 18 21  1  0  0  0  0
 18 24  1  0  0  0  0
 19 20  2  0  0  0  0
 19 28  1  0  0  0  0
 21 22  1  0  0  0  0
 21 25  1  0  0  0  0
 21 26  1  0  0  0  0
 22 27  1  0  0  0  0
 28 29  1  0  0  0  0
 28 33  1  0  0  0  0
 29 30  1  0  0  0  0
 29 32  1  0  0  0  0
 29 34  1  0  0  0  0
 30 31  2  0  0  0  0
 30 38  1  0  0  0  0
 32 35  1  0  0  0  0
 32 36  1  0  0  0  0
 32 37  1  0  0  0  0
 38 39  1  0  0  0  0
 38 40  1  0  0  0  0
 39 41  1  0  0  0  0
 39 42  1  0  0  0  0
 39 43  1  0  0  0  0
M  END
$$$$

  -OEChem-05262216003D

 43 42  0     1  0  0  0  0  0999 V2000
   -4.1629   -4.3960    1.0965 C   0  0  0  0  0  0  0  0  0  0  0  0
   -3.6855   -4.7277    2.1706 O   0  0  0  0  0  0  0  0  0  0  0  0
   -5.6515   -4.5442    0.8454 C   0  0  0  0  0  0  0  0  0  0  0  0
   -5.8211   -5.2025   -0.0101 H   0  0  0  0  0  0  0  0  0  0  0  0
   -6.1415   -4.9741    1.7235 H   0  0  0  0  0  0  0  0  0  0  0  0
   -6.0939   -3.5667    0.6379 H   0  0  0  0  0  0  0  0  0  0  0  0
   -3.3505   -3.8791    0.1106 N   0  0  0  0  0  0  0  0  0  0  0  0
   -1.9407   -3.5207    0.3052 C   0  0  2  0  0  0  0  0  0  0  0  0
   -1.5798   -2.2434   -0.4804 C   0  0  0  0  0  0  0  0  0  0  0  0
   -2.2718   -1.8901   -1.4275 O   0  0  0  0  0  0  0  0  0  0  0  0
   -1.0774   -4.7020   -0.1461 C   0  0  0  0  0  0  0  0  0  0  0  0
   -3.8094   -3.4814   -0.7093 H   0  0  0  0  0  0  0  0  0  0  0  0
   -1.7505   -3.3170    1.3644 H   0  0  0  0  0  0  0  0  0  0  0  0
   -1.2450   -4.9146   -1.2070 H   0  0  0  0  0  0  0  0  0  0  0  0
   -0.0157   -4.4833    0.0023 H   0  0  0  0  0  0  0  0  0  0  0  0
   -1.3295   -5.5966    0.4324 H   0  0  0  0  0  0  0  0  0  0  0  0
   -0.4059   -1.5599   -0.2205 N   0  0  0  0  0  0  0  0  0  0  0  0
   -0.2902   -0.0858   -0.3454 C   0  0  2  0  0  0  0  0  0  0  0  0
    1.1374    0.4051   -0.0067 C   0  0  0  0  0  0  0  0  0  0  0  0
    1.4601    1.5637   -0.2324 O   0  0  0  0  0  0  0  0  0  0  0  0
   -1.1902    0.6714    0.6722 C   0  0  0  0  0  0  0  0  0  0  0  0
   -3.0083    0.4668    0.4702 S   0  0  0  0  0  0  0  0  0  0  0  0
    0.1065   -1.9709    0.5527 H   0  0  0  0  0  0  0  0  0  0  0  0
   -0.5387    0.2220   -1.3671 H   0  0  0  0  0  0  0  0  0  0  0  0
   -0.9201    0.3587    1.6859 H   0  0  0  0  0  0  0  0  0  0  0  0
   -0.9804    1.7442    0.5957 H   0  0  0  0  0  0  0  0  0  0  0  0
   -3.4738    1.3036    1.4226 H   0  0  0  0  0  0  0  0  0  0  0  0
    2.0434   -0.4125    0.6458 N   0  0  0  0  0  0  0  0  0  0  0  0
    3.4391   -0.0506    0.9232 C   0  0  2  0  0  0  0  0  0  0  0  0
    4.3270   -1.3133    0.9540 C   0  0  0  0  0  0  0  0  0  0  0  0
    3.8030   -2.4231    0.9230 O   0  0  0  0  0  0  0  0  0  0  0  0
    3.4982    0.6885    2.2640 C   0  0  0  0  0  0  0  0  0  0  0  0
    1.8576   -1.4130    0.6225 H   0  0  0  0  0  0  0  0  0  0  0  0
    3.8202    0.6027    0.1305 H   0  0  0  0  0  0  0  0  0  0  0  0
    3.1210    0.0501    3.0694 H   0  0  0  0  0  0  0  0  0  0  0  0
    4.5265    0.9778    2.5004 H   0  0  0  0  0  0  0  0  0  0  0  0
    2.8881    1.5965    2.2239 H   0  0  0  0  0  0  0  0  0  0  0  0
    5.7051   -1.2112    0.9935 N   0  0  0  0  0  0  0  0  0  0  0  0
    6.5935   -2.3673    1.0065 C   0  0  0  0  0  0  0  0  0  0  0  0
    6.1099   -0.2794    1.0028 H   0  0  0  0  0  0  0  0  0  0  0  0
    6.4087   -2.9824    1.8934 H   0  0  0  0  0  0  0  0  0  0  0  0
    6.4377   -2.9806    0.1127 H   0  0  0  0  0  0  0  0  0  0  0  0
    7.6383   -2.0422    1.0234 H   0  0  0  0  0  0  0  0  0  0  0  0
  1  2  2  0  0  0  0
  1  3  1  0  0  0  0
  1  7  1  0  0  0  0
  3  4  1  0  0  0  0
  3  5  1  0  0  0  0
  3  6  1  0  0  0  0
  7  8  1  0  0  0  0
  7 12  1  0  0  0  0
  8  9  1  0  0  0  0
  8 11  1  0  0  0  0
  8 13  1  0  0  0  0
  9 10  2  0  0  0  0
  9 17  1  0  0  0  0
 11 14  1  0  0  0  0
 11 15  1  0  0  0  0
 11 16  1  0  0  0  0
 17 18  1  0  0  0  0
 17 23  1  0  0  0  0
 18 19  1  0  0  0  0
 18 21  1  0  0  0  0
 18 24  1  0  0  0  0
 19 20  2  0  0  0  0
 19 28  1  0  0  0  0
 21 22  1  0  0  0  0
 21 25  1  0  0  0  0
 21 26  1  0  0  0  0
 22 27  1  0  0  0  0
 28 29  1  0  0  0  0
 28 33  1  0  0  0  0
 29 30  1  0  0  0  0
 29 32  1  0  0  0  0
 29 34  1  0  0  0  0
 30 31  2  0  0  0  0
 30 38  1  0  0  0  0
 32 35  1  0  0  0  0
 32 36  1  0  0  0  0
 32 37  1  0  0  0  0
 38 39  1  0  0  0  0
 38 40  1  0  0  0  0
 39 41  1  0  0  0  0
 39 42  1  0  0  0  0
 39 43  1  0  0  0  0
M  END
$$$$

  -OEChem-05262216003D

 43 42  0     1  0  0  0  0  0999 V2000
   -4.1258   -4.3721    1.1784 C   0  0  0  0  0  0  0  0  0  0  0  0
   -3.6073   -4.7036    2.2333 O   0  0  0  0  0  0  0  0  0  0  0  0
   -5.6255   -4.5039    0.9911 C   0  0  0  0  0  0  0  0  0  0  0  0
   -5.8400   -5.1699    0.1518 H   0  0  0  0  0  0  0  0  0  0  0  0
   -6.0841   -4.9163    1.8942 H   0  0  0  0  0  0  0  0  0  0  0  0
   -6.0632   -3.5232    0.7894 H   0  0  0  0  0  0  0  0  0  0  0  0
   -3.3495   -3.8710    0.1557 N   0  0  0  0  0  0  0  0  0  0  0  0
   -1.9267   -3.5347    0.2853 C   0  0  2  0  0  0  0  0  0  0  0  0
   -1.5861   -2.2482   -0.4935 C   0  0  0  0  0  0  0  0  0  0  0  0
   -2.2901   -1.8938   -1.4310 O   0  0  0  0  0  0  0  0  0  0  0  0
   -1.1064   -4.7184   -0.2343 C   0  0  0  0  0  0  0  0  0  0  0  0
   -3.8373   -3.4747   -0.6477 H   0  0  0  0  0  0  0  0  0  0  0  0
   -1.6786   -3.3559    1.3368 H   0  0  0  0  0  0  0  0  0  0  0  0
   -1.3329   -4.9069   -1.2888 H   0  0  0  0  0  0  0  0  0  0  0  0
   -0.0350   -4.5178   -0.1394 H   0  0  0  0  0  0  0  0  0  0  0  0
   -1.3410   -5.6206    0.3399 H   0  0  0  0  0  0  0  0  0  0  0  0
   -0.4097   -1.5641   -0.2501 N   0  0  0  0  0  0  0  0  0  0  0  0
   -0.2942   -0.0894   -0.3642 C   0  0  2  0  0  0  0  0  0  0  0  0
    1.1502    0.3688   -0.0418 C   0  0  0  0  0  0  0  0  0  0  0  0
    1.4460    1.5563   -0.0133 O   0  0  0  0  0  0  0  0  0  0  0  0
   -1.1878    0.6587    0.6686 C   0  0  0  0  0  0  0  0  0  0  0  0
   -3.0077    0.4551    0.4797 S   0  0  0  0  0  0  0  0  0  0  0  0
    0.1172   -1.9746    0.5152 H   0  0  0  0  0  0  0  0  0  0  0  0
   -0.5503    0.2282   -1.3807 H   0  0  0  0  0  0  0  0  0  0  0  0
   -0.9070    0.3396    1.6773 H   0  0  0  0  0  0  0  0  0  0  0  0
   -0.9844    1.7331    0.5989 H   0  0  0  0  0  0  0  0  0  0  0  0
   -3.4660    1.2912    1.4363 H   0  0  0  0  0  0  0  0  0  0  0  0
    2.1234   -0.5559    0.2942 N   0  0  0  0  0  0  0  0  0  0  0  0
    3.5352   -0.2325    0.5367 C   0  0  2  0  0  0  0  0  0  0  0  0
    4.4315   -1.4514    0.2277 C   0  0  0  0  0  0  0  0  0  0  0  0
    3.9171   -2.5466    0.0211 O   0  0  0  0  0  0  0  0  0  0  0  0
    3.6981    0.2027    1.9972 C   0  0  0  0  0  0  0  0  0  0  0  0
    1.9392   -1.5226    0.0265 H   0  0  0  0  0  0  0  0  0  0  0  0
    3.8465    0.5843   -0.1238 H   0  0  0  0  0  0  0  0  0  0  0  0
    3.4056   -0.6071    2.6731 H   0  0  0  0  0  0  0  0  0  0  0  0
    4.7377    0.4723    2.2048 H   0  0  0  0  0  0  0  0  0  0  0  0
    3.0705    1.0746    2.2067 H   0  0  0  0  0  0  0  0  0  0  0  0
    5.8064   -1.3223    0.1604 N   0  0  0  0  0  0  0  0  0  0  0  0
    6.7006   -2.4328   -0.1466 C   0  0  0  0  0  0  0  0  0  0  0  0
    6.2025   -0.3988    0.3107 H   0  0  0  0  0  0  0  0  0  0  0  0
    6.5770   -3.2387    0.5848 H   0  0  0  0  0  0  0  0  0  0  0  0
    6.4915   -2.8288   -1.1460 H   0  0  0  0  0  0  0  0  0  0  0  0
    7.7423   -2.0985   -0.1184 H   0  0  0  0  0  0  0  0  0  0  0  0
  1  2  2  0  0  0  0
  1  3  1  0  0  0  0
  1  7  1  0  0  0  0
  3  4  1  0  0  0  0
  3  5  1  0  0  0  0
  3  6  1  0  0  0  0
  7  8  1  0  0  0  0
  7 12  1  0  0  0  0
  8  9  1  0  0  0  0
  8 11  1  0  0  0  0
  8 13  1  0  0  0  0
  9 10  2  0  0  0  0
  9 17  1  0  0  0  0
 11 14  1  0  0  0  0
 11 15  1  0  0  0  0
 11 16  1  0  0  0  0
 17 18  1  0  0  0  0
 17 23  1  0  0  0  0
 18 19  1  0  0  0  0
 18 21  1  0  0  0  0
 18 24  1  0  0  0  0
 19 20  2  0  0  0  0
 19 28  1  0  0  0  0
 21 22  1  0  0  0  0
 21 25  1  0  0  0  0
 21 26  1  0  0  0  0
 22 27  1  0  0  0  0
 28 29  1  0  0  0  0
 28 33  1  0  0  0  0
 29 30  1  0  0  0  0
 29 32  1  0  0  0  0
 29 34  1  0  0  0  0
 30 31  2  0  0  0  0
 30 38  1  0  0  0  0
 32 35  1  0  0  0  0
 32 36  1  0  0  0  0
 32 37  1  0  0  0  0
 38 39  1  0  0  0  0
 38 40  1  0  0  0  0
 39 41  1  0  0  0  0
 39 42  1  0  0  0  0
 39 43  1  0  0  0  0
M  END
$$$$

  -OEChem-05262216003D

 43 42  0     1  0  0  0  0  0999 V2000
   -4.1099   -4.3767    1.2360 C   0  0  0  0  0  0  0  0  0  0  0  0
   -3.5954   -4.6941    2.2972 O   0  0  0  0  0  0  0  0  0  0  0  0
   -5.6070   -4.5218    1.0404 C   0  0  0  0  0  0  0  0  0  0  0  0
   -5.8101   -5.2140    0.2197 H   0  0  0  0  0  0  0  0  0  0  0  0
   -6.0706   -4.9094    1.9517 H   0  0  0  0  0  0  0  0  0  0  0  0
   -6.0484   -3.5501    0.8061 H   0  0  0  0  0  0  0  0  0  0  0  0
   -3.3317   -3.8805    0.2128 N   0  0  0  0  0  0  0  0  0  0  0  0
   -1.9137   -3.5291    0.3494 C   0  0  2  0  0  0  0  0  0  0  0  0
   -1.5795   -2.2633   -0.4651 C   0  0  0  0  0  0  0  0  0  0  0  0
   -2.2917   -1.9315   -1.4050 O   0  0  0  0  0  0  0  0  0  0  0  0
   -1.0752   -4.7198   -0.1223 C   0  0  0  0  0  0  0  0  0  0  0  0
   -3.8185   -3.4894   -0.5940 H   0  0  0  0  0  0  0  0  0  0  0  0
   -1.6807   -3.3150    1.3980 H   0  0  0  0  0  0  0  0  0  0  0  0
   -1.2907   -4.9475   -1.1713 H   0  0  0  0  0  0  0  0  0  0  0  0
   -0.0073   -4.5032   -0.0250 H   0  0  0  0  0  0  0  0  0  0  0  0
   -1.3040   -5.6043    0.4806 H   0  0  0  0  0  0  0  0  0  0  0  0
   -0.4040   -1.5703   -0.2454 N   0  0  0  0  0  0  0  0  0  0  0  0
   -0.2889   -0.0981   -0.3838 C   0  0  2  0  0  0  0  0  0  0  0  0
    1.1676    0.3376   -0.0771 C   0  0  0  0  0  0  0  0  0  0  0  0
    1.4589    1.4999    0.1748 O   0  0  0  0  0  0  0  0  0  0  0  0
   -1.1866    0.6685    0.6329 C   0  0  0  0  0  0  0  0  0  0  0  0
   -3.0062    0.4619    0.4414 S   0  0  0  0  0  0  0  0  0  0  0  0
    0.1452   -1.9693    0.5114 H   0  0  0  0  0  0  0  0  0  0  0  0
   -0.5432    0.2021   -1.4058 H   0  0  0  0  0  0  0  0  0  0  0  0
   -0.9073    0.3686    1.6481 H   0  0  0  0  0  0  0  0  0  0  0  0
   -0.9849    1.7414    0.5422 H   0  0  0  0  0  0  0  0  0  0  0  0
   -3.4677    1.3205    1.3767 H   0  0  0  0  0  0  0  0  0  0  0  0
    2.1765   -0.6086   -0.0461 N   0  0  0  0  0  0  0  0  0  0  0  0
    3.6049   -0.3079    0.1154 C   0  0  2  0  0  0  0  0  0  0  0  0
    4.4722   -1.4005   -0.5451 C   0  0  0  0  0  0  0  0  0  0  0  0
    3.9545   -2.4527   -0.9060 O   0  0  0  0  0  0  0  0  0  0  0  0
    3.9214   -0.2044    1.6111 C   0  0  0  0  0  0  0  0  0  0  0  0
    1.9599   -1.5123   -0.4690 H   0  0  0  0  0  0  0  0  0  0  0  0
    3.8404    0.6434   -0.3740 H   0  0  0  0  0  0  0  0  0  0  0  0
    3.6986   -1.1502    2.1152 H   0  0  0  0  0  0  0  0  0  0  0  0
    4.9785    0.0320    1.7652 H   0  0  0  0  0  0  0  0  0  0  0  0
    3.3226    0.5866    2.0735 H   0  0  0  0  0  0  0  0  0  0  0  0
    5.8250   -1.2020   -0.7499 N   0  0  0  0  0  0  0  0  0  0  0  0
    6.6879   -2.1843   -1.3954 C   0  0  0  0  0  0  0  0  0  0  0  0
    6.2224   -0.3131   -0.4597 H   0  0  0  0  0  0  0  0  0  0  0  0
    6.6816   -3.1266   -0.8373 H   0  0  0  0  0  0  0  0  0  0  0  0
    6.3489   -2.3782   -2.4185 H   0  0  0  0  0  0  0  0  0  0  0  0
    7.7172   -1.8153   -1.4367 H   0  0  0  0  0  0  0  0  0  0  0  0
  1  2  2  0  0  0  0
  1  3  1  0  0  0  0
  1  7  1  0  0  0  0
  3  4  1  0  0  0  0
  3  5  1  0  0  0  0
  3  6  1  0  0  0  0
  7  8  1  0  0  0  0
  7 12  1  0  0  0  0
  8  9  1  0  0  0  0
  8 11  1  0  0  0  0
  8 13  1  0  0  0  0
  9 10  2  0  0  0  0
  9 17  1  0  0  0  0
 11 14  1  0  0  0  0
 11 15  1  0  0  0  0
 11 16  1  0  0  0  0
 17 18  1  0  0  0  0
 17 23  1  0  0  0  0
 18 19  1  0  0  0  0
 18 21  1  0  0  0  0
 18 24  1  0  0  0  0
 19 20  2  0  0  0  0
 19 28  1  0  0  0  0
 21 22  1  0  0  0  0
 21 25  1  0  0  0  0
 21 26  1  0  0  0  0
 22 27  1  0  0  0  0
 28 29  1  0  0  0  0
 28 33  1  0  0  0  0
 29 30  1  0  0  0  0
 29 32  1  0  0  0  0
 29 34  1  0  0  0  0
 30 31  2  0  0  0  0
 30 38  1  0  0  0  0
 32 35  1  0  0  0  0
 32 36  1  0  0  0  0
 32 37  1  0  0  0  0
 38 39  1  0  0  0  0
 38 40  1  0  0  0  0
 39 41  1  0  0  0  0
 39 42  1  0  0  0  0
 39 43  1  0  0  0  0
M  END
$$$$

  -OEChem-05262216003D

 43 42  0     1  0  0  0  0  0999 V2000
   -4.0300   -4.4728    1.2822 C   0  0  0  0  0  0  0  0  0  0  0  0
   -3.4699   -4.8286    2.3077 O   0  0  0  0  0  0  0  0  0  0  0  0
   -5.5264   -4.6663    1.1236 C   0  0  0  0  0  0  0  0  0  0  0  0
   -5.7281   -5.3508    0.2961 H   0  0  0  0  0  0  0  0  0  0  0  0
   -5.9514   -5.0854    2.0397 H   0  0  0  0  0  0  0  0  0  0  0  0
   -6.0076   -3.7067    0.9194 H   0  0  0  0  0  0  0  0  0  0  0  0
   -3.3029   -3.8869    0.2684 N   0  0  0  0  0  0  0  0  0  0  0  0
   -1.8913   -3.5002    0.3787 C   0  0  2  0  0  0  0  0  0  0  0  0
   -1.5996   -2.2204   -0.4311 C   0  0  0  0  0  0  0  0  0  0  0  0
   -2.3427   -1.8921   -1.3477 O   0  0  0  0  0  0  0  0  0  0  0  0
   -1.0310   -4.6652   -0.1196 C   0  0  0  0  0  0  0  0  0  0  0  0
   -3.8251   -3.4845   -0.5102 H   0  0  0  0  0  0  0  0  0  0  0  0
   -1.6460   -3.2887    1.4250 H   0  0  0  0  0  0  0  0  0  0  0  0
   -1.2596   -4.8876   -1.1670 H   0  0  0  0  0  0  0  0  0  0  0  0
    0.0326   -4.4224   -0.0390 H   0  0  0  0  0  0  0  0  0  0  0  0
   -1.2255   -5.5619    0.4774 H   0  0  0  0  0  0  0  0  0  0  0  0
   -0.4195   -1.5236   -0.2502 N   0  0  0  0  0  0  0  0  0  0  0  0
   -0.2905   -0.0564   -0.4180 C   0  0  2  0  0  0  0  0  0  0  0  0
    1.1822    0.3473   -0.1426 C   0  0  0  0  0  0  0  0  0  0  0  0
    1.4960    1.4308    0.3351 O   0  0  0  0  0  0  0  0  0  0  0  0
   -1.1699    0.7476    0.5860 C   0  0  0  0  0  0  0  0  0  0  0  0
   -2.9930    0.5632    0.4121 S   0  0  0  0  0  0  0  0  0  0  0  0
    0.1682   -1.9241    0.4763 H   0  0  0  0  0  0  0  0  0  0  0  0
   -0.5523    0.2256   -1.4433 H   0  0  0  0  0  0  0  0  0  0  0  0
   -0.8872    0.4696    1.6066 H   0  0  0  0  0  0  0  0  0  0  0  0
   -0.9530    1.8147    0.4663 H   0  0  0  0  0  0  0  0  0  0  0  0
   -3.4330    1.4467    1.3342 H   0  0  0  0  0  0  0  0  0  0  0  0
    2.1913   -0.5566   -0.4200 N   0  0  0  0  0  0  0  0  0  0  0  0
    3.6294   -0.2734   -0.3220 C   0  0  2  0  0  0  0  0  0  0  0  0
    4.4374   -1.1858   -1.2693 C   0  0  0  0  0  0  0  0  0  0  0  0
    3.8965   -2.1549   -1.7914 O   0  0  0  0  0  0  0  0  0  0  0  0
    4.0782   -0.4784    1.1295 C   0  0  0  0  0  0  0  0  0  0  0  0
    1.9303   -1.3768   -0.9704 H   0  0  0  0  0  0  0  0  0  0  0  0
    3.8211    0.7633   -0.6189 H   0  0  0  0  0  0  0  0  0  0  0  0
    3.8842   -1.5075    1.4487 H   0  0  0  0  0  0  0  0  0  0  0  0
    5.1489   -0.2780    1.2331 H   0  0  0  0  0  0  0  0  0  0  0  0
    3.5373    0.2013    1.7954 H   0  0  0  0  0  0  0  0  0  0  0  0
    5.7644   -0.9164   -1.5491 N   0  0  0  0  0  0  0  0  0  0  0  0
    6.5697   -1.7293   -2.4527 C   0  0  0  0  0  0  0  0  0  0  0  0
    6.1799   -0.0922   -1.1246 H   0  0  0  0  0  0  0  0  0  0  0  0
    6.5956   -2.7698   -2.1117 H   0  0  0  0  0  0  0  0  0  0  0  0
    6.1546   -1.7011   -3.4657 H   0  0  0  0  0  0  0  0  0  0  0  0
    7.5966   -1.3530   -2.4881 H   0  0  0  0  0  0  0  0  0  0  0  0
  1  2  2  0  0  0  0
  1  3  1  0  0  0  0
  1  7  1  0  0  0  0
  3  4  1  0  0  0  0
  3  5  1  0  0  0  0
  3  6  1  0  0  0  0
  7  8  1  0  0  0  0
  7 12  1  0  0  0  0
  8  9  1  0  0  0  0
  8 11  1  0  0  0  0
  8 13  1  0  0  0  0
  9 10  2  0  0  0  0
  9 17  1  0  0  0  0
 11 14  1  0  0  0  0
 11 15  1  0  0  0  0
 11 16  1  0  0  0  0
 17 18  1  0  0  0  0
 17 23  1  0  0  0  0
 18 19  1  0  0  0  0
 18 21  1  0  0  0  0
 18 24  1  0  0  0  0
 19 20  2  0  0  0  0
 19 28  1  0  0  0  0
 21 22  1  0  0  0  0
 21 25  1  0  0  0  0
 21 26  1  0  0  0  0
 22 27  1  0  0  0  0
 28 29  1  0  0  0  0
 28 33  1  0  0  0  0
 29 30  1  0  0  0  0
 29 32  1  0  0  0  0
 29 34  1  0  0  0  0
 30 31  2  0  0  0  0
 30 38  1  0  0  0  0
 32 35  1  0  0  0  0
 32 36  1  0  0  0  0
 32 37  1  0  0  0  0
 38 39  1  0  0  0  0
 38 40  1  0  0  0  0
 39 41  1  0  0  0  0
 39 42  1  0  0  0  0
 39 43  1  0  0  0  0
M  END
$$$$

  -OEChem-05262216003D

 43 42  0     1  0  0  0  0  0999 V2000
   -3.9678   -4.4972    1.3277 C   0  0  0  0  0  0  0  0  0  0  0  0
   -3.3828   -4.8452    2.3418 O   0  0  0  0  0  0  0  0  0  0  0  0
   -5.4603   -4.7318    1.1895 C   0  0  0  0  0  0  0  0  0  0  0  0
   -5.6574   -5.3897    0.3396 H   0  0  0  0  0  0  0  0  0  0  0  0
   -5.8544   -5.1999    2.0959 H   0  0  0  0  0  0  0  0  0  0  0  0
   -5.9746   -3.7807    1.0319 H   0  0  0  0  0  0  0  0  0  0  0  0
   -3.2714   -3.8876    0.3063 N   0  0  0  0  0  0  0  0  0  0  0  0
   -1.8636   -3.4821    0.3909 C   0  0  2  0  0  0  0  0  0  0  0  0
   -1.5977   -2.2039   -0.4301 C   0  0  0  0  0  0  0  0  0  0  0  0
   -2.3636   -1.8815   -1.3296 O   0  0  0  0  0  0  0  0  0  0  0  0
   -0.9975   -4.6409   -0.1122 C   0  0  0  0  0  0  0  0  0  0  0  0
   -3.8129   -3.4987   -0.4659 H   0  0  0  0  0  0  0  0  0  0  0  0
   -1.6053   -3.2603    1.4319 H   0  0  0  0  0  0  0  0  0  0  0  0
   -1.2360   -4.8703   -1.1559 H   0  0  0  0  0  0  0  0  0  0  0  0
    0.0646   -4.3873   -0.0449 H   0  0  0  0  0  0  0  0  0  0  0  0
   -1.1763   -5.5367    0.4911 H   0  0  0  0  0  0  0  0  0  0  0  0
   -0.4161   -1.5030   -0.2790 N   0  0  0  0  0  0  0  0  0  0  0  0
   -0.2868   -0.0387   -0.4577 C   0  0  2  0  0  0  0  0  0  0  0  0
    1.1947    0.3451   -0.2115 C   0  0  0  0  0  0  0  0  0  0  0  0
    1.5366    1.2804    0.5024 O   0  0  0  0  0  0  0  0  0  0  0  0
   -1.1519    0.7836    0.5431 C   0  0  0  0  0  0  0  0  0  0  0  0
   -2.9777    0.6110    0.3880 S   0  0  0  0  0  0  0  0  0  0  0  0
    0.1979   -1.9046    0.4248 H   0  0  0  0  0  0  0  0  0  0  0  0
   -0.5605    0.2352   -1.4819 H   0  0  0  0  0  0  0  0  0  0  0  0
   -0.8660    0.5110    1.5643 H   0  0  0  0  0  0  0  0  0  0  0  0
   -0.9211    1.8466    0.4124 H   0  0  0  0  0  0  0  0  0  0  0  0
   -3.4016    1.4867    1.3252 H   0  0  0  0  0  0  0  0  0  0  0  0
    2.1842   -0.4303   -0.7858 N   0  0  0  0  0  0  0  0  0  0  0  0
    3.6251   -0.1541   -0.7154 C   0  0  2  0  0  0  0  0  0  0  0  0
    4.3733   -0.7827   -1.9103 C   0  0  0  0  0  0  0  0  0  0  0  0
    3.8188   -1.6308   -2.6008 O   0  0  0  0  0  0  0  0  0  0  0  0
    4.1705   -0.7105    0.6044 C   0  0  0  0  0  0  0  0  0  0  0  0
    1.8861   -1.1359   -1.4621 H   0  0  0  0  0  0  0  0  0  0  0  0
    3.7927    0.9277   -0.7526 H   0  0  0  0  0  0  0  0  0  0  0  0
    4.0117   -1.7923    0.6574 H   0  0  0  0  0  0  0  0  0  0  0  0
    5.2426   -0.5108    0.6912 H   0  0  0  0  0  0  0  0  0  0  0  0
    3.6651   -0.2418    1.4544 H   0  0  0  0  0  0  0  0  0  0  0  0
    5.6635   -0.3935   -2.2200 N   0  0  0  0  0  0  0  0  0  0  0  0
    6.4076   -0.9276   -3.3550 C   0  0  0  0  0  0  0  0  0  0  0  0
    6.0898    0.3294   -1.6475 H   0  0  0  0  0  0  0  0  0  0  0  0
    6.5026   -2.0155   -3.2738 H   0  0  0  0  0  0  0  0  0  0  0  0
    5.8977   -0.6882   -4.2941 H   0  0  0  0  0  0  0  0  0  0  0  0
    7.4124   -0.4956   -3.3874 H   0  0  0  0  0  0  0  0  0  0  0  0
  1  2  2  0  0  0  0
  1  3  1  0  0  0  0
  1  7  1  0  0  0  0
  3  4  1  0  0  0  0
  3  5  1  0  0  0  0
  3  6  1  0  0  0  0
  7  8  1  0  0  0  0
  7 12  1  0  0  0  0
  8  9  1  0  0  0  0
  8 11  1  0  0  0  0
  8 13  1  0  0  0  0
  9 10  2  0  0  0  0
  9 17  1  0  0  0  0
 11 14  1  0  0  0  0
 11 15  1  0  0  0  0
 11 16  1  0  0  0  0
 17 18  1  0  0  0  0
 17 23  1  0  0  0  0
 18 19  1  0  0  0  0
 18 21  1  0  0  0  0
 18 24  1  0  0  0  0
 19 20  2  0  0  0  0
 19 28  1  0  0  0  0
 21 22  1  0  0  0  0
 21 25  1  0  0  0  0
 21 26  1  0  0  0  0
 22 27  1  0  0  0  0
 28 29  1  0  0  0  0
 28 33  1  0  0  0  0
 29 30  1  0  0  0  0
 29 32  1  0  0  0  0
 29 34  1  0  0  0  0
 30 31  2  0  0  0  0
 30 38  1  0  0  0  0
 32 35  1  0  0  0  0
 32 36  1  0  0  0  0
 32 37  1  0  0  0  0
 38 39  1  0  0  0  0
 38 40  1  0  0  0  0
 39 41  1  0  0  0  0
 39 42  1  0  0  0  0
 39 43  1  0  0  0  0
M  END
$$$$

  -OEChem-05262216003D

 43 42  0     1  0  0  0  0  0999 V2000
   -3.9503   -4.5016    1.3653 C   0  0  0  0  0  0  0  0  0  0  0  0
   -3.3642   -4.8446    2.3804 O   0  0  0  0  0  0  0  0  0  0  0  0
   -5.4420   -4.7406    1.2280 C   0  0  0  0  0  0  0  0  0  0  0  0
   -5.6342   -5.4229    0.3964 H   0  0  0  0  0  0  0  0  0  0  0  0
   -5.8392   -5.1822    2.1464 H   0  0  0  0  0  0  0  0  0  0  0  0
   -5.9565   -3.7949    1.0403 H   0  0  0  0  0  0  0  0  0  0  0  0
   -3.2556   -3.8946    0.3414 N   0  0  0  0  0  0  0  0  0  0  0  0
   -1.8495   -3.4829    0.4243 C   0  0  2  0  0  0  0  0  0  0  0  0
   -1.5860   -2.2241   -0.4269 C   0  0  0  0  0  0  0  0  0  0  0  0
   -2.3615   -1.9161   -1.3235 O   0  0  0  0  0  0  0  0  0  0  0  0
   -0.9750   -4.6493   -0.0467 C   0  0  0  0  0  0  0  0  0  0  0  0
   -3.7984   -3.5083   -0.4313 H   0  0  0  0  0  0  0  0  0  0  0  0
   -1.5985   -3.2353    1.4613 H   0  0  0  0  0  0  0  0  0  0  0  0
   -1.2092   -4.9064   -1.0850 H   0  0  0  0  0  0  0  0  0  0  0  0
    0.0856   -4.3884    0.0177 H   0  0  0  0  0  0  0  0  0  0  0  0
   -1.1507   -5.5307    0.5786 H   0  0  0  0  0  0  0  0  0  0  0  0
   -0.4002   -1.5250   -0.3072 N   0  0  0  0  0  0  0  0  0  0  0  0
   -0.2761   -0.0649   -0.5065 C   0  0  2  0  0  0  0  0  0  0  0  0
    1.2088    0.3195   -0.2942 C   0  0  0  0  0  0  0  0  0  0  0  0
    1.5863    1.0536    0.6117 O   0  0  0  0  0  0  0  0  0  0  0  0
   -1.1238    0.7734    0.4952 C   0  0  0  0  0  0  0  0  0  0  0  0
   -2.9519    0.6010    0.3725 S   0  0  0  0  0  0  0  0  0  0  0  0
    0.2241   -1.9142    0.3944 H   0  0  0  0  0  0  0  0  0  0  0  0
   -0.5697    0.1963   -1.5287 H   0  0  0  0  0  0  0  0  0  0  0  0
   -0.8265    0.5112    1.5162 H   0  0  0  0  0  0  0  0  0  0  0  0
   -0.8867    1.8328    0.3478 H   0  0  0  0  0  0  0  0  0  0  0  0
   -3.3579    1.4960    1.2990 H   0  0  0  0  0  0  0  0  0  0  0  0
    2.1643   -0.2519   -1.1123 N   0  0  0  0  0  0  0  0  0  0  0  0
    3.6012    0.0510   -1.0725 C   0  0  2  0  0  0  0  0  0  0  0  0
    4.2653   -0.1793   -2.4466 C   0  0  0  0  0  0  0  0  0  0  0  0
    3.6697   -0.8016   -3.3188 O   0  0  0  0  0  0  0  0  0  0  0  0
    4.2576   -0.8331   -0.0068 C   0  0  0  0  0  0  0  0  0  0  0  0
    1.8318   -0.7999   -1.9077 H   0  0  0  0  0  0  0  0  0  0  0  0
    3.7472    1.1044   -0.8107 H   0  0  0  0  0  0  0  0  0  0  0  0
    4.1182   -1.8915   -0.2494 H   0  0  0  0  0  0  0  0  0  0  0  0
    5.3305   -0.6283    0.0553 H   0  0  0  0  0  0  0  0  0  0  0  0
    3.8140   -0.6390    0.9748 H   0  0  0  0  0  0  0  0  0  0  0  0
    5.5272    0.3202   -2.7110 N   0  0  0  0  0  0  0  0  0  0  0  0
    6.1967    0.1604   -3.9964 C   0  0  0  0  0  0  0  0  0  0  0  0
    5.9855    0.8574   -1.9807 H   0  0  0  0  0  0  0  0  0  0  0  0
    6.2821   -0.9002   -4.2559 H   0  0  0  0  0  0  0  0  0  0  0  0
    5.6369    0.6730   -4.7858 H   0  0  0  0  0  0  0  0  0  0  0  0
    7.2040    0.5854   -3.9543 H   0  0  0  0  0  0  0  0  0  0  0  0
  1  2  2  0  0  0  0
  1  3  1  0  0  0  0
  1  7  1  0  0  0  0
  3  4  1  0  0  0  0
  3  5  1  0  0  0  0
  3  6  1  0  0  0  0
  7  8  1  0  0  0  0
  7 12  1  0  0  0  0
  8  9  1  0  0  0  0
  8 11  1  0  0  0  0
  8 13  1  0  0  0  0
  9 10  2  0  0  0  0
  9 17  1  0  0  0  0
 11 14  1  0  0  0  0
 11 15  1  0  0  0  0
 11 16  1  0  0  0  0
 17 18  1  0  0  0  0
 17 23  1  0  0  0  0
 18 19  1  0  0  0  0
 18 21  1  0  0  0  0
 18 24  1  0  0  0  0
 19 20  2  0  0  0  0
 19 28  1  0  0  0  0
 21 22  1  0  0  0  0
 21 25  1  0  0  0  0
 21 26  1  0  0  0  0
 22 27  1  0  0  0  0
 28 29  1  0  0  0  0
 28 33  1  0  0  0  0
 29 30  1  0  0  0  0
 29 32  1  0  0  0  0
 29 34  1  0  0  0  0
 30 31  2  0  0  0  0
 30 38  1  0  0  0  0
 32 35  1  0  0  0  0
 32 36  1  0  0  0  0
 32 37  1  0  0  0  0
 38 39  1  0  0  0  0
 38 40  1  0  0  0  0
 39 41  1  0  0  0  0
 39 42  1  0  0  0  0
 39 43  1  0  0  0  0
M  END
$$$$

  -OEChem-05262216003D

 43 42  0     1  0  0  0  0  0999 V2000
   -3.8622   -4.5579    1.3824 C   0  0  0  0  0  0  0  0  0  0  0  0
   -3.2344   -4.9213    2.3648 O   0  0  0  0  0  0  0  0  0  0  0  0
   -5.3537   -4.8194    1.2903 C   0  0  0  0  0  0  0  0  0  0  0  0
   -5.5659   -5.4713    0.4393 H   0  0  0  0  0  0  0  0  0  0  0  0
   -5.7085   -5.3047    2.2038 H   0  0  0  0  0  0  0  0  0  0  0  0
   -5.8908   -3.8766    1.1609 H   0  0  0  0  0  0  0  0  0  0  0  0
   -3.2159   -3.9042    0.3556 N   0  0  0  0  0  0  0  0  0  0  0  0
   -1.8149   -3.4690    0.4012 C   0  0  2  0  0  0  0  0  0  0  0  0
   -1.5960   -2.1925   -0.4369 C   0  0  0  0  0  0  0  0  0  0  0  0
   -2.4042   -1.8812   -1.3030 O   0  0  0  0  0  0  0  0  0  0  0  0
   -0.9364   -4.6125   -0.1161 C   0  0  0  0  0  0  0  0  0  0  0  0
   -3.7922   -3.5108   -0.3886 H   0  0  0  0  0  0  0  0  0  0  0  0
   -1.5362   -3.2338    1.4340 H   0  0  0  0  0  0  0  0  0  0  0  0
   -1.2009   -4.8586   -1.1497 H   0  0  0  0  0  0  0  0  0  0  0  0
    0.1209   -4.3331   -0.0835 H   0  0  0  0  0  0  0  0  0  0  0  0
   -1.0750   -5.5059    0.5013 H   0  0  0  0  0  0  0  0  0  0  0  0
   -0.4129   -1.4844   -0.3468 N   0  0  0  0  0  0  0  0  0  0  0  0
   -0.2986   -0.0258   -0.5526 C   0  0  2  0  0  0  0  0  0  0  0  0
    1.1869    0.3651   -0.3751 C   0  0  0  0  0  0  0  0  0  0  0  0
    1.6215    0.8402    0.6678 O   0  0  0  0  0  0  0  0  0  0  0  0
   -1.1177    0.8168    0.4676 C   0  0  0  0  0  0  0  0  0  0  0  0
   -2.9478    0.6426    0.3954 S   0  0  0  0  0  0  0  0  0  0  0  0
    0.2322   -1.8677    0.3395 H   0  0  0  0  0  0  0  0  0  0  0  0
   -0.6203    0.2324   -1.5672 H   0  0  0  0  0  0  0  0  0  0  0  0
   -0.7985    0.5533    1.4816 H   0  0  0  0  0  0  0  0  0  0  0  0
   -0.8779    1.8745    0.3143 H   0  0  0  0  0  0  0  0  0  0  0  0
   -3.3263    1.4878    1.3778 H   0  0  0  0  0  0  0  0  0  0  0  0
    2.0841    0.0606   -1.3800 N   0  0  0  0  0  0  0  0  0  0  0  0
    3.5195    0.3707   -1.3544 C   0  0  2  0  0  0  0  0  0  0  0  0
    4.0927    0.5134   -2.7804 C   0  0  0  0  0  0  0  0  0  0  0  0
    3.4314    0.1512   -3.7471 O   0  0  0  0  0  0  0  0  0  0  0  0
    4.2472   -0.7455   -0.5965 C   0  0  0  0  0  0  0  0  0  0  0  0
    1.7059   -0.2935   -2.2600 H   0  0  0  0  0  0  0  0  0  0  0  0
    3.6798    1.3237   -0.8390 H   0  0  0  0  0  0  0  0  0  0  0  0
    4.0915   -1.7085   -1.0932 H   0  0  0  0  0  0  0  0  0  0  0  0
    5.3220   -0.5453   -0.5540 H   0  0  0  0  0  0  0  0  0  0  0  0
    3.8722   -0.8179    0.4292 H   0  0  0  0  0  0  0  0  0  0  0  0
    5.3509    1.0501   -2.9824 N   0  0  0  0  0  0  0  0  0  0  0  0
    5.9490    1.2112   -4.3023 C   0  0  0  0  0  0  0  0  0  0  0  0
    5.8732    1.3516   -2.1650 H   0  0  0  0  0  0  0  0  0  0  0  0
    6.0007    0.2478   -4.8208 H   0  0  0  0  0  0  0  0  0  0  0  0
    5.3576    1.9063   -4.9077 H   0  0  0  0  0  0  0  0  0  0  0  0
    6.9648    1.6080   -4.2116 H   0  0  0  0  0  0  0  0  0  0  0  0
  1  2  2  0  0  0  0
  1  3  1  0  0  0  0
  1  7  1  0  0  0  0
  3  4  1  0  0  0  0
  3  5  1  0  0  0  0
  3  6  1  0  0  0  0
  7  8  1  0  0  0  0
  7 12  1  0  0  0  0
  8  9  1  0  0  0  0
  8 11  1  0  0  0  0
  8 13  1  0  0  0  0
  9 10  2  0  0  0  0
  9 17  1  0  0  0  0
 11 14  1  0  0  0  0
 11 15  1  0  0  0  0
 11 16  1  0  0  0  0
 17 18  1  0  0  0  0
 17 23  1  0  0  0  0
 18 19  1  0  0  0  0
 18 21  1  0  0  0  0
 18 24  1  0  0  0  0
 19 20  2  0  0  0  0
 19 28  1  0  0  0  0
 21 22  1  0  0  0  0
 21 25  1  0  0  0  0
 21 26  1  0  0  0  0
 22 27  1  0  0  0  0
 28 29  1  0  0  0  0
 28 33  1  0  0  0  0
 29 30  1  0  0  0  0
 29 32  1  0  0  0  0
 29 34  1  0  0  0  0
 30 31  2  0  0  0  0
 30 38  1  0  0  0  0
 32 35  1  0  0  0  0
 32 36  1  0  0  0  0
 32 37  1  0  0  0  0
 38 39  1  0  0  0  0
 38 40  1  0  0  0  0
 39 41  1  0  0  0  0
 39 42  1  0  0  0  0
 39 43  1  0  0  0  0
M  END
$$$$

  -OEChem-05262216003D

 43 42  0     1  0  0  0  0  0999 V2000
   -3.7988   -4.5784    1.3903 C   0  0  0  0  0  0  0  0  0  0  0  0
   -3.1557   -4.9333    2.3660 O   0  0  0  0  0  0  0  0  0  0  0  0
   -5.2898   -4.8481    1.3194 C   0  0  0  0  0  0  0  0  0  0  0  0
   -5.5102   -5.5032    0.4732 H   0  0  0  0  0  0  0  0  0  0  0  0
   -5.6303   -5.3323    2.2387 H   0  0  0  0  0  0  0  0  0  0  0  0
   -5.8324   -3.9080    1.1945 H   0  0  0  0  0  0  0  0  0  0  0  0
   -3.1724   -3.9219    0.3531 N   0  0  0  0  0  0  0  0  0  0  0  0
   -1.7795   -3.4613    0.3851 C   0  0  2  0  0  0  0  0  0  0  0  0
   -1.5932   -2.1848   -0.4603 C   0  0  0  0  0  0  0  0  0  0  0  0
   -2.4263   -1.8785   -1.3049 O   0  0  0  0  0  0  0  0  0  0  0  0
   -0.8820   -4.5907   -0.1316 C   0  0  0  0  0  0  0  0  0  0  0  0
   -3.7638   -3.5319   -0.3810 H   0  0  0  0  0  0  0  0  0  0  0  0
   -1.4970   -3.2143    1.4141 H   0  0  0  0  0  0  0  0  0  0  0  0
   -1.1443   -4.8445   -1.1638 H   0  0  0  0  0  0  0  0  0  0  0  0
    0.1702   -4.2928   -0.1025 H   0  0  0  0  0  0  0  0  0  0  0  0
   -1.0029   -5.4845    0.4887 H   0  0  0  0  0  0  0  0  0  0  0  0
   -0.4161   -1.4657   -0.3932 N   0  0  0  0  0  0  0  0  0  0  0  0
   -0.3186   -0.0078   -0.5995 C   0  0  2  0  0  0  0  0  0  0  0  0
    1.1643    0.3932   -0.4506 C   0  0  0  0  0  0  0  0  0  0  0  0
    1.6686    0.5724    0.6522 O   0  0  0  0  0  0  0  0  0  0  0  0
   -1.1086    0.8316    0.4438 C   0  0  0  0  0  0  0  0  0  0  0  0
   -2.9384    0.6440    0.4228 S   0  0  0  0  0  0  0  0  0  0  0  0
    0.2446   -1.8383    0.2848 H   0  0  0  0  0  0  0  0  0  0  0  0
   -0.6697    0.2490   -1.6045 H   0  0  0  0  0  0  0  0  0  0  0  0
   -0.7613    0.5670    1.4482 H   0  0  0  0  0  0  0  0  0  0  0  0
   -0.8768    1.8904    0.2874 H   0  0  0  0  0  0  0  0  0  0  0  0
   -3.2971    1.4824    1.4191 H   0  0  0  0  0  0  0  0  0  0  0  0
    1.9870    0.3944   -1.5597 N   0  0  0  0  0  0  0  0  0  0  0  0
    3.4195    0.7178   -1.5451 C   0  0  2  0  0  0  0  0  0  0  0  0
    3.8933    1.2574   -2.9113 C   0  0  0  0  0  0  0  0  0  0  0  0
    3.1602    1.1802   -3.8909 O   0  0  0  0  0  0  0  0  0  0  0  0
    4.2018   -0.5461   -1.1697 C   0  0  0  0  0  0  0  0  0  0  0  0
    1.5530    0.2686   -2.4753 H   0  0  0  0  0  0  0  0  0  0  0  0
    3.6106    1.4977   -0.8003 H   0  0  0  0  0  0  0  0  0  0  0  0
    4.0359   -1.3324   -1.9131 H   0  0  0  0  0  0  0  0  0  0  0  0
    5.2738   -0.3342   -1.1191 H   0  0  0  0  0  0  0  0  0  0  0  0
    3.8806   -0.9186   -0.1919 H   0  0  0  0  0  0  0  0  0  0  0  0
    5.1419    1.8368   -3.0421 N   0  0  0  0  0  0  0  0  0  0  0  0
    5.6464    2.3742   -4.3000 C   0  0  0  0  0  0  0  0  0  0  0  0
    5.7204    1.9054   -2.2100 H   0  0  0  0  0  0  0  0  0  0  0  0
    5.6291    1.6057   -5.0805 H   0  0  0  0  0  0  0  0  0  0  0  0
    5.0349    3.2222   -4.6262 H   0  0  0  0  0  0  0  0  0  0  0  0
    6.6783    2.7174   -4.1776 H   0  0  0  0  0  0  0  0  0  0  0  0
  1  2  2  0  0  0  0
  1  3  1  0  0  0  0
  1  7  1  0  0  0  0
  3  4  1  0  0  0  0
  3  5  1  0  0  0  0
  3  6  1  0  0  0  0
  7  8  1  0  0  0  0
  7 12  1  0  0  0  0
  8  9  1  0  0  0  0
  8 11  1  0  0  0  0
  8 13  1  0  0  0  0
  9 10  2  0  0  0  0
  9 17  1  0  0  0  0
 11 14  1  0  0  0  0
 11 15  1  0  0  0  0
 11 16  1  0  0  0  0
 17 18  1  0  0  0  0
 17 23  1  0  0  0  0
 18 19  1  0  0  0  0
 18 21  1  0  0  0  0
 18 24  1  0  0  0  0
 19 20  2  0  0  0  0
 19 28  1  0  0  0  0
 21 22  1  0  0  0  0
 21 25  1  0  0  0  0
 21 26  1  0  0  0  0
 22 27  1  0  0  0  0
 28 29  1  0  0  0  0
 28 33  1  0  0  0  0
 29 30  1  0  0  0  0
 29 32  1  0  0  0  0
 29 34  1  0  0  0  0
 30 31  2  0  0  0  0
 30 38  1  0  0  0  0
 32 35  1  0  0  0  0
 32 36  1  0  0  0  0
 32 37  1  0  0  0  0
 38 39  1  0  0  0  0
 38 40  1  0  0  0  0
 39 41  1  0  0  0  0
 39 42  1  0  0  0  0
 39 43  1  0  0  0  0
M  END
$$$$

  -OEChem-05262216003D

 43 42  0     1  0  0  0  0  0999 V2000
   -3.7894   -4.5740    1.3883 C   0  0  0  0  0  0  0  0  0  0  0  0
   -3.1514   -4.9130    2.3729 O   0  0  0  0  0  0  0  0  0  0  0  0
   -5.2751   -4.8693    1.3052 C   0  0  0  0  0  0  0  0  0  0  0  0
   -5.4711   -5.5666    0.4872 H   0  0  0  0  0  0  0  0  0  0  0  0
   -5.6234   -5.3160    2.2406 H   0  0  0  0  0  0  0  0  0  0  0  0
   -5.8306   -3.9452    1.1281 H   0  0  0  0  0  0  0  0  0  0  0  0
   -3.1593   -3.9237    0.3492 N   0  0  0  0  0  0  0  0  0  0  0  0
   -1.7670   -3.4603    0.3840 C   0  0  2  0  0  0  0  0  0  0  0  0
   -1.5778   -2.1934   -0.4760 C   0  0  0  0  0  0  0  0  0  0  0  0
   -2.4209   -1.8845   -1.3103 O   0  0  0  0  0  0  0  0  0  0  0  0
   -0.8666   -4.5966   -0.1118 C   0  0  0  0  0  0  0  0  0  0  0  0
   -3.7466   -3.5427   -0.3929 H   0  0  0  0  0  0  0  0  0  0  0  0
   -1.4907   -3.2007    1.4117 H   0  0  0  0  0  0  0  0  0  0  0  0
   -1.1216   -4.8651   -1.1419 H   0  0  0  0  0  0  0  0  0  0  0  0
    0.1852   -4.2984   -0.0792 H   0  0  0  0  0  0  0  0  0  0  0  0
   -0.9918   -5.4817    0.5200 H   0  0  0  0  0  0  0  0  0  0  0  0
   -0.3983   -1.4763   -0.4256 N   0  0  0  0  0  0  0  0  0  0  0  0
   -0.3026   -0.0203   -0.6429 C   0  0  2  0  0  0  0  0  0  0  0  0
    1.1783    0.3885   -0.5132 C   0  0  0  0  0  0  0  0  0  0  0  0
    1.7521    0.3050    0.5670 O   0  0  0  0  0  0  0  0  0  0  0  0
   -1.0627    0.8305    0.4107 C   0  0  0  0  0  0  0  0  0  0  0  0
   -2.8930    0.6472    0.4321 S   0  0  0  0  0  0  0  0  0  0  0  0
    0.2745   -1.8422    0.2454 H   0  0  0  0  0  0  0  0  0  0  0  0
   -0.6721    0.2289   -1.6428 H   0  0  0  0  0  0  0  0  0  0  0  0
   -0.6900    0.5762    1.4088 H   0  0  0  0  0  0  0  0  0  0  0  0
   -0.8337    1.8870    0.2355 H   0  0  0  0  0  0  0  0  0  0  0  0
   -3.2311    1.5143    1.4105 H   0  0  0  0  0  0  0  0  0  0  0  0
    1.9185    0.6906   -1.6392 N   0  0  0  0  0  0  0  0  0  0  0  0
    3.3342    1.0822   -1.6334 C   0  0  2  0  0  0  0  0  0  0  0  0
    3.6715    1.9977   -2.8297 C   0  0  0  0  0  0  0  0  0  0  0  0
    2.8614    2.1435   -3.7384 O   0  0  0  0  0  0  0  0  0  0  0  0
    4.1887   -0.1892   -1.6702 C   0  0  0  0  0  0  0  0  0  0  0  0
    1.4186    0.7937   -2.5234 H   0  0  0  0  0  0  0  0  0  0  0  0
    3.5579    1.6430   -0.7194 H   0  0  0  0  0  0  0  0  0  0  0  0
    3.9816   -0.7625   -2.5797 H   0  0  0  0  0  0  0  0  0  0  0  0
    5.2535    0.0613   -1.6504 H   0  0  0  0  0  0  0  0  0  0  0  0
    3.9687   -0.8200   -0.8031 H   0  0  0  0  0  0  0  0  0  0  0  0
    4.8777    2.6719   -2.8827 N   0  0  0  0  0  0  0  0  0  0  0  0
    5.2533    3.5544   -3.9812 C   0  0  0  0  0  0  0  0  0  0  0  0
    5.5270    2.5404   -2.1126 H   0  0  0  0  0  0  0  0  0  0  0  0
    5.2654    3.0043   -4.9281 H   0  0  0  0  0  0  0  0  0  0  0  0
    4.5449    4.3851   -4.0659 H   0  0  0  0  0  0  0  0  0  0  0  0
    6.2514    3.9687   -3.8096 H   0  0  0  0  0  0  0  0  0  0  0  0
  1  2  2  0  0  0  0
  1  3  1  0  0  0  0
  1  7  1  0  0  0  0
  3  4  1  0  0  0  0
  3  5  1  0  0  0  0
  3  6  1  0  0  0  0
  7  8  1  0  0  0  0
  7 12  1  0  0  0  0
  8  9  1  0  0  0  0
  8 11  1  0  0  0  0
  8 13  1  0  0  0  0
  9 10  2  0  0  0  0
  9 17  1  0  0  0  0
 11 14  1  0  0  0  0
 11 15  1  0  0  0  0
 11 16  1  0  0  0  0
 17 18  1  0  0  0  0
 17 23  1  0  0  0  0
 18 19  1  0  0  0  0
 18 21  1  0  0  0  0
 18 24  1  0  0  0  0
 19 20  2  0  0  0  0
 19 28  1  0  0  0  0
 21 22  1  0  0  0  0
 21 25  1  0  0  0  0
 21 26  1  0  0  0  0
 22 27  1  0  0  0  0
 28 29  1  0  0  0  0
 28 33  1  0  0  0  0
 29 30  1  0  0  0  0
 29 32  1  0  0  0  0
 29 34  1  0  0  0  0
 30 31  2  0  0  0  0
 30 38  1  0  0  0  0
 32 35  1  0  0  0  0
 32 36  1  0  0  0  0
 32 37  1  0  0  0  0
 38 39  1  0  0  0  0
 38 40  1  0  0  0  0
 39 41  1  0  0  0  0
 39 42  1  0  0  0  0
 39 43  1  0  0  0  0
M  END
$$$$

  -OEChem-05262216003D

 43 42  0     1  0  0  0  0  0999 V2000
   -3.7269   -4.5966    1.3753 C   0  0  0  0  0  0  0  0  0  0  0  0
   -3.0662   -4.9443    2.3417 O   0  0  0  0  0  0  0  0  0  0  0  0
   -5.2121   -4.9004    1.3176 C   0  0  0  0  0  0  0  0  0  0  0  0
   -5.4295   -5.5354    0.4553 H   0  0  0  0  0  0  0  0  0  0  0  0
   -5.5265   -5.4204    2.2267 H   0  0  0  0  0  0  0  0  0  0  0  0
   -5.7799   -3.9711    1.2294 H   0  0  0  0  0  0  0  0  0  0  0  0
   -3.1238   -3.9295    0.3311 N   0  0  0  0  0  0  0  0  0  0  0  0
   -1.7330   -3.4606    0.3377 C   0  0  2  0  0  0  0  0  0  0  0  0
   -1.5759   -2.1704   -0.4935 C   0  0  0  0  0  0  0  0  0  0  0  0
   -2.4405   -1.8519   -1.3016 O   0  0  0  0  0  0  0  0  0  0  0  0
   -0.8443   -4.5778   -0.2183 C   0  0  0  0  0  0  0  0  0  0  0  0
   -3.7307   -3.5402   -0.3904 H   0  0  0  0  0  0  0  0  0  0  0  0
   -1.4260   -3.2283    1.3631 H   0  0  0  0  0  0  0  0  0  0  0  0
   -1.1216   -4.8073   -1.2522 H   0  0  0  0  0  0  0  0  0  0  0  0
    0.2083   -4.2802   -0.1973 H   0  0  0  0  0  0  0  0  0  0  0  0
   -0.9572   -5.4863    0.3823 H   0  0  0  0  0  0  0  0  0  0  0  0
   -0.4044   -1.4403   -0.4502 N   0  0  0  0  0  0  0  0  0  0  0  0
   -0.3205    0.0164   -0.6662 C   0  0  2  0  0  0  0  0  0  0  0  0
    1.1562    0.4388   -0.5448 C   0  0  0  0  0  0  0  0  0  0  0  0
    1.7965    0.1406    0.4579 O   0  0  0  0  0  0  0  0  0  0  0  0
   -1.0610    0.8595    0.4055 C   0  0  0  0  0  0  0  0  0  0  0  0
   -2.8896    0.6656    0.4669 S   0  0  0  0  0  0  0  0  0  0  0  0
    0.2925   -1.8070    0.1960 H   0  0  0  0  0  0  0  0  0  0  0  0
   -0.7033    0.2661   -1.6612 H   0  0  0  0  0  0  0  0  0  0  0  0
   -0.6616    0.6054    1.3935 H   0  0  0  0  0  0  0  0  0  0  0  0
   -0.8443    1.9183    0.2275 H   0  0  0  0  0  0  0  0  0  0  0  0
   -3.2115    1.5181    1.4637 H   0  0  0  0  0  0  0  0  0  0  0  0
    1.8069    1.0407   -1.6037 N   0  0  0  0  0  0  0  0  0  0  0  0
    3.2049    1.4902   -1.5830 C   0  0  2  0  0  0  0  0  0  0  0  0
    3.4329    2.6691   -2.5536 C   0  0  0  0  0  0  0  0  0  0  0  0
    2.5550    2.9892   -3.3474 O   0  0  0  0  0  0  0  0  0  0  0  0
    4.1017    0.3048   -1.9564 C   0  0  0  0  0  0  0  0  0  0  0  0
    1.2463    1.3282   -2.4070 H   0  0  0  0  0  0  0  0  0  0  0  0
    3.4643    1.8385   -0.5774 H   0  0  0  0  0  0  0  0  0  0  0  0
    3.8689   -0.0465   -2.9668 H   0  0  0  0  0  0  0  0  0  0  0  0
    5.1563    0.5932   -1.9218 H   0  0  0  0  0  0  0  0  0  0  0  0
    3.9500   -0.5231   -1.2567 H   0  0  0  0  0  0  0  0  0  0  0  0
    4.6182    3.3808   -2.5315 N   0  0  0  0  0  0  0  0  0  0  0  0
    4.8992    4.4958   -3.4283 C   0  0  0  0  0  0  0  0  0  0  0  0
    5.3295    3.0933   -1.8656 H   0  0  0  0  0  0  0  0  0  0  0  0
    4.8853    4.1617   -4.4712 H   0  0  0  0  0  0  0  0  0  0  0  0
    4.1532    5.2877   -3.3023 H   0  0  0  0  0  0  0  0  0  0  0  0
    5.8867    4.9150   -3.2127 H   0  0  0  0  0  0  0  0  0  0  0  0
  1  2  2  0  0  0  0
  1  3  1  0  0  0  0
  1  7  1  0  0  0  0
  3  4  1  0  0  0  0
  3  5  1  0  0  0  0
  3  6  1  0  0  0  0
  7  8  1  0  0  0  0
  7 12  1  0  0  0  0
  8  9  1  0  0  0  0
  8 11  1  0  0  0  0
  8 13  1  0  0  0  0
  9 10  2  0  0  0  0
  9 17  1  0  0  0  0
 11 14  1  0  0  0  0
 11 15  1  0  0  0  0
 11 16  1  0  0  0  0
 17 18  1  0  0  0  0
 17 23  1  0  0  0  0
 18 19  1  0  0  0  0
 18 21  1  0  0  0  0
 18 24  1  0  0  0  0
 19 20  2  0  0  0  0
 19 28  1  0  0  0  0
 21 22  1  0  0  0  0
 21 25  1  0  0  0  0
 21 26  1  0  0  0  0
 22 27  1  0  0  0  0
 28 29  1  0  0  0  0
 28 33  1  0  0  0  0
 29 30  1  0  0  0  0
 29 32  1  0  0  0  0
 29 34  1  0  0  0  0
 30 31  2  0  0  0  0
 30 38  1  0  0  0  0
 32 35  1  0  0  0  0
 32 36  1  0  0  0  0
 32 37  1  0  0  0  0
 38 39  1  0  0  0  0
 38 40  1  0  0  0  0
 39 41  1  0  0  0  0
 39 42  1  0  0  0  0
 39 43  1  0  0  0  0
M  END
$$$$

  -OEChem-05262216003D

 43 42  0     1  0  0  0  0  0999 V2000
   -3.7023   -4.6086    1.3486 C   0  0  0  0  0  0  0  0  0  0  0  0
   -3.0338   -4.9606    2.3081 O   0  0  0  0  0  0  0  0  0  0  0  0
   -5.1854   -4.9235    1.2964 C   0  0  0  0  0  0  0  0  0  0  0  0
   -5.3989   -5.5704    0.4420 H   0  0  0  0  0  0  0  0  0  0  0  0
   -5.4951   -5.4355    2.2116 H   0  0  0  0  0  0  0  0  0  0  0  0
   -5.7597   -3.9991    1.1978 H   0  0  0  0  0  0  0  0  0  0  0  0
   -3.1107   -3.9251    0.3083 N   0  0  0  0  0  0  0  0  0  0  0  0
   -1.7236   -3.4445    0.3118 C   0  0  2  0  0  0  0  0  0  0  0  0
   -1.5785   -2.1463   -0.5099 C   0  0  0  0  0  0  0  0  0  0  0  0
   -2.4568   -1.8184   -1.2995 O   0  0  0  0  0  0  0  0  0  0  0  0
   -0.8286   -4.5510   -0.2551 C   0  0  0  0  0  0  0  0  0  0  0  0
   -3.7242   -3.5370   -0.4084 H   0  0  0  0  0  0  0  0  0  0  0  0
   -1.4147   -3.2165    1.3377 H   0  0  0  0  0  0  0  0  0  0  0  0
   -1.1193   -4.7872   -1.2837 H   0  0  0  0  0  0  0  0  0  0  0  0
    0.2201   -4.2393   -0.2514 H   0  0  0  0  0  0  0  0  0  0  0  0
   -0.9197   -5.4588    0.3497 H   0  0  0  0  0  0  0  0  0  0  0  0
   -0.4057   -1.4174   -0.4772 N   0  0  0  0  0  0  0  0  0  0  0  0
   -0.3130    0.0390   -0.6929 C   0  0  2  0  0  0  0  0  0  0  0  0
    1.1643    0.4631   -0.5850 C   0  0  0  0  0  0  0  0  0  0  0  0
    1.8712   -0.0084    0.3000 O   0  0  0  0  0  0  0  0  0  0  0  0
   -1.0293    0.8826    0.3935 C   0  0  0  0  0  0  0  0  0  0  0  0
   -2.8573    0.6987    0.4819 S   0  0  0  0  0  0  0  0  0  0  0  0
    0.3103   -1.7941    0.1427 H   0  0  0  0  0  0  0  0  0  0  0  0
   -0.7069    0.2906   -1.6832 H   0  0  0  0  0  0  0  0  0  0  0  0
   -0.6139    0.6206    1.3730 H   0  0  0  0  0  0  0  0  0  0  0  0
   -0.8097    1.9412    0.2182 H   0  0  0  0  0  0  0  0  0  0  0  0
   -3.1590    1.5368    1.4971 H   0  0  0  0  0  0  0  0  0  0  0  0
    1.7212    1.3270   -1.5076 N   0  0  0  0  0  0  0  0  0  0  0  0
    3.0941    1.8459   -1.4471 C   0  0  2  0  0  0  0  0  0  0  0  0
    3.1995    3.2344   -2.1139 C   0  0  0  0  0  0  0  0  0  0  0  0
    2.2495    3.6840   -2.7453 O   0  0  0  0  0  0  0  0  0  0  0  0
    4.0247    0.8431   -2.1372 C   0  0  0  0  0  0  0  0  0  0  0  0
    1.0965    1.7709   -2.1821 H   0  0  0  0  0  0  0  0  0  0  0  0
    3.3985    1.9618   -0.4014 H   0  0  0  0  0  0  0  0  0  0  0  0
    3.7425    0.7206   -3.1878 H   0  0  0  0  0  0  0  0  0  0  0  0
    5.0626    1.1859   -2.0925 H   0  0  0  0  0  0  0  0  0  0  0  0
    3.9650   -0.1325   -1.6446 H   0  0  0  0  0  0  0  0  0  0  0  0
    4.3499    3.9917   -1.9906 N   0  0  0  0  0  0  0  0  0  0  0  0
    4.5077    5.3090   -2.5957 C   0  0  0  0  0  0  0  0  0  0  0  0
    5.1226    3.5959   -1.4631 H   0  0  0  0  0  0  0  0  0  0  0  0
    4.4498    5.2387   -3.6870 H   0  0  0  0  0  0  0  0  0  0  0  0
    3.7241    5.9891   -2.2450 H   0  0  0  0  0  0  0  0  0  0  0  0
    5.4790    5.7355   -2.3277 H   0  0  0  0  0  0  0  0  0  0  0  0
  1  2  2  0  0  0  0
  1  3  1  0  0  0  0
  1  7  1  0  0  0  0
  3  4  1  0  0  0  0
  3  5  1  0  0  0  0
  3  6  1  0  0  0  0
  7  8  1  0  0  0  0
  7 12  1  0  0  0  0
  8  9  1  0  0  0  0
  8 11  1  0  0  0  0
  8 13  1  0  0  0  0
  9 10  2  0  0  0  0
  9 17  1  0  0  0  0
 11 14  1  0  0  0  0
 11 15  1  0  0  0  0
 11 16  1  0  0  0  0
 17 18  1  0  0  0  0
 17 23  1  0  0  0  0
 18 19  1  0  0  0  0
 18 21  1  0  0  0  0
 18 24  1  0  0  0  0
 19 20  2  0  0  0  0
 19 28  1  0  0  0  0
 21 22  1  0  0  0  0
 21 25  1  0  0  0  0
 21 26  1  0  0  0  0
 22 27  1  0  0  0  0
 28 29  1  0  0  0  0
 28 33  1  0  0  0  0
 29 30  1  0  0  0  0
 29 32  1  0  0  0  0
 29 34  1  0  0  0  0
 30 31  2  0  0  0  0
 30 38  1  0  0  0  0
 32 35  1  0  0  0  0
 32 36  1  0  0  0  0
 32 37  1  0  0  0  0
 38 39  1  0  0  0  0
 38 40  1  0  0  0  0
 39 41  1  0  0  0  0
 39 42  1  0  0  0  0
 39 43  1  0  0  0  0
M  END
$$$$

  -OEChem-05262216003D

 43 42  0     1  0  0  0  0  0999 V2000
   -3.6348   -4.6549    1.3126 C   0  0  0  0  0  0  0  0  0  0  0  0
   -2.9298   -5.0387    2.2328 O   0  0  0  0  0  0  0  0  0  0  0  0
   -5.1164   -4.9808    1.3013 C   0  0  0  0  0  0  0  0  0  0  0  0
   -5.3593   -5.5795    0.4201 H   0  0  0  0  0  0  0  0  0  0  0  0
   -5.3850   -5.5469    2.1977 H   0  0  0  0  0  0  0  0  0  0  0  0
   -5.7015   -4.0583    1.2789 H   0  0  0  0  0  0  0  0  0  0  0  0
   -3.0867   -3.9226    0.2819 N   0  0  0  0  0  0  0  0  0  0  0  0
   -1.7068   -3.4227    0.2602 C   0  0  2  0  0  0  0  0  0  0  0  0
   -1.6051   -2.0954   -0.5200 C   0  0  0  0  0  0  0  0  0  0  0  0
   -2.5099   -1.7550   -1.2734 O   0  0  0  0  0  0  0  0  0  0  0  0
   -0.8135   -4.4950   -0.3717 C   0  0  0  0  0  0  0  0  0  0  0  0
   -3.7285   -3.5141   -0.3976 H   0  0  0  0  0  0  0  0  0  0  0  0
   -1.3691   -3.2259    1.2835 H   0  0  0  0  0  0  0  0  0  0  0  0
   -1.1293   -4.6976   -1.4001 H   0  0  0  0  0  0  0  0  0  0  0  0
    0.2307   -4.1688   -0.3853 H   0  0  0  0  0  0  0  0  0  0  0  0
   -0.8750   -5.4255    0.2017 H   0  0  0  0  0  0  0  0  0  0  0  0
   -0.4417   -1.3524   -0.4923 N   0  0  0  0  0  0  0  0  0  0  0  0
   -0.3498    0.1054   -0.6999 C   0  0  2  0  0  0  0  0  0  0  0  0
    1.1291    0.5299   -0.5966 C   0  0  0  0  0  0  0  0  0  0  0  0
    1.8927   -0.0879    0.1394 O   0  0  0  0  0  0  0  0  0  0  0  0
   -1.0512    0.9353    0.4066 C   0  0  0  0  0  0  0  0  0  0  0  0
   -2.8776    0.7496    0.5229 S   0  0  0  0  0  0  0  0  0  0  0  0
    0.3037   -1.7416    0.0842 H   0  0  0  0  0  0  0  0  0  0  0  0
   -0.7512    0.3682   -1.6842 H   0  0  0  0  0  0  0  0  0  0  0  0
   -0.6201    0.6601    1.3752 H   0  0  0  0  0  0  0  0  0  0  0  0
   -0.8362    1.9969    0.2427 H   0  0  0  0  0  0  0  0  0  0  0  0
   -3.1644    1.5707    1.5565 H   0  0  0  0  0  0  0  0  0  0  0  0
    1.6074    1.6135   -1.3075 N   0  0  0  0  0  0  0  0  0  0  0  0
    2.9610    2.1689   -1.1761 C   0  0  2  0  0  0  0  0  0  0  0  0
    2.9895    3.6691   -1.5401 C   0  0  0  0  0  0  0  0  0  0  0  0
    1.9947    4.2028   -2.0190 O   0  0  0  0  0  0  0  0  0  0  0  0
    3.9069    1.3735   -2.0826 C   0  0  0  0  0  0  0  0  0  0  0  0
    0.9362    2.1700   -1.8387 H   0  0  0  0  0  0  0  0  0  0  0  0
    3.2957    2.0794   -0.1369 H   0  0  0  0  0  0  0  0  0  0  0  0
    3.5907    1.4514   -3.1276 H   0  0  0  0  0  0  0  0  0  0  0  0
    4.9303    1.7507   -1.9987 H   0  0  0  0  0  0  0  0  0  0  0  0
    3.9076    0.3169   -1.7973 H   0  0  0  0  0  0  0  0  0  0  0  0
    4.1231    4.4280   -1.3147 N   0  0  0  0  0  0  0  0  0  0  0  0
    4.2177    5.8440   -1.6493 C   0  0  0  0  0  0  0  0  0  0  0  0
    4.9318    3.9623   -0.9133 H   0  0  0  0  0  0  0  0  0  0  0  0
    4.0466    5.9968   -2.7202 H   0  0  0  0  0  0  0  0  0  0  0  0
    3.4757    6.4217   -1.0881 H   0  0  0  0  0  0  0  0  0  0  0  0
    5.2125    6.2263   -1.4011 H   0  0  0  0  0  0  0  0  0  0  0  0
  1  2  2  0  0  0  0
  1  3  1  0  0  0  0
  1  7  1  0  0  0  0
  3  4  1  0  0  0  0
  3  5  1  0  0  0  0
  3  6  1  0  0  0  0
  7  8  1  0  0  0  0
  7 12  1  0  0  0  0
  8  9  1  0  0  0  0
  8 11  1  0  0  0  0
  8 13  1  0  0  0  0
  9 10  2  0  0  0  0
  9 17  1  0  0  0  0
 11 14  1  0  0  0  0
 11 15  1  0  0  0  0
 11 16  1  0  0  0  0
 17 18  1  0  0  0  0
 17 23  1  0  0  0  0
 18 19  1  0  0  0  0
 18 21  1  0  0  0  0
 18 24  1  0  0  0  0
 19 20  2  0  0  0  0
 19 28  1  0  0  0  0
 21 22  1  0  0  0  0
 21 25  1  0  0  0  0
 21 26  1  0  0  0  0
 22 27  1  0  0  0  0
 28 29  1  0  0  0  0
 28 33  1  0  0  0  0
 29 30  1  0  0  0  0
 29 32  1  0  0  0  0
 29 34  1  0  0  0  0
 30 31  2  0  0  0  0
 30 38  1  0  0  0  0
 32 35  1  0  0  0  0
 32 36  1  0  0  0  0
 32 37  1  0  0  0  0
 38 39  1  0  0  0  0
 38 40  1  0  0  0  0
 39 41  1  0  0  0  0
 39 42  1  0  0  0  0
 39 43  1  0  0  0  0
M  END
$$$$

  -OEChem-05262216003D

 43 42  0     1  0  0  0  0  0999 V2000
   -3.6125   -4.6424    1.3019 C   0  0  0  0  0  0  0  0  0  0  0  0
   -2.9104   -5.0115    2.2305 O   0  0  0  0  0  0  0  0  0  0  0  0
   -5.0953   -4.9641    1.2933 C   0  0  0  0  0  0  0  0  0  0  0  0
   -5.3457   -5.5451    0.4023 H   0  0  0  0  0  0  0  0  0  0  0  0
   -5.3605   -5.5467    2.1802 H   0  0  0  0  0  0  0  0  0  0  0  0
   -5.6771   -4.0389    1.2919 H   0  0  0  0  0  0  0  0  0  0  0  0
   -3.0624   -3.9237    0.2624 N   0  0  0  0  0  0  0  0  0  0  0  0
   -1.6879   -3.4072    0.2466 C   0  0  2  0  0  0  0  0  0  0  0  0
   -1.5998   -2.0745   -0.5268 C   0  0  0  0  0  0  0  0  0  0  0  0
   -2.5143   -1.7360   -1.2693 O   0  0  0  0  0  0  0  0  0  0  0  0
   -0.7803   -4.4669   -0.3857 C   0  0  0  0  0  0  0  0  0  0  0  0
   -3.7054   -3.5201   -0.4190 H   0  0  0  0  0  0  0  0  0  0  0  0
   -1.3549   -3.2097    1.2712 H   0  0  0  0  0  0  0  0  0  0  0  0
   -1.0918   -4.6713   -1.4151 H   0  0  0  0  0  0  0  0  0  0  0  0
    0.2597   -4.1277   -0.3962 H   0  0  0  0  0  0  0  0  0  0  0  0
   -0.8314   -5.3989    0.1864 H   0  0  0  0  0  0  0  0  0  0  0  0
   -0.4414   -1.3227   -0.5046 N   0  0  0  0  0  0  0  0  0  0  0  0
   -0.3513    0.1353   -0.7172 C   0  0  2  0  0  0  0  0  0  0  0  0
    1.1258    0.5755   -0.6196 C   0  0  0  0  0  0  0  0  0  0  0  0
    1.9519   -0.1515   -0.0757 O   0  0  0  0  0  0  0  0  0  0  0  0
   -1.0592    0.9574    0.3934 C   0  0  0  0  0  0  0  0  0  0  0  0
   -2.8844    0.7632    0.5112 S   0  0  0  0  0  0  0  0  0  0  0  0
    0.3273   -1.7196    0.0352 H   0  0  0  0  0  0  0  0  0  0  0  0
   -0.7552    0.3946   -1.7014 H   0  0  0  0  0  0  0  0  0  0  0  0
   -0.6247    0.6806    1.3602 H   0  0  0  0  0  0  0  0  0  0  0  0
   -0.8553    2.0217    0.2359 H   0  0  0  0  0  0  0  0  0  0  0  0
   -3.1735    1.5760    1.5504 H   0  0  0  0  0  0  0  0  0  0  0  0
    1.5243    1.8167   -1.0788 N   0  0  0  0  0  0  0  0  0  0  0  0
    2.8605    2.3952   -0.8833 C   0  0  2  0  0  0  0  0  0  0  0  0
    2.8035    3.9378   -0.8376 C   0  0  0  0  0  0  0  0  0  0  0  0
    1.7479    4.5174   -1.0696 O   0  0  0  0  0  0  0  0  0  0  0  0
    3.7674    1.9181   -2.0230 C   0  0  0  0  0  0  0  0  0  0  0  0
    0.8004    2.4524   -1.4162 H   0  0  0  0  0  0  0  0  0  0  0  0
    3.2732    2.0571    0.0732 H   0  0  0  0  0  0  0  0  0  0  0  0
    3.3760    2.2527   -2.9892 H   0  0  0  0  0  0  0  0  0  0  0  0
    4.7804    2.3131   -1.9011 H   0  0  0  0  0  0  0  0  0  0  0  0
    3.8250    0.8248   -2.0304 H   0  0  0  0  0  0  0  0  0  0  0  0
    3.9268    4.6782   -0.5171 N   0  0  0  0  0  0  0  0  0  0  0  0
    3.9349    6.1355   -0.4607 C   0  0  0  0  0  0  0  0  0  0  0  0
    4.7864    4.1732   -0.3214 H   0  0  0  0  0  0  0  0  0  0  0  0
    3.6269    6.5586   -1.4228 H   0  0  0  0  0  0  0  0  0  0  0  0
    3.2510    6.4929    0.3163 H   0  0  0  0  0  0  0  0  0  0  0  0
    4.9405    6.5006   -0.2302 H   0  0  0  0  0  0  0  0  0  0  0  0
  1  2  2  0  0  0  0
  1  3  1  0  0  0  0
  1  7  1  0  0  0  0
  3  4  1  0  0  0  0
  3  5  1  0  0  0  0
  3  6  1  0  0  0  0
  7  8  1  0  0  0  0
  7 12  1  0  0  0  0
  8  9  1  0  0  0  0
  8 11  1  0  0  0  0
  8 13  1  0  0  0  0
  9 10  2  0  0  0  0
  9 17  1  0  0  0  0
 11 14  1  0  0  0  0
 11 15  1  0  0  0  0
 11 16  1  0  0  0  0
 17 18  1  0  0  0  0
 17 23  1  0  0  0  0
 18 19  1  0  0  0  0
 18 21  1  0  0  0  0
 18 24  1  0  0  0  0
 19 20  2  0  0  0  0
 19 28  1  0  0  0  0
 21 22  1  0  0  0  0
 21 25  1  0  0  0  0
 21 26  1  0  0  0  0
 22 27  1  0  0  0  0
 28 29  1  0  0  0  0
 28 33  1  0  0  0  0
 29 30  1  0  0  0  0
 29 32  1  0  0  0  0
 29 34  1  0  0  0  0
 30 31  2  0  0  0  0
 30 38  1  0  0  0  0
 32 35  1  0  0  0  0
 32 36  1  0  0  0  0
 32 37  1  0  0  0  0
 38 39  1  0  0  0  0
 38 40  1  0  0  0  0
 39 41  1  0  0  0  0
 39 42  1  0  0  0  0
 39 43  1  0  0  0  0
M  END
$$$$

  -OEChem-05262216003D

 43 42  0     1  0  0  0  0  0999 V2000
   -3.5186   -4.7678    1.2978 C   0  0  0  0  0  0  0  0  0  0  0  0
   -2.7396   -5.2423    2.1099 O   0  0  0  0  0  0  0  0  0  0  0  0
   -4.9959   -5.1043    1.3740 C   0  0  0  0  0  0  0  0  0  0  0  0
   -5.3185   -5.5793    0.4442 H   0  0  0  0  0  0  0  0  0  0  0  0
   -5.1834   -5.7909    2.2043 H   0  0  0  0  0  0  0  0  0  0  0  0
   -5.5786   -4.1932    1.5310 H   0  0  0  0  0  0  0  0  0  0  0  0
   -3.0588   -3.9219    0.3116 N   0  0  0  0  0  0  0  0  0  0  0  0
   -1.6869   -3.4040    0.2355 C   0  0  2  0  0  0  0  0  0  0  0  0
   -1.6514   -1.9966   -0.3970 C   0  0  0  0  0  0  0  0  0  0  0  0
   -2.6230   -1.5818   -1.0194 O   0  0  0  0  0  0  0  0  0  0  0  0
   -0.8434   -4.3885   -0.5810 C   0  0  0  0  0  0  0  0  0  0  0  0
   -3.7555   -3.4476   -0.2629 H   0  0  0  0  0  0  0  0  0  0  0  0
   -1.2692   -3.3175    1.2443 H   0  0  0  0  0  0  0  0  0  0  0  0
   -1.2461   -4.4871   -1.5942 H   0  0  0  0  0  0  0  0  0  0  0  0
    0.1929   -4.0443   -0.6489 H   0  0  0  0  0  0  0  0  0  0  0  0
   -0.8475   -5.3752   -0.1069 H   0  0  0  0  0  0  0  0  0  0  0  0
   -0.4955   -1.2396   -0.3627 N   0  0  0  0  0  0  0  0  0  0  0  0
   -0.4032    0.2059   -0.6399 C   0  0  2  0  0  0  0  0  0  0  0  0
    1.0710    0.6091   -0.8783 C   0  0  0  0  0  0  0  0  0  0  0  0
    1.9716   -0.2079   -0.7112 O   0  0  0  0  0  0  0  0  0  0  0  0
   -0.8772    1.0296    0.5853 C   0  0  0  0  0  0  0  0  0  0  0  0
   -2.6557    0.8325    1.0121 S   0  0  0  0  0  0  0  0  0  0  0  0
    0.3304   -1.6754    0.0449 H   0  0  0  0  0  0  0  0  0  0  0  0
   -0.9948    0.4624   -1.5253 H   0  0  0  0  0  0  0  0  0  0  0  0
   -0.2757    0.7449    1.4551 H   0  0  0  0  0  0  0  0  0  0  0  0
   -0.7031    2.0941    0.4004 H   0  0  0  0  0  0  0  0  0  0  0  0
   -2.7687    1.6496    2.0815 H   0  0  0  0  0  0  0  0  0  0  0  0
    1.4122    1.9190   -1.1611 N   0  0  0  0  0  0  0  0  0  0  0  0
    2.7834    2.4449   -1.1975 C   0  0  2  0  0  0  0  0  0  0  0  0
    2.8175    3.9417   -0.8183 C   0  0  0  0  0  0  0  0  0  0  0  0
    1.7678    4.5564   -0.6601 O   0  0  0  0  0  0  0  0  0  0  0  0
    3.3515    2.2256   -2.6038 C   0  0  0  0  0  0  0  0  0  0  0  0
    0.6621    2.6106   -1.1790 H   0  0  0  0  0  0  0  0  0  0  0  0
    3.4038    1.9106   -0.4700 H   0  0  0  0  0  0  0  0  0  0  0  0
    2.7575    2.7681   -3.3462 H   0  0  0  0  0  0  0  0  0  0  0  0
    4.3860    2.5769   -2.6605 H   0  0  0  0  0  0  0  0  0  0  0  0
    3.3366    1.1608   -2.8575 H   0  0  0  0  0  0  0  0  0  0  0  0
    4.0209    4.5968   -0.6313 N   0  0  0  0  0  0  0  0  0  0  0  0
    4.1179    6.0041   -0.2610 C   0  0  0  0  0  0  0  0  0  0  0  0
    4.8750    4.0604   -0.7534 H   0  0  0  0  0  0  0  0  0  0  0  0
    3.6297    6.6338   -1.0125 H   0  0  0  0  0  0  0  0  0  0  0  0
    3.6405    6.1789    0.7089 H   0  0  0  0  0  0  0  0  0  0  0  0
    5.1675    6.3053   -0.1885 H   0  0  0  0  0  0  0  0  0  0  0  0
  1  2  2  0  0  0  0
  1  3  1  0  0  0  0
  1  7  1  0  0  0  0
  3  4  1  0  0  0  0
  3  5  1  0  0  0  0
  3  6  1  0  0  0  0
  7  8  1  0  0  0  0
  7 12  1  0  0  0  0
  8  9  1  0  0  0  0
  8 11  1  0  0  0  0
  8 13  1  0  0  0  0
  9 10  2  0  0  0  0
  9 17  1  0  0  0  0
 11 14  1  0  0  0  0
 11 15  1  0  0  0  0
 11 16  1  0  0  0  0
 17 18  1  0  0  0  0
 17 23  1  0  0  0  0
 18 19  1  0  0  0  0
 18 21  1  0  0  0  0
 18 24  1  0  0  0  0
 19 20  2  0  0  0  0
 19 28  1  0  0  0  0
 21 22  1  0  0  0  0
 21 25  1  0  0  0  0
 21 26  1  0  0  0  0
 22 27  1  0  0  0  0
 28 29  1  0  0  0  0
 28 33  1  0  0  0  0
 29 30  1  0  0  0  0
 29 32  1  0  0  0  0
 29 34  1  0  0  0  0
 30 31  2  0  0  0  0
 30 38  1  0  0  0  0
 32 35  1  0  0  0  0
 32 36  1  0  0  0  0
 32 37  1  0  0  0  0
 38 39  1  0  0  0  0
 38 40  1  0  0  0  0
 39 41  1  0  0  0  0
 39 42  1  0  0  0  0
 39 43  1  0  0  0  0
M  END
$$$$

  -OEChem-05262216003D

 43 42  0     1  0  0  0  0  0999 V2000
   -3.4582   -4.7905    1.2812 C   0  0  0  0  0  0  0  0  0  0  0  0
   -2.6574   -5.2648    2.0718 O   0  0  0  0  0  0  0  0  0  0  0  0
   -4.9298   -5.1462    1.3820 C   0  0  0  0  0  0  0  0  0  0  0  0
   -5.2735   -5.5858    0.4426 H   0  0  0  0  0  0  0  0  0  0  0  0
   -5.0883   -5.8685    2.1875 H   0  0  0  0  0  0  0  0  0  0  0  0
   -5.5169   -4.2489    1.5921 H   0  0  0  0  0  0  0  0  0  0  0  0
   -3.0287   -3.9230    0.3005 N   0  0  0  0  0  0  0  0  0  0  0  0
   -1.6680   -3.3784    0.2112 C   0  0  2  0  0  0  0  0  0  0  0  0
   -1.6725   -1.9556   -0.3859 C   0  0  0  0  0  0  0  0  0  0  0  0
   -2.6593   -1.5513   -0.9908 O   0  0  0  0  0  0  0  0  0  0  0  0
   -0.8223   -4.3239   -0.6477 C   0  0  0  0  0  0  0  0  0  0  0  0
   -3.7433   -3.4497   -0.2527 H   0  0  0  0  0  0  0  0  0  0  0  0
   -1.2313   -3.3092    1.2135 H   0  0  0  0  0  0  0  0  0  0  0  0
   -1.2422   -4.4027   -1.6555 H   0  0  0  0  0  0  0  0  0  0  0  0
    0.2060   -3.9584   -0.7264 H   0  0  0  0  0  0  0  0  0  0  0  0
   -0.7991   -5.3227   -0.2004 H   0  0  0  0  0  0  0  0  0  0  0  0
   -0.5328   -1.1751   -0.3429 N   0  0  0  0  0  0  0  0  0  0  0  0
   -0.4573    0.2729   -0.6157 C   0  0  2  0  0  0  0  0  0  0  0  0
    1.0208    0.6853   -0.8402 C   0  0  0  0  0  0  0  0  0  0  0  0
    1.8931   -0.1747   -0.9147 O   0  0  0  0  0  0  0  0  0  0  0  0
   -0.9705    1.0809    0.6076 C   0  0  0  0  0  0  0  0  0  0  0  0
   -2.7525    0.8559    1.0058 S   0  0  0  0  0  0  0  0  0  0  0  0
    0.3154   -1.6162    0.0085 H   0  0  0  0  0  0  0  0  0  0  0  0
   -1.0393    0.5254   -1.5080 H   0  0  0  0  0  0  0  0  0  0  0  0
   -0.3787    0.8047    1.4869 H   0  0  0  0  0  0  0  0  0  0  0  0
   -0.8207    2.1501    0.4316 H   0  0  0  0  0  0  0  0  0  0  0  0
   -2.8931    1.6652    2.0781 H   0  0  0  0  0  0  0  0  0  0  0  0
    1.4199    2.0100   -0.8156 N   0  0  0  0  0  0  0  0  0  0  0  0
    2.8138    2.4729   -0.7823 C   0  0  2  0  0  0  0  0  0  0  0  0
    2.9316    3.8344   -0.0628 C   0  0  0  0  0  0  0  0  0  0  0  0
    1.9180    4.4291    0.2896 O   0  0  0  0  0  0  0  0  0  0  0  0
    3.3298    2.5700   -2.2216 C   0  0  0  0  0  0  0  0  0  0  0  0
    0.7078    2.7160   -0.6295 H   0  0  0  0  0  0  0  0  0  0  0  0
    3.4285    1.7570   -0.2265 H   0  0  0  0  0  0  0  0  0  0  0  0
    2.7377    3.2926   -2.7921 H   0  0  0  0  0  0  0  0  0  0  0  0
    4.3765    2.8876   -2.2356 H   0  0  0  0  0  0  0  0  0  0  0  0
    3.2615    1.5959   -2.7161 H   0  0  0  0  0  0  0  0  0  0  0  0
    4.1706    4.3851    0.2093 N   0  0  0  0  0  0  0  0  0  0  0  0
    4.3478    5.6611    0.8926 C   0  0  0  0  0  0  0  0  0  0  0  0
    4.9931    3.8654   -0.0830 H   0  0  0  0  0  0  0  0  0  0  0  0
    3.8380    6.4628    0.3476 H   0  0  0  0  0  0  0  0  0  0  0  0
    3.9414    5.6111    1.9082 H   0  0  0  0  0  0  0  0  0  0  0  0
    5.4112    5.9116    0.9576 H   0  0  0  0  0  0  0  0  0  0  0  0
  1  2  2  0  0  0  0
  1  3  1  0  0  0  0
  1  7  1  0  0  0  0
  3  4  1  0  0  0  0
  3  5  1  0  0  0  0
  3  6  1  0  0  0  0
  7  8  1  0  0  0  0
  7 12  1  0  0  0  0
  8  9  1  0  0  0  0
  8 11  1  0  0  0  0
  8 13  1  0  0  0  0
  9 10  2  0  0  0  0
  9 17  1  0  0  0  0
 11 14  1  0  0  0  0
 11 15  1  0  0  0  0
 11 16  1  0  0  0  0
 17 18  1  0  0  0  0
 17 23  1  0  0  0  0
 18 19  1  0  0  0  0
 18 21  1  0  0  0  0
 18 24  1  0  0  0  0
 19 20  2  0  0  0  0
 19 28  1  0  0  0  0
 21 22  1  0  0  0  0
 21 25  1  0  0  0  0
 21 26  1  0  0  0  0
 22 27  1  0  0  0  0
 28 29  1  0  0  0  0
 28 33  1  0  0  0  0
 29 30  1  0  0  0  0
 29 32  1  0  0  0  0
 29 34  1  0  0  0  0
 30 31  2  0  0  0  0
 30 38  1  0  0  0  0
 32 35  1  0  0  0  0
 32 36  1  0  0  0  0
 32 37  1  0  0  0  0
 38 39  1  0  0  0  0
 38 40  1  0  0  0  0
 39 41  1  0  0  0  0
 39 42  1  0  0  0  0
 39 43  1  0  0  0  0
M  END
$$$$

  -OEChem-05262216003D

 43 42  0     1  0  0  0  0  0999 V2000
   -3.4080   -4.8045    1.2707 C   0  0  0  0  0  0  0  0  0  0  0  0
   -2.5900   -5.2785    2.0438 O   0  0  0  0  0  0  0  0  0  0  0  0
   -4.8696   -5.1964    1.3719 C   0  0  0  0  0  0  0  0  0  0  0  0
   -5.2018   -5.6404    0.4305 H   0  0  0  0  0  0  0  0  0  0  0  0
   -5.0096   -5.9256    2.1745 H   0  0  0  0  0  0  0  0  0  0  0  0
   -5.4782   -4.3146    1.5858 H   0  0  0  0  0  0  0  0  0  0  0  0
   -3.0066   -3.9097    0.3030 N   0  0  0  0  0  0  0  0  0  0  0  0
   -1.6531   -3.3525    0.1966 C   0  0  2  0  0  0  0  0  0  0  0  0
   -1.6815   -1.9179   -0.3706 C   0  0  0  0  0  0  0  0  0  0  0  0
   -2.6719   -1.5217   -0.9743 O   0  0  0  0  0  0  0  0  0  0  0  0
   -0.8215   -4.2770   -0.6982 C   0  0  0  0  0  0  0  0  0  0  0  0
   -3.7346   -3.4398   -0.2351 H   0  0  0  0  0  0  0  0  0  0  0  0
   -1.1954   -3.3004    1.1902 H   0  0  0  0  0  0  0  0  0  0  0  0
   -1.2695   -4.3482   -1.6946 H   0  0  0  0  0  0  0  0  0  0  0  0
    0.2002   -3.8992   -0.8012 H   0  0  0  0  0  0  0  0  0  0  0  0
   -0.7749   -5.2811   -0.2646 H   0  0  0  0  0  0  0  0  0  0  0  0
   -0.5557   -1.1192   -0.3036 N   0  0  0  0  0  0  0  0  0  0  0  0
   -0.4926    0.3307   -0.5718 C   0  0  2  0  0  0  0  0  0  0  0  0
    0.9921    0.7466   -0.7624 C   0  0  0  0  0  0  0  0  0  0  0  0
    1.8231   -0.0994   -1.0762 O   0  0  0  0  0  0  0  0  0  0  0  0
   -1.0618    1.1368    0.6297 C   0  0  0  0  0  0  0  0  0  0  0  0
   -2.8530    0.8958    0.9708 S   0  0  0  0  0  0  0  0  0  0  0  0
    0.3040   -1.5644    0.0115 H   0  0  0  0  0  0  0  0  0  0  0  0
   -1.0491    0.5742   -1.4831 H   0  0  0  0  0  0  0  0  0  0  0  0
   -0.4974    0.8745    1.5309 H   0  0  0  0  0  0  0  0  0  0  0  0
   -0.9242    2.2068    0.4494 H   0  0  0  0  0  0  0  0  0  0  0  0
   -3.0319    1.6963    2.0438 H   0  0  0  0  0  0  0  0  0  0  0  0
    1.4618    2.0074   -0.4368 N   0  0  0  0  0  0  0  0  0  0  0  0
    2.8766    2.3972   -0.3726 C   0  0  2  0  0  0  0  0  0  0  0  0
    3.0836    3.5509    0.6323 C   0  0  0  0  0  0  0  0  0  0  0  0
    2.1108    4.1018    1.1382 O   0  0  0  0  0  0  0  0  0  0  0  0
    3.3329    2.8101   -1.7759 C   0  0  0  0  0  0  0  0  0  0  0  0
    0.7969    2.6775   -0.0516 H   0  0  0  0  0  0  0  0  0  0  0  0
    3.4810    1.5508   -0.0289 H   0  0  0  0  0  0  0  0  0  0  0  0
    2.7452    3.6612   -2.1344 H   0  0  0  0  0  0  0  0  0  0  0  0
    4.3895    3.0933   -1.7703 H   0  0  0  0  0  0  0  0  0  0  0  0
    3.2047    1.9788   -2.4763 H   0  0  0  0  0  0  0  0  0  0  0  0
    4.3555    3.9630    0.9843 N   0  0  0  0  0  0  0  0  0  0  0  0
    4.6128    5.0489    1.9227 C   0  0  0  0  0  0  0  0  0  0  0  0
    5.1431    3.4840    0.5570 H   0  0  0  0  0  0  0  0  0  0  0  0
    4.1371    5.9734    1.5783 H   0  0  0  0  0  0  0  0  0  0  0  0
    4.2214    4.8001    2.9148 H   0  0  0  0  0  0  0  0  0  0  0  0
    5.6889    5.2267    2.0102 H   0  0  0  0  0  0  0  0  0  0  0  0
  1  2  2  0  0  0  0
  1  3  1  0  0  0  0
  1  7  1  0  0  0  0
  3  4  1  0  0  0  0
  3  5  1  0  0  0  0
  3  6  1  0  0  0  0
  7  8  1  0  0  0  0
  7 12  1  0  0  0  0
  8  9  1  0  0  0  0
  8 11  1  0  0  0  0
  8 13  1  0  0  0  0
  9 10  2  0  0  0  0
  9 17  1  0  0  0  0
 11 14  1  0  0  0  0
 11 15  1  0  0  0  0
 11 16  1  0  0  0  0
 17 18  1  0  0  0  0
 17 23  1  0  0  0  0
 18 19  1  0  0  0  0
 18 21  1  0  0  0  0
 18 24  1  0  0  0  0
 19 20  2  0  0  0  0
 19 28  1  0  0  0  0
 21 22  1  0  0  0  0
 21 25  1  0  0  0  0
 21 26  1  0  0  0  0
 22 27  1  0  0  0  0
 28 29  1  0  0  0  0
 28 33  1  0  0  0  0
 29 30  1  0  0  0  0
 29 32  1  0  0  0  0
 29 34  1  0  0  0  0
 30 31  2  0  0  0  0
 30 38  1  0  0  0  0
 32 35  1  0  0  0  0
 32 36  1  0  0  0  0
 32 37  1  0  0  0  0
 38 39  1  0  0  0  0
 38 40  1  0  0  0  0
 39 41  1  0  0  0  0
 39 42  1  0  0  0  0
 39 43  1  0  0  0  0
M  END
$$$$

  -OEChem-05262216003D

 43 42  0     1  0  0  0  0  0999 V2000
   -3.3937   -4.7986    1.2595 C   0  0  0  0  0  0  0  0  0  0  0  0
   -2.5836   -5.2635    2.0464 O   0  0  0  0  0  0  0  0  0  0  0  0
   -4.8581   -5.1841    1.3573 C   0  0  0  0  0  0  0  0  0  0  0  0
   -5.1843   -5.6509    0.4247 H   0  0  0  0  0  0  0  0  0  0  0  0
   -5.0081   -5.8924    2.1770 H   0  0  0  0  0  0  0  0  0  0  0  0
   -5.4665   -4.2958    1.5441 H   0  0  0  0  0  0  0  0  0  0  0  0
   -2.9814   -3.9146    0.2860 N   0  0  0  0  0  0  0  0  0  0  0  0
   -1.6313   -3.3439    0.2001 C   0  0  2  0  0  0  0  0  0  0  0  0
   -1.6645   -1.9090   -0.3665 C   0  0  0  0  0  0  0  0  0  0  0  0
   -2.6484   -1.5242   -0.9876 O   0  0  0  0  0  0  0  0  0  0  0  0
   -0.7758   -4.2571   -0.6834 C   0  0  0  0  0  0  0  0  0  0  0  0
   -3.7046   -3.4528   -0.2655 H   0  0  0  0  0  0  0  0  0  0  0  0
   -1.1889   -3.2879    1.2005 H   0  0  0  0  0  0  0  0  0  0  0  0
   -1.2046   -4.3264   -1.6884 H   0  0  0  0  0  0  0  0  0  0  0  0
    0.2446   -3.8705   -0.7662 H   0  0  0  0  0  0  0  0  0  0  0  0
   -0.7291   -5.2629   -0.2538 H   0  0  0  0  0  0  0  0  0  0  0  0
   -0.5489   -1.0972   -0.2759 N   0  0  0  0  0  0  0  0  0  0  0  0
   -0.5007    0.3548   -0.5390 C   0  0  2  0  0  0  0  0  0  0  0  0
    0.9829    0.7857   -0.7004 C   0  0  0  0  0  0  0  0  0  0  0  0
    1.7686    0.0287   -1.2583 O   0  0  0  0  0  0  0  0  0  0  0  0
   -1.1198    1.1621    0.6367 C   0  0  0  0  0  0  0  0  0  0  0  0
   -2.9181    0.9056    0.9232 S   0  0  0  0  0  0  0  0  0  0  0  0
    0.3073   -1.5362    0.0540 H   0  0  0  0  0  0  0  0  0  0  0  0
   -1.0343    0.5880   -1.4664 H   0  0  0  0  0  0  0  0  0  0  0  0
   -0.5839    0.9148    1.5594 H   0  0  0  0  0  0  0  0  0  0  0  0
   -0.9880    2.2318    0.4457 H   0  0  0  0  0  0  0  0  0  0  0  0
   -3.1379    1.7244    1.9748 H   0  0  0  0  0  0  0  0  0  0  0  0
    1.5104    1.9166   -0.0997 N   0  0  0  0  0  0  0  0  0  0  0  0
    2.9393    2.2470   -0.0204 C   0  0  2  0  0  0  0  0  0  0  0  0
    3.2393    3.0960    1.2336 C   0  0  0  0  0  0  0  0  0  0  0  0
    2.3141    3.5158    1.9218 O   0  0  0  0  0  0  0  0  0  0  0  0
    3.3374    2.9996   -1.2940 C   0  0  0  0  0  0  0  0  0  0  0  0
    0.8950    2.4632    0.5017 H   0  0  0  0  0  0  0  0  0  0  0  0
    3.5308    1.3286    0.0580 H   0  0  0  0  0  0  0  0  0  0  0  0
    2.7625    3.9266   -1.3856 H   0  0  0  0  0  0  0  0  0  0  0  0
    4.4023    3.2491   -1.2770 H   0  0  0  0  0  0  0  0  0  0  0  0
    3.1446    2.3816   -2.1766 H   0  0  0  0  0  0  0  0  0  0  0  0
    4.5423    3.3705    1.6055 N   0  0  0  0  0  0  0  0  0  0  0  0
    4.8905    4.1519    2.7863 C   0  0  0  0  0  0  0  0  0  0  0  0
    5.2882    2.9986    1.0244 H   0  0  0  0  0  0  0  0  0  0  0  0
    4.4448    5.1508    2.7310 H   0  0  0  0  0  0  0  0  0  0  0  0
    4.5312    3.6548    3.6936 H   0  0  0  0  0  0  0  0  0  0  0  0
    5.9767    4.2631    2.8595 H   0  0  0  0  0  0  0  0  0  0  0  0
  1  2  2  0  0  0  0
  1  3  1  0  0  0  0
  1  7  1  0  0  0  0
  3  4  1  0  0  0  0
  3  5  1  0  0  0  0
  3  6  1  0  0  0  0
  7  8  1  0  0  0  0
  7 12  1  0  0  0  0
  8  9  1  0  0  0  0
  8 11  1  0  0  0  0
  8 13  1  0  0  0  0
  9 10  2  0  0  0  0
  9 17  1  0  0  0  0
 11 14  1  0  0  0  0
 11 15  1  0  0  0  0
 11 16  1  0  0  0  0
 17 18  1  0  0  0  0
 17 23  1  0  0  0  0
 18 19  1  0  0  0  0
 18 21  1  0  0  0  0
 18 24  1  0  0  0  0
 19 20  2  0  0  0  0
 19 28  1  0  0  0  0
 21 22  1  0  0  0  0
 21 25  1  0  0  0  0
 21 26  1  0  0  0  0
 22 27  1  0  0  0  0
 28 29  1  0  0  0  0
 28 33  1  0  0  0  0
 29 30  1  0  0  0  0
 29 32  1  0  0  0  0
 29 34  1  0  0  0  0
 30 31  2  0  0  0  0
 30 38  1  0  0  0  0
 32 35  1  0  0  0  0
 32 36  1  0  0  0  0
 32 37  1  0  0  0  0
 38 39  1  0  0  0  0
 38 40  1  0  0  0  0
 39 41  1  0  0  0  0
 39 42  1  0  0  0  0
 39 43  1  0  0  0  0
M  END
$$$$

  -OEChem-05262216003D

 43 42  0     1  0  0  0  0  0999 V2000
   -3.4117   -4.7726    1.2474 C   0  0  0  0  0  0  0  0  0  0  0  0
   -2.6127   -5.2368    2.0458 O   0  0  0  0  0  0  0  0  0  0  0  0
   -4.8789   -5.1475    1.3325 C   0  0  0  0  0  0  0  0  0  0  0  0
   -5.1994   -5.6089    0.3953 H   0  0  0  0  0  0  0  0  0  0  0  0
   -5.0406   -5.8570    2.1489 H   0  0  0  0  0  0  0  0  0  0  0  0
   -5.4818   -4.2547    1.5159 H   0  0  0  0  0  0  0  0  0  0  0  0
   -2.9834   -3.9023    0.2686 N   0  0  0  0  0  0  0  0  0  0  0  0
   -1.6251   -3.3528    0.1834 C   0  0  2  0  0  0  0  0  0  0  0  0
   -1.6369   -1.9166   -0.3796 C   0  0  0  0  0  0  0  0  0  0  0  0
   -2.6004   -1.5283   -1.0294 O   0  0  0  0  0  0  0  0  0  0  0  0
   -0.7857   -4.2780   -0.7029 C   0  0  0  0  0  0  0  0  0  0  0  0
   -3.6972   -3.4399   -0.2948 H   0  0  0  0  0  0  0  0  0  0  0  0
   -1.1806   -3.3071    1.1832 H   0  0  0  0  0  0  0  0  0  0  0  0
   -1.2140   -4.3347   -1.7088 H   0  0  0  0  0  0  0  0  0  0  0  0
    0.2414   -3.9096   -0.7817 H   0  0  0  0  0  0  0  0  0  0  0  0
   -0.7584   -5.2866   -0.2781 H   0  0  0  0  0  0  0  0  0  0  0  0
   -0.5211   -1.1097   -0.2535 N   0  0  0  0  0  0  0  0  0  0  0  0
   -0.4745    0.3469   -0.4901 C   0  0  2  0  0  0  0  0  0  0  0  0
    1.0058    0.7923   -0.6202 C   0  0  0  0  0  0  0  0  0  0  0  0
    1.7397    0.2007   -1.4012 O   0  0  0  0  0  0  0  0  0  0  0  0
   -1.1281    1.1416    0.6747 C   0  0  0  0  0  0  0  0  0  0  0  0
   -2.9334    0.8791    0.9063 S   0  0  0  0  0  0  0  0  0  0  0  0
    0.3046   -1.5442    0.1493 H   0  0  0  0  0  0  0  0  0  0  0  0
   -0.9886    0.5888   -1.4265 H   0  0  0  0  0  0  0  0  0  0  0  0
   -0.6232    0.8829    1.6116 H   0  0  0  0  0  0  0  0  0  0  0  0
   -0.9833    2.2123    0.4965 H   0  0  0  0  0  0  0  0  0  0  0  0
   -3.1971    1.7050    1.9421 H   0  0  0  0  0  0  0  0  0  0  0  0
    1.5918    1.7191    0.2262 N   0  0  0  0  0  0  0  0  0  0  0  0
    3.0299    2.0084    0.3010 C   0  0  2  0  0  0  0  0  0  0  0  0
    3.4138    2.5239    1.7046 C   0  0  0  0  0  0  0  0  0  0  0  0
    2.5354    2.7748    2.5240 O   0  0  0  0  0  0  0  0  0  0  0  0
    3.3774    3.0450   -0.7726 C   0  0  0  0  0  0  0  0  0  0  0  0
    1.0234    2.0923    0.9860 H   0  0  0  0  0  0  0  0  0  0  0  0
    3.6030    1.0928    0.1197 H   0  0  0  0  0  0  0  0  0  0  0  0
    2.8212    3.9725   -0.6035 H   0  0  0  0  0  0  0  0  0  0  0  0
    4.4474    3.2720   -0.7580 H   0  0  0  0  0  0  0  0  0  0  0  0
    3.1225    2.6628   -1.7661 H   0  0  0  0  0  0  0  0  0  0  0  0
    4.7401    2.6843    2.0599 N   0  0  0  0  0  0  0  0  0  0  0  0
    5.1657    3.1519    3.3737 C   0  0  0  0  0  0  0  0  0  0  0  0
    5.4464    2.4526    1.3673 H   0  0  0  0  0  0  0  0  0  0  0  0
    4.7510    4.1443    3.5801 H   0  0  0  0  0  0  0  0  0  0  0  0
    4.8307    2.4602    4.1538 H   0  0  0  0  0  0  0  0  0  0  0  0
    6.2571    3.2181    3.4168 H   0  0  0  0  0  0  0  0  0  0  0  0
  1  2  2  0  0  0  0
  1  3  1  0  0  0  0
  1  7  1  0  0  0  0
  3  4  1  0  0  0  0
  3  5  1  0  0  0  0
  3  6  1  0  0  0  0
  7  8  1  0  0  0  0
  7 12  1  0  0  0  0
  8  9  1  0  0  0  0
  8 11  1  0  0  0  0
  8 13  1  0  0  0  0
  9 10  2  0  0  0  0
  9 17  1  0  0  0  0
 11 14  1  0  0  0  0
 11 15  1  0  0  0  0
 11 16  1  0  0  0  0
 17 18  1  0  0  0  0
 17 23  1  0  0  0  0
 18 19  1  0  0  0  0
 18 21  1  0  0  0  0
 18 24  1  0  0  0  0
 19 20  2  0  0  0  0
 19 28  1  0  0  0  0
 21 22  1  0  0  0  0
 21 25  1  0  0  0  0
 21 26  1  0  0  0  0
 22 27  1  0  0  0  0
 28 29  1  0  0  0  0
 28 33  1  0  0  0  0
 29 30  1  0  0  0  0
 29 32  1  0  0  0  0
 29 34  1  0  0  0  0
 30 31  2  0  0  0  0
 30 38  1  0  0  0  0
 32 35  1  0  0  0  0
 32 36  1  0  0  0  0
 32 37  1  0  0  0  0
 38 39  1  0  0  0  0
 38 40  1  0  0  0  0
 39 41  1  0  0  0  0
 39 42  1  0  0  0  0
 39 43  1  0  0  0  0
M  END
$$$$

  -OEChem-05262216003D

 43 42  0     1  0  0  0  0  0999 V2000
   -3.4769   -4.6977    1.2422 C   0  0  0  0  0  0  0  0  0  0  0  0
   -2.7283   -5.1299    2.1050 O   0  0  0  0  0  0  0  0  0  0  0  0
   -4.9565   -5.0303    1.2795 C   0  0  0  0  0  0  0  0  0  0  0  0
   -5.2486   -5.5329    0.3543 H   0  0  0  0  0  0  0  0  0  0  0  0
   -5.1737   -5.6910    2.1233 H   0  0  0  0  0  0  0  0  0  0  0  0
   -5.5422   -4.1142    1.3888 H   0  0  0  0  0  0  0  0  0  0  0  0
   -2.9803   -3.8978    0.2360 N   0  0  0  0  0  0  0  0  0  0  0  0
   -1.6108   -3.3713    0.1968 C   0  0  2  0  0  0  0  0  0  0  0  0
   -1.5727   -1.9610   -0.4262 C   0  0  0  0  0  0  0  0  0  0  0  0
   -2.4955   -1.5857   -1.1394 O   0  0  0  0  0  0  0  0  0  0  0  0
   -0.7412   -4.3447   -0.6042 C   0  0  0  0  0  0  0  0  0  0  0  0
   -3.6557   -3.4512   -0.3846 H   0  0  0  0  0  0  0  0  0  0  0  0
   -1.2158   -3.2877    1.2147 H   0  0  0  0  0  0  0  0  0  0  0  0
   -1.1209   -4.4430   -1.6265 H   0  0  0  0  0  0  0  0  0  0  0  0
    0.2935   -3.9914   -0.6493 H   0  0  0  0  0  0  0  0  0  0  0  0
   -0.7475   -5.3328   -0.1327 H   0  0  0  0  0  0  0  0  0  0  0  0
   -0.4605   -1.1567   -0.2593 N   0  0  0  0  0  0  0  0  0  0  0  0
   -0.4282    0.3041   -0.4703 C   0  0  2  0  0  0  0  0  0  0  0  0
    1.0419    0.7795   -0.5641 C   0  0  0  0  0  0  0  0  0  0  0  0
    1.7166    0.4585   -1.5322 O   0  0  0  0  0  0  0  0  0  0  0  0
   -1.1239    1.0761    0.6842 C   0  0  0  0  0  0  0  0  0  0  0  0
   -2.9321    0.7852    0.8535 S   0  0  0  0  0  0  0  0  0  0  0  0
    0.3088   -1.5708    0.2585 H   0  0  0  0  0  0  0  0  0  0  0  0
   -0.9233    0.5521   -1.4158 H   0  0  0  0  0  0  0  0  0  0  0  0
   -0.6530    0.8058    1.6351 H   0  0  0  0  0  0  0  0  0  0  0  0
   -0.9760    2.1503    0.5277 H   0  0  0  0  0  0  0  0  0  0  0  0
   -3.2396    1.5931    1.8915 H   0  0  0  0  0  0  0  0  0  0  0  0
    1.6740    1.4537    0.4669 N   0  0  0  0  0  0  0  0  0  0  0  0
    3.1101    1.7542    0.5232 C   0  0  2  0  0  0  0  0  0  0  0  0
    3.6017    1.8186    1.9850 C   0  0  0  0  0  0  0  0  0  0  0  0
    2.7883    1.7886    2.9031 O   0  0  0  0  0  0  0  0  0  0  0  0
    3.3533    3.0872   -0.1918 C   0  0  0  0  0  0  0  0  0  0  0  0
    1.1607    1.5711    1.3398 H   0  0  0  0  0  0  0  0  0  0  0  0
    3.6775    0.9637    0.0203 H   0  0  0  0  0  0  0  0  0  0  0  0
    2.7957    3.8914    0.2992 H   0  0  0  0  0  0  0  0  0  0  0  0
    4.4170    3.3428   -0.1807 H   0  0  0  0  0  0  0  0  0  0  0  0
    3.0269    3.0238   -1.2350 H   0  0  0  0  0  0  0  0  0  0  0  0
    4.9518    1.8880    2.2742 N   0  0  0  0  0  0  0  0  0  0  0  0
    5.4788    1.9378    3.6328 C   0  0  0  0  0  0  0  0  0  0  0  0
    5.6025    1.8915    1.4939 H   0  0  0  0  0  0  0  0  0  0  0  0
    5.0610    2.7926    4.1753 H   0  0  0  0  0  0  0  0  0  0  0  0
    5.2293    1.0198    4.1752 H   0  0  0  0  0  0  0  0  0  0  0  0
    6.5679    2.0422    3.6122 H   0  0  0  0  0  0  0  0  0  0  0  0
  1  2  2  0  0  0  0
  1  3  1  0  0  0  0
  1  7  1  0  0  0  0
  3  4  1  0  0  0  0
  3  5  1  0  0  0  0
  3  6  1  0  0  0  0
  7  8  1  0  0  0  0
  7 12  1  0  0  0  0
  8  9  1  0  0  0  0
  8 11  1  0  0  0  0
  8 13  1  0  0  0  0
  9 10  2  0  0  0  0
  9 17  1  0  0  0  0
 11 14  1  0  0  0  0
 11 15  1  0  0  0  0
 11 16  1  0  0  0  0
 17 18  1  0  0  0  0
 17 23  1  0  0  0  0
 18 19  1  0  0  0  0
 18 21  1  0  0  0  0
 18 24  1  0  0  0  0
 19 20  2  0  0  0  0
 19 28  1  0  0  0  0
 21 22  1  0  0  0  0
 21 25  1  0  0  0  0
 21 26  1  0  0  0  0
 22 27  1  0  0  0  0
 28 29  1  0  0  0  0
 28 33  1  0  0  0  0
 29 30  1  0  0  0  0
 29 32  1  0  0  0  0
 29 34  1  0  0  0  0
 30 31  2  0  0  0  0
 30 38  1  0  0  0  0
 32 35  1  0  0  0  0
 32 36  1  0  0  0  0
 32 37  1  0  0  0  0
 38 39  1  0  0  0  0
 38 40  1  0  0  0  0
 39 41  1  0  0  0  0
 39 42  1  0  0  0  0
 39 43  1  0  0  0  0
M  END
$$$$

  -OEChem-05262216003D

 43 42  0     1  0  0  0  0  0999 V2000
   -3.5357   -4.6623    1.2341 C   0  0  0  0  0  0  0  0  0  0  0  0
   -2.8180   -5.0852    2.1272 O   0  0  0  0  0  0  0  0  0  0  0  0
   -5.0231   -4.9615    1.2474 C   0  0  0  0  0  0  0  0  0  0  0  0
   -5.3066   -5.4845    0.3308 H   0  0  0  0  0  0  0  0  0  0  0  0
   -5.2735   -5.5924    2.1050 H   0  0  0  0  0  0  0  0  0  0  0  0
   -5.5903   -4.0300    1.3180 H   0  0  0  0  0  0  0  0  0  0  0  0
   -2.9968   -3.9014    0.2190 N   0  0  0  0  0  0  0  0  0  0  0  0
   -1.6167   -3.4005    0.2028 C   0  0  2  0  0  0  0  0  0  0  0  0
   -1.5374   -1.9974   -0.4335 C   0  0  0  0  0  0  0  0  0  0  0  0
   -2.4292   -1.6206   -1.1842 O   0  0  0  0  0  0  0  0  0  0  0  0
   -0.7518   -4.3983   -0.5729 C   0  0  0  0  0  0  0  0  0  0  0  0
   -3.6470   -3.4608   -0.4319 H   0  0  0  0  0  0  0  0  0  0  0  0
   -1.2402   -3.3146    1.2278 H   0  0  0  0  0  0  0  0  0  0  0  0
   -1.1109   -4.4963   -1.6026 H   0  0  0  0  0  0  0  0  0  0  0  0
    0.2907   -4.0668   -0.5979 H   0  0  0  0  0  0  0  0  0  0  0  0
   -0.7901   -5.3828   -0.0955 H   0  0  0  0  0  0  0  0  0  0  0  0
   -0.4239   -1.2004   -0.2360 N   0  0  0  0  0  0  0  0  0  0  0  0
   -0.3904    0.2619   -0.4451 C   0  0  2  0  0  0  0  0  0  0  0  0
    1.0749    0.7500   -0.5050 C   0  0  0  0  0  0  0  0  0  0  0  0
    1.6812    0.7231   -1.5662 O   0  0  0  0  0  0  0  0  0  0  0  0
   -1.1080    1.0386    0.6910 C   0  0  0  0  0  0  0  0  0  0  0  0
   -2.9192    0.7447    0.8188 S   0  0  0  0  0  0  0  0  0  0  0  0
    0.3034   -1.6053    0.3461 H   0  0  0  0  0  0  0  0  0  0  0  0
   -0.8671    0.5085   -1.4008 H   0  0  0  0  0  0  0  0  0  0  0  0
   -0.6603    0.7727    1.6535 H   0  0  0  0  0  0  0  0  0  0  0  0
   -0.9520    2.1117    0.5342 H   0  0  0  0  0  0  0  0  0  0  0  0
   -3.2578    1.5760    1.8276 H   0  0  0  0  0  0  0  0  0  0  0  0
    1.7616    1.1471    0.6296 N   0  0  0  0  0  0  0  0  0  0  0  0
    3.2015    1.4320    0.6821 C   0  0  2  0  0  0  0  0  0  0  0  0
    3.7831    1.0758    2.0670 C   0  0  0  0  0  0  0  0  0  0  0  0
    3.0277    0.7605    2.9811 O   0  0  0  0  0  0  0  0  0  0  0  0
    3.4124    2.9161    0.3660 C   0  0  0  0  0  0  0  0  0  0  0  0
    1.3024    1.0096    1.5295 H   0  0  0  0  0  0  0  0  0  0  0  0
    3.7302    0.8244   -0.0604 H   0  0  0  0  0  0  0  0  0  0  0  0
    2.9048    3.5413    1.1076 H   0  0  0  0  0  0  0  0  0  0  0  0
    4.4779    3.1638    0.3714 H   0  0  0  0  0  0  0  0  0  0  0  0
    3.0102    3.1540   -0.6240 H   0  0  0  0  0  0  0  0  0  0  0  0
    5.1483    1.0847    2.2857 N   0  0  0  0  0  0  0  0  0  0  0  0
    5.7562    0.7458    3.5671 C   0  0  0  0  0  0  0  0  0  0  0  0
    5.7500    1.3377    1.5071 H   0  0  0  0  0  0  0  0  0  0  0  0
    5.3908    1.4138    4.3543 H   0  0  0  0  0  0  0  0  0  0  0  0
    5.5185   -0.2870    3.8427 H   0  0  0  0  0  0  0  0  0  0  0  0
    6.8444    0.8460    3.5081 H   0  0  0  0  0  0  0  0  0  0  0  0
  1  2  2  0  0  0  0
  1  3  1  0  0  0  0
  1  7  1  0  0  0  0
  3  4  1  0  0  0  0
  3  5  1  0  0  0  0
  3  6  1  0  0  0  0
  7  8  1  0  0  0  0
  7 12  1  0  0  0  0
  8  9  1  0  0  0  0
  8 11  1  0  0  0  0
  8 13  1  0  0  0  0
  9 10  2  0  0  0  0
  9 17  1  0  0  0  0
 11 14  1  0  0  0  0
 11 15  1  0  0  0  0
 11 16  1  0  0  0  0
 17 18  1  0  0  0  0
 17 23  1  0  0  0  0
 18 19  1  0  0  0  0
 18 21  1  0  0  0  0
 18 24  1  0  0  0  0
 19 20  2  0  0  0  0
 19 28  1  0  0  0  0
 21 22  1  0  0  0  0
 21 25  1  0  0  0  0
 21 26  1  0  0  0  0
 22 27  1  0  0  0  0
 28 29  1  0  0  0  0
 28 33  1  0  0  0  0
 29 30  1  0  0  0  0
 29 32  1  0  0  0  0
 29 34  1  0  0  0  0
 30 31  2  0  0  0  0
 30 38  1  0  0  0  0
 32 35  1  0  0  0  0
 32 36  1  0  0  0  0
 32 37  1  0  0  0  0
 38 39  1  0  0  0  0
 38 40  1  0  0  0  0
 39 41  1  0  0  0  0
 39 42  1  0  0  0  0
 39 43  1  0  0  0  0
M  END
$$$$

  -OEChem-05262216003D

 43 42  0     1  0  0  0  0  0999 V2000
   -3.6064   -4.6116    1.2301 C   0  0  0  0  0  0  0  0  0  0  0  0
   -2.9784   -4.9523    2.2204 O   0  0  0  0  0  0  0  0  0  0  0  0
   -5.0898   -4.9120    1.1274 C   0  0  0  0  0  0  0  0  0  0  0  0
   -5.2835   -5.5382    0.2531 H   0  0  0  0  0  0  0  0  0  0  0  0
   -5.4316   -5.4404    2.0218 H   0  0  0  0  0  0  0  0  0  0  0  0
   -5.6528   -3.9802    1.0320 H   0  0  0  0  0  0  0  0  0  0  0  0
   -2.9726   -3.9428    0.2053 N   0  0  0  0  0  0  0  0  0  0  0  0
   -1.6063   -3.4114    0.2866 C   0  0  2  0  0  0  0  0  0  0  0  0
   -1.5046   -2.0302   -0.3931 C   0  0  0  0  0  0  0  0  0  0  0  0
   -2.3661   -1.6808   -1.1914 O   0  0  0  0  0  0  0  0  0  0  0  0
   -0.6620   -4.4165   -0.3781 C   0  0  0  0  0  0  0  0  0  0  0  0
   -3.5658   -3.5485   -0.5249 H   0  0  0  0  0  0  0  0  0  0  0  0
   -1.3160   -3.2803    1.3345 H   0  0  0  0  0  0  0  0  0  0  0  0
   -0.9291   -4.5533   -1.4310 H   0  0  0  0  0  0  0  0  0  0  0  0
    0.3735   -4.0676   -0.3242 H   0  0  0  0  0  0  0  0  0  0  0  0
   -0.7268   -5.3858    0.1266 H   0  0  0  0  0  0  0  0  0  0  0  0
   -0.3997   -1.2240   -0.1837 N   0  0  0  0  0  0  0  0  0  0  0  0
   -0.3804    0.2341   -0.4246 C   0  0  2  0  0  0  0  0  0  0  0  0
    1.0749    0.7465   -0.4626 C   0  0  0  0  0  0  0  0  0  0  0  0
    1.6089    1.0008   -1.5322 O   0  0  0  0  0  0  0  0  0  0  0  0
   -1.1165    1.0268    0.6861 C   0  0  0  0  0  0  0  0  0  0  0  0
   -2.9252    0.7107    0.7983 S   0  0  0  0  0  0  0  0  0  0  0  0
    0.2947   -1.6020    0.4547 H   0  0  0  0  0  0  0  0  0  0  0  0
   -0.8457    0.4553   -1.3926 H   0  0  0  0  0  0  0  0  0  0  0  0
   -0.6749    0.7905    1.6590 H   0  0  0  0  0  0  0  0  0  0  0  0
   -0.9710    2.0974    0.5056 H   0  0  0  0  0  0  0  0  0  0  0  0
   -3.2883    1.5629    1.7812 H   0  0  0  0  0  0  0  0  0  0  0  0
    1.8164    0.8852    0.6975 N   0  0  0  0  0  0  0  0  0  0  0  0
    3.2674    1.1127    0.7345 C   0  0  2  0  0  0  0  0  0  0  0  0
    3.9150    0.3182    1.8886 C   0  0  0  0  0  0  0  0  0  0  0  0
    3.2023   -0.2715    2.6952 O   0  0  0  0  0  0  0  0  0  0  0  0
    3.5164    2.6161    0.8892 C   0  0  0  0  0  0  0  0  0  0  0  0
    1.4060    0.5159    1.5543 H   0  0  0  0  0  0  0  0  0  0  0  0
    3.7296    0.7669   -0.1965 H   0  0  0  0  0  0  0  0  0  0  0  0
    3.0805    2.9844    1.8233 H   0  0  0  0  0  0  0  0  0  0  0  0
    4.5893    2.8303    0.8967 H   0  0  0  0  0  0  0  0  0  0  0  0
    3.0637    3.1612    0.0547 H   0  0  0  0  0  0  0  0  0  0  0  0
    5.2896    0.2397    2.0108 N   0  0  0  0  0  0  0  0  0  0  0  0
    5.9567   -0.4979    3.0768 C   0  0  0  0  0  0  0  0  0  0  0  0
    5.8546    0.7252    1.3198 H   0  0  0  0  0  0  0  0  0  0  0  0
    5.7063   -0.0694    4.0530 H   0  0  0  0  0  0  0  0  0  0  0  0
    5.6524   -1.5498    3.0648 H   0  0  0  0  0  0  0  0  0  0  0  0
    7.0423   -0.4525    2.9472 H   0  0  0  0  0  0  0  0  0  0  0  0
  1  2  2  0  0  0  0
  1  3  1  0  0  0  0
  1  7  1  0  0  0  0
  3  4  1  0  0  0  0
  3  5  1  0  0  0  0
  3  6  1  0  0  0  0
  7  8  1  0  0  0  0
  7 12  1  0  0  0  0
  8  9  1  0  0  0  0
  8 11  1  0  0  0  0
  8 13  1  0  0  0  0
  9 10  2  0  0  0  0
  9 17  1  0  0  0  0
 11 14  1  0  0  0  0
 11 15  1  0  0  0  0
 11 16  1  0  0  0  0
 17 18  1  0  0  0  0
 17 23  1  0  0  0  0
 18 19  1  0  0  0  0
 18 21  1  0  0  0  0
 18 24  1  0  0  0  0
 19 20  2  0  0  0  0
 19 28  1  0  0  0  0
 21 22  1  0  0  0  0
 21 25  1  0  0  0  0
 21 26  1  0  0  0  0
 22 27  1  0  0  0  0
 28 29  1  0  0  0  0
 28 33  1  0  0  0  0
 29 30  1  0  0  0  0
 29 32  1  0  0  0  0
 29 34  1  0  0  0  0
 30 31  2  0  0  0  0
 30 38  1  0  0  0  0
 32 35  1  0  0  0  0
 32 36  1  0  0  0  0
 32 37  1  0  0  0  0
 38 39  1  0  0  0  0
 38 40  1  0  0  0  0
 39 41  1  0  0  0  0
 39 42  1  0  0  0  0
 39 43  1  0  0  0  0
M  END
$$$$

  -OEChem-05262216003D

 43 42  0     1  0  0  0  0  0999 V2000
   -2.9429   -4.4169    1.6579 C   0  0  0  0  0  0  0  0  0  0  0  0
   -2.4453   -4.3684    2.7721 O   0  0  0  0  0  0  0  0  0  0  0  0
   -4.3455   -4.9667    1.4781 C   0  0  0  0  0  0  0  0  0  0  0  0
   -4.3206   -5.8489    0.8339 H   0  0  0  0  0  0  0  0  0  0  0  0
   -4.7668   -5.2487    2.4471 H   0  0  0  0  0  0  0  0  0  0  0  0
   -4.9876   -4.2090    1.0219 H   0  0  0  0  0  0  0  0  0  0  0  0
   -2.2438   -3.9649    0.5591 N   0  0  0  0  0  0  0  0  0  0  0  0
   -1.0003   -3.1863    0.6367 C   0  0  2  0  0  0  0  0  0  0  0  0
   -1.0791   -1.9282   -0.2521 C   0  0  0  0  0  0  0  0  0  0  0  0
   -1.8768   -1.8882   -1.1812 O   0  0  0  0  0  0  0  0  0  0  0  0
    0.1553   -4.0895    0.2001 C   0  0  0  0  0  0  0  0  0  0  0  0
   -2.7758   -3.8632   -0.3047 H   0  0  0  0  0  0  0  0  0  0  0  0
   -0.8201   -2.8489    1.6633 H   0  0  0  0  0  0  0  0  0  0  0  0
    0.0113   -4.4243   -0.8322 H   0  0  0  0  0  0  0  0  0  0  0  0
    1.1073   -3.5534    0.2639 H   0  0  0  0  0  0  0  0  0  0  0  0
    0.2103   -4.9689    0.8492 H   0  0  0  0  0  0  0  0  0  0  0  0
   -0.1789   -0.8982   -0.0661 N   0  0  0  0  0  0  0  0  0  0  0  0
   -0.2364    0.4420   -0.6857 C   0  0  2  0  0  0  0  0  0  0  0  0
    1.1400    1.1072   -0.5072 C   0  0  0  0  0  0  0  0  0  0  0  0
    1.9027    1.2178   -1.4566 O   0  0  0  0  0  0  0  0  0  0  0  0
   -1.2779    1.3829   -0.0324 C   0  0  0  0  0  0  0  0  0  0  0  0
   -3.0293    0.8560   -0.2194 S   0  0  0  0  0  0  0  0  0  0  0  0
    0.5820   -1.0926    0.5929 H   0  0  0  0  0  0  0  0  0  0  0  0
   -0.4501    0.3485   -1.7566 H   0  0  0  0  0  0  0  0  0  0  0  0
   -1.0677    1.4740    1.0372 H   0  0  0  0  0  0  0  0  0  0  0  0
   -1.1751    2.3782   -0.4777 H   0  0  0  0  0  0  0  0  0  0  0  0
   -3.6834    1.8707    0.3849 H   0  0  0  0  0  0  0  0  0  0  0  0
    1.6220    1.3107    0.7755 N   0  0  0  0  0  0  0  0  0  0  0  0
    3.0259    1.0056    1.0829 C   0  0  2  0  0  0  0  0  0  0  0  0
    3.2247   -0.5181    1.2619 C   0  0  0  0  0  0  0  0  0  0  0  0
    2.2550   -1.2347    1.5071 O   0  0  0  0  0  0  0  0  0  0  0  0
    3.4031    1.7548    2.3622 C   0  0  0  0  0  0  0  0  0  0  0  0
    0.9609    1.0377    1.4983 H   0  0  0  0  0  0  0  0  0  0  0  0
    3.6792    1.3502    0.2737 H   0  0  0  0  0  0  0  0  0  0  0  0
    2.7819    1.4229    3.2004 H   0  0  0  0  0  0  0  0  0  0  0  0
    4.4525    1.5749    2.6151 H   0  0  0  0  0  0  0  0  0  0  0  0
    3.2605    2.8314    2.2262 H   0  0  0  0  0  0  0  0  0  0  0  0
    4.4751   -1.0916    1.1326 N   0  0  0  0  0  0  0  0  0  0  0  0
    4.7030   -2.5302    1.2043 C   0  0  0  0  0  0  0  0  0  0  0  0
    5.2403   -0.4891    0.8421 H   0  0  0  0  0  0  0  0  0  0  0  0
    4.3811   -2.9213    2.1752 H   0  0  0  0  0  0  0  0  0  0  0  0
    4.1474   -3.0458    0.4138 H   0  0  0  0  0  0  0  0  0  0  0  0
    5.7673   -2.7526    1.0798 H   0  0  0  0  0  0  0  0  0  0  0  0
  1  2  2  0  0  0  0
  1  3  1  0  0  0  0
  1  7  1  0  0  0  0
  3  4  1  0  0  0  0
  3  5  1  0  0  0  0
  3  6  1  0  0  0  0
  7  8  1  0  0  0  0
  7 12  1  0  0  0  0
  8  9  1  0  0  0  0
  8 11  1  0  0  0  0
  8 13  1  0  0  0  0
  9 10  2  0  0  0  0
  9 17  1  0  0  0  0
 11 14  1  0  0  0  0
 11 15  1  0  0  0  0
 11 16  1  0  0  0  0
 17 18  1  0  0  0  0
 17 23  1  0  0  0  0
 18 19  1  0  0  0  0
 18 21  1  0  0  0  0
 18 24  1  0  0  0  0
 19 20  2  0  0  0  0
 19 28  1  0  0  0  0
 21 22  1  0  0  0  0
 21 25  1  0  0  0  0
 21 26  1  0  0  0  0
 22 27  1  0  0  0  0
 28 29  1  0  0  0  0
 28 33  1  0  0  0  0
 29 30  1  0  0  0  0
 29 32  1  0  0  0  0
 29 34  1  0  0  0  0
 30 31  2  0  0  0  0
 30 38  1  0  0  0  0
 32 35  1  0  0  0  0
 32 36  1  0  0  0  0
 32 37  1  0  0  0  0
 38 39  1  0  0  0  0
 38 40  1  0  0  0  0
 39 41  1  0  0  0  0
 39 42  1  0  0  0  0
 39 43  1  0  0  0  0
M  END
$$$$

  -OEChem-05262216003D

 43 42  0     1  0  0  0  0  0999 V2000
   -3.7209   -4.5868    1.2336 C   0  0  0  0  0  0  0  0  0  0  0  0
   -3.1300   -4.9251    2.2475 O   0  0  0  0  0  0  0  0  0  0  0  0
   -5.2071   -4.8572    1.0923 C   0  0  0  0  0  0  0  0  0  0  0  0
   -5.3861   -5.5144    0.2378 H   0  0  0  0  0  0  0  0  0  0  0  0
   -5.5906   -5.3402    1.9955 H   0  0  0  0  0  0  0  0  0  0  0  0
   -5.7447   -3.9180    0.9398 H   0  0  0  0  0  0  0  0  0  0  0  0
   -3.0412   -3.9519    0.2163 N   0  0  0  0  0  0  0  0  0  0  0  0
   -1.6610   -3.4636    0.3264 C   0  0  2  0  0  0  0  0  0  0  0  0
   -1.4947   -2.1002   -0.3751 C   0  0  0  0  0  0  0  0  0  0  0  0
   -2.3088   -1.7464   -1.2198 O   0  0  0  0  0  0  0  0  0  0  0  0
   -0.7289   -4.5114   -0.2878 C   0  0  0  0  0  0  0  0  0  0  0  0
   -3.6024   -3.5511   -0.5355 H   0  0  0  0  0  0  0  0  0  0  0  0
   -1.3977   -3.3203    1.3797 H   0  0  0  0  0  0  0  0  0  0  0  0
   -0.9683   -4.6633   -1.3453 H   0  0  0  0  0  0  0  0  0  0  0  0
    0.3150   -4.1930   -0.2086 H   0  0  0  0  0  0  0  0  0  0  0  0
   -0.8386   -5.4667    0.2358 H   0  0  0  0  0  0  0  0  0  0  0  0
   -0.3876   -1.3108   -0.1181 N   0  0  0  0  0  0  0  0  0  0  0  0
   -0.3240    0.1403   -0.4050 C   0  0  2  0  0  0  0  0  0  0  0  0
    1.1286    0.6525   -0.3697 C   0  0  0  0  0  0  0  0  0  0  0  0
    1.5472    1.3940   -1.2467 O   0  0  0  0  0  0  0  0  0  0  0  0
   -1.0709    0.9778    0.6598 C   0  0  0  0  0  0  0  0  0  0  0  0
   -2.8885    0.7013    0.7267 S   0  0  0  0  0  0  0  0  0  0  0  0
    0.2752   -1.6998    0.5458 H   0  0  0  0  0  0  0  0  0  0  0  0
   -0.7416    0.3452   -1.3976 H   0  0  0  0  0  0  0  0  0  0  0  0
   -0.6521    0.7662    1.6487 H   0  0  0  0  0  0  0  0  0  0  0  0
   -0.9012    2.0399    0.4495 H   0  0  0  0  0  0  0  0  0  0  0  0
   -3.2636    1.6251    1.6384 H   0  0  0  0  0  0  0  0  0  0  0  0
    1.9798    0.2736    0.6524 N   0  0  0  0  0  0  0  0  0  0  0  0
    3.4402    0.4107    0.6043 C   0  0  2  0  0  0  0  0  0  0  0  0
    4.1162   -0.8787    1.1174 C   0  0  0  0  0  0  0  0  0  0  0  0
    3.4336   -1.7489    1.6516 O   0  0  0  0  0  0  0  0  0  0  0  0
    3.8368    1.6198    1.4548 C   0  0  0  0  0  0  0  0  0  0  0  0
    1.6281   -0.4177    1.3113 H   0  0  0  0  0  0  0  0  0  0  0  0
    3.7755    0.5690   -0.4267 H   0  0  0  0  0  0  0  0  0  0  0  0
    3.5306    1.4744    2.4959 H   0  0  0  0  0  0  0  0  0  0  0  0
    4.9201    1.7707    1.4271 H   0  0  0  0  0  0  0  0  0  0  0  0
    3.3532    2.5242    1.0717 H   0  0  0  0  0  0  0  0  0  0  0  0
    5.4760   -1.0755    0.9659 N   0  0  0  0  0  0  0  0  0  0  0  0
    6.1656   -2.2742    1.4279 C   0  0  0  0  0  0  0  0  0  0  0  0
    6.0111   -0.3479    0.4999 H   0  0  0  0  0  0  0  0  0  0  0  0
    6.0803   -2.3687    2.5156 H   0  0  0  0  0  0  0  0  0  0  0  0
    5.7368   -3.1676    0.9618 H   0  0  0  0  0  0  0  0  0  0  0  0
    7.2273   -2.2253    1.1671 H   0  0  0  0  0  0  0  0  0  0  0  0
  1  2  2  0  0  0  0
  1  3  1  0  0  0  0
  1  7  1  0  0  0  0
  3  4  1  0  0  0  0
  3  5  1  0  0  0  0
  3  6  1  0  0  0  0
  7  8  1  0  0  0  0
  7 12  1  0  0  0  0
  8  9  1  0  0  0  0
  8 11  1  0  0  0  0
  8 13  1  0  0  0  0
  9 10  2  0  0  0  0
  9 17  1  0  0  0  0
 11 14  1  0  0  0  0
 11 15  1  0  0  0  0
 11 16  1  0  0  0  0
 17 18  1  0  0  0  0
 17 23  1  0  0  0  0
 18 19  1  0  0  0  0
 18 21  1  0  0  0  0
 18 24  1  0  0  0  0
 19 20  2  0  0  0  0
 19 28  1  0  0  0  0
 21 22  1  0  0  0  0
 21 25  1  0  0  0  0
 21 26  1  0  0  0  0
 22 27  1  0  0  0  0
 28 29  1  0  0  0  0
 28 33  1  0  0  0  0
 29 30  1  0  0  0  0
 29 32  1  0  0  0  0
 29 34  1  0  0  0  0
 30 31  2  0  0  0  0
 30 38  1  0  0  0  0
 32 35  1  0  0  0  0
 32 36  1  0  0  0  0
 32 37  1  0  0  0  0
 38 39  1  0  0  0  0
 38 40  1  0  0  0  0
 39 41  1  0  0  0  0
 39 42  1  0  0  0  0
 39 43  1  0  0  0  0
M  END
$$$$

  -OEChem-05262216003D

 43 42  0     1  0  0  0  0  0999 V2000
   -4.0029   -4.4871    1.1920 C   0  0  0  0  0  0  0  0  0  0  0  0
   -3.4938   -4.8124    2.2535 O   0  0  0  0  0  0  0  0  0  0  0  0
   -5.4902   -4.6870    0.9678 C   0  0  0  0  0  0  0  0  0  0  0  0
   -5.6552   -5.2984    0.0773 H   0  0  0  0  0  0  0  0  0  0  0  0
   -5.9369   -5.1918    1.8291 H   0  0  0  0  0  0  0  0  0  0  0  0
   -5.9802   -3.7195    0.8326 H   0  0  0  0  0  0  0  0  0  0  0  0
   -3.2290   -3.9282    0.1976 N   0  0  0  0  0  0  0  0  0  0  0  0
   -1.8335   -3.5092    0.3760 C   0  0  2  0  0  0  0  0  0  0  0  0
   -1.5381   -2.2027   -0.3886 C   0  0  0  0  0  0  0  0  0  0  0  0
   -2.2875   -1.8337   -1.2852 O   0  0  0  0  0  0  0  0  0  0  0  0
   -0.9240   -4.6416   -0.1087 C   0  0  0  0  0  0  0  0  0  0  0  0
   -3.7199   -3.5348   -0.6053 H   0  0  0  0  0  0  0  0  0  0  0  0
   -1.6356   -3.3165    1.4358 H   0  0  0  0  0  0  0  0  0  0  0  0
   -1.0986   -4.8452   -1.1702 H   0  0  0  0  0  0  0  0  0  0  0  0
    0.1289   -4.3758    0.0268 H   0  0  0  0  0  0  0  0  0  0  0  0
   -1.1243   -5.5557    0.4595 H   0  0  0  0  0  0  0  0  0  0  0  0
   -0.3868   -1.4827   -0.1221 N   0  0  0  0  0  0  0  0  0  0  0  0
   -0.2783   -0.0268   -0.3724 C   0  0  2  0  0  0  0  0  0  0  0  0
    1.1871    0.4558   -0.3562 C   0  0  0  0  0  0  0  0  0  0  0  0
    1.5091    1.4646   -0.9680 O   0  0  0  0  0  0  0  0  0  0  0  0
   -0.9834    0.7911    0.7348 C   0  0  0  0  0  0  0  0  0  0  0  0
   -2.8065    0.5550    0.8168 S   0  0  0  0  0  0  0  0  0  0  0  0
    0.1515   -1.8586    0.6511 H   0  0  0  0  0  0  0  0  0  0  0  0
   -0.7100    0.2208   -1.3492 H   0  0  0  0  0  0  0  0  0  0  0  0
   -0.5505    0.5354    1.7075 H   0  0  0  0  0  0  0  0  0  0  0  0
   -0.7931    1.8559    0.5584 H   0  0  0  0  0  0  0  0  0  0  0  0
   -3.1471    1.4547    1.7650 H   0  0  0  0  0  0  0  0  0  0  0  0
    2.1360   -0.1788    0.4248 N   0  0  0  0  0  0  0  0  0  0  0  0
    3.5789    0.0730    0.3403 C   0  0  2  0  0  0  0  0  0  0  0  0
    4.3597   -1.2483    0.5080 C   0  0  0  0  0  0  0  0  0  0  0  0
    3.7681   -2.2582    0.8798 O   0  0  0  0  0  0  0  0  0  0  0  0
    3.9620    1.0793    1.4287 C   0  0  0  0  0  0  0  0  0  0  0  0
    1.8843   -1.0916    0.7960 H   0  0  0  0  0  0  0  0  0  0  0  0
    3.8341    0.4857   -0.6418 H   0  0  0  0  0  0  0  0  0  0  0  0
    3.7266    0.6799    2.4205 H   0  0  0  0  0  0  0  0  0  0  0  0
    5.0324    1.3017    1.3872 H   0  0  0  0  0  0  0  0  0  0  0  0
    3.4106    2.0146    1.2890 H   0  0  0  0  0  0  0  0  0  0  0  0
    5.7095   -1.3175    0.2179 N   0  0  0  0  0  0  0  0  0  0  0  0
    6.4852   -2.5486    0.3141 C   0  0  0  0  0  0  0  0  0  0  0  0
    6.1627   -0.4762   -0.1277 H   0  0  0  0  0  0  0  0  0  0  0  0
    6.4391   -2.9528    1.3309 H   0  0  0  0  0  0  0  0  0  0  0  0
    6.0987   -3.3007   -0.3819 H   0  0  0  0  0  0  0  0  0  0  0  0
    7.5340   -2.3559    0.0682 H   0  0  0  0  0  0  0  0  0  0  0  0
  1  2  2  0  0  0  0
  1  3  1  0  0  0  0
  1  7  1  0  0  0  0
  3  4  1  0  0  0  0
  3  5  1  0  0  0  0
  3  6  1  0  0  0  0
  7  8  1  0  0  0  0
  7 12  1  0  0  0  0
  8  9  1  0  0  0  0
  8 11  1  0  0  0  0
  8 13  1  0  0  0  0
  9 10  2  0  0  0  0
  9 17  1  0  0  0  0
 11 14  1  0  0  0  0
 11 15  1  0  0  0  0
 11 16  1  0  0  0  0
 17 18  1  0  0  0  0
 17 23  1  0  0  0  0
 18 19  1  0  0  0  0
 18 21  1  0  0  0  0
 18 24  1  0  0  0  0
 19 20  2  0  0  0  0
 19 28  1  0  0  0  0
 21 22  1  0  0  0  0
 21 25  1  0  0  0  0
 21 26  1  0  0  0  0
 22 27  1  0  0  0  0
 28 29  1  0  0  0  0
 28 33  1  0  0  0  0
 29 30  1  0  0  0  0
 29 32  1  0  0  0  0
 29 34  1  0  0  0  0
 30 31  2  0  0  0  0
 30 38  1  0  0  0  0
 32 35  1  0  0  0  0
 32 36  1  0  0  0  0
 32 37  1  0  0  0  0
 38 39  1  0  0  0  0
 38 40  1  0  0  0  0
 39 41  1  0  0  0  0
 39 42  1  0  0  0  0
 39 43  1  0  0  0  0
M  END
$$$$

  -OEChem-05262216003D

 43 42  0     1  0  0  0  0  0999 V2000
   -4.0763   -4.4979    1.2323 C   0  0  0  0  0  0  0  0  0  0  0  0
   -3.4975   -4.9350    2.2150 O   0  0  0  0  0  0  0  0  0  0  0  0
   -5.5809   -4.6452    1.1055 C   0  0  0  0  0  0  0  0  0  0  0  0
   -5.8271   -5.2012    0.1975 H   0  0  0  0  0  0  0  0  0  0  0  0
   -5.9813   -5.1843    1.9686 H   0  0  0  0  0  0  0  0  0  0  0  0
   -6.0490   -3.6590    1.0588 H   0  0  0  0  0  0  0  0  0  0  0  0
   -3.3626   -3.8608    0.2400 N   0  0  0  0  0  0  0  0  0  0  0  0
   -1.9400   -3.5143    0.3394 C   0  0  2  0  0  0  0  0  0  0  0  0
   -1.6270   -2.2024   -0.4089 C   0  0  0  0  0  0  0  0  0  0  0  0
   -2.4025   -1.7801   -1.2586 O   0  0  0  0  0  0  0  0  0  0  0  0
   -1.1160   -4.6733   -0.2295 C   0  0  0  0  0  0  0  0  0  0  0  0
   -3.8948   -3.3939   -0.4944 H   0  0  0  0  0  0  0  0  0  0  0  0
   -1.6717   -3.3613    1.3900 H   0  0  0  0  0  0  0  0  0  0  0  0
   -1.3621   -4.8361   -1.2837 H   0  0  0  0  0  0  0  0  0  0  0  0
   -0.0453   -4.4614   -0.1501 H   0  0  0  0  0  0  0  0  0  0  0  0
   -1.3268   -5.5943    0.3236 H   0  0  0  0  0  0  0  0  0  0  0  0
   -0.4322   -1.5391   -0.1891 N   0  0  0  0  0  0  0  0  0  0  0  0
   -0.2838   -0.0803   -0.3996 C   0  0  2  0  0  0  0  0  0  0  0  0
    1.2013    0.3420   -0.4578 C   0  0  0  0  0  0  0  0  0  0  0  0
    1.5082    1.4821   -0.7793 O   0  0  0  0  0  0  0  0  0  0  0  0
   -0.8935    0.7156    0.7802 C   0  0  0  0  0  0  0  0  0  0  0  0
   -2.7157    0.5363    0.9671 S   0  0  0  0  0  0  0  0  0  0  0  0
    0.1088   -1.9388    0.5714 H   0  0  0  0  0  0  0  0  0  0  0  0
   -0.7622    0.2188   -1.3393 H   0  0  0  0  0  0  0  0  0  0  0  0
   -0.4092    0.4088    1.7128 H   0  0  0  0  0  0  0  0  0  0  0  0
   -0.6804    1.7807    0.6352 H   0  0  0  0  0  0  0  0  0  0  0  0
   -2.9634    1.4101    1.9670 H   0  0  0  0  0  0  0  0  0  0  0  0
    2.1975   -0.5132   -0.0230 N   0  0  0  0  0  0  0  0  0  0  0  0
    3.6352   -0.2266   -0.0961 C   0  0  2  0  0  0  0  0  0  0  0  0
    4.4418   -1.5371   -0.2213 C   0  0  0  0  0  0  0  0  0  0  0  0
    3.8736   -2.6162   -0.0808 O   0  0  0  0  0  0  0  0  0  0  0  0
    4.0460    0.5470    1.1614 C   0  0  0  0  0  0  0  0  0  0  0  0
    1.9540   -1.5006    0.0355 H   0  0  0  0  0  0  0  0  0  0  0  0
    3.8487    0.3799   -0.9829 H   0  0  0  0  0  0  0  0  0  0  0  0
    3.8457   -0.0466    2.0590 H   0  0  0  0  0  0  0  0  0  0  0  0
    5.1124    0.7891    1.1332 H   0  0  0  0  0  0  0  0  0  0  0  0
    3.4843    1.4838    1.2317 H   0  0  0  0  0  0  0  0  0  0  0  0
    5.7947   -1.5134   -0.5051 N   0  0  0  0  0  0  0  0  0  0  0  0
    6.6045   -2.7189   -0.6384 C   0  0  0  0  0  0  0  0  0  0  0  0
    6.2364   -0.6069   -0.6300 H   0  0  0  0  0  0  0  0  0  0  0  0
    6.6044   -3.2860    0.2985 H   0  0  0  0  0  0  0  0  0  0  0  0
    6.2128   -3.3577   -1.4372 H   0  0  0  0  0  0  0  0  0  0  0  0
    7.6384   -2.4563   -0.8827 H   0  0  0  0  0  0  0  0  0  0  0  0
  1  2  2  0  0  0  0
  1  3  1  0  0  0  0
  1  7  1  0  0  0  0
  3  4  1  0  0  0  0
  3  5  1  0  0  0  0
  3  6  1  0  0  0  0
  7  8  1  0  0  0  0
  7 12  1  0  0  0  0
  8  9  1  0  0  0  0
  8 11  1  0  0  0  0
  8 13  1  0  0  0  0
  9 10  2  0  0  0  0
  9 17  1  0  0  0  0
 11 14  1  0  0  0  0
 11 15  1  0  0  0  0
 11 16  1  0  0  0  0
 17 18  1  0  0  0  0
 17 23  1  0  0  0  0
 18 19  1  0  0  0  0
 18 21  1  0  0  0  0
 18 24  1  0  0  0  0
 19 20  2  0  0  0  0
 19 28  1  0  0  0  0
 21 22  1  0  0  0  0
 21 25  1  0  0  0  0
 21 26  1  0  0  0  0
 22 27  1  0  0  0  0
 28 29  1  0  0  0  0
 28 33  1  0  0  0  0
 29 30  1  0  0  0  0
 29 32  1  0  0  0  0
 29 34  1  0  0  0  0
 30 31  2  0  0  0  0
 30 38  1  0  0  0  0
 32 35  1  0  0  0  0
 32 36  1  0  0  0  0
 32 37  1  0  0  0  0
 38 39  1  0  0  0  0
 38 40  1  0  0  0  0
 39 41  1  0  0  0  0
 39 42  1  0  0  0  0
 39 43  1  0  0  0  0
M  END
$$$$

  -OEChem-05262216003D

 43 42  0     1  0  0  0  0  0999 V2000
   -4.1097   -4.4438    1.3008 C   0  0  0  0  0  0  0  0  0  0  0  0
   -3.5491   -4.8449    2.3091 O   0  0  0  0  0  0  0  0  0  0  0  0
   -5.6159   -4.5637    1.1661 C   0  0  0  0  0  0  0  0  0  0  0  0
   -5.8663   -5.1488    0.2777 H   0  0  0  0  0  0  0  0  0  0  0  0
   -6.0343   -5.0613    2.0455 H   0  0  0  0  0  0  0  0  0  0  0  0
   -6.0621   -3.5702    1.0774 H   0  0  0  0  0  0  0  0  0  0  0  0
   -3.3751   -3.8704    0.2855 N   0  0  0  0  0  0  0  0  0  0  0  0
   -1.9491   -3.5382    0.3843 C   0  0  2  0  0  0  0  0  0  0  0  0
   -1.6199   -2.2524   -0.4016 C   0  0  0  0  0  0  0  0  0  0  0  0
   -2.3914   -1.8440   -1.2617 O   0  0  0  0  0  0  0  0  0  0  0  0
   -1.1380   -4.7249   -0.1442 C   0  0  0  0  0  0  0  0  0  0  0  0
   -3.8940   -3.4213   -0.4693 H   0  0  0  0  0  0  0  0  0  0  0  0
   -1.6851   -3.3564    1.4315 H   0  0  0  0  0  0  0  0  0  0  0  0
   -1.3864   -4.9219   -1.1921 H   0  0  0  0  0  0  0  0  0  0  0  0
   -0.0649   -4.5230   -0.0715 H   0  0  0  0  0  0  0  0  0  0  0  0
   -1.3597   -5.6235    0.4406 H   0  0  0  0  0  0  0  0  0  0  0  0
   -0.4240   -1.5867   -0.1972 N   0  0  0  0  0  0  0  0  0  0  0  0
   -0.2854   -0.1274   -0.4122 C   0  0  2  0  0  0  0  0  0  0  0  0
    1.2013    0.2910   -0.4886 C   0  0  0  0  0  0  0  0  0  0  0  0
    1.5207    1.4688   -0.5854 O   0  0  0  0  0  0  0  0  0  0  0  0
   -0.8974    0.6609    0.7739 C   0  0  0  0  0  0  0  0  0  0  0  0
   -2.7172    0.4658    0.9693 S   0  0  0  0  0  0  0  0  0  0  0  0
    0.1266   -1.9765    0.5625 H   0  0  0  0  0  0  0  0  0  0  0  0
   -0.7725    0.1689   -1.3479 H   0  0  0  0  0  0  0  0  0  0  0  0
   -0.4053    0.3571    1.7034 H   0  0  0  0  0  0  0  0  0  0  0  0
   -0.6974    1.7287    0.6326 H   0  0  0  0  0  0  0  0  0  0  0  0
   -2.9657    1.3289    1.9780 H   0  0  0  0  0  0  0  0  0  0  0  0
    2.2016   -0.6549   -0.3614 N   0  0  0  0  0  0  0  0  0  0  0  0
    3.6360   -0.3780   -0.5059 C   0  0  2  0  0  0  0  0  0  0  0  0
    4.3911   -1.6349   -0.9874 C   0  0  0  0  0  0  0  0  0  0  0  0
    3.8222   -2.7222   -0.9948 O   0  0  0  0  0  0  0  0  0  0  0  0
    4.1852    0.0939    0.8448 C   0  0  0  0  0  0  0  0  0  0  0  0
    1.9224   -1.6263   -0.4990 H   0  0  0  0  0  0  0  0  0  0  0  0
    3.7874    0.4072   -1.2547 H   0  0  0  0  0  0  0  0  0  0  0  0
    4.0545   -0.6842    1.6038 H   0  0  0  0  0  0  0  0  0  0  0  0
    5.2509    0.3287    0.7663 H   0  0  0  0  0  0  0  0  0  0  0  0
    3.6596    0.9953    1.1756 H   0  0  0  0  0  0  0  0  0  0  0  0
    5.7012   -1.5497   -1.4200 N   0  0  0  0  0  0  0  0  0  0  0  0
    6.4631   -2.6996   -1.8924 C   0  0  0  0  0  0  0  0  0  0  0  0
    6.1400   -0.6333   -1.4214 H   0  0  0  0  0  0  0  0  0  0  0  0
    6.5142   -3.4703   -1.1160 H   0  0  0  0  0  0  0  0  0  0  0  0
    5.9957   -3.1290   -2.7849 H   0  0  0  0  0  0  0  0  0  0  0  0
    7.4840   -2.3991   -2.1473 H   0  0  0  0  0  0  0  0  0  0  0  0
  1  2  2  0  0  0  0
  1  3  1  0  0  0  0
  1  7  1  0  0  0  0
  3  4  1  0  0  0  0
  3  5  1  0  0  0  0
  3  6  1  0  0  0  0
  7  8  1  0  0  0  0
  7 12  1  0  0  0  0
  8  9  1  0  0  0  0
  8 11  1  0  0  0  0
  8 13  1  0  0  0  0
  9 10  2  0  0  0  0
  9 17  1  0  0  0  0
 11 14  1  0  0  0  0
 11 15  1  0  0  0  0
 11 16  1  0  0  0  0
 17 18  1  0  0  0  0
 17 23  1  0  0  0  0
 18 19  1  0  0  0  0
 18 21  1  0  0  0  0
 18 24  1  0  0  0  0
 19 20  2  0  0  0  0
 19 28  1  0  0  0  0
 21 22  1  0  0  0  0
 21 25  1  0  0  0  0
 21 26  1  0  0  0  0
 22 27  1  0  0  0  0
 28 29  1  0  0  0  0
 28 33  1  0  0  0  0
 29 30  1  0  0  0  0
 29 32  1  0  0  0  0
 29 34  1  0  0  0  0
 30 31  2  0  0  0  0
 30 38  1  0  0  0  0
 32 35  1  0  0  0  0
 32 36  1  0  0  0  0
 32 37  1  0  0  0  0
 38 39  1  0  0  0  0
 38 40  1  0  0  0  0
 39 41  1  0  0  0  0
 39 42  1  0  0  0  0
 39 43  1  0  0  0  0
M  END
$$$$

  -OEChem-05262216003D

 43 42  0     1  0  0  0  0  0999 V2000
   -4.0549   -4.4646    1.3657 C   0  0  0  0  0  0  0  0  0  0  0  0
   -3.4758   -4.8579    2.3665 O   0  0  0  0  0  0  0  0  0  0  0  0
   -5.5602   -4.6142    1.2464 C   0  0  0  0  0  0  0  0  0  0  0  0
   -5.8067   -5.2152    0.3678 H   0  0  0  0  0  0  0  0  0  0  0  0
   -5.9625   -5.1088    2.1349 H   0  0  0  0  0  0  0  0  0  0  0  0
   -6.0264   -3.6307    1.1487 H   0  0  0  0  0  0  0  0  0  0  0  0
   -3.3413   -3.8791    0.3422 N   0  0  0  0  0  0  0  0  0  0  0  0
   -1.9166   -3.5332    0.4163 C   0  0  2  0  0  0  0  0  0  0  0  0
   -1.6134   -2.2466   -0.3783 C   0  0  0  0  0  0  0  0  0  0  0  0
   -2.3955   -1.8566   -1.2376 O   0  0  0  0  0  0  0  0  0  0  0  0
   -1.1039   -4.7121   -0.1272 C   0  0  0  0  0  0  0  0  0  0  0  0
   -3.8756   -3.4446   -0.4103 H   0  0  0  0  0  0  0  0  0  0  0  0
   -1.6345   -3.3468    1.4582 H   0  0  0  0  0  0  0  0  0  0  0  0
   -1.3710   -4.9121   -1.1699 H   0  0  0  0  0  0  0  0  0  0  0  0
   -0.0318   -4.4993   -0.0771 H   0  0  0  0  0  0  0  0  0  0  0  0
   -1.3046   -5.6121    0.4626 H   0  0  0  0  0  0  0  0  0  0  0  0
   -0.4215   -1.5679   -0.1966 N   0  0  0  0  0  0  0  0  0  0  0  0
   -0.2908   -0.1120   -0.4335 C   0  0  2  0  0  0  0  0  0  0  0  0
    1.2017    0.2881   -0.5263 C   0  0  0  0  0  0  0  0  0  0  0  0
    1.5657    1.4514   -0.4102 O   0  0  0  0  0  0  0  0  0  0  0  0
   -0.9103    0.6898    0.7415 C   0  0  0  0  0  0  0  0  0  0  0  0
   -2.7294    0.4887    0.9411 S   0  0  0  0  0  0  0  0  0  0  0  0
    0.1562   -1.9497    0.5474 H   0  0  0  0  0  0  0  0  0  0  0  0
   -0.7792    0.1677   -1.3733 H   0  0  0  0  0  0  0  0  0  0  0  0
   -0.4163    0.4025    1.6750 H   0  0  0  0  0  0  0  0  0  0  0  0
   -0.7199    1.7573    0.5851 H   0  0  0  0  0  0  0  0  0  0  0  0
   -2.9788    1.3620    1.9412 H   0  0  0  0  0  0  0  0  0  0  0  0
    2.1653   -0.6876   -0.7024 N   0  0  0  0  0  0  0  0  0  0  0  0
    3.5929   -0.4289   -0.9263 C   0  0  2  0  0  0  0  0  0  0  0  0
    4.2411   -1.5794   -1.7255 C   0  0  0  0  0  0  0  0  0  0  0  0
    3.6354   -2.6360   -1.8733 O   0  0  0  0  0  0  0  0  0  0  0  0
    4.2825   -0.2632    0.4324 C   0  0  0  0  0  0  0  0  0  0  0  0
    1.8282   -1.6094   -0.9835 H   0  0  0  0  0  0  0  0  0  0  0  0
    3.7138    0.4897   -1.5106 H   0  0  0  0  0  0  0  0  0  0  0  0
    4.1751   -1.1748    1.0290 H   0  0  0  0  0  0  0  0  0  0  0  0
    5.3489   -0.0565    0.3008 H   0  0  0  0  0  0  0  0  0  0  0  0
    3.8380    0.5700    0.9861 H   0  0  0  0  0  0  0  0  0  0  0  0
    5.4935   -1.4292   -2.2914 N   0  0  0  0  0  0  0  0  0  0  0  0
    6.1441   -2.4695   -3.0791 C   0  0  0  0  0  0  0  0  0  0  0  0
    5.9598   -0.5340   -2.1762 H   0  0  0  0  0  0  0  0  0  0  0  0
    6.2542   -3.3855   -2.4892 H   0  0  0  0  0  0  0  0  0  0  0  0
    5.5560   -2.6956   -3.9747 H   0  0  0  0  0  0  0  0  0  0  0  0
    7.1394   -2.1404   -3.3921 H   0  0  0  0  0  0  0  0  0  0  0  0
  1  2  2  0  0  0  0
  1  3  1  0  0  0  0
  1  7  1  0  0  0  0
  3  4  1  0  0  0  0
  3  5  1  0  0  0  0
  3  6  1  0  0  0  0
  7  8  1  0  0  0  0
  7 12  1  0  0  0  0
  8  9  1  0  0  0  0
  8 11  1  0  0  0  0
  8 13  1  0  0  0  0
  9 10  2  0  0  0  0
  9 17  1  0  0  0  0
 11 14  1  0  0  0  0
 11 15  1  0  0  0  0
 11 16  1  0  0  0  0
 17 18  1  0  0  0  0
 17 23  1  0  0  0  0
 18 19  1  0  0  0  0
 18 21  1  0  0  0  0
 18 24  1  0  0  0  0
 19 20  2  0  0  0  0
 19 28  1  0  0  0  0
 21 22  1  0  0  0  0
 21 25  1  0  0  0  0
 21 26  1  0  0  0  0
 22 27  1  0  0  0  0
 28 29  1  0  0  0  0
 28 33  1  0  0  0  0
 29 30  1  0  0  0  0
 29 32  1  0  0  0  0
 29 34  1  0  0  0  0
 30 31  2  0  0  0  0
 30 38  1  0  0  0  0
 32 35  1  0  0  0  0
 32 36  1  0  0  0  0
 32 37  1  0  0  0  0
 38 39  1  0  0  0  0
 38 40  1  0  0  0  0
 39 41  1  0  0  0  0
 39 42  1  0  0  0  0
 39 43  1  0  0  0  0
M  END
$$$$

  -OEChem-05262216003D

 43 42  0     1  0  0  0  0  0999 V2000
   -3.9800   -4.5106    1.4125 C   0  0  0  0  0  0  0  0  0  0  0  0
   -3.3717   -4.9072    2.3946 O   0  0  0  0  0  0  0  0  0  0  0  0
   -5.4826   -4.6962    1.3183 C   0  0  0  0  0  0  0  0  0  0  0  0
   -5.7279   -5.3105    0.4484 H   0  0  0  0  0  0  0  0  0  0  0  0
   -5.8587   -5.1922    2.2174 H   0  0  0  0  0  0  0  0  0  0  0  0
   -5.9731   -3.7245    1.2199 H   0  0  0  0  0  0  0  0  0  0  0  0
   -3.3018   -3.8908    0.3852 N   0  0  0  0  0  0  0  0  0  0  0  0
   -1.8825   -3.5208    0.4340 C   0  0  2  0  0  0  0  0  0  0  0  0
   -1.6154   -2.2259   -0.3601 C   0  0  0  0  0  0  0  0  0  0  0  0
   -2.4195   -1.8444   -1.2024 O   0  0  0  0  0  0  0  0  0  0  0  0
   -1.0590   -4.6824   -0.1303 C   0  0  0  0  0  0  0  0  0  0  0  0
   -3.8606   -3.4552   -0.3487 H   0  0  0  0  0  0  0  0  0  0  0  0
   -1.5852   -3.3356    1.4718 H   0  0  0  0  0  0  0  0  0  0  0  0
   -1.3386   -4.8797   -1.1702 H   0  0  0  0  0  0  0  0  0  0  0  0
    0.0093   -4.4500   -0.0955 H   0  0  0  0  0  0  0  0  0  0  0  0
   -1.2336   -5.5906    0.4555 H   0  0  0  0  0  0  0  0  0  0  0  0
   -0.4257   -1.5374   -0.2057 N   0  0  0  0  0  0  0  0  0  0  0  0
   -0.2963   -0.0858   -0.4615 C   0  0  2  0  0  0  0  0  0  0  0  0
    1.2019    0.2890   -0.5754 C   0  0  0  0  0  0  0  0  0  0  0  0
    1.6326    1.3839   -0.2351 O   0  0  0  0  0  0  0  0  0  0  0  0
   -0.9142    0.7385    0.6994 C   0  0  0  0  0  0  0  0  0  0  0  0
   -2.7337    0.5455    0.9035 S   0  0  0  0  0  0  0  0  0  0  0  0
    0.1827   -1.9191    0.5135 H   0  0  0  0  0  0  0  0  0  0  0  0
   -0.7887    0.1811   -1.4030 H   0  0  0  0  0  0  0  0  0  0  0  0
   -0.4195    0.4673    1.6376 H   0  0  0  0  0  0  0  0  0  0  0  0
   -0.7214    1.8021    0.5222 H   0  0  0  0  0  0  0  0  0  0  0  0
   -2.9829    1.4359    1.8886 H   0  0  0  0  0  0  0  0  0  0  0  0
    2.0990   -0.6472   -1.0543 N   0  0  0  0  0  0  0  0  0  0  0  0
    3.5178   -0.3910   -1.3326 C   0  0  2  0  0  0  0  0  0  0  0  0
    4.0526   -1.3487   -2.4187 C   0  0  0  0  0  0  0  0  0  0  0  0
    3.4088   -2.3462   -2.7268 O   0  0  0  0  0  0  0  0  0  0  0  0
    4.3155   -0.5566   -0.0344 C   0  0  0  0  0  0  0  0  0  0  0  0
    1.7006   -1.4943   -1.4631 H   0  0  0  0  0  0  0  0  0  0  0  0
    3.6394    0.6318   -1.7053 H   0  0  0  0  0  0  0  0  0  0  0  0
    4.2043   -1.5730    0.3563 H   0  0  0  0  0  0  0  0  0  0  0  0
    5.3782   -0.3656   -0.2102 H   0  0  0  0  0  0  0  0  0  0  0  0
    3.9616    0.1489    0.7239 H   0  0  0  0  0  0  0  0  0  0  0  0
    5.2465   -1.0854   -3.0644 N   0  0  0  0  0  0  0  0  0  0  0  0
    5.7803   -1.9234   -4.1319 C   0  0  0  0  0  0  0  0  0  0  0  0
    5.7417   -0.2349   -2.8124 H   0  0  0  0  0  0  0  0  0  0  0  0
    5.9273   -2.9495   -3.7780 H   0  0  0  0  0  0  0  0  0  0  0  0
    5.0945   -1.9394   -4.9859 H   0  0  0  0  0  0  0  0  0  0  0  0
    6.7454   -1.5350   -4.4710 H   0  0  0  0  0  0  0  0  0  0  0  0
  1  2  2  0  0  0  0
  1  3  1  0  0  0  0
  1  7  1  0  0  0  0
  3  4  1  0  0  0  0
  3  5  1  0  0  0  0
  3  6  1  0  0  0  0
  7  8  1  0  0  0  0
  7 12  1  0  0  0  0
  8  9  1  0  0  0  0
  8 11  1  0  0  0  0
  8 13  1  0  0  0  0
  9 10  2  0  0  0  0
  9 17  1  0  0  0  0
 11 14  1  0  0  0  0
 11 15  1  0  0  0  0
 11 16  1  0  0  0  0
 17 18  1  0  0  0  0
 17 23  1  0  0  0  0
 18 19  1  0  0  0  0
 18 21  1  0  0  0  0
 18 24  1  0  0  0  0
 19 20  2  0  0  0  0
 19 28  1  0  0  0  0
 21 22  1  0  0  0  0
 21 25  1  0  0  0  0
 21 26  1  0  0  0  0
 22 27  1  0  0  0  0
 28 29  1  0  0  0  0
 28 33  1  0  0  0  0
 29 30  1  0  0  0  0
 29 32  1  0  0  0  0
 29 34  1  0  0  0  0
 30 31  2  0  0  0  0
 30 38  1  0  0  0  0
 32 35  1  0  0  0  0
 32 36  1  0  0  0  0
 32 37  1  0  0  0  0
 38 39  1  0  0  0  0
 38 40  1  0  0  0  0
 39 41  1  0  0  0  0
 39 42  1  0  0  0  0
 39 43  1  0  0  0  0
M  END
$$$$

  -OEChem-05262216003D

 43 42  0     1  0  0  0  0  0999 V2000
   -3.9148   -4.5628    1.4448 C   0  0  0  0  0  0  0  0  0  0  0  0
   -3.2804   -4.9729    2.4046 O   0  0  0  0  0  0  0  0  0  0  0  0
   -5.4152   -4.7754    1.3738 C   0  0  0  0  0  0  0  0  0  0  0  0
   -5.6652   -5.3796    0.4984 H   0  0  0  0  0  0  0  0  0  0  0  0
   -5.7657   -5.2922    2.2715 H   0  0  0  0  0  0  0  0  0  0  0  0
   -5.9252   -3.8119    1.2998 H   0  0  0  0  0  0  0  0  0  0  0  0
   -3.2677   -3.9004    0.4240 N   0  0  0  0  0  0  0  0  0  0  0  0
   -1.8541   -3.5069    0.4549 C   0  0  2  0  0  0  0  0  0  0  0  0
   -1.6155   -2.2104   -0.3464 C   0  0  0  0  0  0  0  0  0  0  0  0
   -2.4410   -1.8384   -1.1723 O   0  0  0  0  0  0  0  0  0  0  0  0
   -1.0190   -4.6575   -0.1154 C   0  0  0  0  0  0  0  0  0  0  0  0
   -3.8459   -3.4658   -0.2953 H   0  0  0  0  0  0  0  0  0  0  0  0
   -1.5495   -3.3133    1.4890 H   0  0  0  0  0  0  0  0  0  0  0  0
   -1.3105   -4.8635   -1.1504 H   0  0  0  0  0  0  0  0  0  0  0  0
    0.0461   -4.4091   -0.0958 H   0  0  0  0  0  0  0  0  0  0  0  0
   -1.1710   -5.5655    0.4768 H   0  0  0  0  0  0  0  0  0  0  0  0
   -0.4267   -1.5134   -0.2246 N   0  0  0  0  0  0  0  0  0  0  0  0
   -0.3076   -0.0656   -0.4992 C   0  0  2  0  0  0  0  0  0  0  0  0
    1.1898    0.3003   -0.6452 C   0  0  0  0  0  0  0  0  0  0  0  0
    1.6934    1.2665   -0.0845 O   0  0  0  0  0  0  0  0  0  0  0  0
   -0.9116    0.7770    0.6559 C   0  0  0  0  0  0  0  0  0  0  0  0
   -2.7271    0.5858    0.8890 S   0  0  0  0  0  0  0  0  0  0  0  0
    0.2069   -1.8886    0.4760 H   0  0  0  0  0  0  0  0  0  0  0  0
   -0.8159    0.1857   -1.4365 H   0  0  0  0  0  0  0  0  0  0  0  0
   -0.4051    0.5207    1.5921 H   0  0  0  0  0  0  0  0  0  0  0  0
   -0.7190    1.8371    0.4580 H   0  0  0  0  0  0  0  0  0  0  0  0
   -2.9531    1.4640    1.8900 H   0  0  0  0  0  0  0  0  0  0  0  0
    2.0065   -0.5132   -1.4074 N   0  0  0  0  0  0  0  0  0  0  0  0
    3.4145   -0.2387   -1.7238 C   0  0  2  0  0  0  0  0  0  0  0  0
    3.8291   -0.8969   -3.0574 C   0  0  0  0  0  0  0  0  0  0  0  0
    3.1071   -1.7424   -3.5742 O   0  0  0  0  0  0  0  0  0  0  0  0
    4.2874   -0.7592   -0.5769 C   0  0  0  0  0  0  0  0  0  0  0  0
    1.5491   -1.2474   -1.9510 H   0  0  0  0  0  0  0  0  0  0  0  0
    3.5619    0.8414   -1.8302 H   0  0  0  0  0  0  0  0  0  0  0  0
    4.1479   -1.8373   -0.4489 H   0  0  0  0  0  0  0  0  0  0  0  0
    5.3448   -0.5663   -0.7805 H   0  0  0  0  0  0  0  0  0  0  0  0
    4.0226   -0.2592    0.3599 H   0  0  0  0  0  0  0  0  0  0  0  0
    5.0084   -0.5376   -3.6838 N   0  0  0  0  0  0  0  0  0  0  0  0
    5.4421   -1.1011   -4.9568 C   0  0  0  0  0  0  0  0  0  0  0  0
    5.5729    0.1861   -3.2486 H   0  0  0  0  0  0  0  0  0  0  0  0
    5.4875   -2.1938   -4.8980 H   0  0  0  0  0  0  0  0  0  0  0  0
    4.7488   -0.8194   -5.7562 H   0  0  0  0  0  0  0  0  0  0  0  0
    6.4384   -0.7296   -5.2153 H   0  0  0  0  0  0  0  0  0  0  0  0
  1  2  2  0  0  0  0
  1  3  1  0  0  0  0
  1  7  1  0  0  0  0
  3  4  1  0  0  0  0
  3  5  1  0  0  0  0
  3  6  1  0  0  0  0
  7  8  1  0  0  0  0
  7 12  1  0  0  0  0
  8  9  1  0  0  0  0
  8 11  1  0  0  0  0
  8 13  1  0  0  0  0
  9 10  2  0  0  0  0
  9 17  1  0  0  0  0
 11 14  1  0  0  0  0
 11 15  1  0  0  0  0
 11 16  1  0  0  0  0
 17 18  1  0  0  0  0
 17 23  1  0  0  0  0
 18 19  1  0  0  0  0
 18 21  1  0  0  0  0
 18 24  1  0  0  0  0
 19 20  2  0  0  0  0
 19 28  1  0  0  0  0
 21 22  1  0  0  0  0
 21 25  1  0  0  0  0
 21 26  1  0  0  0  0
 22 27  1  0  0  0  0
 28 29  1  0  0  0  0
 28 33  1  0  0  0  0
 29 30  1  0  0  0  0
 29 32  1  0  0  0  0
 29 34  1  0  0  0  0
 30 31  2  0  0  0  0
 30 38  1  0  0  0  0
 32 35  1  0  0  0  0
 32 36  1  0  0  0  0
 32 37  1  0  0  0  0
 38 39  1  0  0  0  0
 38 40  1  0  0  0  0
 39 41  1  0  0  0  0
 39 42  1  0  0  0  0
 39 43  1  0  0  0  0
M  END
$$$$

  -OEChem-05262216003D

 43 42  0     1  0  0  0  0  0999 V2000
   -3.8953   -4.5513    1.4869 C   0  0  0  0  0  0  0  0  0  0  0  0
   -3.2720   -4.9203    2.4703 O   0  0  0  0  0  0  0  0  0  0  0  0
   -5.3950   -4.7663    1.4085 C   0  0  0  0  0  0  0  0  0  0  0  0
   -5.6335   -5.4286    0.5727 H   0  0  0  0  0  0  0  0  0  0  0  0
   -5.7604   -5.2198    2.3340 H   0  0  0  0  0  0  0  0  0  0  0  0
   -5.9014   -3.8093    1.2621 H   0  0  0  0  0  0  0  0  0  0  0  0
   -3.2376   -3.9293    0.4477 N   0  0  0  0  0  0  0  0  0  0  0  0
   -1.8287   -3.5183    0.4860 C   0  0  2  0  0  0  0  0  0  0  0  0
   -1.5942   -2.2432   -0.3507 C   0  0  0  0  0  0  0  0  0  0  0  0
   -2.4215   -1.8950   -1.1853 O   0  0  0  0  0  0  0  0  0  0  0  0
   -0.9733   -4.6773   -0.0353 C   0  0  0  0  0  0  0  0  0  0  0  0
   -3.8100   -3.5226   -0.2924 H   0  0  0  0  0  0  0  0  0  0  0  0
   -1.5393   -3.2890    1.5173 H   0  0  0  0  0  0  0  0  0  0  0  0
   -1.2433   -4.9163   -1.0689 H   0  0  0  0  0  0  0  0  0  0  0  0
    0.0892   -4.4185   -0.0032 H   0  0  0  0  0  0  0  0  0  0  0  0
   -1.1292   -5.5691    0.5803 H   0  0  0  0  0  0  0  0  0  0  0  0
   -0.4083   -1.5386   -0.2482 N   0  0  0  0  0  0  0  0  0  0  0  0
   -0.2941   -0.0987   -0.5565 C   0  0  2  0  0  0  0  0  0  0  0  0
    1.2014    0.2632   -0.7126 C   0  0  0  0  0  0  0  0  0  0  0  0
    1.7707    1.0530    0.0318 O   0  0  0  0  0  0  0  0  0  0  0  0
   -0.9050    0.7763    0.5703 C   0  0  0  0  0  0  0  0  0  0  0  0
   -2.7217    0.5894    0.7990 S   0  0  0  0  0  0  0  0  0  0  0  0
    0.2305   -1.8946    0.4579 H   0  0  0  0  0  0  0  0  0  0  0  0
   -0.8028    0.1275   -1.4999 H   0  0  0  0  0  0  0  0  0  0  0  0
   -0.4065    0.5441    1.5172 H   0  0  0  0  0  0  0  0  0  0  0  0
   -0.7056    1.8295    0.3450 H   0  0  0  0  0  0  0  0  0  0  0  0
   -2.9522    1.4836    1.7850 H   0  0  0  0  0  0  0  0  0  0  0  0
    1.9441   -0.3695   -1.6907 N   0  0  0  0  0  0  0  0  0  0  0  0
    3.3381   -0.0501   -2.0265 C   0  0  2  0  0  0  0  0  0  0  0  0
    3.6287   -0.2958   -3.5223 C   0  0  0  0  0  0  0  0  0  0  0  0
    2.8499   -0.9600   -4.1969 O   0  0  0  0  0  0  0  0  0  0  0  0
    4.2570   -0.9082   -1.1512 C   0  0  0  0  0  0  0  0  0  0  0  0
    1.4352   -0.9559   -2.3544 H   0  0  0  0  0  0  0  0  0  0  0  0
    3.5325    1.0090   -1.8260 H   0  0  0  0  0  0  0  0  0  0  0  0
    4.0775   -1.9722   -1.3363 H   0  0  0  0  0  0  0  0  0  0  0  0
    5.3073   -0.6894   -1.3654 H   0  0  0  0  0  0  0  0  0  0  0  0
    4.0724   -0.7023   -0.0921 H   0  0  0  0  0  0  0  0  0  0  0  0
    4.7547    0.2411   -4.1188 N   0  0  0  0  0  0  0  0  0  0  0  0
    5.0591    0.0830   -5.5361 C   0  0  0  0  0  0  0  0  0  0  0  0
    5.3653    0.8153   -3.5448 H   0  0  0  0  0  0  0  0  0  0  0  0
    5.1315   -0.9779   -5.7974 H   0  0  0  0  0  0  0  0  0  0  0  0
    4.2774    0.5440   -6.1491 H   0  0  0  0  0  0  0  0  0  0  0  0
    6.0135    0.5618   -5.7745 H   0  0  0  0  0  0  0  0  0  0  0  0
  1  2  2  0  0  0  0
  1  3  1  0  0  0  0
  1  7  1  0  0  0  0
  3  4  1  0  0  0  0
  3  5  1  0  0  0  0
  3  6  1  0  0  0  0
  7  8  1  0  0  0  0
  7 12  1  0  0  0  0
  8  9  1  0  0  0  0
  8 11  1  0  0  0  0
  8 13  1  0  0  0  0
  9 10  2  0  0  0  0
  9 17  1  0  0  0  0
 11 14  1  0  0  0  0
 11 15  1  0  0  0  0
 11 16  1  0  0  0  0
 17 18  1  0  0  0  0
 17 23  1  0  0  0  0
 18 19  1  0  0  0  0
 18 21  1  0  0  0  0
 18 24  1  0  0  0  0
 19 20  2  0  0  0  0
 19 28  1  0  0  0  0
 21 22  1  0  0  0  0
 21 25  1  0  0  0  0
 21 26  1  0  0  0  0
 22 27  1  0  0  0  0
 28 29  1  0  0  0  0
 28 33  1  0  0  0  0
 29 30  1  0  0  0  0
 29 32  1  0  0  0  0
 29 34  1  0  0  0  0
 30 31  2  0  0  0  0
 30 38  1  0  0  0  0
 32 35  1  0  0  0  0
 32 36  1  0  0  0  0
 32 37  1  0  0  0  0
 38 39  1  0  0  0  0
 38 40  1  0  0  0  0
 39 41  1  0  0  0  0
 39 42  1  0  0  0  0
 39 43  1  0  0  0  0
M  END
$$$$

  -OEChem-05262216003D

 43 42  0     1  0  0  0  0  0999 V2000
   -3.7968   -4.6073    1.4726 C   0  0  0  0  0  0  0  0  0  0  0  0
   -3.1297   -5.0025    2.4162 O   0  0  0  0  0  0  0  0  0  0  0  0
   -5.2952   -4.8431    1.4462 C   0  0  0  0  0  0  0  0  0  0  0  0
   -5.5649   -5.4293    0.5644 H   0  0  0  0  0  0  0  0  0  0  0  0
   -5.6075   -5.3887    2.3411 H   0  0  0  0  0  0  0  0  0  0  0  0
   -5.8222   -3.8864    1.4148 H   0  0  0  0  0  0  0  0  0  0  0  0
   -3.1900   -3.9380    0.4316 N   0  0  0  0  0  0  0  0  0  0  0  0
   -1.7870   -3.5067    0.4310 C   0  0  2  0  0  0  0  0  0  0  0  0
   -1.6018   -2.2012   -0.3699 C   0  0  0  0  0  0  0  0  0  0  0  0
   -2.4646   -1.8376   -1.1610 O   0  0  0  0  0  0  0  0  0  0  0  0
   -0.9339   -4.6323   -0.1633 C   0  0  0  0  0  0  0  0  0  0  0  0
   -3.7968   -3.5105   -0.2681 H   0  0  0  0  0  0  0  0  0  0  0  0
   -1.4632   -3.3073    1.4582 H   0  0  0  0  0  0  0  0  0  0  0  0
   -1.2378   -4.8381   -1.1949 H   0  0  0  0  0  0  0  0  0  0  0  0
    0.1252   -4.3576   -0.1601 H   0  0  0  0  0  0  0  0  0  0  0  0
   -1.0530   -5.5486    0.4239 H   0  0  0  0  0  0  0  0  0  0  0  0
   -0.4210   -1.4863   -0.2897 N   0  0  0  0  0  0  0  0  0  0  0  0
   -0.3270   -0.0401   -0.5659 C   0  0  2  0  0  0  0  0  0  0  0  0
    1.1589    0.3353   -0.7605 C   0  0  0  0  0  0  0  0  0  0  0  0
    1.8190    0.8668    0.1249 O   0  0  0  0  0  0  0  0  0  0  0  0
   -0.9011    0.8040    0.6021 C   0  0  0  0  0  0  0  0  0  0  0  0
   -2.7075    0.5995    0.8899 S   0  0  0  0  0  0  0  0  0  0  0  0
    0.2471   -1.8527    0.3833 H   0  0  0  0  0  0  0  0  0  0  0  0
   -0.8709    0.2080   -1.4837 H   0  0  0  0  0  0  0  0  0  0  0  0
   -0.3737    0.5466    1.5268 H   0  0  0  0  0  0  0  0  0  0  0  0
   -0.7081    1.8627    0.3982 H   0  0  0  0  0  0  0  0  0  0  0  0
   -2.9072    1.4639    1.9083 H   0  0  0  0  0  0  0  0  0  0  0  0
    1.7913   -0.0107   -1.9388 N   0  0  0  0  0  0  0  0  0  0  0  0
    3.1821    0.3171   -2.2796 C   0  0  2  0  0  0  0  0  0  0  0  0
    3.3854    0.4057   -3.8077 C   0  0  0  0  0  0  0  0  0  0  0  0
    2.5243   -0.0219   -4.5682 O   0  0  0  0  0  0  0  0  0  0  0  0
    4.0994   -0.7555   -1.6815 C   0  0  0  0  0  0  0  0  0  0  0  0
    1.2160   -0.4087   -2.6829 H   0  0  0  0  0  0  0  0  0  0  0  0
    3.4418    1.2935   -1.8571 H   0  0  0  0  0  0  0  0  0  0  0  0
    3.8560   -1.7394   -2.0950 H   0  0  0  0  0  0  0  0  0  0  0  0
    5.1475   -0.5336   -1.9036 H   0  0  0  0  0  0  0  0  0  0  0  0
    3.9811   -0.7953   -0.5943 H   0  0  0  0  0  0  0  0  0  0  0  0
    4.5339    0.9685   -4.3339 N   0  0  0  0  0  0  0  0  0  0  0  0
    4.7894    1.0731   -5.7658 C   0  0  0  0  0  0  0  0  0  0  0  0
    5.2301    1.3189   -3.6824 H   0  0  0  0  0  0  0  0  0  0  0  0
    4.8448    0.0775   -6.2188 H   0  0  0  0  0  0  0  0  0  0  0  0
    3.9917    1.6399   -6.2577 H   0  0  0  0  0  0  0  0  0  0  0  0
    5.7384    1.5877   -5.9446 H   0  0  0  0  0  0  0  0  0  0  0  0
  1  2  2  0  0  0  0
  1  3  1  0  0  0  0
  1  7  1  0  0  0  0
  3  4  1  0  0  0  0
  3  5  1  0  0  0  0
  3  6  1  0  0  0  0
  7  8  1  0  0  0  0
  7 12  1  0  0  0  0
  8  9  1  0  0  0  0
  8 11  1  0  0  0  0
  8 13  1  0  0  0  0
  9 10  2  0  0  0  0
  9 17  1  0  0  0  0
 11 14  1  0  0  0  0
 11 15  1  0  0  0  0
 11 16  1  0  0  0  0
 17 18  1  0  0  0  0
 17 23  1  0  0  0  0
 18 19  1  0  0  0  0
 18 21  1  0  0  0  0
 18 24  1  0  0  0  0
 19 20  2  0  0  0  0
 19 28  1  0  0  0  0
 21 22  1  0  0  0  0
 21 25  1  0  0  0  0
 21 26  1  0  0  0  0
 22 27  1  0  0  0  0
 28 29  1  0  0  0  0
 28 33  1  0  0  0  0
 29 30  1  0  0  0  0
 29 32  1  0  0  0  0
 29 34  1  0  0  0  0
 30 31  2  0  0  0  0
 30 38  1  0  0  0  0
 32 35  1  0  0  0  0
 32 36  1  0  0  0  0
 32 37  1  0  0  0  0
 38 39  1  0  0  0  0
 38 40  1  0  0  0  0
 39 41  1  0  0  0  0
 39 42  1  0  0  0  0
 39 43  1  0  0  0  0
M  END
$$$$

  -OEChem-05262216003D

 43 42  0     1  0  0  0  0  0999 V2000
   -3.7641   -4.6162    1.4884 C   0  0  0  0  0  0  0  0  0  0  0  0
   -3.0991   -4.9903    2.4420 O   0  0  0  0  0  0  0  0  0  0  0  0
   -5.2590   -4.8730    1.4527 C   0  0  0  0  0  0  0  0  0  0  0  0
   -5.5064   -5.5154    0.6042 H   0  0  0  0  0  0  0  0  0  0  0  0
   -5.5795   -5.3663    2.3745 H   0  0  0  0  0  0  0  0  0  0  0  0
   -5.7977   -3.9275    1.3540 H   0  0  0  0  0  0  0  0  0  0  0  0
   -3.1583   -3.9531    0.4429 N   0  0  0  0  0  0  0  0  0  0  0  0
   -1.7618   -3.5004    0.4470 C   0  0  2  0  0  0  0  0  0  0  0  0
   -1.5891   -2.2128   -0.3856 C   0  0  0  0  0  0  0  0  0  0  0  0
   -2.4617   -1.8689   -1.1754 O   0  0  0  0  0  0  0  0  0  0  0  0
   -0.8830   -4.6273   -0.1052 C   0  0  0  0  0  0  0  0  0  0  0  0
   -3.7665   -3.5410   -0.2650 H   0  0  0  0  0  0  0  0  0  0  0  0
   -1.4530   -3.2693    1.4722 H   0  0  0  0  0  0  0  0  0  0  0  0
   -1.1711   -4.8678   -1.1336 H   0  0  0  0  0  0  0  0  0  0  0  0
    0.1707   -4.3333   -0.0976 H   0  0  0  0  0  0  0  0  0  0  0  0
   -0.9930   -5.5278    0.5075 H   0  0  0  0  0  0  0  0  0  0  0  0
   -0.4136   -1.4875   -0.3266 N   0  0  0  0  0  0  0  0  0  0  0  0
   -0.3341   -0.0464   -0.6266 C   0  0  2  0  0  0  0  0  0  0  0  0
    1.1441    0.3414   -0.8396 C   0  0  0  0  0  0  0  0  0  0  0  0
    1.8764    0.6002    0.1088 O   0  0  0  0  0  0  0  0  0  0  0  0
   -0.8900    0.8147    0.5357 C   0  0  0  0  0  0  0  0  0  0  0  0
   -2.6899    0.6020    0.8558 S   0  0  0  0  0  0  0  0  0  0  0  0
    0.2639   -1.8336    0.3485 H   0  0  0  0  0  0  0  0  0  0  0  0
   -0.8944    0.1826   -1.5397 H   0  0  0  0  0  0  0  0  0  0  0  0
   -0.3462    0.5741    1.4554 H   0  0  0  0  0  0  0  0  0  0  0  0
   -0.7047    1.8704    0.3118 H   0  0  0  0  0  0  0  0  0  0  0  0
   -2.8776    1.4599    1.8821 H   0  0  0  0  0  0  0  0  0  0  0  0
    1.6944    0.2768   -2.1048 N   0  0  0  0  0  0  0  0  0  0  0  0
    3.0780    0.6395   -2.4401 C   0  0  2  0  0  0  0  0  0  0  0  0
    3.1903    1.1837   -3.8807 C   0  0  0  0  0  0  0  0  0  0  0  0
    2.2445    1.0775   -4.6533 O   0  0  0  0  0  0  0  0  0  0  0  0
    3.9599   -0.6009   -2.2614 C   0  0  0  0  0  0  0  0  0  0  0  0
    1.0602    0.1112   -2.8876 H   0  0  0  0  0  0  0  0  0  0  0  0
    3.4252    1.4303   -1.7665 H   0  0  0  0  0  0  0  0  0  0  0  0
    3.6312   -1.4038   -2.9291 H   0  0  0  0  0  0  0  0  0  0  0  0
    5.0044   -0.3662   -2.4862 H   0  0  0  0  0  0  0  0  0  0  0  0
    3.9040   -0.9614   -1.2294 H   0  0  0  0  0  0  0  0  0  0  0  0
    4.3480    1.8071   -4.3095 N   0  0  0  0  0  0  0  0  0  0  0  0
    4.5076    2.3645   -5.6475 C   0  0  0  0  0  0  0  0  0  0  0  0
    5.1088    1.9011   -3.6429 H   0  0  0  0  0  0  0  0  0  0  0  0
    4.3378    1.5939   -6.4071 H   0  0  0  0  0  0  0  0  0  0  0  0
    3.7964    3.1814   -5.8092 H   0  0  0  0  0  0  0  0  0  0  0  0
    5.5209    2.7571   -5.7759 H   0  0  0  0  0  0  0  0  0  0  0  0
  1  2  2  0  0  0  0
  1  3  1  0  0  0  0
  1  7  1  0  0  0  0
  3  4  1  0  0  0  0
  3  5  1  0  0  0  0
  3  6  1  0  0  0  0
  7  8  1  0  0  0  0
  7 12  1  0  0  0  0
  8  9  1  0  0  0  0
  8 11  1  0  0  0  0
  8 13  1  0  0  0  0
  9 10  2  0  0  0  0
  9 17  1  0  0  0  0
 11 14  1  0  0  0  0
 11 15  1  0  0  0  0
 11 16  1  0  0  0  0
 17 18  1  0  0  0  0
 17 23  1  0  0  0  0
 18 19  1  0  0  0  0
 18 21  1  0  0  0  0
 18 24  1  0  0  0  0
 19 20  2  0  0  0  0
 19 28  1  0  0  0  0
 21 22  1  0  0  0  0
 21 25  1  0  0  0  0
 21 26  1  0  0  0  0
 22 27  1  0  0  0  0
 28 29  1  0  0  0  0
 28 33  1  0  0  0  0
 29 30  1  0  0  0  0
 29 32  1  0  0  0  0
 29 34  1  0  0  0  0
 30 31  2  0  0  0  0
 30 38  1  0  0  0  0
 32 35  1  0  0  0  0
 32 36  1  0  0  0  0
 32 37  1  0  0  0  0
 38 39  1  0  0  0  0
 38 40  1  0  0  0  0
 39 41  1  0  0  0  0
 39 42  1  0  0  0  0
 39 43  1  0  0  0  0
M  END
$$$$

  -OEChem-05262216003D

 43 42  0     1  0  0  0  0  0999 V2000
   -3.7002   -4.6589    1.4555 C   0  0  0  0  0  0  0  0  0  0  0  0
   -3.0120   -5.0435    2.3881 O   0  0  0  0  0  0  0  0  0  0  0  0
   -5.1898   -4.9453    1.4386 C   0  0  0  0  0  0  0  0  0  0  0  0
   -5.4397   -5.5657    0.5745 H   0  0  0  0  0  0  0  0  0  0  0  0
   -5.4823   -5.4748    2.3497 H   0  0  0  0  0  0  0  0  0  0  0  0
   -5.7498   -4.0087    1.3809 H   0  0  0  0  0  0  0  0  0  0  0  0
   -3.1248   -3.9610    0.4157 N   0  0  0  0  0  0  0  0  0  0  0  0
   -1.7351   -3.4879    0.4059 C   0  0  2  0  0  0  0  0  0  0  0  0
   -1.5950   -2.1767   -0.3947 C   0  0  0  0  0  0  0  0  0  0  0  0
   -2.4890   -1.8231   -1.1559 O   0  0  0  0  0  0  0  0  0  0  0  0
   -0.8519   -4.5871   -0.1938 C   0  0  0  0  0  0  0  0  0  0  0  0
   -3.7519   -3.5438   -0.2723 H   0  0  0  0  0  0  0  0  0  0  0  0
   -1.4102   -3.2791    1.4309 H   0  0  0  0  0  0  0  0  0  0  0  0
   -1.1570   -4.8035   -1.2227 H   0  0  0  0  0  0  0  0  0  0  0  0
    0.1980   -4.2790   -0.1984 H   0  0  0  0  0  0  0  0  0  0  0  0
   -0.9381   -5.5057    0.3953 H   0  0  0  0  0  0  0  0  0  0  0  0
   -0.4254   -1.4416   -0.3447 N   0  0  0  0  0  0  0  0  0  0  0  0
   -0.3541    0.0002   -0.6393 C   0  0  2  0  0  0  0  0  0  0  0  0
    1.1180    0.3959   -0.8630 C   0  0  0  0  0  0  0  0  0  0  0  0
    1.9120    0.3835    0.0711 O   0  0  0  0  0  0  0  0  0  0  0  0
   -0.8821    0.8591    0.5350 C   0  0  0  0  0  0  0  0  0  0  0  0
   -2.6743    0.6433    0.8921 S   0  0  0  0  0  0  0  0  0  0  0  0
    0.2778   -1.7932    0.3015 H   0  0  0  0  0  0  0  0  0  0  0  0
   -0.9295    0.2305   -1.5424 H   0  0  0  0  0  0  0  0  0  0  0  0
   -0.3178    0.6171    1.4421 H   0  0  0  0  0  0  0  0  0  0  0  0
   -0.7022    1.9155    0.3089 H   0  0  0  0  0  0  0  0  0  0  0  0
   -2.8383    1.4961    1.9266 H   0  0  0  0  0  0  0  0  0  0  0  0
    1.5874    0.6444   -2.1378 N   0  0  0  0  0  0  0  0  0  0  0  0
    2.9636    1.0400   -2.4641 C   0  0  2  0  0  0  0  0  0  0  0  0
    3.0158    1.9171   -3.7338 C   0  0  0  0  0  0  0  0  0  0  0  0
    2.0195    2.0382   -4.4379 O   0  0  0  0  0  0  0  0  0  0  0  0
    3.7986   -0.2310   -2.6526 C   0  0  0  0  0  0  0  0  0  0  0  0
    0.9035    0.6993   -2.8935 H   0  0  0  0  0  0  0  0  0  0  0  0
    3.3826    1.6296   -1.6417 H   0  0  0  0  0  0  0  0  0  0  0  0
    3.3953   -0.8350   -3.4720 H   0  0  0  0  0  0  0  0  0  0  0  0
    4.8381    0.0209   -2.8835 H   0  0  0  0  0  0  0  0  0  0  0  0
    3.7865   -0.8328   -1.7382 H   0  0  0  0  0  0  0  0  0  0  0  0
    4.1769    2.5817   -4.0842 N   0  0  0  0  0  0  0  0  0  0  0  0
    4.2869    3.4331   -5.2630 C   0  0  0  0  0  0  0  0  0  0  0  0
    4.9852    2.4720   -3.4788 H   0  0  0  0  0  0  0  0  0  0  0  0
    4.0486    2.8668   -6.1697 H   0  0  0  0  0  0  0  0  0  0  0  0
    3.5997    4.2825   -5.1878 H   0  0  0  0  0  0  0  0  0  0  0  0
    5.3062    3.8200   -5.3567 H   0  0  0  0  0  0  0  0  0  0  0  0
  1  2  2  0  0  0  0
  1  3  1  0  0  0  0
  1  7  1  0  0  0  0
  3  4  1  0  0  0  0
  3  5  1  0  0  0  0
  3  6  1  0  0  0  0
  7  8  1  0  0  0  0
  7 12  1  0  0  0  0
  8  9  1  0  0  0  0
  8 11  1  0  0  0  0
  8 13  1  0  0  0  0
  9 10  2  0  0  0  0
  9 17  1  0  0  0  0
 11 14  1  0  0  0  0
 11 15  1  0  0  0  0
 11 16  1  0  0  0  0
 17 18  1  0  0  0  0
 17 23  1  0  0  0  0
 18 19  1  0  0  0  0
 18 21  1  0  0  0  0
 18 24  1  0  0  0  0
 19 20  2  0  0  0  0
 19 28  1  0  0  0  0
 21 22  1  0  0  0  0
 21 25  1  0  0  0  0
 21 26  1  0  0  0  0
 22 27  1  0  0  0  0
 28 29  1  0  0  0  0
 28 33  1  0  0  0  0
 29 30  1  0  0  0  0
 29 32  1  0  0  0  0
 29 34  1  0  0  0  0
 30 31  2  0  0  0  0
 30 38  1  0  0  0  0
 32 35  1  0  0  0  0
 32 36  1  0  0  0  0
 32 37  1  0  0  0  0
 38 39  1  0  0  0  0
 38 40  1  0  0  0  0
 39 41  1  0  0  0  0
 39 42  1  0  0  0  0
 39 43  1  0  0  0  0
M  END
$$$$

  -OEChem-05262216003D

 43 42  0     1  0  0  0  0  0999 V2000
   -3.6656   -4.6903    1.4186 C   0  0  0  0  0  0  0  0  0  0  0  0
   -2.9622   -5.0949    2.3312 O   0  0  0  0  0  0  0  0  0  0  0  0
   -5.1537   -4.9867    1.4147 C   0  0  0  0  0  0  0  0  0  0  0  0
   -5.4078   -5.6119    0.5552 H   0  0  0  0  0  0  0  0  0  0  0  0
   -5.4356   -5.5145    2.3302 H   0  0  0  0  0  0  0  0  0  0  0  0
   -5.7197   -4.0536    1.3580 H   0  0  0  0  0  0  0  0  0  0  0  0
   -3.1102   -3.9581    0.3914 N   0  0  0  0  0  0  0  0  0  0  0  0
   -1.7240   -3.4753    0.3724 C   0  0  2  0  0  0  0  0  0  0  0  0
   -1.6028   -2.1490   -0.4067 C   0  0  0  0  0  0  0  0  0  0  0  0
   -2.5159   -1.7783   -1.1366 O   0  0  0  0  0  0  0  0  0  0  0  0
   -0.8413   -4.5581   -0.2568 C   0  0  0  0  0  0  0  0  0  0  0  0
   -3.7499   -3.5285   -0.2771 H   0  0  0  0  0  0  0  0  0  0  0  0
   -1.3873   -3.2829    1.3968 H   0  0  0  0  0  0  0  0  0  0  0  0
   -1.1566   -4.7578   -1.2860 H   0  0  0  0  0  0  0  0  0  0  0  0
    0.2068   -4.2441   -0.2674 H   0  0  0  0  0  0  0  0  0  0  0  0
   -0.9157   -5.4875    0.3170 H   0  0  0  0  0  0  0  0  0  0  0  0
   -0.4336   -1.4133   -0.3653 N   0  0  0  0  0  0  0  0  0  0  0  0
   -0.3558    0.0285   -0.6570 C   0  0  2  0  0  0  0  0  0  0  0  0
    1.1151    0.4207   -0.8897 C   0  0  0  0  0  0  0  0  0  0  0  0
    1.9556    0.1793   -0.0299 O   0  0  0  0  0  0  0  0  0  0  0  0
   -0.8526    0.8892    0.5280 C   0  0  0  0  0  0  0  0  0  0  0  0
   -2.6390    0.6899    0.9210 S   0  0  0  0  0  0  0  0  0  0  0  0
    0.2936   -1.7786    0.2463 H   0  0  0  0  0  0  0  0  0  0  0  0
   -0.9401    0.2635   -1.5529 H   0  0  0  0  0  0  0  0  0  0  0  0
   -0.2704    0.6401    1.4217 H   0  0  0  0  0  0  0  0  0  0  0  0
   -0.6692    1.9446    0.3002 H   0  0  0  0  0  0  0  0  0  0  0  0
   -2.7770    1.5426    1.9593 H   0  0  0  0  0  0  0  0  0  0  0  0
    1.5181    0.9673   -2.0922 N   0  0  0  0  0  0  0  0  0  0  0  0
    2.8825    1.4216   -2.3904 C   0  0  2  0  0  0  0  0  0  0  0  0
    2.8810    2.5835   -3.4071 C   0  0  0  0  0  0  0  0  0  0  0  0
    1.8477    2.8823   -3.9957 O   0  0  0  0  0  0  0  0  0  0  0  0
    3.6800    0.2299   -2.9300 C   0  0  0  0  0  0  0  0  0  0  0  0
    0.7937    1.2238   -2.7641 H   0  0  0  0  0  0  0  0  0  0  0  0
    3.3577    1.7896   -1.4747 H   0  0  0  0  0  0  0  0  0  0  0  0
    3.2229   -0.1512   -3.8489 H   0  0  0  0  0  0  0  0  0  0  0  0
    4.7112    0.5228   -3.1482 H   0  0  0  0  0  0  0  0  0  0  0  0
    3.7013   -0.5777   -2.1914 H   0  0  0  0  0  0  0  0  0  0  0  0
    4.0332    3.3080   -3.6520 N   0  0  0  0  0  0  0  0  0  0  0  0
    4.0927    4.4241   -4.5889 C   0  0  0  0  0  0  0  0  0  0  0  0
    4.8733    3.0456   -3.1448 H   0  0  0  0  0  0  0  0  0  0  0  0
    3.8138    4.0945   -5.5955 H   0  0  0  0  0  0  0  0  0  0  0  0
    3.4106    5.2225   -4.2783 H   0  0  0  0  0  0  0  0  0  0  0  0
    5.1070    4.8334   -4.6278 H   0  0  0  0  0  0  0  0  0  0  0  0
  1  2  2  0  0  0  0
  1  3  1  0  0  0  0
  1  7  1  0  0  0  0
  3  4  1  0  0  0  0
  3  5  1  0  0  0  0
  3  6  1  0  0  0  0
  7  8  1  0  0  0  0
  7 12  1  0  0  0  0
  8  9  1  0  0  0  0
  8 11  1  0  0  0  0
  8 13  1  0  0  0  0
  9 10  2  0  0  0  0
  9 17  1  0  0  0  0
 11 14  1  0  0  0  0
 11 15  1  0  0  0  0
 11 16  1  0  0  0  0
 17 18  1  0  0  0  0
 17 23  1  0  0  0  0
 18 19  1  0  0  0  0
 18 21  1  0  0  0  0
 18 24  1  0  0  0  0
 19 20  2  0  0  0  0
 19 28  1  0  0  0  0
 21 22  1  0  0  0  0
 21 25  1  0  0  0  0
 21 26  1  0  0  0  0
 22 27  1  0  0  0  0
 28 29  1  0  0  0  0
 28 33  1  0  0  0  0
 29 30  1  0  0  0  0
 29 32  1  0  0  0  0
 29 34  1  0  0  0  0
 30 31  2  0  0  0  0
 30 38  1  0  0  0  0
 32 35  1  0  0  0  0
 32 36  1  0  0  0  0
 32 37  1  0  0  0  0
 38 39  1  0  0  0  0
 38 40  1  0  0  0  0
 39 41  1  0  0  0  0
 39 42  1  0  0  0  0
 39 43  1  0  0  0  0
M  END
$$$$

  -OEChem-05262216003D

 43 42  0     1  0  0  0  0  0999 V2000
   -3.6472   -4.6889    1.3898 C   0  0  0  0  0  0  0  0  0  0  0  0
   -2.9448   -5.0887    2.3053 O   0  0  0  0  0  0  0  0  0  0  0  0
   -5.1355   -4.9832    1.3870 C   0  0  0  0  0  0  0  0  0  0  0  0
   -5.3947   -5.5838    0.5117 H   0  0  0  0  0  0  0  0  0  0  0  0
   -5.4122   -5.5360    2.2889 H   0  0  0  0  0  0  0  0  0  0  0  0
   -5.7011   -4.0485    1.3595 H   0  0  0  0  0  0  0  0  0  0  0  0
   -3.0908   -3.9652    0.3572 N   0  0  0  0  0  0  0  0  0  0  0  0
   -1.7085   -3.4708    0.3442 C   0  0  2  0  0  0  0  0  0  0  0  0
   -1.5989   -2.1340   -0.4189 C   0  0  0  0  0  0  0  0  0  0  0  0
   -2.5230   -1.7547   -1.1306 O   0  0  0  0  0  0  0  0  0  0  0  0
   -0.8168   -4.5391   -0.2966 C   0  0  0  0  0  0  0  0  0  0  0  0
   -3.7320   -3.5333   -0.3083 H   0  0  0  0  0  0  0  0  0  0  0  0
   -1.3733   -3.2862    1.3706 H   0  0  0  0  0  0  0  0  0  0  0  0
   -1.1289   -4.7285   -1.3286 H   0  0  0  0  0  0  0  0  0  0  0  0
    0.2286   -4.2169   -0.3012 H   0  0  0  0  0  0  0  0  0  0  0  0
   -0.8849   -5.4760    0.2654 H   0  0  0  0  0  0  0  0  0  0  0  0
   -0.4312   -1.3957   -0.3833 N   0  0  0  0  0  0  0  0  0  0  0  0
   -0.3498    0.0455   -0.6775 C   0  0  2  0  0  0  0  0  0  0  0  0
    1.1191    0.4415   -0.9153 C   0  0  0  0  0  0  0  0  0  0  0  0
    1.9952    0.0120   -0.1718 O   0  0  0  0  0  0  0  0  0  0  0  0
   -0.8285    0.9062    0.5135 C   0  0  0  0  0  0  0  0  0  0  0  0
   -2.6108    0.7119    0.9260 S   0  0  0  0  0  0  0  0  0  0  0  0
    0.3177   -1.7721    0.1952 H   0  0  0  0  0  0  0  0  0  0  0  0
   -0.9398    0.2820   -1.5691 H   0  0  0  0  0  0  0  0  0  0  0  0
   -0.2353    0.6540    1.3992 H   0  0  0  0  0  0  0  0  0  0  0  0
   -0.6464    1.9618    0.2848 H   0  0  0  0  0  0  0  0  0  0  0  0
   -2.7316    1.5588    1.9713 H   0  0  0  0  0  0  0  0  0  0  0  0
    1.4681    1.2567   -1.9741 N   0  0  0  0  0  0  0  0  0  0  0  0
    2.8207    1.7728   -2.2206 C   0  0  2  0  0  0  0  0  0  0  0  0
    2.7807    3.1596   -2.8977 C   0  0  0  0  0  0  0  0  0  0  0  0
    1.7167    3.6131   -3.3049 O   0  0  0  0  0  0  0  0  0  0  0  0
    3.5681    0.7620   -3.0962 C   0  0  0  0  0  0  0  0  0  0  0  0
    0.7134    1.6779   -2.5171 H   0  0  0  0  0  0  0  0  0  0  0  0
    3.3517    1.8907   -1.2697 H   0  0  0  0  0  0  0  0  0  0  0  0
    3.0587    0.6385   -4.0573 H   0  0  0  0  0  0  0  0  0  0  0  0
    4.5922    1.0971   -3.2844 H   0  0  0  0  0  0  0  0  0  0  0  0
    3.6118   -0.2117   -2.5980 H   0  0  0  0  0  0  0  0  0  0  0  0
    3.9336    3.9103   -3.0357 N   0  0  0  0  0  0  0  0  0  0  0  0
    3.9584    5.2299   -3.6555 C   0  0  0  0  0  0  0  0  0  0  0  0
    4.8003    3.5156   -2.6822 H   0  0  0  0  0  0  0  0  0  0  0  0
    3.5740    5.1799   -4.6799 H   0  0  0  0  0  0  0  0  0  0  0  0
    3.3445    5.9332   -3.0830 H   0  0  0  0  0  0  0  0  0  0  0  0
    4.9828    5.6134   -3.6902 H   0  0  0  0  0  0  0  0  0  0  0  0
  1  2  2  0  0  0  0
  1  3  1  0  0  0  0
  1  7  1  0  0  0  0
  3  4  1  0  0  0  0
  3  5  1  0  0  0  0
  3  6  1  0  0  0  0
  7  8  1  0  0  0  0
  7 12  1  0  0  0  0
  8  9  1  0  0  0  0
  8 11  1  0  0  0  0
  8 13  1  0  0  0  0
  9 10  2  0  0  0  0
  9 17  1  0  0  0  0
 11 14  1  0  0  0  0
 11 15  1  0  0  0  0
 11 16  1  0  0  0  0
 17 18  1  0  0  0  0
 17 23  1  0  0  0  0
 18 19  1  0  0  0  0
 18 21  1  0  0  0  0
 18 24  1  0  0  0  0
 19 20  2  0  0  0  0
 19 28  1  0  0  0  0
 21 22  1  0  0  0  0
 21 25  1  0  0  0  0
 21 26  1  0  0  0  0
 22 27  1  0  0  0  0
 28 29  1  0  0  0  0
 28 33  1  0  0  0  0
 29 30  1  0  0  0  0
 29 32  1  0  0  0  0
 29 34  1  0  0  0  0
 30 31  2  0  0  0  0
 30 38  1  0  0  0  0
 32 35  1  0  0  0  0
 32 36  1  0  0  0  0
 32 37  1  0  0  0  0
 38 39  1  0  0  0  0
 38 40  1  0  0  0  0
 39 41  1  0  0  0  0
 39 42  1  0  0  0  0
 39 43  1  0  0  0  0
M  END
$$$$

  -OEChem-05262216003D

 43 42  0     1  0  0  0  0  0999 V2000
   -3.6043   -4.7203    1.3423 C   0  0  0  0  0  0  0  0  0  0  0  0
   -2.8797   -5.1507    2.2260 O   0  0  0  0  0  0  0  0  0  0  0  0
   -5.0913   -5.0191    1.3611 C   0  0  0  0  0  0  0  0  0  0  0  0
   -5.3761   -5.5522    0.4510 H   0  0  0  0  0  0  0  0  0  0  0  0
   -5.3413   -5.6400    2.2257 H   0  0  0  0  0  0  0  0  0  0  0  0
   -5.6570   -4.0861    1.4206 H   0  0  0  0  0  0  0  0  0  0  0  0
   -3.0759   -3.9533    0.3268 N   0  0  0  0  0  0  0  0  0  0  0  0
   -1.6962   -3.4531    0.2982 C   0  0  2  0  0  0  0  0  0  0  0  0
   -1.6126   -2.0880   -0.4164 C   0  0  0  0  0  0  0  0  0  0  0  0
   -2.5532   -1.6917   -1.0964 O   0  0  0  0  0  0  0  0  0  0  0  0
   -0.8175   -4.4909   -0.4072 C   0  0  0  0  0  0  0  0  0  0  0  0
   -3.7343   -3.4986   -0.3059 H   0  0  0  0  0  0  0  0  0  0  0  0
   -1.3348   -3.3074    1.3220 H   0  0  0  0  0  0  0  0  0  0  0  0
   -1.1546   -4.6390   -1.4381 H   0  0  0  0  0  0  0  0  0  0  0  0
    0.2268   -4.1646   -0.4250 H   0  0  0  0  0  0  0  0  0  0  0  0
   -0.8690   -5.4502    0.1176 H   0  0  0  0  0  0  0  0  0  0  0  0
   -0.4482   -1.3454   -0.3790 N   0  0  0  0  0  0  0  0  0  0  0  0
   -0.3608    0.0981   -0.6605 C   0  0  2  0  0  0  0  0  0  0  0  0
    1.1080    0.4966   -0.8978 C   0  0  0  0  0  0  0  0  0  0  0  0
    2.0081   -0.1018   -0.3169 O   0  0  0  0  0  0  0  0  0  0  0  0
   -0.8293    0.9461    0.5440 C   0  0  0  0  0  0  0  0  0  0  0  0
   -2.6097    0.7550    0.9655 S   0  0  0  0  0  0  0  0  0  0  0  0
    0.3261   -1.7438    0.1498 H   0  0  0  0  0  0  0  0  0  0  0  0
   -0.9522    0.3454   -1.5484 H   0  0  0  0  0  0  0  0  0  0  0  0
   -0.2318    0.6782    1.4220 H   0  0  0  0  0  0  0  0  0  0  0  0
   -0.6439    2.0041    0.3303 H   0  0  0  0  0  0  0  0  0  0  0  0
   -2.7263    1.5966    2.0154 H   0  0  0  0  0  0  0  0  0  0  0  0
    1.4251    1.5455   -1.7385 N   0  0  0  0  0  0  0  0  0  0  0  0
    2.7773    2.0877   -1.9248 C   0  0  2  0  0  0  0  0  0  0  0  0
    2.7377    3.5890   -2.2825 C   0  0  0  0  0  0  0  0  0  0  0  0
    1.6641    4.1363   -2.5091 O   0  0  0  0  0  0  0  0  0  0  0  0
    3.4732    1.2824   -3.0275 C   0  0  0  0  0  0  0  0  0  0  0  0
    0.6560    2.0998   -2.1171 H   0  0  0  0  0  0  0  0  0  0  0  0
    3.3448    1.9910   -0.9930 H   0  0  0  0  0  0  0  0  0  0  0  0
    2.9252    1.3725   -3.9709 H   0  0  0  0  0  0  0  0  0  0  0  0
    4.4952    1.6407   -3.1818 H   0  0  0  0  0  0  0  0  0  0  0  0
    3.5197    0.2241   -2.7520 H   0  0  0  0  0  0  0  0  0  0  0  0
    3.9014    4.3345   -2.3279 N   0  0  0  0  0  0  0  0  0  0  0  0
    3.9279    5.7583   -2.6414 C   0  0  0  0  0  0  0  0  0  0  0  0
    4.7746    3.8609   -2.1148 H   0  0  0  0  0  0  0  0  0  0  0  0
    3.4547    5.9474   -3.6108 H   0  0  0  0  0  0  0  0  0  0  0  0
    3.3969    6.3295   -1.8728 H   0  0  0  0  0  0  0  0  0  0  0  0
    4.9608    6.1165   -2.6876 H   0  0  0  0  0  0  0  0  0  0  0  0
  1  2  2  0  0  0  0
  1  3  1  0  0  0  0
  1  7  1  0  0  0  0
  3  4  1  0  0  0  0
  3  5  1  0  0  0  0
  3  6  1  0  0  0  0
  7  8  1  0  0  0  0
  7 12  1  0  0  0  0
  8  9  1  0  0  0  0
  8 11  1  0  0  0  0
  8 13  1  0  0  0  0
  9 10  2  0  0  0  0
  9 17  1  0  0  0  0
 11 14  1  0  0  0  0
 11 15  1  0  0  0  0
 11 16  1  0  0  0  0
 17 18  1  0  0  0  0
 17 23  1  0  0  0  0
 18 19  1  0  0  0  0
 18 21  1  0  0  0  0
 18 24  1  0  0  0  0
 19 20  2  0  0  0  0
 19 28  1  0  0  0  0
 21 22  1  0  0  0  0
 21 25  1  0  0  0  0
 21 26  1  0  0  0  0
 22 27  1  0  0  0  0
 28 29  1  0  0  0  0
 28 33  1  0  0  0  0
 29 30  1  0  0  0  0
 29 32  1  0  0  0  0
 29 34  1  0  0  0  0
 30 31  2  0  0  0  0
 30 38  1  0  0  0  0
 32 35  1  0  0  0  0
 32 36  1  0  0  0  0
 32 37  1  0  0  0  0
 38 39  1  0  0  0  0
 38 40  1  0  0  0  0
 39 41  1  0  0  0  0
 39 42  1  0  0  0  0
 39 43  1  0  0  0  0
M  END
$$$$

  -OEChem-05262216003D

 43 42  0     1  0  0  0  0  0999 V2000
   -3.5890   -4.7201    1.3272 C   0  0  0  0  0  0  0  0  0  0  0  0
   -2.8555   -5.1645    2.1966 O   0  0  0  0  0  0  0  0  0  0  0  0
   -5.0750   -5.0251    1.3553 C   0  0  0  0  0  0  0  0  0  0  0  0
   -5.3594   -5.5748    0.4548 H   0  0  0  0  0  0  0  0  0  0  0  0
   -5.3190   -5.6328    2.2313 H   0  0  0  0  0  0  0  0  0  0  0  0
   -5.6464   -4.0946    1.4015 H   0  0  0  0  0  0  0  0  0  0  0  0
   -3.0711   -3.9349    0.3198 N   0  0  0  0  0  0  0  0  0  0  0  0
   -1.6925   -3.4306    0.2857 C   0  0  2  0  0  0  0  0  0  0  0  0
   -1.6185   -2.0542   -0.4088 C   0  0  0  0  0  0  0  0  0  0  0  0
   -2.5730   -1.6444   -1.0609 O   0  0  0  0  0  0  0  0  0  0  0  0
   -0.8175   -4.4548   -0.4434 C   0  0  0  0  0  0  0  0  0  0  0  0
   -3.7366   -3.4716   -0.2992 H   0  0  0  0  0  0  0  0  0  0  0  0
   -1.3217   -3.3000    1.3082 H   0  0  0  0  0  0  0  0  0  0  0  0
   -1.1636   -4.5894   -1.4731 H   0  0  0  0  0  0  0  0  0  0  0  0
    0.2251   -4.1242   -0.4659 H   0  0  0  0  0  0  0  0  0  0  0  0
   -0.8603   -5.4215    0.0682 H   0  0  0  0  0  0  0  0  0  0  0  0
   -0.4507   -1.3156   -0.3869 N   0  0  0  0  0  0  0  0  0  0  0  0
   -0.3527    0.1263   -0.6755 C   0  0  2  0  0  0  0  0  0  0  0  0
    1.1155    0.5246   -0.9302 C   0  0  0  0  0  0  0  0  0  0  0  0
    2.0298   -0.1978   -0.5453 O   0  0  0  0  0  0  0  0  0  0  0  0
   -0.8024    0.9727    0.5393 C   0  0  0  0  0  0  0  0  0  0  0  0
   -2.5781    0.7948    0.9842 S   0  0  0  0  0  0  0  0  0  0  0  0
    0.3482   -1.7340    0.0868 H   0  0  0  0  0  0  0  0  0  0  0  0
   -0.9523    0.3768   -1.5572 H   0  0  0  0  0  0  0  0  0  0  0  0
   -0.1955    0.6961    1.4084 H   0  0  0  0  0  0  0  0  0  0  0  0
   -0.6153    2.0313    0.3312 H   0  0  0  0  0  0  0  0  0  0  0  0
   -2.6715    1.6326    2.0393 H   0  0  0  0  0  0  0  0  0  0  0  0
    1.4180    1.7383   -1.5173 N   0  0  0  0  0  0  0  0  0  0  0  0
    2.7689    2.3038   -1.6248 C   0  0  2  0  0  0  0  0  0  0  0  0
    2.7364    3.8465   -1.5716 C   0  0  0  0  0  0  0  0  0  0  0  0
    1.6619    4.4373   -1.5961 O   0  0  0  0  0  0  0  0  0  0  0  0
    3.3926    1.8159   -2.9361 C   0  0  0  0  0  0  0  0  0  0  0  0
    0.6443    2.3760   -1.7082 H   0  0  0  0  0  0  0  0  0  0  0  0
    3.3820    1.9629   -0.7838 H   0  0  0  0  0  0  0  0  0  0  0  0
    2.7975    2.1535   -3.7907 H   0  0  0  0  0  0  0  0  0  0  0  0
    4.4110    2.2001   -3.0465 H   0  0  0  0  0  0  0  0  0  0  0  0
    3.4348    0.7220   -2.9514 H   0  0  0  0  0  0  0  0  0  0  0  0
    3.9083    4.5731   -1.4707 N   0  0  0  0  0  0  0  0  0  0  0  0
    3.9436    6.0288   -1.3930 C   0  0  0  0  0  0  0  0  0  0  0  0
    4.7824    4.0565   -1.4351 H   0  0  0  0  0  0  0  0  0  0  0  0
    3.4516    6.4727   -2.2649 H   0  0  0  0  0  0  0  0  0  0  0  0
    3.4356    6.3765   -0.4875 H   0  0  0  0  0  0  0  0  0  0  0  0
    4.9792    6.3810   -1.3656 H   0  0  0  0  0  0  0  0  0  0  0  0
  1  2  2  0  0  0  0
  1  3  1  0  0  0  0
  1  7  1  0  0  0  0
  3  4  1  0  0  0  0
  3  5  1  0  0  0  0
  3  6  1  0  0  0  0
  7  8  1  0  0  0  0
  7 12  1  0  0  0  0
  8  9  1  0  0  0  0
  8 11  1  0  0  0  0
  8 13  1  0  0  0  0
  9 10  2  0  0  0  0
  9 17  1  0  0  0  0
 11 14  1  0  0  0  0
 11 15  1  0  0  0  0
 11 16  1  0  0  0  0
 17 18  1  0  0  0  0
 17 23  1  0  0  0  0
 18 19  1  0  0  0  0
 18 21  1  0  0  0  0
 18 24  1  0  0  0  0
 19 20  2  0  0  0  0
 19 28  1  0  0  0  0
 21 22  1  0  0  0  0
 21 25  1  0  0  0  0
 21 26  1  0  0  0  0
 22 27  1  0  0  0  0
 28 29  1  0  0  0  0
 28 33  1  0  0  0  0
 29 30  1  0  0  0  0
 29 32  1  0  0  0  0
 29 34  1  0  0  0  0
 30 31  2  0  0  0  0
 30 38  1  0  0  0  0
 32 35  1  0  0  0  0
 32 36  1  0  0  0  0
 32 37  1  0  0  0  0
 38 39  1  0  0  0  0
 38 40  1  0  0  0  0
 39 41  1  0  0  0  0
 39 42  1  0  0  0  0
 39 43  1  0  0  0  0
M  END
$$$$

  -OEChem-05262216003D

 43 42  0     1  0  0  0  0  0999 V2000
   -3.4421   -4.8786    1.2923 C   0  0  0  0  0  0  0  0  0  0  0  0
   -2.6174   -5.4206    2.0117 O   0  0  0  0  0  0  0  0  0  0  0  0
   -4.9126   -5.2311    1.4184 C   0  0  0  0  0  0  0  0  0  0  0  0
   -5.2804   -5.6394    0.4738 H   0  0  0  0  0  0  0  0  0  0  0  0
   -5.0559   -5.9775    2.2047 H   0  0  0  0  0  0  0  0  0  0  0  0
   -5.4898   -4.3381    1.6709 H   0  0  0  0  0  0  0  0  0  0  0  0
   -3.0411   -3.9418    0.3644 N   0  0  0  0  0  0  0  0  0  0  0  0
   -1.6784   -3.4049    0.2612 C   0  0  2  0  0  0  0  0  0  0  0  0
   -1.6878   -1.9464   -0.2432 C   0  0  0  0  0  0  0  0  0  0  0  0
   -2.7076   -1.4775   -0.7379 O   0  0  0  0  0  0  0  0  0  0  0  0
   -0.8749   -4.3011   -0.6865 C   0  0  0  0  0  0  0  0  0  0  0  0
   -3.7716   -3.4195   -0.1192 H   0  0  0  0  0  0  0  0  0  0  0  0
   -1.2050   -3.4051    1.2489 H   0  0  0  0  0  0  0  0  0  0  0  0
   -1.3298   -4.3091   -1.6822 H   0  0  0  0  0  0  0  0  0  0  0  0
    0.1549   -3.9423   -0.7762 H   0  0  0  0  0  0  0  0  0  0  0  0
   -0.8491   -5.3274   -0.3065 H   0  0  0  0  0  0  0  0  0  0  0  0
   -0.5321   -1.1887   -0.2142 N   0  0  0  0  0  0  0  0  0  0  0  0
   -0.4416    0.2394   -0.5644 C   0  0  2  0  0  0  0  0  0  0  0  0
    0.9504    0.5751   -1.1439 C   0  0  0  0  0  0  0  0  0  0  0  0
    1.8369   -0.2732   -1.1624 O   0  0  0  0  0  0  0  0  0  0  0  0
   -0.6328    1.0952    0.7078 C   0  0  0  0  0  0  0  0  0  0  0  0
   -2.3103    0.9396    1.4466 S   0  0  0  0  0  0  0  0  0  0  0  0
    0.3317   -1.6587    0.0505 H   0  0  0  0  0  0  0  0  0  0  0  0
   -1.1990    0.5020   -1.3108 H   0  0  0  0  0  0  0  0  0  0  0  0
    0.1136    0.8014    1.4535 H   0  0  0  0  0  0  0  0  0  0  0  0
   -0.4667    2.1512    0.4724 H   0  0  0  0  0  0  0  0  0  0  0  0
   -2.2118    1.7734    2.5047 H   0  0  0  0  0  0  0  0  0  0  0  0
    1.2547    1.8630   -1.5432 N   0  0  0  0  0  0  0  0  0  0  0  0
    2.5978    2.3398   -1.8962 C   0  0  2  0  0  0  0  0  0  0  0  0
    2.7684    3.8324   -1.5392 C   0  0  0  0  0  0  0  0  0  0  0  0
    1.7984    4.4885   -1.1735 O   0  0  0  0  0  0  0  0  0  0  0  0
    2.8149    2.1070   -3.3946 C   0  0  0  0  0  0  0  0  0  0  0  0
    0.5430    2.5810   -1.4045 H   0  0  0  0  0  0  0  0  0  0  0  0
    3.3514    1.7811   -1.3310 H   0  0  0  0  0  0  0  0  0  0  0  0
    2.0783    2.6665   -3.9801 H   0  0  0  0  0  0  0  0  0  0  0  0
    3.8164    2.4300   -3.6934 H   0  0  0  0  0  0  0  0  0  0  0  0
    2.7122    1.0431   -3.6310 H   0  0  0  0  0  0  0  0  0  0  0  0
    4.0109    4.4358   -1.5996 N   0  0  0  0  0  0  0  0  0  0  0  0
    4.2376    5.8359   -1.2608 C   0  0  0  0  0  0  0  0  0  0  0  0
    4.8008    3.8643   -1.8856 H   0  0  0  0  0  0  0  0  0  0  0  0
    3.6388    6.4885   -1.9051 H   0  0  0  0  0  0  0  0  0  0  0  0
    3.9656    6.0261   -0.2173 H   0  0  0  0  0  0  0  0  0  0  0  0
    5.2931    6.0921   -1.3947 H   0  0  0  0  0  0  0  0  0  0  0  0
  1  2  2  0  0  0  0
  1  3  1  0  0  0  0
  1  7  1  0  0  0  0
  3  4  1  0  0  0  0
  3  5  1  0  0  0  0
  3  6  1  0  0  0  0
  7  8  1  0  0  0  0
  7 12  1  0  0  0  0
  8  9  1  0  0  0  0
  8 11  1  0  0  0  0
  8 13  1  0  0  0  0
  9 10  2  0  0  0  0
  9 17  1  0  0  0  0
 11 14  1  0  0  0  0
 11 15  1  0  0  0  0
 11 16  1  0  0  0  0
 17 18  1  0  0  0  0
 17 23  1  0  0  0  0
 18 19  1  0  0  0  0
 18 21  1  0  0  0  0
 18 24  1  0  0  0  0
 19 20  2  0  0  0  0
 19 28  1  0  0  0  0
 21 22  1  0  0  0  0
 21 25  1  0  0  0  0
 21 26  1  0  0  0  0
 22 27  1  0  0  0  0
 28 29  1  0  0  0  0
 28 33  1  0  0  0  0
 29 30  1  0  0  0  0
 29 32  1  0  0  0  0
 29 34  1  0  0  0  0
 30 31  2  0  0  0  0
 30 38  1  0  0  0  0
 32 35  1  0  0  0  0
 32 36  1  0  0  0  0
 32 37  1  0  0  0  0
 38 39  1  0  0  0  0
 38 40  1  0  0  0  0
 39 41  1  0  0  0  0
 39 42  1  0  0  0  0
 39 43  1  0  0  0  0
M  END
$$$$

  -OEChem-05262216003D

 43 42  0     1  0  0  0  0  0999 V2000
   -3.3848   -4.9290    1.2179 C   0  0  0  0  0  0  0  0  0  0  0  0
   -2.5210   -5.5189    1.8480 O   0  0  0  0  0  0  0  0  0  0  0  0
   -4.8479   -5.2724    1.4254 C   0  0  0  0  0  0  0  0  0  0  0  0
   -5.3069   -5.5439    0.4716 H   0  0  0  0  0  0  0  0  0  0  0  0
   -4.9429   -6.1155    2.1154 H   0  0  0  0  0  0  0  0  0  0  0  0
   -5.3765   -4.4127    1.8445 H   0  0  0  0  0  0  0  0  0  0  0  0
   -3.0344   -3.9390    0.3257 N   0  0  0  0  0  0  0  0  0  0  0  0
   -1.6783   -3.3952    0.1814 C   0  0  2  0  0  0  0  0  0  0  0  0
   -1.7153   -1.9055   -0.2188 C   0  0  0  0  0  0  0  0  0  0  0  0
   -2.7459   -1.4240   -0.6772 O   0  0  0  0  0  0  0  0  0  0  0  0
   -0.9330   -4.2207   -0.8727 C   0  0  0  0  0  0  0  0  0  0  0  0
   -3.7889   -3.3861   -0.0812 H   0  0  0  0  0  0  0  0  0  0  0  0
   -1.1482   -3.4636    1.1377 H   0  0  0  0  0  0  0  0  0  0  0  0
   -1.4419   -4.1554   -1.8399 H   0  0  0  0  0  0  0  0  0  0  0  0
    0.0922   -3.8576   -0.9934 H   0  0  0  0  0  0  0  0  0  0  0  0
   -0.8921   -5.2720   -0.5701 H   0  0  0  0  0  0  0  0  0  0  0  0
   -0.5680   -1.1379   -0.1491 N   0  0  0  0  0  0  0  0  0  0  0  0
   -0.4783    0.2965   -0.4774 C   0  0  2  0  0  0  0  0  0  0  0  0
    0.9353    0.6313   -1.0140 C   0  0  0  0  0  0  0  0  0  0  0  0
    1.7328   -0.2724   -1.2453 O   0  0  0  0  0  0  0  0  0  0  0  0
   -0.7238    1.1339    0.8012 C   0  0  0  0  0  0  0  0  0  0  0  0
   -2.4227    0.9589    1.4843 S   0  0  0  0  0  0  0  0  0  0  0  0
    0.3071   -1.6282    0.0272 H   0  0  0  0  0  0  0  0  0  0  0  0
   -1.2116    0.5645   -1.2454 H   0  0  0  0  0  0  0  0  0  0  0  0
    0.0006    0.8394    1.5678 H   0  0  0  0  0  0  0  0  0  0  0  0
   -0.5665    2.1953    0.5870 H   0  0  0  0  0  0  0  0  0  0  0  0
   -2.3692    1.7911    2.5464 H   0  0  0  0  0  0  0  0  0  0  0  0
    1.3845    1.9362   -1.1104 N   0  0  0  0  0  0  0  0  0  0  0  0
    2.7686    2.3335   -1.3997 C   0  0  2  0  0  0  0  0  0  0  0  0
    3.0780    3.7300   -0.8174 C   0  0  0  0  0  0  0  0  0  0  0  0
    2.1903    4.3736   -0.2670 O   0  0  0  0  0  0  0  0  0  0  0  0
    2.9782    2.3139   -2.9184 C   0  0  0  0  0  0  0  0  0  0  0  0
    0.7591    2.6788   -0.7975 H   0  0  0  0  0  0  0  0  0  0  0  0
    3.4596    1.6253   -0.9303 H   0  0  0  0  0  0  0  0  0  0  0  0
    2.3062    3.0265   -3.4072 H   0  0  0  0  0  0  0  0  0  0  0  0
    4.0097    2.5782   -3.1692 H   0  0  0  0  0  0  0  0  0  0  0  0
    2.7754    1.3149   -3.3175 H   0  0  0  0  0  0  0  0  0  0  0  0
    4.3546    4.2567   -0.8843 N   0  0  0  0  0  0  0  0  0  0  0  0
    4.7115    5.5638   -0.3452 C   0  0  0  0  0  0  0  0  0  0  0  0
    5.0707    3.7015   -1.3437 H   0  0  0  0  0  0  0  0  0  0  0  0
    4.0971    6.3481   -0.8001 H   0  0  0  0  0  0  0  0  0  0  0  0
    4.5624    5.5852    0.7395 H   0  0  0  0  0  0  0  0  0  0  0  0
    5.7628    5.7848   -0.5540 H   0  0  0  0  0  0  0  0  0  0  0  0
  1  2  2  0  0  0  0
  1  3  1  0  0  0  0
  1  7  1  0  0  0  0
  3  4  1  0  0  0  0
  3  5  1  0  0  0  0
  3  6  1  0  0  0  0
  7  8  1  0  0  0  0
  7 12  1  0  0  0  0
  8  9  1  0  0  0  0
  8 11  1  0  0  0  0
  8 13  1  0  0  0  0
  9 10  2  0  0  0  0
  9 17  1  0  0  0  0
 11 14  1  0  0  0  0
 11 15  1  0  0  0  0
 11 16  1  0  0  0  0
 17 18  1  0  0  0  0
 17 23  1  0  0  0  0
 18 19  1  0  0  0  0
 18 21  1  0  0  0  0
 18 24  1  0  0  0  0
 19 20  2  0  0  0  0
 19 28  1  0  0  0  0
 21 22  1  0  0  0  0
 21 25  1  0  0  0  0
 21 26  1  0  0  0  0
 22 27  1  0  0  0  0
 28 29  1  0  0  0  0
 28 33  1  0  0  0  0
 29 30  1  0  0  0  0
 29 32  1  0  0  0  0
 29 34  1  0  0  0  0
 30 31  2  0  0  0  0
 30 38  1  0  0  0  0
 32 35  1  0  0  0  0
 32 36  1  0  0  0  0
 32 37  1  0  0  0  0
 38 39  1  0  0  0  0
 38 40  1  0  0  0  0
 39 41  1  0  0  0  0
 39 42  1  0  0  0  0
 39 43  1  0  0  0  0
M  END
$$$$

  -OEChem-05262216003D

 43 42  0     1  0  0  0  0  0999 V2000
   -3.3632   -4.9221    1.2165 C   0  0  0  0  0  0  0  0  0  0  0  0
   -2.4929   -5.4973    1.8514 O   0  0  0  0  0  0  0  0  0  0  0  0
   -4.8209   -5.2936    1.4144 C   0  0  0  0  0  0  0  0  0  0  0  0
   -5.2617   -5.5979    0.4621 H   0  0  0  0  0  0  0  0  0  0  0  0
   -4.9053   -6.1227    2.1223 H   0  0  0  0  0  0  0  0  0  0  0  0
   -5.3743   -4.4371    1.8070 H   0  0  0  0  0  0  0  0  0  0  0  0
   -3.0227   -3.9282    0.3244 N   0  0  0  0  0  0  0  0  0  0  0  0
   -1.6710   -3.3737    0.1756 C   0  0  2  0  0  0  0  0  0  0  0  0
   -1.7156   -1.8796   -0.2061 C   0  0  0  0  0  0  0  0  0  0  0  0
   -2.7467   -1.4005   -0.6653 O   0  0  0  0  0  0  0  0  0  0  0  0
   -0.9289   -4.1801   -0.8958 C   0  0  0  0  0  0  0  0  0  0  0  0
   -3.7825   -3.3875   -0.0886 H   0  0  0  0  0  0  0  0  0  0  0  0
   -1.1329   -3.4510    1.1264 H   0  0  0  0  0  0  0  0  0  0  0  0
   -1.4454   -4.1026   -1.8580 H   0  0  0  0  0  0  0  0  0  0  0  0
    0.0935   -3.8096   -1.0195 H   0  0  0  0  0  0  0  0  0  0  0  0
   -0.8803   -5.2357   -0.6101 H   0  0  0  0  0  0  0  0  0  0  0  0
   -0.5708   -1.1084   -0.1246 N   0  0  0  0  0  0  0  0  0  0  0  0
   -0.4860    0.3263   -0.4532 C   0  0  2  0  0  0  0  0  0  0  0  0
    0.9356    0.6599   -0.9761 C   0  0  0  0  0  0  0  0  0  0  0  0
    1.6406   -0.2345   -1.4315 O   0  0  0  0  0  0  0  0  0  0  0  0
   -0.7654    1.1621    0.8212 C   0  0  0  0  0  0  0  0  0  0  0  0
   -2.4741    0.9783    1.4760 S   0  0  0  0  0  0  0  0  0  0  0  0
    0.3050   -1.6028    0.0332 H   0  0  0  0  0  0  0  0  0  0  0  0
   -1.2080    0.5886   -1.2343 H   0  0  0  0  0  0  0  0  0  0  0  0
   -0.0522    0.8763    1.6016 H   0  0  0  0  0  0  0  0  0  0  0  0
   -0.6195    2.2248    0.6071 H   0  0  0  0  0  0  0  0  0  0  0  0
   -2.4317    1.7887    2.5555 H   0  0  0  0  0  0  0  0  0  0  0  0
    1.5141    1.9045   -0.7989 N   0  0  0  0  0  0  0  0  0  0  0  0
    2.9207    2.2353   -1.0611 C   0  0  2  0  0  0  0  0  0  0  0  0
    3.3784    3.4213   -0.1840 C   0  0  0  0  0  0  0  0  0  0  0  0
    2.5605    4.0207    0.5071 O   0  0  0  0  0  0  0  0  0  0  0  0
    3.0768    2.5686   -2.5491 C   0  0  0  0  0  0  0  0  0  0  0  0
    0.9765    2.6108   -0.2972 H   0  0  0  0  0  0  0  0  0  0  0  0
    3.5557    1.3782   -0.8122 H   0  0  0  0  0  0  0  0  0  0  0  0
    2.4593    3.4328   -2.8140 H   0  0  0  0  0  0  0  0  0  0  0  0
    4.1197    2.7993   -2.7856 H   0  0  0  0  0  0  0  0  0  0  0  0
    2.7670    1.7181   -3.1646 H   0  0  0  0  0  0  0  0  0  0  0  0
    4.7053    3.8086   -0.1526 N   0  0  0  0  0  0  0  0  0  0  0  0
    5.1954    4.9210    0.6532 C   0  0  0  0  0  0  0  0  0  0  0  0
    5.3619    3.2934   -0.7320 H   0  0  0  0  0  0  0  0  0  0  0  0
    4.6654    5.8442    0.3962 H   0  0  0  0  0  0  0  0  0  0  0  0
    5.0494    4.7160    1.7190 H   0  0  0  0  0  0  0  0  0  0  0  0
    6.2634    5.0769    0.4739 H   0  0  0  0  0  0  0  0  0  0  0  0
  1  2  2  0  0  0  0
  1  3  1  0  0  0  0
  1  7  1  0  0  0  0
  3  4  1  0  0  0  0
  3  5  1  0  0  0  0
  3  6  1  0  0  0  0
  7  8  1  0  0  0  0
  7 12  1  0  0  0  0
  8  9  1  0  0  0  0
  8 11  1  0  0  0  0
  8 13  1  0  0  0  0
  9 10  2  0  0  0  0
  9 17  1  0  0  0  0
 11 14  1  0  0  0  0
 11 15  1  0  0  0  0
 11 16  1  0  0  0  0
 17 18  1  0  0  0  0
 17 23  1  0  0  0  0
 18 19  1  0  0  0  0
 18 21  1  0  0  0  0
 18 24  1  0  0  0  0
 19 20  2  0  0  0  0
 19 28  1  0  0  0  0
 21 22  1  0  0  0  0
 21 25  1  0  0  0  0
 21 26  1  0  0  0  0
 22 27  1  0  0  0  0
 28 29  1  0  0  0  0
 28 33  1  0  0  0  0
 29 30  1  0  0  0  0
 29 32  1  0  0  0  0
 29 34  1  0  0  0  0
 30 31  2  0  0  0  0
 30 38  1  0  0  0  0
 32 35  1  0  0  0  0
 32 36  1  0  0  0  0
 32 37  1  0  0  0  0
 38 39  1  0  0  0  0
 38 40  1  0  0  0  0
 39 41  1  0  0  0  0
 39 42  1  0  0  0  0
 39 43  1  0  0  0  0
M  END
$$$$

  -OEChem-05262216003D

 43 42  0     1  0  0  0  0  0999 V2000
   -3.3534   -4.9125    1.2084 C   0  0  0  0  0  0  0  0  0  0  0  0
   -2.4862   -5.4849    1.8500 O   0  0  0  0  0  0  0  0  0  0  0  0
   -4.8121   -5.2814    1.4023 C   0  0  0  0  0  0  0  0  0  0  0  0
   -5.2493   -5.5892    0.4494 H   0  0  0  0  0  0  0  0  0  0  0  0
   -4.9018   -6.1073    2.1136 H   0  0  0  0  0  0  0  0  0  0  0  0
   -5.3654   -4.4220    1.7886 H   0  0  0  0  0  0  0  0  0  0  0  0
   -3.0106   -3.9214    0.3141 N   0  0  0  0  0  0  0  0  0  0  0  0
   -1.6592   -3.3664    0.1681 C   0  0  2  0  0  0  0  0  0  0  0  0
   -1.7030   -1.8709   -0.2081 C   0  0  0  0  0  0  0  0  0  0  0  0
   -2.7317   -1.3923   -0.6725 O   0  0  0  0  0  0  0  0  0  0  0  0
   -0.9193   -4.1710   -0.9053 C   0  0  0  0  0  0  0  0  0  0  0  0
   -3.7696   -3.3816   -0.1015 H   0  0  0  0  0  0  0  0  0  0  0  0
   -1.1209   -3.4478    1.1183 H   0  0  0  0  0  0  0  0  0  0  0  0
   -1.4344   -4.0877   -1.8678 H   0  0  0  0  0  0  0  0  0  0  0  0
    0.1046   -3.8041   -1.0255 H   0  0  0  0  0  0  0  0  0  0  0  0
   -0.8751   -5.2279   -0.6239 H   0  0  0  0  0  0  0  0  0  0  0  0
   -0.5609   -1.0970   -0.1093 N   0  0  0  0  0  0  0  0  0  0  0  0
   -0.4795    0.3407   -0.4264 C   0  0  2  0  0  0  0  0  0  0  0  0
    0.9465    0.6807   -0.9330 C   0  0  0  0  0  0  0  0  0  0  0  0
    1.5502   -0.1325   -1.6230 O   0  0  0  0  0  0  0  0  0  0  0  0
   -0.7962    1.1763    0.8395 C   0  0  0  0  0  0  0  0  0  0  0  0
   -2.5184    0.9867    1.4559 S   0  0  0  0  0  0  0  0  0  0  0  0
    0.3114   -1.5911    0.0613 H   0  0  0  0  0  0  0  0  0  0  0  0
   -1.1887    0.5990   -1.2201 H   0  0  0  0  0  0  0  0  0  0  0  0
   -0.1020    0.8978    1.6396 H   0  0  0  0  0  0  0  0  0  0  0  0
   -0.6515    2.2387    0.6204 H   0  0  0  0  0  0  0  0  0  0  0  0
   -2.5045    1.7995    2.5347 H   0  0  0  0  0  0  0  0  0  0  0  0
    1.6466    1.7922   -0.4967 N   0  0  0  0  0  0  0  0  0  0  0  0
    3.0700    2.0529   -0.7464 C   0  0  2  0  0  0  0  0  0  0  0  0
    3.6634    2.9506    0.3611 C   0  0  0  0  0  0  0  0  0  0  0  0
    2.9266    3.4310    1.2168 O   0  0  0  0  0  0  0  0  0  0  0  0
    3.2151    2.7156   -2.1212 C   0  0  0  0  0  0  0  0  0  0  0  0
    1.2023    2.3868    0.2023 H   0  0  0  0  0  0  0  0  0  0  0  0
    3.6267    1.1097   -0.7381 H   0  0  0  0  0  0  0  0  0  0  0  0
    2.6783    3.6694   -2.1452 H   0  0  0  0  0  0  0  0  0  0  0  0
    4.2685    2.9024   -2.3503 H   0  0  0  0  0  0  0  0  0  0  0  0
    2.8056    2.0665   -2.9018 H   0  0  0  0  0  0  0  0  0  0  0  0
    5.0212    3.2058    0.4142 N   0  0  0  0  0  0  0  0  0  0  0  0
    5.6408    4.0374    1.4391 C   0  0  0  0  0  0  0  0  0  0  0  0
    5.6089    2.7882   -0.3014 H   0  0  0  0  0  0  0  0  0  0  0  0
    5.1849    5.0330    1.4539 H   0  0  0  0  0  0  0  0  0  0  0  0
    5.5212    3.5803    2.4267 H   0  0  0  0  0  0  0  0  0  0  0  0
    6.7103    4.1523    1.2382 H   0  0  0  0  0  0  0  0  0  0  0  0
  1  2  2  0  0  0  0
  1  3  1  0  0  0  0
  1  7  1  0  0  0  0
  3  4  1  0  0  0  0
  3  5  1  0  0  0  0
  3  6  1  0  0  0  0
  7  8  1  0  0  0  0
  7 12  1  0  0  0  0
  8  9  1  0  0  0  0
  8 11  1  0  0  0  0
  8 13  1  0  0  0  0
  9 10  2  0  0  0  0
  9 17  1  0  0  0  0
 11 14  1  0  0  0  0
 11 15  1  0  0  0  0
 11 16  1  0  0  0  0
 17 18  1  0  0  0  0
 17 23  1  0  0  0  0
 18 19  1  0  0  0  0
 18 21  1  0  0  0  0
 18 24  1  0  0  0  0
 19 20  2  0  0  0  0
 19 28  1  0  0  0  0
 21 22  1  0  0  0  0
 21 25  1  0  0  0  0
 21 26  1  0  0  0  0
 22 27  1  0  0  0  0
 28 29  1  0  0  0  0
 28 33  1  0  0  0  0
 29 30  1  0  0  0  0
 29 32  1  0  0  0  0
 29 34  1  0  0  0  0
 30 31  2  0  0  0  0
 30 38  1  0  0  0  0
 32 35  1  0  0  0  0
 32 36  1  0  0  0  0
 32 37  1  0  0  0  0
 38 39  1  0  0  0  0
 38 40  1  0  0  0  0
 39 41  1  0  0  0  0
 39 42  1  0  0  0  0
 39 43  1  0  0  0  0
M  END
$$$$

  -OEChem-05262216003D

 43 42  0     1  0  0  0  0  0999 V2000
   -3.3840   -4.8531    1.2272 C   0  0  0  0  0  0  0  0  0  0  0  0
   -2.5523   -5.3898    1.9425 O   0  0  0  0  0  0  0  0  0  0  0  0
   -4.8516   -5.2130    1.3632 C   0  0  0  0  0  0  0  0  0  0  0  0
   -5.2356   -5.5805    0.4084 H   0  0  0  0  0  0  0  0  0  0  0  0
   -4.9802   -5.9932    2.1185 H   0  0  0  0  0  0  0  0  0  0  0  0
   -5.4248   -4.3329    1.6647 H   0  0  0  0  0  0  0  0  0  0  0  0
   -2.9923   -3.9128    0.2988 N   0  0  0  0  0  0  0  0  0  0  0  0
   -1.6333   -3.3683    0.1922 C   0  0  2  0  0  0  0  0  0  0  0  0
   -1.6541   -1.8957   -0.2674 C   0  0  0  0  0  0  0  0  0  0  0  0
   -2.6609   -1.4385   -0.7971 O   0  0  0  0  0  0  0  0  0  0  0  0
   -0.8423   -4.2319   -0.7951 C   0  0  0  0  0  0  0  0  0  0  0  0
   -3.7269   -3.3950   -0.1837 H   0  0  0  0  0  0  0  0  0  0  0  0
   -1.1456   -3.3964    1.1725 H   0  0  0  0  0  0  0  0  0  0  0  0
   -1.3145   -4.2117   -1.7825 H   0  0  0  0  0  0  0  0  0  0  0  0
    0.1839   -3.8653   -0.8923 H   0  0  0  0  0  0  0  0  0  0  0  0
   -0.8063   -5.2690   -0.4470 H   0  0  0  0  0  0  0  0  0  0  0  0
   -0.5208   -1.1124   -0.1421 N   0  0  0  0  0  0  0  0  0  0  0  0
   -0.4549    0.3326   -0.4300 C   0  0  2  0  0  0  0  0  0  0  0  0
    0.9669    0.7084   -0.9171 C   0  0  0  0  0  0  0  0  0  0  0  0
    1.4713    0.0816   -1.8395 O   0  0  0  0  0  0  0  0  0  0  0  0
   -0.8140    1.1450    0.8383 C   0  0  0  0  0  0  0  0  0  0  0  0
   -2.5492    0.9176    1.4042 S   0  0  0  0  0  0  0  0  0  0  0  0
    0.3270   -1.5801    0.1657 H   0  0  0  0  0  0  0  0  0  0  0  0
   -1.1550    0.5927   -1.2317 H   0  0  0  0  0  0  0  0  0  0  0  0
   -0.1401    0.8627    1.6541 H   0  0  0  0  0  0  0  0  0  0  0  0
   -0.6725    2.2113    0.6340 H   0  0  0  0  0  0  0  0  0  0  0  0
   -2.5853    1.7205    2.4897 H   0  0  0  0  0  0  0  0  0  0  0  0
    1.7643    1.6245   -0.2524 N   0  0  0  0  0  0  0  0  0  0  0  0
    3.1896    1.8561   -0.5210 C   0  0  2  0  0  0  0  0  0  0  0  0
    3.9198    2.3318    0.7530 C   0  0  0  0  0  0  0  0  0  0  0  0
    3.2753    2.6012    1.7618 O   0  0  0  0  0  0  0  0  0  0  0  0
    3.3125    2.8953   -1.6400 C   0  0  0  0  0  0  0  0  0  0  0  0
    1.4056    2.0201    0.6160 H   0  0  0  0  0  0  0  0  0  0  0  0
    3.6655    0.9230   -0.8408 H   0  0  0  0  0  0  0  0  0  0  0  0
    2.8555    3.8422   -1.3349 H   0  0  0  0  0  0  0  0  0  0  0  0
    4.3634    3.0775   -1.8839 H   0  0  0  0  0  0  0  0  0  0  0  0
    2.8076    2.5401   -2.5441 H   0  0  0  0  0  0  0  0  0  0  0  0
    5.2982    2.4341    0.7786 N   0  0  0  0  0  0  0  0  0  0  0  0
    6.0493    2.8570    1.9547 C   0  0  0  0  0  0  0  0  0  0  0  0
    5.8051    2.1904   -0.0675 H   0  0  0  0  0  0  0  0  0  0  0  0
    5.7410    3.8604    2.2669 H   0  0  0  0  0  0  0  0  0  0  0  0
    5.8850    2.1632    2.7861 H   0  0  0  0  0  0  0  0  0  0  0  0
    7.1202    2.8792    1.7308 H   0  0  0  0  0  0  0  0  0  0  0  0
  1  2  2  0  0  0  0
  1  3  1  0  0  0  0
  1  7  1  0  0  0  0
  3  4  1  0  0  0  0
  3  5  1  0  0  0  0
  3  6  1  0  0  0  0
  7  8  1  0  0  0  0
  7 12  1  0  0  0  0
  8  9  1  0  0  0  0
  8 11  1  0  0  0  0
  8 13  1  0  0  0  0
  9 10  2  0  0  0  0
  9 17  1  0  0  0  0
 11 14  1  0  0  0  0
 11 15  1  0  0  0  0
 11 16  1  0  0  0  0
 17 18  1  0  0  0  0
 17 23  1  0  0  0  0
 18 19  1  0  0  0  0
 18 21  1  0  0  0  0
 18 24  1  0  0  0  0
 19 20  2  0  0  0  0
 19 28  1  0  0  0  0
 21 22  1  0  0  0  0
 21 25  1  0  0  0  0
 21 26  1  0  0  0  0
 22 27  1  0  0  0  0
 28 29  1  0  0  0  0
 28 33  1  0  0  0  0
 29 30  1  0  0  0  0
 29 32  1  0  0  0  0
 29 34  1  0  0  0  0
 30 31  2  0  0  0  0
 30 38  1  0  0  0  0
 32 35  1  0  0  0  0
 32 36  1  0  0  0  0
 32 37  1  0  0  0  0
 38 39  1  0  0  0  0
 38 40  1  0  0  0  0
 39 41  1  0  0  0  0
 39 42  1  0  0  0  0
 39 43  1  0  0  0  0
M  END
$$$$

  -OEChem-05262216003D

 43 42  0     1  0  0  0  0  0999 V2000
   -3.4297   -4.8114    1.2255 C   0  0  0  0  0  0  0  0  0  0  0  0
   -2.6215   -5.3399    1.9734 O   0  0  0  0  0  0  0  0  0  0  0  0
   -4.9069   -5.1332    1.3497 C   0  0  0  0  0  0  0  0  0  0  0  0
   -5.2864   -5.5155    0.3991 H   0  0  0  0  0  0  0  0  0  0  0  0
   -5.0654   -5.8907    2.1224 H   0  0  0  0  0  0  0  0  0  0  0  0
   -5.4627   -4.2320    1.6201 H   0  0  0  0  0  0  0  0  0  0  0  0
   -3.0032   -3.9108    0.2734 N   0  0  0  0  0  0  0  0  0  0  0  0
   -1.6337   -3.3904    0.1803 C   0  0  2  0  0  0  0  0  0  0  0  0
   -1.6223   -1.9266   -0.3068 C   0  0  0  0  0  0  0  0  0  0  0  0
   -2.6045   -1.4692   -0.8801 O   0  0  0  0  0  0  0  0  0  0  0  0
   -0.8396   -4.2840   -0.7774 C   0  0  0  0  0  0  0  0  0  0  0  0
   -3.7199   -3.3936   -0.2362 H   0  0  0  0  0  0  0  0  0  0  0  0
   -1.1628   -3.4087    1.1689 H   0  0  0  0  0  0  0  0  0  0  0  0
   -1.2985   -4.2803   -1.7714 H   0  0  0  0  0  0  0  0  0  0  0  0
    0.1918   -3.9306   -0.8690 H   0  0  0  0  0  0  0  0  0  0  0  0
   -0.8197   -5.3135   -0.4061 H   0  0  0  0  0  0  0  0  0  0  0  0
   -0.4871   -1.1514   -0.1499 N   0  0  0  0  0  0  0  0  0  0  0  0
   -0.4157    0.2982   -0.4129 C   0  0  2  0  0  0  0  0  0  0  0  0
    1.0085    0.6887   -0.8726 C   0  0  0  0  0  0  0  0  0  0  0  0
    1.4184    0.3091   -1.9606 O   0  0  0  0  0  0  0  0  0  0  0  0
   -0.7993    1.0964    0.8561 C   0  0  0  0  0  0  0  0  0  0  0  0
   -2.5477    0.8605    1.3768 S   0  0  0  0  0  0  0  0  0  0  0  0
    0.3174   -1.6052    0.2720 H   0  0  0  0  0  0  0  0  0  0  0  0
   -1.1029    0.5685   -1.2228 H   0  0  0  0  0  0  0  0  0  0  0  0
   -0.1495    0.8001    1.6860 H   0  0  0  0  0  0  0  0  0  0  0  0
   -0.6433    2.1641    0.6680 H   0  0  0  0  0  0  0  0  0  0  0  0
   -2.6167    1.6598    2.4635 H   0  0  0  0  0  0  0  0  0  0  0  0
    1.8979    1.3455   -0.0396 N   0  0  0  0  0  0  0  0  0  0  0  0
    3.3238    1.5520   -0.3248 C   0  0  2  0  0  0  0  0  0  0  0  0
    4.1425    1.6252    0.9818 C   0  0  0  0  0  0  0  0  0  0  0  0
    3.5640    1.6563    2.0636 O   0  0  0  0  0  0  0  0  0  0  0  0
    3.4760    2.8429   -1.1358 C   0  0  0  0  0  0  0  0  0  0  0  0
    1.6082    1.5103    0.9237 H   0  0  0  0  0  0  0  0  0  0  0  0
    3.7129    0.7106   -0.9081 H   0  0  0  0  0  0  0  0  0  0  0  0
    3.0946    3.6982   -0.5687 H   0  0  0  0  0  0  0  0  0  0  0  0
    4.5274    3.0253   -1.3774 H   0  0  0  0  0  0  0  0  0  0  0  0
    2.9165    2.7693   -2.0740 H   0  0  0  0  0  0  0  0  0  0  0  0
    5.5245    1.6355    0.9489 N   0  0  0  0  0  0  0  0  0  0  0  0
    6.3542    1.7014    2.1461 C   0  0  0  0  0  0  0  0  0  0  0  0
    5.9754    1.5996    0.0391 H   0  0  0  0  0  0  0  0  0  0  0  0
    6.1348    2.6107    2.7157 H   0  0  0  0  0  0  0  0  0  0  0  0
    6.1731    0.8319    2.7867 H   0  0  0  0  0  0  0  0  0  0  0  0
    7.4135    1.7137    1.8718 H   0  0  0  0  0  0  0  0  0  0  0  0
  1  2  2  0  0  0  0
  1  3  1  0  0  0  0
  1  7  1  0  0  0  0
  3  4  1  0  0  0  0
  3  5  1  0  0  0  0
  3  6  1  0  0  0  0
  7  8  1  0  0  0  0
  7 12  1  0  0  0  0
  8  9  1  0  0  0  0
  8 11  1  0  0  0  0
  8 13  1  0  0  0  0
  9 10  2  0  0  0  0
  9 17  1  0  0  0  0
 11 14  1  0  0  0  0
 11 15  1  0  0  0  0
 11 16  1  0  0  0  0
 17 18  1  0  0  0  0
 17 23  1  0  0  0  0
 18 19  1  0  0  0  0
 18 21  1  0  0  0  0
 18 24  1  0  0  0  0
 19 20  2  0  0  0  0
 19 28  1  0  0  0  0
 21 22  1  0  0  0  0
 21 25  1  0  0  0  0
 21 26  1  0  0  0  0
 22 27  1  0  0  0  0
 28 29  1  0  0  0  0
 28 33  1  0  0  0  0
 29 30  1  0  0  0  0
 29 32  1  0  0  0  0
 29 34  1  0  0  0  0
 30 31  2  0  0  0  0
 30 38  1  0  0  0  0
 32 35  1  0  0  0  0
 32 36  1  0  0  0  0
 32 37  1  0  0  0  0
 38 39  1  0  0  0  0
 38 40  1  0  0  0  0
 39 41  1  0  0  0  0
 39 42  1  0  0  0  0
 39 43  1  0  0  0  0
M  END
$$$$

  -OEChem-05262216003D

 43 42  0     1  0  0  0  0  0999 V2000
   -3.4807   -4.7654    1.2386 C   0  0  0  0  0  0  0  0  0  0  0  0
   -2.6997   -5.2790    2.0246 O   0  0  0  0  0  0  0  0  0  0  0  0
   -4.9633   -5.0734    1.3258 C   0  0  0  0  0  0  0  0  0  0  0  0
   -5.3108   -5.5004    0.3819 H   0  0  0  0  0  0  0  0  0  0  0  0
   -5.1523   -5.7914    2.1286 H   0  0  0  0  0  0  0  0  0  0  0  0
   -5.5234   -4.1580    1.5320 H   0  0  0  0  0  0  0  0  0  0  0  0
   -3.0172   -3.8989    0.2725 N   0  0  0  0  0  0  0  0  0  0  0  0
   -1.6375   -3.4041    0.1969 C   0  0  2  0  0  0  0  0  0  0  0  0
   -1.5877   -1.9601   -0.3432 C   0  0  0  0  0  0  0  0  0  0  0  0
   -2.5411   -1.5133   -0.9708 O   0  0  0  0  0  0  0  0  0  0  0  0
   -0.8349   -4.3464   -0.7049 C   0  0  0  0  0  0  0  0  0  0  0  0
   -3.7119   -3.3924   -0.2764 H   0  0  0  0  0  0  0  0  0  0  0  0
   -1.1934   -3.3938    1.1979 H   0  0  0  0  0  0  0  0  0  0  0  0
   -1.2669   -4.3725   -1.7106 H   0  0  0  0  0  0  0  0  0  0  0  0
    0.2050   -4.0150   -0.7809 H   0  0  0  0  0  0  0  0  0  0  0  0
   -0.8441   -5.3613   -0.2947 H   0  0  0  0  0  0  0  0  0  0  0  0
   -0.4531   -1.1893   -0.1589 N   0  0  0  0  0  0  0  0  0  0  0  0
   -0.3789    0.2610   -0.4179 C   0  0  2  0  0  0  0  0  0  0  0  0
    1.0488    0.6631   -0.8470 C   0  0  0  0  0  0  0  0  0  0  0  0
    1.3810    0.5846   -2.0209 O   0  0  0  0  0  0  0  0  0  0  0  0
   -0.7843    1.0610    0.8408 C   0  0  0  0  0  0  0  0  0  0  0  0
   -2.5422    0.8214    1.3250 S   0  0  0  0  0  0  0  0  0  0  0  0
    0.3050   -1.6242    0.3583 H   0  0  0  0  0  0  0  0  0  0  0  0
   -1.0513    0.5311   -1.2404 H   0  0  0  0  0  0  0  0  0  0  0  0
   -0.1530    0.7668    1.6850 H   0  0  0  0  0  0  0  0  0  0  0  0
   -0.6210    2.1277    0.6532 H   0  0  0  0  0  0  0  0  0  0  0  0
   -2.6372    1.6345    2.3993 H   0  0  0  0  0  0  0  0  0  0  0  0
    2.0046    1.0381    0.0812 N   0  0  0  0  0  0  0  0  0  0  0  0
    3.4294    1.2348   -0.2165 C   0  0  2  0  0  0  0  0  0  0  0  0
    4.3026    0.8713    1.0035 C   0  0  0  0  0  0  0  0  0  0  0  0
    3.7706    0.6232    2.0812 O   0  0  0  0  0  0  0  0  0  0  0  0
    3.6420    2.6959   -0.6253 C   0  0  0  0  0  0  0  0  0  0  0  0
    1.7647    0.9422    1.0674 H   0  0  0  0  0  0  0  0  0  0  0  0
    3.7326    0.5808   -1.0413 H   0  0  0  0  0  0  0  0  0  0  0  0
    3.3575    3.3672    0.1911 H   0  0  0  0  0  0  0  0  0  0  0  0
    4.6911    2.8777   -0.8768 H   0  0  0  0  0  0  0  0  0  0  0  0
    3.0327    2.9360   -1.5025 H   0  0  0  0  0  0  0  0  0  0  0  0
    5.6787    0.7991    0.8916 N   0  0  0  0  0  0  0  0  0  0  0  0
    6.5552    0.4537    2.0043 C   0  0  0  0  0  0  0  0  0  0  0  0
    6.0895    0.9917   -0.0175 H   0  0  0  0  0  0  0  0  0  0  0  0
    6.4395    1.1739    2.8212 H   0  0  0  0  0  0  0  0  0  0  0  0
    6.3204   -0.5475    2.3808 H   0  0  0  0  0  0  0  0  0  0  0  0
    7.6003    0.4642    1.6805 H   0  0  0  0  0  0  0  0  0  0  0  0
  1  2  2  0  0  0  0
  1  3  1  0  0  0  0
  1  7  1  0  0  0  0
  3  4  1  0  0  0  0
  3  5  1  0  0  0  0
  3  6  1  0  0  0  0
  7  8  1  0  0  0  0
  7 12  1  0  0  0  0
  8  9  1  0  0  0  0
  8 11  1  0  0  0  0
  8 13  1  0  0  0  0
  9 10  2  0  0  0  0
  9 17  1  0  0  0  0
 11 14  1  0  0  0  0
 11 15  1  0  0  0  0
 11 16  1  0  0  0  0
 17 18  1  0  0  0  0
 17 23  1  0  0  0  0
 18 19  1  0  0  0  0
 18 21  1  0  0  0  0
 18 24  1  0  0  0  0
 19 20  2  0  0  0  0
 19 28  1  0  0  0  0
 21 22  1  0  0  0  0
 21 25  1  0  0  0  0
 21 26  1  0  0  0  0
 22 27  1  0  0  0  0
 28 29  1  0  0  0  0
 28 33  1  0  0  0  0
 29 30  1  0  0  0  0
 29 32  1  0  0  0  0
 29 34  1  0  0  0  0
 30 31  2  0  0  0  0
 30 38  1  0  0  0  0
 32 35  1  0  0  0  0
 32 36  1  0  0  0  0
 32 37  1  0  0  0  0
 38 39  1  0  0  0  0
 38 40  1  0  0  0  0
 39 41  1  0  0  0  0
 39 42  1  0  0  0  0
 39 43  1  0  0  0  0
M  END
$$$$

  -OEChem-05262216003D

 43 42  0     1  0  0  0  0  0999 V2000
   -3.5117   -4.7424    1.2488 C   0  0  0  0  0  0  0  0  0  0  0  0
   -2.7634   -5.2352    2.0786 O   0  0  0  0  0  0  0  0  0  0  0  0
   -4.9995   -5.0340    1.2929 C   0  0  0  0  0  0  0  0  0  0  0  0
   -5.3196   -5.4823    0.3492 H   0  0  0  0  0  0  0  0  0  0  0  0
   -5.2248   -5.7280    2.1074 H   0  0  0  0  0  0  0  0  0  0  0  0
   -5.5557   -4.1074    1.4550 H   0  0  0  0  0  0  0  0  0  0  0  0
   -3.0086   -3.9093    0.2734 N   0  0  0  0  0  0  0  0  0  0  0  0
   -1.6273   -3.4155    0.2365 C   0  0  2  0  0  0  0  0  0  0  0  0
   -1.5620   -1.9838   -0.3338 C   0  0  0  0  0  0  0  0  0  0  0  0
   -2.4985   -1.5499   -0.9949 O   0  0  0  0  0  0  0  0  0  0  0  0
   -0.7937   -4.3755   -0.6170 C   0  0  0  0  0  0  0  0  0  0  0  0
   -3.6819   -3.4145   -0.3117 H   0  0  0  0  0  0  0  0  0  0  0  0
   -1.2178   -3.3830    1.2518 H   0  0  0  0  0  0  0  0  0  0  0  0
   -1.1846   -4.4151   -1.6390 H   0  0  0  0  0  0  0  0  0  0  0  0
    0.2503   -4.0504   -0.6556 H   0  0  0  0  0  0  0  0  0  0  0  0
   -0.8256   -5.3839   -0.1924 H   0  0  0  0  0  0  0  0  0  0  0  0
   -0.4326   -1.2078   -0.1401 N   0  0  0  0  0  0  0  0  0  0  0  0
   -0.3675    0.2411   -0.4149 C   0  0  2  0  0  0  0  0  0  0  0  0
    1.0602    0.6493   -0.8281 C   0  0  0  0  0  0  0  0  0  0  0  0
    1.3307    0.8592   -2.0015 O   0  0  0  0  0  0  0  0  0  0  0  0
   -0.7798    1.0588    0.8286 C   0  0  0  0  0  0  0  0  0  0  0  0
   -2.5393    0.8118    1.3053 S   0  0  0  0  0  0  0  0  0  0  0  0
    0.3076   -1.6279    0.4144 H   0  0  0  0  0  0  0  0  0  0  0  0
   -1.0352    0.4984   -1.2455 H   0  0  0  0  0  0  0  0  0  0  0  0
   -0.1479    0.7885    1.6803 H   0  0  0  0  0  0  0  0  0  0  0  0
   -0.6242    2.1229    0.6210 H   0  0  0  0  0  0  0  0  0  0  0  0
   -2.6592    1.6641    2.3464 H   0  0  0  0  0  0  0  0  0  0  0  0
    2.0690    0.7399    0.1140 N   0  0  0  0  0  0  0  0  0  0  0  0
    3.4952    0.8794   -0.2050 C   0  0  2  0  0  0  0  0  0  0  0  0
    4.3608    0.1069    0.8134 C   0  0  0  0  0  0  0  0  0  0  0  0
    3.8322   -0.4078    1.7943 O   0  0  0  0  0  0  0  0  0  0  0  0
    3.8433    2.3707   -0.2083 C   0  0  0  0  0  0  0  0  0  0  0  0
    1.8561    0.4125    1.0555 H   0  0  0  0  0  0  0  0  0  0  0  0
    3.7031    0.4581   -1.1947 H   0  0  0  0  0  0  0  0  0  0  0  0
    3.6443    2.8127    0.7731 H   0  0  0  0  0  0  0  0  0  0  0  0
    4.8994    2.5202   -0.4511 H   0  0  0  0  0  0  0  0  0  0  0  0
    3.2414    2.8967   -0.9564 H   0  0  0  0  0  0  0  0  0  0  0  0
    5.7228   -0.0328    0.6233 N   0  0  0  0  0  0  0  0  0  0  0  0
    6.5902   -0.7532    1.5475 C   0  0  0  0  0  0  0  0  0  0  0  0
    6.1302    0.3908   -0.2056 H   0  0  0  0  0  0  0  0  0  0  0  0
    6.5520   -0.2979    2.5427 H   0  0  0  0  0  0  0  0  0  0  0  0
    6.2806   -1.8006    1.6271 H   0  0  0  0  0  0  0  0  0  0  0  0
    7.6256   -0.7251    1.1949 H   0  0  0  0  0  0  0  0  0  0  0  0
  1  2  2  0  0  0  0
  1  3  1  0  0  0  0
  1  7  1  0  0  0  0
  3  4  1  0  0  0  0
  3  5  1  0  0  0  0
  3  6  1  0  0  0  0
  7  8  1  0  0  0  0
  7 12  1  0  0  0  0
  8  9  1  0  0  0  0
  8 11  1  0  0  0  0
  8 13  1  0  0  0  0
  9 10  2  0  0  0  0
  9 17  1  0  0  0  0
 11 14  1  0  0  0  0
 11 15  1  0  0  0  0
 11 16  1  0  0  0  0
 17 18  1  0  0  0  0
 17 23  1  0  0  0  0
 18 19  1  0  0  0  0
 18 21  1  0  0  0  0
 18 24  1  0  0  0  0
 19 20  2  0  0  0  0
 19 28  1  0  0  0  0
 21 22  1  0  0  0  0
 21 25  1  0  0  0  0
 21 26  1  0  0  0  0
 22 27  1  0  0  0  0
 28 29  1  0  0  0  0
 28 33  1  0  0  0  0
 29 30  1  0  0  0  0
 29 32  1  0  0  0  0
 29 34  1  0  0  0  0
 30 31  2  0  0  0  0
 30 38  1  0  0  0  0
 32 35  1  0  0  0  0
 32 36  1  0  0  0  0
 32 37  1  0  0  0  0
 38 39  1  0  0  0  0
 38 40  1  0  0  0  0
 39 41  1  0  0  0  0
 39 42  1  0  0  0  0
 39 43  1  0  0  0  0
M  END
$$$$

  -OEChem-05262216003D

 43 42  0     1  0  0  0  0  0999 V2000
   -2.6303   -4.7813    1.4524 C   0  0  0  0  0  0  0  0  0  0  0  0
   -1.8878   -5.0341    2.3884 O   0  0  0  0  0  0  0  0  0  0  0  0
   -4.0137   -5.4010    1.3885 C   0  0  0  0  0  0  0  0  0  0  0  0
   -4.1053   -6.0162    0.4900 H   0  0  0  0  0  0  0  0  0  0  0  0
   -4.1859   -6.0299    2.2661 H   0  0  0  0  0  0  0  0  0  0  0  0
   -4.7734   -4.6159    1.3627 H   0  0  0  0  0  0  0  0  0  0  0  0
   -2.2193   -3.9287    0.4513 N   0  0  0  0  0  0  0  0  0  0  0  0
   -0.9838   -3.1360    0.4872 C   0  0  2  0  0  0  0  0  0  0  0  0
   -1.1790   -1.7754   -0.2142 C   0  0  0  0  0  0  0  0  0  0  0  0
   -2.1341   -1.6119   -0.9656 O   0  0  0  0  0  0  0  0  0  0  0  0
    0.1264   -3.9430   -0.1918 C   0  0  0  0  0  0  0  0  0  0  0  0
   -2.9197   -3.6383   -0.2310 H   0  0  0  0  0  0  0  0  0  0  0  0
   -0.6993   -2.9319    1.5252 H   0  0  0  0  0  0  0  0  0  0  0  0
   -0.1343   -4.1500   -1.2344 H   0  0  0  0  0  0  0  0  0  0  0  0
    1.0710   -3.3924   -0.1714 H   0  0  0  0  0  0  0  0  0  0  0  0
    0.2726   -4.8950    0.3278 H   0  0  0  0  0  0  0  0  0  0  0  0
   -0.2444   -0.7703   -0.0522 N   0  0  0  0  0  0  0  0  0  0  0  0
   -0.3318    0.5745   -0.6572 C   0  0  2  0  0  0  0  0  0  0  0  0
    1.0917    1.1003   -0.9081 C   0  0  0  0  0  0  0  0  0  0  0  0
    1.5490    1.1323   -2.0416 O   0  0  0  0  0  0  0  0  0  0  0  0
   -1.0591    1.5737    0.2677 C   0  0  0  0  0  0  0  0  0  0  0  0
   -2.8290    1.1608    0.5508 S   0  0  0  0  0  0  0  0  0  0  0  0
    0.6253   -1.0418    0.4175 H   0  0  0  0  0  0  0  0  0  0  0  0
   -0.8542    0.5257   -1.6197 H   0  0  0  0  0  0  0  0  0  0  0  0
   -0.5553    1.6136    1.2380 H   0  0  0  0  0  0  0  0  0  0  0  0
   -1.0050    2.5722   -0.1792 H   0  0  0  0  0  0  0  0  0  0  0  0
   -3.2284    2.1940    1.3224 H   0  0  0  0  0  0  0  0  0  0  0  0
    1.9464    1.2460    0.1715 N   0  0  0  0  0  0  0  0  0  0  0  0
    3.3385    0.7884    0.0684 C   0  0  2  0  0  0  0  0  0  0  0  0
    3.4222   -0.7377    0.3005 C   0  0  0  0  0  0  0  0  0  0  0  0
    2.4925   -1.3202    0.8574 O   0  0  0  0  0  0  0  0  0  0  0  0
    4.1624    1.5425    1.1133 C   0  0  0  0  0  0  0  0  0  0  0  0
    1.5008    1.0405    1.0622 H   0  0  0  0  0  0  0  0  0  0  0  0
    3.7481    1.0132   -0.9226 H   0  0  0  0  0  0  0  0  0  0  0  0
    3.7977    1.3238    2.1221 H   0  0  0  0  0  0  0  0  0  0  0  0
    5.2153    1.2501    1.0536 H   0  0  0  0  0  0  0  0  0  0  0  0
    4.0934    2.6216    0.9425 H   0  0  0  0  0  0  0  0  0  0  0  0
    4.5217   -1.4602   -0.1206 N   0  0  0  0  0  0  0  0  0  0  0  0
    4.6282   -2.9076    0.0198 C   0  0  0  0  0  0  0  0  0  0  0  0
    5.2352   -0.9656   -0.6492 H   0  0  0  0  0  0  0  0  0  0  0  0
    4.5605   -3.1977    1.0738 H   0  0  0  0  0  0  0  0  0  0  0  0
    3.8271   -3.4070   -0.5353 H   0  0  0  0  0  0  0  0  0  0  0  0
    5.5894   -3.2550   -0.3716 H   0  0  0  0  0  0  0  0  0  0  0  0
  1  2  2  0  0  0  0
  1  3  1  0  0  0  0
  1  7  1  0  0  0  0
  3  4  1  0  0  0  0
  3  5  1  0  0  0  0
  3  6  1  0  0  0  0
  7  8  1  0  0  0  0
  7 12  1  0  0  0  0
  8  9  1  0  0  0  0
  8 11  1  0  0  0  0
  8 13  1  0  0  0  0
  9 10  2  0  0  0  0
  9 17  1  0  0  0  0
 11 14  1  0  0  0  0
 11 15  1  0  0  0  0
 11 16  1  0  0  0  0
 17 18  1  0  0  0  0
 17 23  1  0  0  0  0
 18 19  1  0  0  0  0
 18 21  1  0  0  0  0
 18 24  1  0  0  0  0
 19 20  2  0  0  0  0
 19 28  1  0  0  0  0
 21 22  1  0  0  0  0
 21 25  1  0  0  0  0
 21 26  1  0  0  0  0
 22 27  1  0  0  0  0
 28 29  1  0  0  0  0
 28 33  1  0  0  0  0
 29 30  1  0  0  0  0
 29 32  1  0  0  0  0
 29 34  1  0  0  0  0
 30 31  2  0  0  0  0
 30 38  1  0  0  0  0
 32 35  1  0  0  0  0
 32 36  1  0  0  0  0
 32 37  1  0  0  0  0
 38 39  1  0  0  0  0
 38 40  1  0  0  0  0
 39 41  1  0  0  0  0
 39 42  1  0  0  0  0
 39 43  1  0  0  0  0
M  END
$$$$

  -OEChem-05262216003D

 43 42  0     1  0  0  0  0  0999 V2000
   -3.6385   -4.7039    1.2582 C   0  0  0  0  0  0  0  0  0  0  0  0
   -2.9563   -5.1584    2.1635 O   0  0  0  0  0  0  0  0  0  0  0  0
   -5.1309   -4.9738    1.2200 C   0  0  0  0  0  0  0  0  0  0  0  0
   -5.3921   -5.4956    0.2960 H   0  0  0  0  0  0  0  0  0  0  0  0
   -5.4239   -5.5953    2.0710 H   0  0  0  0  0  0  0  0  0  0  0  0
   -5.6816   -4.0309    1.2663 H   0  0  0  0  0  0  0  0  0  0  0  0
   -3.0555   -3.9328    0.2755 N   0  0  0  0  0  0  0  0  0  0  0  0
   -1.6697   -3.4509    0.3172 C   0  0  2  0  0  0  0  0  0  0  0  0
   -1.5437   -2.0510   -0.3195 C   0  0  0  0  0  0  0  0  0  0  0  0
   -2.4263   -1.6385   -1.0631 O   0  0  0  0  0  0  0  0  0  0  0  0
   -0.7822   -4.4616   -0.4150 C   0  0  0  0  0  0  0  0  0  0  0  0
   -3.6784   -3.4633   -0.3820 H   0  0  0  0  0  0  0  0  0  0  0  0
   -1.3390   -3.3672    1.3578 H   0  0  0  0  0  0  0  0  0  0  0  0
   -1.0945   -4.5582   -1.4598 H   0  0  0  0  0  0  0  0  0  0  0  0
    0.2648   -4.1438   -0.3916 H   0  0  0  0  0  0  0  0  0  0  0  0
   -0.8548   -5.4440    0.0626 H   0  0  0  0  0  0  0  0  0  0  0  0
   -0.4157   -1.2817   -0.0910 N   0  0  0  0  0  0  0  0  0  0  0  0
   -0.3301    0.1613   -0.4060 C   0  0  2  0  0  0  0  0  0  0  0  0
    1.1082    0.5779   -0.7657 C   0  0  0  0  0  0  0  0  0  0  0  0
    1.3246    1.3204   -1.7124 O   0  0  0  0  0  0  0  0  0  0  0  0
   -0.7591    1.0093    0.8067 C   0  0  0  0  0  0  0  0  0  0  0  0
   -2.5304    0.7820    1.2486 S   0  0  0  0  0  0  0  0  0  0  0  0
    0.2566   -1.6786    0.5578 H   0  0  0  0  0  0  0  0  0  0  0  0
   -0.9697    0.4040   -1.2628 H   0  0  0  0  0  0  0  0  0  0  0  0
   -0.1391    0.7591    1.6733 H   0  0  0  0  0  0  0  0  0  0  0  0
   -0.5947    2.0673    0.5744 H   0  0  0  0  0  0  0  0  0  0  0  0
   -2.6726    1.6814    2.2461 H   0  0  0  0  0  0  0  0  0  0  0  0
    2.1727    0.1388   -0.0006 N   0  0  0  0  0  0  0  0  0  0  0  0
    3.5752    0.2009   -0.4266 C   0  0  2  0  0  0  0  0  0  0  0  0
    4.3103   -1.0995   -0.0352 C   0  0  0  0  0  0  0  0  0  0  0  0
    3.7456   -1.9234    0.6797 O   0  0  0  0  0  0  0  0  0  0  0  0
    4.2213    1.4240    0.2289 C   0  0  0  0  0  0  0  0  0  0  0  0
    1.9670   -0.5605    0.7094 H   0  0  0  0  0  0  0  0  0  0  0  0
    3.6376    0.2988   -1.5159 H   0  0  0  0  0  0  0  0  0  0  0  0
    4.1869    1.3374    1.3196 H   0  0  0  0  0  0  0  0  0  0  0  0
    5.2659    1.5214   -0.0812 H   0  0  0  0  0  0  0  0  0  0  0  0
    3.6887    2.3343   -0.0653 H   0  0  0  0  0  0  0  0  0  0  0  0
    5.5890   -1.3584   -0.4924 N   0  0  0  0  0  0  0  0  0  0  0  0
    6.3289   -2.5699   -0.1575 C   0  0  0  0  0  0  0  0  0  0  0  0
    6.0210   -0.6714   -1.1041 H   0  0  0  0  0  0  0  0  0  0  0  0
    6.4708   -2.6455    0.9260 H   0  0  0  0  0  0  0  0  0  0  0  0
    5.7902   -3.4579   -0.5051 H   0  0  0  0  0  0  0  0  0  0  0  0
    7.3142   -2.5562   -0.6339 H   0  0  0  0  0  0  0  0  0  0  0  0
  1  2  2  0  0  0  0
  1  3  1  0  0  0  0
  1  7  1  0  0  0  0
  3  4  1  0  0  0  0
  3  5  1  0  0  0  0
  3  6  1  0  0  0  0
  7  8  1  0  0  0  0
  7 12  1  0  0  0  0
  8  9  1  0  0  0  0
  8 11  1  0  0  0  0
  8 13  1  0  0  0  0
  9 10  2  0  0  0  0
  9 17  1  0  0  0  0
 11 14  1  0  0  0  0
 11 15  1  0  0  0  0
 11 16  1  0  0  0  0
 17 18  1  0  0  0  0
 17 23  1  0  0  0  0
 18 19  1  0  0  0  0
 18 21  1  0  0  0  0
 18 24  1  0  0  0  0
 19 20  2  0  0  0  0
 19 28  1  0  0  0  0
 21 22  1  0  0  0  0
 21 25  1  0  0  0  0
 21 26  1  0  0  0  0
 22 27  1  0  0  0  0
 28 29  1  0  0  0  0
 28 33  1  0  0  0  0
 29 30  1  0  0  0  0
 29 32  1  0  0  0  0
 29 34  1  0  0  0  0
 30 31  2  0  0  0  0
 30 38  1  0  0  0  0
 32 35  1  0  0  0  0
 32 36  1  0  0  0  0
 32 37  1  0  0  0  0
 38 39  1  0  0  0  0
 38 40  1  0  0  0  0
 39 41  1  0  0  0  0
 39 42  1  0  0  0  0
 39 43  1  0  0  0  0
M  END
$$$$

  -OEChem-05262216003D

 43 42  0     1  0  0  0  0  0999 V2000
   -3.9020   -4.5918    1.3015 C   0  0  0  0  0  0  0  0  0  0  0  0
   -3.2976   -5.0095    2.2770 O   0  0  0  0  0  0  0  0  0  0  0  0
   -5.3979   -4.8127    1.1794 C   0  0  0  0  0  0  0  0  0  0  0  0
   -5.6241   -5.3281    0.2429 H   0  0  0  0  0  0  0  0  0  0  0  0
   -5.7582   -5.4226    2.0127 H   0  0  0  0  0  0  0  0  0  0  0  0
   -5.9189   -3.8521    1.1931 H   0  0  0  0  0  0  0  0  0  0  0  0
   -3.2278   -3.9073    0.3134 N   0  0  0  0  0  0  0  0  0  0  0  0
   -1.8258   -3.4849    0.4106 C   0  0  2  0  0  0  0  0  0  0  0  0
   -1.5876   -2.1499   -0.3249 C   0  0  0  0  0  0  0  0  0  0  0  0
   -2.4126   -1.7407   -1.1337 O   0  0  0  0  0  0  0  0  0  0  0  0
   -0.9437   -4.5907   -0.1773 C   0  0  0  0  0  0  0  0  0  0  0  0
   -3.7885   -3.4590   -0.4113 H   0  0  0  0  0  0  0  0  0  0  0  0
   -1.5600   -3.3301    1.4620 H   0  0  0  0  0  0  0  0  0  0  0  0
   -1.1923   -4.7585   -1.2303 H   0  0  0  0  0  0  0  0  0  0  0  0
    0.1140   -4.3194   -0.1077 H   0  0  0  0  0  0  0  0  0  0  0  0
   -1.0948   -5.5265    0.3701 H   0  0  0  0  0  0  0  0  0  0  0  0
   -0.4207   -1.4373   -0.1077 N   0  0  0  0  0  0  0  0  0  0  0  0
   -0.2900    0.0020   -0.4245 C   0  0  2  0  0  0  0  0  0  0  0  0
    1.1530    0.3810   -0.8107 C   0  0  0  0  0  0  0  0  0  0  0  0
    1.3701    1.3813   -1.4803 O   0  0  0  0  0  0  0  0  0  0  0  0
   -0.6702    0.8539    0.8013 C   0  0  0  0  0  0  0  0  0  0  0  0
   -2.4414    0.6760    1.2677 S   0  0  0  0  0  0  0  0  0  0  0  0
    0.1456   -1.7982    0.6533 H   0  0  0  0  0  0  0  0  0  0  0  0
   -0.9356    0.2708   -1.2686 H   0  0  0  0  0  0  0  0  0  0  0  0
   -0.0412    0.5793    1.6541 H   0  0  0  0  0  0  0  0  0  0  0  0
   -0.4786    1.9087    0.5738 H   0  0  0  0  0  0  0  0  0  0  0  0
   -2.5489    1.5936    2.2535 H   0  0  0  0  0  0  0  0  0  0  0  0
    2.2255   -0.3137   -0.2828 N   0  0  0  0  0  0  0  0  0  0  0  0
    3.6188   -0.1258   -0.7023 C   0  0  2  0  0  0  0  0  0  0  0  0
    4.3665   -1.4764   -0.7058 C   0  0  0  0  0  0  0  0  0  0  0  0
    3.8404   -2.4633   -0.1989 O   0  0  0  0  0  0  0  0  0  0  0  0
    4.2834    0.8659    0.2568 C   0  0  0  0  0  0  0  0  0  0  0  0
    2.0168   -1.2258    0.1181 H   0  0  0  0  0  0  0  0  0  0  0  0
    3.6550    0.2747   -1.7212 H   0  0  0  0  0  0  0  0  0  0  0  0
    4.2706    0.4766    1.2799 H   0  0  0  0  0  0  0  0  0  0  0  0
    5.3222    1.0466   -0.0353 H   0  0  0  0  0  0  0  0  0  0  0  0
    3.7509    1.8224    0.2409 H   0  0  0  0  0  0  0  0  0  0  0  0
    5.6153   -1.5921   -1.2875 N   0  0  0  0  0  0  0  0  0  0  0  0
    6.3609   -2.8439   -1.3414 C   0  0  0  0  0  0  0  0  0  0  0  0
    6.0113   -0.7647   -1.7245 H   0  0  0  0  0  0  0  0  0  0  0  0
    6.5363   -3.2305   -0.3319 H   0  0  0  0  0  0  0  0  0  0  0  0
    5.8079   -3.5950   -1.9150 H   0  0  0  0  0  0  0  0  0  0  0  0
    7.3308   -2.6861   -1.8229 H   0  0  0  0  0  0  0  0  0  0  0  0
  1  2  2  0  0  0  0
  1  3  1  0  0  0  0
  1  7  1  0  0  0  0
  3  4  1  0  0  0  0
  3  5  1  0  0  0  0
  3  6  1  0  0  0  0
  7  8  1  0  0  0  0
  7 12  1  0  0  0  0
  8  9  1  0  0  0  0
  8 11  1  0  0  0  0
  8 13  1  0  0  0  0
  9 10  2  0  0  0  0
  9 17  1  0  0  0  0
 11 14  1  0  0  0  0
 11 15  1  0  0  0  0
 11 16  1  0  0  0  0
 17 18  1  0  0  0  0
 17 23  1  0  0  0  0
 18 19  1  0  0  0  0
 18 21  1  0  0  0  0
 18 24  1  0  0  0  0
 19 20  2  0  0  0  0
 19 28  1  0  0  0  0
 21 22  1  0  0  0  0
 21 25  1  0  0  0  0
 21 26  1  0  0  0  0
 22 27  1  0  0  0  0
 28 29  1  0  0  0  0
 28 33  1  0  0  0  0
 29 30  1  0  0  0  0
 29 32  1  0  0  0  0
 29 34  1  0  0  0  0
 30 31  2  0  0  0  0
 30 38  1  0  0  0  0
 32 35  1  0  0  0  0
 32 36  1  0  0  0  0
 32 37  1  0  0  0  0
 38 39  1  0  0  0  0
 38 40  1  0  0  0  0
 39 41  1  0  0  0  0
 39 42  1  0  0  0  0
 39 43  1  0  0  0  0
M  END
$$$$

  -OEChem-05262216003D

 43 42  0     1  0  0  0  0  0999 V2000
   -3.9719   -4.5735    1.3562 C   0  0  0  0  0  0  0  0  0  0  0  0
   -3.3476   -5.0241    2.3042 O   0  0  0  0  0  0  0  0  0  0  0  0
   -5.4734   -4.7712    1.2686 C   0  0  0  0  0  0  0  0  0  0  0  0
   -5.7262   -5.3036    0.3484 H   0  0  0  0  0  0  0  0  0  0  0  0
   -5.8275   -5.3553    2.1227 H   0  0  0  0  0  0  0  0  0  0  0  0
   -5.9777   -3.8017    1.2709 H   0  0  0  0  0  0  0  0  0  0  0  0
   -3.3130   -3.8791    0.3646 N   0  0  0  0  0  0  0  0  0  0  0  0
   -1.8984   -3.4932    0.4261 C   0  0  2  0  0  0  0  0  0  0  0  0
   -1.6433   -2.1639   -0.3146 C   0  0  0  0  0  0  0  0  0  0  0  0
   -2.4788   -1.7292   -1.0993 O   0  0  0  0  0  0  0  0  0  0  0  0
   -1.0601   -4.6212   -0.1836 C   0  0  0  0  0  0  0  0  0  0  0  0
   -3.8839   -3.4074   -0.3370 H   0  0  0  0  0  0  0  0  0  0  0  0
   -1.6038   -3.3467    1.4708 H   0  0  0  0  0  0  0  0  0  0  0  0
   -1.3382   -4.7811   -1.2303 H   0  0  0  0  0  0  0  0  0  0  0  0
    0.0058   -4.3780   -0.1394 H   0  0  0  0  0  0  0  0  0  0  0  0
   -1.2230   -5.5536    0.3664 H   0  0  0  0  0  0  0  0  0  0  0  0
   -0.4505   -1.4841   -0.1335 N   0  0  0  0  0  0  0  0  0  0  0  0
   -0.2988   -0.0441   -0.4396 C   0  0  2  0  0  0  0  0  0  0  0  0
    1.1389    0.3061   -0.8778 C   0  0  0  0  0  0  0  0  0  0  0  0
    1.4021    1.4220   -1.3051 O   0  0  0  0  0  0  0  0  0  0  0  0
   -0.6145    0.7899    0.8181 C   0  0  0  0  0  0  0  0  0  0  0  0
   -2.3703    0.6367    1.3490 S   0  0  0  0  0  0  0  0  0  0  0  0
    0.1282   -1.8575    0.6129 H   0  0  0  0  0  0  0  0  0  0  0  0
   -0.9705    0.2532   -1.2529 H   0  0  0  0  0  0  0  0  0  0  0  0
    0.0424    0.4846    1.6388 H   0  0  0  0  0  0  0  0  0  0  0  0
   -0.4118    1.8462    0.6075 H   0  0  0  0  0  0  0  0  0  0  0  0
   -2.4171    1.5240    2.3662 H   0  0  0  0  0  0  0  0  0  0  0  0
    2.1741   -0.5840   -0.6597 N   0  0  0  0  0  0  0  0  0  0  0  0
    3.5571   -0.3826   -1.1073 C   0  0  2  0  0  0  0  0  0  0  0  0
    4.2348   -1.7376   -1.4042 C   0  0  0  0  0  0  0  0  0  0  0  0
    3.6871   -2.7811   -1.0607 O   0  0  0  0  0  0  0  0  0  0  0  0
    4.3197    0.3742   -0.0153 C   0  0  0  0  0  0  0  0  0  0  0  0
    1.9052   -1.5525   -0.4910 H   0  0  0  0  0  0  0  0  0  0  0  0
    3.5671    0.2039   -2.0327 H   0  0  0  0  0  0  0  0  0  0  0  0
    4.3290   -0.2032    0.9146 H   0  0  0  0  0  0  0  0  0  0  0  0
    5.3537    0.5557   -0.3231 H   0  0  0  0  0  0  0  0  0  0  0  0
    3.8445    1.3408    0.1793 H   0  0  0  0  0  0  0  0  0  0  0  0
    5.4488   -1.7918   -2.0634 N   0  0  0  0  0  0  0  0  0  0  0  0
    6.1334   -3.0401   -2.3773 C   0  0  0  0  0  0  0  0  0  0  0  0
    5.8728   -0.9131   -2.3467 H   0  0  0  0  0  0  0  0  0  0  0  0
    6.3809   -3.5822   -1.4585 H   0  0  0  0  0  0  0  0  0  0  0  0
    5.5006   -3.6775   -3.0039 H   0  0  0  0  0  0  0  0  0  0  0  0
    7.0619   -2.8368   -2.9195 H   0  0  0  0  0  0  0  0  0  0  0  0
  1  2  2  0  0  0  0
  1  3  1  0  0  0  0
  1  7  1  0  0  0  0
  3  4  1  0  0  0  0
  3  5  1  0  0  0  0
  3  6  1  0  0  0  0
  7  8  1  0  0  0  0
  7 12  1  0  0  0  0
  8  9  1  0  0  0  0
  8 11  1  0  0  0  0
  8 13  1  0  0  0  0
  9 10  2  0  0  0  0
  9 17  1  0  0  0  0
 11 14  1  0  0  0  0
 11 15  1  0  0  0  0
 11 16  1  0  0  0  0
 17 18  1  0  0  0  0
 17 23  1  0  0  0  0
 18 19  1  0  0  0  0
 18 21  1  0  0  0  0
 18 24  1  0  0  0  0
 19 20  2  0  0  0  0
 19 28  1  0  0  0  0
 21 22  1  0  0  0  0
 21 25  1  0  0  0  0
 21 26  1  0  0  0  0
 22 27  1  0  0  0  0
 28 29  1  0  0  0  0
 28 33  1  0  0  0  0
 29 30  1  0  0  0  0
 29 32  1  0  0  0  0
 29 34  1  0  0  0  0
 30 31  2  0  0  0  0
 30 38  1  0  0  0  0
 32 35  1  0  0  0  0
 32 36  1  0  0  0  0
 32 37  1  0  0  0  0
 38 39  1  0  0  0  0
 38 40  1  0  0  0  0
 39 41  1  0  0  0  0
 39 42  1  0  0  0  0
 39 43  1  0  0  0  0
M  END
$$$$

  -OEChem-05262216003D

 43 42  0     1  0  0  0  0  0999 V2000
   -3.9459   -4.5902    1.4032 C   0  0  0  0  0  0  0  0  0  0  0  0
   -3.3045   -5.0502    2.3352 O   0  0  0  0  0  0  0  0  0  0  0  0
   -5.4500   -4.7806    1.3456 C   0  0  0  0  0  0  0  0  0  0  0  0
   -5.7254   -5.3020    0.4255 H   0  0  0  0  0  0  0  0  0  0  0  0
   -5.7878   -5.3728    2.2008 H   0  0  0  0  0  0  0  0  0  0  0  0
   -5.9503   -3.8092    1.3698 H   0  0  0  0  0  0  0  0  0  0  0  0
   -3.3045   -3.8873    0.4061 N   0  0  0  0  0  0  0  0  0  0  0  0
   -1.8899   -3.4984    0.4468 C   0  0  2  0  0  0  0  0  0  0  0  0
   -1.6534   -2.1654   -0.2925 C   0  0  0  0  0  0  0  0  0  0  0  0
   -2.5025   -1.7326   -1.0633 O   0  0  0  0  0  0  0  0  0  0  0  0
   -1.0588   -4.6208   -0.1828 C   0  0  0  0  0  0  0  0  0  0  0  0
   -3.8876   -3.4118   -0.2829 H   0  0  0  0  0  0  0  0  0  0  0  0
   -1.5781   -3.3550    1.4870 H   0  0  0  0  0  0  0  0  0  0  0  0
   -1.3546   -4.7755   -1.2254 H   0  0  0  0  0  0  0  0  0  0  0  0
    0.0072   -4.3757   -0.1559 H   0  0  0  0  0  0  0  0  0  0  0  0
   -1.2096   -5.5567    0.3646 H   0  0  0  0  0  0  0  0  0  0  0  0
   -0.4601   -1.4820   -0.1342 N   0  0  0  0  0  0  0  0  0  0  0  0
   -0.3161   -0.0421   -0.4431 C   0  0  2  0  0  0  0  0  0  0  0  0
    1.1175    0.2972   -0.9068 C   0  0  0  0  0  0  0  0  0  0  0  0
    1.4495    1.4538   -1.1303 O   0  0  0  0  0  0  0  0  0  0  0  0
   -0.6173    0.7875    0.8229 C   0  0  0  0  0  0  0  0  0  0  0  0
   -2.3640    0.6292    1.3810 S   0  0  0  0  0  0  0  0  0  0  0  0
    0.1422   -1.8556    0.5939 H   0  0  0  0  0  0  0  0  0  0  0  0
   -1.0000    0.2547   -1.2465 H   0  0  0  0  0  0  0  0  0  0  0  0
    0.0533    0.4830    1.6328 H   0  0  0  0  0  0  0  0  0  0  0  0
   -0.4238    1.8454    0.6143 H   0  0  0  0  0  0  0  0  0  0  0  0
   -2.3935    1.5137    2.4017 H   0  0  0  0  0  0  0  0  0  0  0  0
    2.0742   -0.6970   -0.9894 N   0  0  0  0  0  0  0  0  0  0  0  0
    3.4290   -0.5154   -1.5233 C   0  0  2  0  0  0  0  0  0  0  0  0
    3.9625   -1.8366   -2.1185 C   0  0  0  0  0  0  0  0  0  0  0  0
    3.3552   -2.8845   -1.9199 O   0  0  0  0  0  0  0  0  0  0  0  0
    4.3424   -0.0255   -0.3944 C   0  0  0  0  0  0  0  0  0  0  0  0
    1.7255   -1.6558   -0.9814 H   0  0  0  0  0  0  0  0  0  0  0  0
    3.4124    0.2286   -2.3271 H   0  0  0  0  0  0  0  0  0  0  0  0
    4.3763   -0.7605    0.4162 H   0  0  0  0  0  0  0  0  0  0  0  0
    5.3600    0.1327   -0.7641 H   0  0  0  0  0  0  0  0  0  0  0  0
    3.9734    0.9225    0.0099 H   0  0  0  0  0  0  0  0  0  0  0  0
    5.1144   -1.8531   -2.8831 N   0  0  0  0  0  0  0  0  0  0  0  0
    5.6626   -3.0664   -3.4774 C   0  0  0  0  0  0  0  0  0  0  0  0
    5.5897   -0.9690   -3.0407 H   0  0  0  0  0  0  0  0  0  0  0  0
    5.9101   -3.7966   -2.6997 H   0  0  0  0  0  0  0  0  0  0  0  0
    4.9398   -3.5164   -4.1661 H   0  0  0  0  0  0  0  0  0  0  0  0
    6.5744   -2.8350   -4.0363 H   0  0  0  0  0  0  0  0  0  0  0  0
  1  2  2  0  0  0  0
  1  3  1  0  0  0  0
  1  7  1  0  0  0  0
  3  4  1  0  0  0  0
  3  5  1  0  0  0  0
  3  6  1  0  0  0  0
  7  8  1  0  0  0  0
  7 12  1  0  0  0  0
  8  9  1  0  0  0  0
  8 11  1  0  0  0  0
  8 13  1  0  0  0  0
  9 10  2  0  0  0  0
  9 17  1  0  0  0  0
 11 14  1  0  0  0  0
 11 15  1  0  0  0  0
 11 16  1  0  0  0  0
 17 18  1  0  0  0  0
 17 23  1  0  0  0  0
 18 19  1  0  0  0  0
 18 21  1  0  0  0  0
 18 24  1  0  0  0  0
 19 20  2  0  0  0  0
 19 28  1  0  0  0  0
 21 22  1  0  0  0  0
 21 25  1  0  0  0  0
 21 26  1  0  0  0  0
 22 27  1  0  0  0  0
 28 29  1  0  0  0  0
 28 33  1  0  0  0  0
 29 30  1  0  0  0  0
 29 32  1  0  0  0  0
 29 34  1  0  0  0  0
 30 31  2  0  0  0  0
 30 38  1  0  0  0  0
 32 35  1  0  0  0  0
 32 36  1  0  0  0  0
 32 37  1  0  0  0  0
 38 39  1  0  0  0  0
 38 40  1  0  0  0  0
 39 41  1  0  0  0  0
 39 42  1  0  0  0  0
 39 43  1  0  0  0  0
M  END
$$$$

  -OEChem-05262216003D

 43 42  0     1  0  0  0  0  0999 V2000
   -3.8918   -4.6209    1.4490 C   0  0  0  0  0  0  0  0  0  0  0  0
   -3.2210   -5.0819    2.3595 O   0  0  0  0  0  0  0  0  0  0  0  0
   -5.3931   -4.8380    1.4226 C   0  0  0  0  0  0  0  0  0  0  0  0
   -5.6821   -5.3365    0.4940 H   0  0  0  0  0  0  0  0  0  0  0  0
   -5.6980   -5.4618    2.2674 H   0  0  0  0  0  0  0  0  0  0  0  0
   -5.9107   -3.8780    1.4892 H   0  0  0  0  0  0  0  0  0  0  0  0
   -3.2852   -3.8965    0.4455 N   0  0  0  0  0  0  0  0  0  0  0  0
   -1.8732   -3.4953    0.4525 C   0  0  2  0  0  0  0  0  0  0  0  0
   -1.6660   -2.1468   -0.2678 C   0  0  0  0  0  0  0  0  0  0  0  0
   -2.5401   -1.7049   -1.0047 O   0  0  0  0  0  0  0  0  0  0  0  0
   -1.0524   -4.5998   -0.2220 C   0  0  0  0  0  0  0  0  0  0  0  0
   -3.8917   -3.4181   -0.2207 H   0  0  0  0  0  0  0  0  0  0  0  0
   -1.5331   -3.3693    1.4860 H   0  0  0  0  0  0  0  0  0  0  0  0
   -1.3755   -4.7374   -1.2592 H   0  0  0  0  0  0  0  0  0  0  0  0
    0.0123   -4.3474   -0.2191 H   0  0  0  0  0  0  0  0  0  0  0  0
   -1.1821   -5.5473    0.3109 H   0  0  0  0  0  0  0  0  0  0  0  0
   -0.4699   -1.4616   -0.1395 N   0  0  0  0  0  0  0  0  0  0  0  0
   -0.3290   -0.0214   -0.4476 C   0  0  2  0  0  0  0  0  0  0  0  0
    1.0987    0.3017   -0.9448 C   0  0  0  0  0  0  0  0  0  0  0  0
    1.5274    1.4485   -0.9580 O   0  0  0  0  0  0  0  0  0  0  0  0
   -0.6141    0.8058    0.8256 C   0  0  0  0  0  0  0  0  0  0  0  0
   -2.3530    0.6489    1.4076 S   0  0  0  0  0  0  0  0  0  0  0  0
    0.1722   -1.8503    0.5457 H   0  0  0  0  0  0  0  0  0  0  0  0
   -1.0256    0.2776   -1.2388 H   0  0  0  0  0  0  0  0  0  0  0  0
    0.0673    0.4985    1.6254 H   0  0  0  0  0  0  0  0  0  0  0  0
   -0.4249    1.8648    0.6191 H   0  0  0  0  0  0  0  0  0  0  0  0
   -2.3673    1.5386    2.4237 H   0  0  0  0  0  0  0  0  0  0  0  0
    1.9368   -0.7228   -1.3431 N   0  0  0  0  0  0  0  0  0  0  0  0
    3.2660   -0.5422   -1.9395 C   0  0  2  0  0  0  0  0  0  0  0  0
    3.6482   -1.7555   -2.8144 C   0  0  0  0  0  0  0  0  0  0  0  0
    2.9905   -2.7891   -2.7476 O   0  0  0  0  0  0  0  0  0  0  0  0
    4.2928   -0.3497   -0.8176 C   0  0  0  0  0  0  0  0  0  0  0  0
    1.5027   -1.6372   -1.4761 H   0  0  0  0  0  0  0  0  0  0  0  0
    3.2601    0.3439   -2.5833 H   0  0  0  0  0  0  0  0  0  0  0  0
    4.3190   -1.2306   -0.1682 H   0  0  0  0  0  0  0  0  0  0  0  0
    5.2926   -0.1937   -1.2339 H   0  0  0  0  0  0  0  0  0  0  0  0
    4.0354    0.5237   -0.2102 H   0  0  0  0  0  0  0  0  0  0  0  0
    4.7245   -1.6904   -3.6798 N   0  0  0  0  0  0  0  0  0  0  0  0
    5.1376   -2.8024   -4.5277 C   0  0  0  0  0  0  0  0  0  0  0  0
    5.2412   -0.8170   -3.7265 H   0  0  0  0  0  0  0  0  0  0  0  0
    5.4128   -3.6682   -3.9162 H   0  0  0  0  0  0  0  0  0  0  0  0
    4.3258   -3.0918   -5.2033 H   0  0  0  0  0  0  0  0  0  0  0  0
    6.0040   -2.5165   -5.1318 H   0  0  0  0  0  0  0  0  0  0  0  0
  1  2  2  0  0  0  0
  1  3  1  0  0  0  0
  1  7  1  0  0  0  0
  3  4  1  0  0  0  0
  3  5  1  0  0  0  0
  3  6  1  0  0  0  0
  7  8  1  0  0  0  0
  7 12  1  0  0  0  0
  8  9  1  0  0  0  0
  8 11  1  0  0  0  0
  8 13  1  0  0  0  0
  9 10  2  0  0  0  0
  9 17  1  0  0  0  0
 11 14  1  0  0  0  0
 11 15  1  0  0  0  0
 11 16  1  0  0  0  0
 17 18  1  0  0  0  0
 17 23  1  0  0  0  0
 18 19  1  0  0  0  0
 18 21  1  0  0  0  0
 18 24  1  0  0  0  0
 19 20  2  0  0  0  0
 19 28  1  0  0  0  0
 21 22  1  0  0  0  0
 21 25  1  0  0  0  0
 21 26  1  0  0  0  0
 22 27  1  0  0  0  0
 28 29  1  0  0  0  0
 28 33  1  0  0  0  0
 29 30  1  0  0  0  0
 29 32  1  0  0  0  0
 29 34  1  0  0  0  0
 30 31  2  0  0  0  0
 30 38  1  0  0  0  0
 32 35  1  0  0  0  0
 32 36  1  0  0  0  0
 32 37  1  0  0  0  0
 38 39  1  0  0  0  0
 38 40  1  0  0  0  0
 39 41  1  0  0  0  0
 39 42  1  0  0  0  0
 39 43  1  0  0  0  0
M  END
$$$$

  -OEChem-05262216003D

 43 42  0     1  0  0  0  0  0999 V2000
   -3.8656   -4.6073    1.5106 C   0  0  0  0  0  0  0  0  0  0  0  0
   -3.1988   -5.0438    2.4360 O   0  0  0  0  0  0  0  0  0  0  0  0
   -5.3684   -4.8141    1.4876 C   0  0  0  0  0  0  0  0  0  0  0  0
   -5.6586   -5.3424    0.5762 H   0  0  0  0  0  0  0  0  0  0  0  0
   -5.6812   -5.4056    2.3523 H   0  0  0  0  0  0  0  0  0  0  0  0
   -5.8779   -3.8479    1.5185 H   0  0  0  0  0  0  0  0  0  0  0  0
   -3.2538   -3.9166    0.4868 N   0  0  0  0  0  0  0  0  0  0  0  0
   -1.8427   -3.5119    0.4875 C   0  0  2  0  0  0  0  0  0  0  0  0
   -1.6387   -2.1881   -0.2784 C   0  0  0  0  0  0  0  0  0  0  0  0
   -2.5147   -1.7729   -1.0287 O   0  0  0  0  0  0  0  0  0  0  0  0
   -1.0146   -4.6365   -0.1423 C   0  0  0  0  0  0  0  0  0  0  0  0
   -3.8583   -3.4561   -0.1937 H   0  0  0  0  0  0  0  0  0  0  0  0
   -1.5082   -3.3474    1.5175 H   0  0  0  0  0  0  0  0  0  0  0  0
   -1.3273   -4.8076   -1.1774 H   0  0  0  0  0  0  0  0  0  0  0  0
    0.0496   -4.3828   -0.1367 H   0  0  0  0  0  0  0  0  0  0  0  0
   -1.1490   -5.5659    0.4202 H   0  0  0  0  0  0  0  0  0  0  0  0
   -0.4503   -1.4868   -0.1667 N   0  0  0  0  0  0  0  0  0  0  0  0
   -0.3364   -0.0476   -0.4857 C   0  0  2  0  0  0  0  0  0  0  0  0
    1.0842    0.2819   -0.9999 C   0  0  0  0  0  0  0  0  0  0  0  0
    1.6090    1.3707   -0.8017 O   0  0  0  0  0  0  0  0  0  0  0  0
   -0.6352    0.7849    0.7818 C   0  0  0  0  0  0  0  0  0  0  0  0
   -2.3700    0.6005    1.3678 S   0  0  0  0  0  0  0  0  0  0  0  0
    0.2019   -1.8578    0.5186 H   0  0  0  0  0  0  0  0  0  0  0  0
   -1.0415    0.2333   -1.2755 H   0  0  0  0  0  0  0  0  0  0  0  0
    0.0543    0.4991    1.5825 H   0  0  0  0  0  0  0  0  0  0  0  0
   -0.4678    1.8457    0.5653 H   0  0  0  0  0  0  0  0  0  0  0  0
   -2.3912    1.4818    2.3915 H   0  0  0  0  0  0  0  0  0  0  0  0
    1.8039   -0.6827   -1.6793 N   0  0  0  0  0  0  0  0  0  0  0  0
    3.1112   -0.4699   -2.3136 C   0  0  2  0  0  0  0  0  0  0  0  0
    3.3367   -1.4577   -3.4779 C   0  0  0  0  0  0  0  0  0  0  0  0
    2.6099   -2.4379   -3.5997 O   0  0  0  0  0  0  0  0  0  0  0  0
    4.2062   -0.6350   -1.2536 C   0  0  0  0  0  0  0  0  0  0  0  0
    1.2984   -1.5299   -1.9434 H   0  0  0  0  0  0  0  0  0  0  0  0
    3.1565    0.5431   -2.7274 H   0  0  0  0  0  0  0  0  0  0  0  0
    4.1724   -1.6408   -0.8227 H   0  0  0  0  0  0  0  0  0  0  0  0
    5.1951   -0.4773   -1.6943 H   0  0  0  0  0  0  0  0  0  0  0  0
    4.0704    0.0939   -0.4484 H   0  0  0  0  0  0  0  0  0  0  0  0
    4.3483   -1.2438   -4.3960 N   0  0  0  0  0  0  0  0  0  0  0  0
    4.5907   -2.1188   -5.5367 C   0  0  0  0  0  0  0  0  0  0  0  0
    4.9173   -0.4095   -4.2860 H   0  0  0  0  0  0  0  0  0  0  0  0
    4.7784   -3.1442   -5.2013 H   0  0  0  0  0  0  0  0  0  0  0  0
    3.7257   -2.1197   -6.2082 H   0  0  0  0  0  0  0  0  0  0  0  0
    5.4646   -1.7754   -6.0985 H   0  0  0  0  0  0  0  0  0  0  0  0
  1  2  2  0  0  0  0
  1  3  1  0  0  0  0
  1  7  1  0  0  0  0
  3  4  1  0  0  0  0
  3  5  1  0  0  0  0
  3  6  1  0  0  0  0
  7  8  1  0  0  0  0
  7 12  1  0  0  0  0
  8  9  1  0  0  0  0
  8 11  1  0  0  0  0
  8 13  1  0  0  0  0
  9 10  2  0  0  0  0
  9 17  1  0  0  0  0
 11 14  1  0  0  0  0
 11 15  1  0  0  0  0
 11 16  1  0  0  0  0
 17 18  1  0  0  0  0
 17 23  1  0  0  0  0
 18 19  1  0  0  0  0
 18 21  1  0  0  0  0
 18 24  1  0  0  0  0
 19 20  2  0  0  0  0
 19 28  1  0  0  0  0
 21 22  1  0  0  0  0
 21 25  1  0  0  0  0
 21 26  1  0  0  0  0
 22 27  1  0  0  0  0
 28 29  1  0  0  0  0
 28 33  1  0  0  0  0
 29 30  1  0  0  0  0
 29 32  1  0  0  0  0
 29 34  1  0  0  0  0
 30 31  2  0  0  0  0
 30 38  1  0  0  0  0
 32 35  1  0  0  0  0
 32 36  1  0  0  0  0
 32 37  1  0  0  0  0
 38 39  1  0  0  0  0
 38 40  1  0  0  0  0
 39 41  1  0  0  0  0
 39 42  1  0  0  0  0
 39 43  1  0  0  0  0
M  END
$$$$

  -OEChem-05262216003D

 43 42  0     1  0  0  0  0  0999 V2000
   -3.7727   -4.6673    1.5177 C   0  0  0  0  0  0  0  0  0  0  0  0
   -3.0696   -5.1228    2.4065 O   0  0  0  0  0  0  0  0  0  0  0  0
   -5.2693   -4.9152    1.5255 C   0  0  0  0  0  0  0  0  0  0  0  0
   -5.5651   -5.4467    0.6175 H   0  0  0  0  0  0  0  0  0  0  0  0
   -5.5472   -5.5189    2.3939 H   0  0  0  0  0  0  0  0  0  0  0  0
   -5.8038   -3.9634    1.5727 H   0  0  0  0  0  0  0  0  0  0  0  0
   -3.2081   -3.9192    0.5071 N   0  0  0  0  0  0  0  0  0  0  0  0
   -1.8036   -3.4941    0.4756 C   0  0  2  0  0  0  0  0  0  0  0  0
   -1.6383   -2.1525   -0.2683 C   0  0  0  0  0  0  0  0  0  0  0  0
   -2.5357   -1.7382   -0.9932 O   0  0  0  0  0  0  0  0  0  0  0  0
   -0.9801   -4.5935   -0.2026 C   0  0  0  0  0  0  0  0  0  0  0  0
   -3.8408   -3.4544   -0.1445 H   0  0  0  0  0  0  0  0  0  0  0  0
   -1.4415   -3.3472    1.4989 H   0  0  0  0  0  0  0  0  0  0  0  0
   -1.3245   -4.7501   -1.2300 H   0  0  0  0  0  0  0  0  0  0  0  0
    0.0795   -4.3231   -0.2275 H   0  0  0  0  0  0  0  0  0  0  0  0
   -1.0817   -5.5355    0.3458 H   0  0  0  0  0  0  0  0  0  0  0  0
   -0.4546   -1.4412   -0.1772 N   0  0  0  0  0  0  0  0  0  0  0  0
   -0.3492   -0.0043   -0.5023 C   0  0  2  0  0  0  0  0  0  0  0  0
    1.0673    0.3111   -1.0343 C   0  0  0  0  0  0  0  0  0  0  0  0
    1.7174    1.2705   -0.6368 O   0  0  0  0  0  0  0  0  0  0  0  0
   -0.6441    0.8401    0.7582 C   0  0  0  0  0  0  0  0  0  0  0  0
   -2.3751    0.6585    1.3567 S   0  0  0  0  0  0  0  0  0  0  0  0
    0.2250   -1.8163    0.4787 H   0  0  0  0  0  0  0  0  0  0  0  0
   -1.0622    0.2686   -1.2880 H   0  0  0  0  0  0  0  0  0  0  0  0
    0.0496    0.5623    1.5584 H   0  0  0  0  0  0  0  0  0  0  0  0
   -0.4765    1.8980    0.5286 H   0  0  0  0  0  0  0  0  0  0  0  0
   -2.3907    1.5435    2.3774 H   0  0  0  0  0  0  0  0  0  0  0  0
    1.6387   -0.5320   -1.9677 N   0  0  0  0  0  0  0  0  0  0  0  0
    2.9267   -0.3034   -2.6350 C   0  0  2  0  0  0  0  0  0  0  0  0
    2.9783   -1.0005   -4.0110 C   0  0  0  0  0  0  0  0  0  0  0  0
    2.1397   -1.8460   -4.3029 O   0  0  0  0  0  0  0  0  0  0  0  0
    4.0493   -0.8240   -1.7310 C   0  0  0  0  0  0  0  0  0  0  0  0
    1.0409   -1.2625   -2.3585 H   0  0  0  0  0  0  0  0  0  0  0  0
    3.0651    0.7698   -2.8043 H   0  0  0  0  0  0  0  0  0  0  0  0
    3.9281   -1.8968   -1.5505 H   0  0  0  0  0  0  0  0  0  0  0  0
    5.0259   -0.6568   -2.1950 H   0  0  0  0  0  0  0  0  0  0  0  0
    4.0343   -0.3045   -0.7679 H   0  0  0  0  0  0  0  0  0  0  0  0
    3.9617   -0.6768   -4.9277 N   0  0  0  0  0  0  0  0  0  0  0  0
    4.0531   -1.2852   -6.2497 C   0  0  0  0  0  0  0  0  0  0  0  0
    4.6333    0.0396   -4.6673 H   0  0  0  0  0  0  0  0  0  0  0  0
    4.1569   -2.3723   -6.1651 H   0  0  0  0  0  0  0  0  0  0  0  0
    3.1560   -1.0615   -6.8370 H   0  0  0  0  0  0  0  0  0  0  0  0
    4.9240   -0.8964   -6.7864 H   0  0  0  0  0  0  0  0  0  0  0  0
  1  2  2  0  0  0  0
  1  3  1  0  0  0  0
  1  7  1  0  0  0  0
  3  4  1  0  0  0  0
  3  5  1  0  0  0  0
  3  6  1  0  0  0  0
  7  8  1  0  0  0  0
  7 12  1  0  0  0  0
  8  9  1  0  0  0  0
  8 11  1  0  0  0  0
  8 13  1  0  0  0  0
  9 10  2  0  0  0  0
  9 17  1  0  0  0  0
 11 14  1  0  0  0  0
 11 15  1  0  0  0  0
 11 16  1  0  0  0  0
 17 18  1  0  0  0  0
 17 23  1  0  0  0  0
 18 19  1  0  0  0  0
 18 21  1  0  0  0  0
 18 24  1  0  0  0  0
 19 20  2  0  0  0  0
 19 28  1  0  0  0  0
 21 22  1  0  0  0  0
 21 25  1  0  0  0  0
 21 26  1  0  0  0  0
 22 27  1  0  0  0  0
 28 29  1  0  0  0  0
 28 33  1  0  0  0  0
 29 30  1  0  0  0  0
 29 32  1  0  0  0  0
 29 34  1  0  0  0  0
 30 31  2  0  0  0  0
 30 38  1  0  0  0  0
 32 35  1  0  0  0  0
 32 36  1  0  0  0  0
 32 37  1  0  0  0  0
 38 39  1  0  0  0  0
 38 40  1  0  0  0  0
 39 41  1  0  0  0  0
 39 42  1  0  0  0  0
 39 43  1  0  0  0  0
M  END
$$$$

  -OEChem-05262216003D

 43 42  0     1  0  0  0  0  0999 V2000
   -3.7319   -4.6706    1.5502 C   0  0  0  0  0  0  0  0  0  0  0  0
   -3.0287   -5.0935    2.4548 O   0  0  0  0  0  0  0  0  0  0  0  0
   -5.2259   -4.9334    1.5583 C   0  0  0  0  0  0  0  0  0  0  0  0
   -5.5109   -5.4906    0.6627 H   0  0  0  0  0  0  0  0  0  0  0  0
   -5.5014   -5.5186    2.4402 H   0  0  0  0  0  0  0  0  0  0  0  0
   -5.7710   -3.9866    1.5788 H   0  0  0  0  0  0  0  0  0  0  0  0
   -3.1691   -3.9487    0.5198 N   0  0  0  0  0  0  0  0  0  0  0  0
   -1.7719   -3.5000    0.4911 C   0  0  2  0  0  0  0  0  0  0  0  0
   -1.6221   -2.1729   -0.2812 C   0  0  0  0  0  0  0  0  0  0  0  0
   -2.5255   -1.7820   -1.0118 O   0  0  0  0  0  0  0  0  0  0  0  0
   -0.9219   -4.5993   -0.1537 C   0  0  0  0  0  0  0  0  0  0  0  0
   -3.8041   -3.5045   -0.1435 H   0  0  0  0  0  0  0  0  0  0  0  0
   -1.4226   -3.3230    1.5141 H   0  0  0  0  0  0  0  0  0  0  0  0
   -1.2532   -4.7845   -1.1806 H   0  0  0  0  0  0  0  0  0  0  0  0
    0.1331   -4.3102   -0.1740 H   0  0  0  0  0  0  0  0  0  0  0  0
   -1.0123   -5.5306    0.4145 H   0  0  0  0  0  0  0  0  0  0  0  0
   -0.4470   -1.4461   -0.2065 N   0  0  0  0  0  0  0  0  0  0  0  0
   -0.3619   -0.0134   -0.5468 C   0  0  2  0  0  0  0  0  0  0  0  0
    1.0472    0.3082   -1.0915 C   0  0  0  0  0  0  0  0  0  0  0  0
    1.8027    1.0899   -0.5258 O   0  0  0  0  0  0  0  0  0  0  0  0
   -0.6608    0.8414    0.7053 C   0  0  0  0  0  0  0  0  0  0  0  0
   -2.3870    0.6437    1.3130 S   0  0  0  0  0  0  0  0  0  0  0  0
    0.2425   -1.8034    0.4487 H   0  0  0  0  0  0  0  0  0  0  0  0
   -1.0836    0.2441   -1.3293 H   0  0  0  0  0  0  0  0  0  0  0  0
    0.0376    0.5779    1.5062 H   0  0  0  0  0  0  0  0  0  0  0  0
   -0.5019    1.8981    0.4638 H   0  0  0  0  0  0  0  0  0  0  0  0
   -2.4066    1.5302    2.3320 H   0  0  0  0  0  0  0  0  0  0  0  0
    1.4938   -0.3401   -2.2265 N   0  0  0  0  0  0  0  0  0  0  0  0
    2.7673   -0.0684   -2.9058 C   0  0  2  0  0  0  0  0  0  0  0  0
    2.6789   -0.3661   -4.4176 C   0  0  0  0  0  0  0  0  0  0  0  0
    1.7293   -0.9994   -4.8648 O   0  0  0  0  0  0  0  0  0  0  0  0
    3.8587   -0.9245   -2.2552 C   0  0  0  0  0  0  0  0  0  0  0  0
    0.8192   -0.9219   -2.7263 H   0  0  0  0  0  0  0  0  0  0  0  0
    3.0238    0.9906   -2.7953 H   0  0  0  0  0  0  0  0  0  0  0  0
    3.6208   -1.9884   -2.3563 H   0  0  0  0  0  0  0  0  0  0  0  0
    4.8278   -0.7374   -2.7273 H   0  0  0  0  0  0  0  0  0  0  0  0
    3.9445   -0.6862   -1.1905 H   0  0  0  0  0  0  0  0  0  0  0  0
    3.6612    0.0827   -5.2815 N   0  0  0  0  0  0  0  0  0  0  0  0
    3.6145   -0.1286   -6.7237 C   0  0  0  0  0  0  0  0  0  0  0  0
    4.4212    0.6303   -4.8884 H   0  0  0  0  0  0  0  0  0  0  0  0
    3.5190   -1.1952   -6.9534 H   0  0  0  0  0  0  0  0  0  0  0  0
    2.7624    0.4030   -7.1604 H   0  0  0  0  0  0  0  0  0  0  0  0
    4.5315    0.2429   -7.1913 H   0  0  0  0  0  0  0  0  0  0  0  0
  1  2  2  0  0  0  0
  1  3  1  0  0  0  0
  1  7  1  0  0  0  0
  3  4  1  0  0  0  0
  3  5  1  0  0  0  0
  3  6  1  0  0  0  0
  7  8  1  0  0  0  0
  7 12  1  0  0  0  0
  8  9  1  0  0  0  0
  8 11  1  0  0  0  0
  8 13  1  0  0  0  0
  9 10  2  0  0  0  0
  9 17  1  0  0  0  0
 11 14  1  0  0  0  0
 11 15  1  0  0  0  0
 11 16  1  0  0  0  0
 17 18  1  0  0  0  0
 17 23  1  0  0  0  0
 18 19  1  0  0  0  0
 18 21  1  0  0  0  0
 18 24  1  0  0  0  0
 19 20  2  0  0  0  0
 19 28  1  0  0  0  0
 21 22  1  0  0  0  0
 21 25  1  0  0  0  0
 21 26  1  0  0  0  0
 22 27  1  0  0  0  0
 28 29  1  0  0  0  0
 28 33  1  0  0  0  0
 29 30  1  0  0  0  0
 29 32  1  0  0  0  0
 29 34  1  0  0  0  0
 30 31  2  0  0  0  0
 30 38  1  0  0  0  0
 32 35  1  0  0  0  0
 32 36  1  0  0  0  0
 32 37  1  0  0  0  0
 38 39  1  0  0  0  0
 38 40  1  0  0  0  0
 39 41  1  0  0  0  0
 39 42  1  0  0  0  0
 39 43  1  0  0  0  0
M  END
$$$$

  -OEChem-05262216003D

 43 42  0     1  0  0  0  0  0999 V2000
   -3.6516   -4.7259    1.5188 C   0  0  0  0  0  0  0  0  0  0  0  0
   -2.9140   -5.1647    2.3877 O   0  0  0  0  0  0  0  0  0  0  0  0
   -5.1390   -5.0244    1.5594 C   0  0  0  0  0  0  0  0  0  0  0  0
   -5.4392   -5.5492    0.6492 H   0  0  0  0  0  0  0  0  0  0  0  0
   -5.3745   -5.6537    2.4224 H   0  0  0  0  0  0  0  0  0  0  0  0
   -5.7049   -4.0928    1.6380 H   0  0  0  0  0  0  0  0  0  0  0  0
   -3.1322   -3.9567    0.4995 N   0  0  0  0  0  0  0  0  0  0  0  0
   -1.7424   -3.4865    0.4416 C   0  0  2  0  0  0  0  0  0  0  0  0
   -1.6335   -2.1288   -0.2828 C   0  0  0  0  0  0  0  0  0  0  0  0
   -2.5643   -1.7233   -0.9698 O   0  0  0  0  0  0  0  0  0  0  0  0
   -0.9002   -4.5469   -0.2750 C   0  0  0  0  0  0  0  0  0  0  0  0
   -3.7940   -3.5036   -0.1307 H   0  0  0  0  0  0  0  0  0  0  0  0
   -1.3597   -3.3451    1.4580 H   0  0  0  0  0  0  0  0  0  0  0  0
   -1.2555   -4.6875   -1.3011 H   0  0  0  0  0  0  0  0  0  0  0  0
    0.1513   -4.2462   -0.3076 H   0  0  0  0  0  0  0  0  0  0  0  0
   -0.9676   -5.5043    0.2516 H   0  0  0  0  0  0  0  0  0  0  0  0
   -0.4615   -1.3961   -0.2263 N   0  0  0  0  0  0  0  0  0  0  0  0
   -0.3874    0.0406   -0.5479 C   0  0  2  0  0  0  0  0  0  0  0  0
    1.0068    0.3730   -1.1195 C   0  0  0  0  0  0  0  0  0  0  0  0
    1.8728    0.9109   -0.4391 O   0  0  0  0  0  0  0  0  0  0  0  0
   -0.6481    0.8809    0.7217 C   0  0  0  0  0  0  0  0  0  0  0  0
   -2.3546    0.6785    1.3804 S   0  0  0  0  0  0  0  0  0  0  0  0
    0.2538   -1.7644    0.3949 H   0  0  0  0  0  0  0  0  0  0  0  0
   -1.1314    0.3088   -1.3060 H   0  0  0  0  0  0  0  0  0  0  0  0
    0.0715    0.6044    1.4999 H   0  0  0  0  0  0  0  0  0  0  0  0
   -0.4904    1.9392    0.4880 H   0  0  0  0  0  0  0  0  0  0  0  0
   -2.3293    1.5305    2.4285 H   0  0  0  0  0  0  0  0  0  0  0  0
    1.3155    0.0001   -2.4129 N   0  0  0  0  0  0  0  0  0  0  0  0
    2.5873    0.2812   -3.0914 C   0  0  2  0  0  0  0  0  0  0  0  0
    2.4143    0.3375   -4.6243 C   0  0  0  0  0  0  0  0  0  0  0  0
    1.3856   -0.0803   -5.1438 O   0  0  0  0  0  0  0  0  0  0  0  0
    3.5955   -0.8075   -2.7071 C   0  0  0  0  0  0  0  0  0  0  0  0
    0.5679   -0.4038   -2.9794 H   0  0  0  0  0  0  0  0  0  0  0  0
    2.9663    1.2569   -2.7691 H   0  0  0  0  0  0  0  0  0  0  0  0
    3.2284   -1.7925   -3.0130 H   0  0  0  0  0  0  0  0  0  0  0  0
    4.5599   -0.6288   -3.1919 H   0  0  0  0  0  0  0  0  0  0  0  0
    3.7531   -0.8155   -1.6239 H   0  0  0  0  0  0  0  0  0  0  0  0
    3.4123    0.8630   -5.4244 N   0  0  0  0  0  0  0  0  0  0  0  0
    3.3117    0.9491   -6.8765 C   0  0  0  0  0  0  0  0  0  0  0  0
    4.2484    1.2144   -4.9668 H   0  0  0  0  0  0  0  0  0  0  0  0
    3.1614   -0.0453   -7.3101 H   0  0  0  0  0  0  0  0  0  0  0  0
    2.4719    1.5898   -7.1654 H   0  0  0  0  0  0  0  0  0  0  0  0
    4.2297    1.3725   -7.2953 H   0  0  0  0  0  0  0  0  0  0  0  0
  1  2  2  0  0  0  0
  1  3  1  0  0  0  0
  1  7  1  0  0  0  0
  3  4  1  0  0  0  0
  3  5  1  0  0  0  0
  3  6  1  0  0  0  0
  7  8  1  0  0  0  0
  7 12  1  0  0  0  0
  8  9  1  0  0  0  0
  8 11  1  0  0  0  0
  8 13  1  0  0  0  0
  9 10  2  0  0  0  0
  9 17  1  0  0  0  0
 11 14  1  0  0  0  0
 11 15  1  0  0  0  0
 11 16  1  0  0  0  0
 17 18  1  0  0  0  0
 17 23  1  0  0  0  0
 18 19  1  0  0  0  0
 18 21  1  0  0  0  0
 18 24  1  0  0  0  0
 19 20  2  0  0  0  0
 19 28  1  0  0  0  0
 21 22  1  0  0  0  0
 21 25  1  0  0  0  0
 21 26  1  0  0  0  0
 22 27  1  0  0  0  0
 28 29  1  0  0  0  0
 28 33  1  0  0  0  0
 29 30  1  0  0  0  0
 29 32  1  0  0  0  0
 29 34  1  0  0  0  0
 30 31  2  0  0  0  0
 30 38  1  0  0  0  0
 32 35  1  0  0  0  0
 32 36  1  0  0  0  0
 32 37  1  0  0  0  0
 38 39  1  0  0  0  0
 38 40  1  0  0  0  0
 39 41  1  0  0  0  0
 39 42  1  0  0  0  0
 39 43  1  0  0  0  0
M  END
$$$$

  -OEChem-05262216003D

 43 42  0     1  0  0  0  0  0999 V2000
   -3.6226   -4.7453    1.5182 C   0  0  0  0  0  0  0  0  0  0  0  0
   -2.8866   -5.1775    2.3916 O   0  0  0  0  0  0  0  0  0  0  0  0
   -5.1099   -5.0437    1.5583 C   0  0  0  0  0  0  0  0  0  0  0  0
   -5.4002   -5.6113    0.6708 H   0  0  0  0  0  0  0  0  0  0  0  0
   -5.3533   -5.6313    2.4482 H   0  0  0  0  0  0  0  0  0  0  0  0
   -5.6781   -4.1104    1.5870 H   0  0  0  0  0  0  0  0  0  0  0  0
   -3.1037   -3.9803    0.4957 N   0  0  0  0  0  0  0  0  0  0  0  0
   -1.7196   -3.4926    0.4469 C   0  0  2  0  0  0  0  0  0  0  0  0
   -1.6235   -2.1438   -0.2965 C   0  0  0  0  0  0  0  0  0  0  0  0
   -2.5599   -1.7553   -0.9863 O   0  0  0  0  0  0  0  0  0  0  0  0
   -0.8537   -4.5518   -0.2433 C   0  0  0  0  0  0  0  0  0  0  0  0
   -3.7661   -3.5338   -0.1388 H   0  0  0  0  0  0  0  0  0  0  0  0
   -1.3519   -3.3297    1.4657 H   0  0  0  0  0  0  0  0  0  0  0  0
   -1.2014   -4.7211   -1.2674 H   0  0  0  0  0  0  0  0  0  0  0  0
    0.1920   -4.2324   -0.2781 H   0  0  0  0  0  0  0  0  0  0  0  0
   -0.9051   -5.4991    0.3028 H   0  0  0  0  0  0  0  0  0  0  0  0
   -0.4602   -1.3966   -0.2494 N   0  0  0  0  0  0  0  0  0  0  0  0
   -0.3987    0.0345   -0.5934 C   0  0  2  0  0  0  0  0  0  0  0  0
    0.9917    0.3742   -1.1660 C   0  0  0  0  0  0  0  0  0  0  0  0
    1.9286    0.6579   -0.4281 O   0  0  0  0  0  0  0  0  0  0  0  0
   -0.6579    0.8967    0.6604 C   0  0  0  0  0  0  0  0  0  0  0  0
   -2.3602    0.6935    1.3296 S   0  0  0  0  0  0  0  0  0  0  0  0
    0.2646   -1.7479    0.3710 H   0  0  0  0  0  0  0  0  0  0  0  0
   -1.1477    0.2839   -1.3527 H   0  0  0  0  0  0  0  0  0  0  0  0
    0.0648    0.6372    1.4413 H   0  0  0  0  0  0  0  0  0  0  0  0
   -0.5055    1.9515    0.4075 H   0  0  0  0  0  0  0  0  0  0  0  0
   -2.3286    1.5454    2.3776 H   0  0  0  0  0  0  0  0  0  0  0  0
    1.2171    0.2777   -2.5251 N   0  0  0  0  0  0  0  0  0  0  0  0
    2.4797    0.6171   -3.1942 C   0  0  2  0  0  0  0  0  0  0  0  0
    2.2436    1.1193   -4.6345 C   0  0  0  0  0  0  0  0  0  0  0  0
    1.1437    0.9875   -5.1595 O   0  0  0  0  0  0  0  0  0  0  0  0
    3.3724   -0.6280   -3.1978 C   0  0  0  0  0  0  0  0  0  0  0  0
    0.4122    0.0937   -3.1259 H   0  0  0  0  0  0  0  0  0  0  0  0
    2.9825    1.4219   -2.6473 H   0  0  0  0  0  0  0  0  0  0  0  0
    2.8866   -1.4449   -3.7416 H   0  0  0  0  0  0  0  0  0  0  0  0
    4.3324   -0.4126   -3.6765 H   0  0  0  0  0  0  0  0  0  0  0  0
    3.5659   -0.9584   -2.1722 H   0  0  0  0  0  0  0  0  0  0  0  0
    3.2619    1.7329   -5.3410 N   0  0  0  0  0  0  0  0  0  0  0  0
    3.0955    2.2492   -6.6947 C   0  0  0  0  0  0  0  0  0  0  0  0
    4.1575    1.8491   -4.8756 H   0  0  0  0  0  0  0  0  0  0  0  0
    2.7618    1.4540   -7.3701 H   0  0  0  0  0  0  0  0  0  0  0  0
    2.3555    3.0565   -6.7081 H   0  0  0  0  0  0  0  0  0  0  0  0
    4.0451    2.6432   -7.0698 H   0  0  0  0  0  0  0  0  0  0  0  0
  1  2  2  0  0  0  0
  1  3  1  0  0  0  0
  1  7  1  0  0  0  0
  3  4  1  0  0  0  0
  3  5  1  0  0  0  0
  3  6  1  0  0  0  0
  7  8  1  0  0  0  0
  7 12  1  0  0  0  0
  8  9  1  0  0  0  0
  8 11  1  0  0  0  0
  8 13  1  0  0  0  0
  9 10  2  0  0  0  0
  9 17  1  0  0  0  0
 11 14  1  0  0  0  0
 11 15  1  0  0  0  0
 11 16  1  0  0  0  0
 17 18  1  0  0  0  0
 17 23  1  0  0  0  0
 18 19  1  0  0  0  0
 18 21  1  0  0  0  0
 18 24  1  0  0  0  0
 19 20  2  0  0  0  0
 19 28  1  0  0  0  0
 21 22  1  0  0  0  0
 21 25  1  0  0  0  0
 21 26  1  0  0  0  0
 22 27  1  0  0  0  0
 28 29  1  0  0  0  0
 28 33  1  0  0  0  0
 29 30  1  0  0  0  0
 29 32  1  0  0  0  0
 29 34  1  0  0  0  0
 30 31  2  0  0  0  0
 30 38  1  0  0  0  0
 32 35  1  0  0  0  0
 32 36  1  0  0  0  0
 32 37  1  0  0  0  0
 38 39  1  0  0  0  0
 38 40  1  0  0  0  0
 39 41  1  0  0  0  0
 39 42  1  0  0  0  0
 39 43  1  0  0  0  0
M  END
$$$$

  -OEChem-05262216003D

 43 42  0     1  0  0  0  0  0999 V2000
   -3.5824   -4.7757    1.4867 C   0  0  0  0  0  0  0  0  0  0  0  0
   -2.8332   -5.2144    2.3454 O   0  0  0  0  0  0  0  0  0  0  0  0
   -5.0664   -5.0874    1.5379 C   0  0  0  0  0  0  0  0  0  0  0  0
   -5.3613   -5.6474    0.6471 H   0  0  0  0  0  0  0  0  0  0  0  0
   -5.2955   -5.6870    2.4233 H   0  0  0  0  0  0  0  0  0  0  0  0
   -5.6416   -4.1595    1.5831 H   0  0  0  0  0  0  0  0  0  0  0  0
   -3.0824   -3.9889    0.4715 N   0  0  0  0  0  0  0  0  0  0  0  0
   -1.7041   -3.4862    0.4152 C   0  0  2  0  0  0  0  0  0  0  0  0
   -1.6299   -2.1257   -0.3097 C   0  0  0  0  0  0  0  0  0  0  0  0
   -2.5823   -1.7308   -0.9739 O   0  0  0  0  0  0  0  0  0  0  0  0
   -0.8346   -4.5270   -0.2976 C   0  0  0  0  0  0  0  0  0  0  0  0
   -3.7571   -3.5349   -0.1442 H   0  0  0  0  0  0  0  0  0  0  0  0
   -1.3264   -3.3338    1.4320 H   0  0  0  0  0  0  0  0  0  0  0  0
   -1.1938   -4.6906   -1.3187 H   0  0  0  0  0  0  0  0  0  0  0  0
    0.2066   -4.1940   -0.3427 H   0  0  0  0  0  0  0  0  0  0  0  0
   -0.8671   -5.4800    0.2401 H   0  0  0  0  0  0  0  0  0  0  0  0
   -0.4711   -1.3718   -0.2688 N   0  0  0  0  0  0  0  0  0  0  0  0
   -0.4126    0.0605   -0.6064 C   0  0  2  0  0  0  0  0  0  0  0  0
    0.9720    0.4063   -1.1857 C   0  0  0  0  0  0  0  0  0  0  0  0
    1.9612    0.4175   -0.4616 O   0  0  0  0  0  0  0  0  0  0  0  0
   -0.6483    0.9194    0.6527 C   0  0  0  0  0  0  0  0  0  0  0  0
   -2.3405    0.7156    1.3465 S   0  0  0  0  0  0  0  0  0  0  0  0
    0.2759   -1.7327    0.3195 H   0  0  0  0  0  0  0  0  0  0  0  0
   -1.1718    0.3123   -1.3541 H   0  0  0  0  0  0  0  0  0  0  0  0
    0.0862    0.6550    1.4208 H   0  0  0  0  0  0  0  0  0  0  0  0
   -0.4974    1.9745    0.4011 H   0  0  0  0  0  0  0  0  0  0  0  0
   -2.2946    1.5581    2.4016 H   0  0  0  0  0  0  0  0  0  0  0  0
    1.1280    0.6242   -2.5408 N   0  0  0  0  0  0  0  0  0  0  0  0
    2.3889    1.0074   -3.1893 C   0  0  2  0  0  0  0  0  0  0  0  0
    2.1438    1.8788   -4.4400 C   0  0  0  0  0  0  0  0  0  0  0  0
    1.0109    2.0002   -4.8924 O   0  0  0  0  0  0  0  0  0  0  0  0
    3.1449   -0.2715   -3.5633 C   0  0  0  0  0  0  0  0  0  0  0  0
    0.2843    0.6725   -3.1134 H   0  0  0  0  0  0  0  0  0  0  0  0
    2.9964    1.5974   -2.4947 H   0  0  0  0  0  0  0  0  0  0  0  0
    2.5573   -0.8710   -4.2662 H   0  0  0  0  0  0  0  0  0  0  0  0
    4.1052   -0.0297   -4.0283 H   0  0  0  0  0  0  0  0  0  0  0  0
    3.3383   -0.8735   -2.6696 H   0  0  0  0  0  0  0  0  0  0  0  0
    3.1918    2.5388   -5.0554 N   0  0  0  0  0  0  0  0  0  0  0  0
    3.0246    3.3784   -6.2359 C   0  0  0  0  0  0  0  0  0  0  0  0
    4.1202    2.4252   -4.6590 H   0  0  0  0  0  0  0  0  0  0  0  0
    2.6072    2.7962   -7.0642 H   0  0  0  0  0  0  0  0  0  0  0  0
    2.3518    4.2150   -6.0200 H   0  0  0  0  0  0  0  0  0  0  0  0
    3.9902    3.7848   -6.5519 H   0  0  0  0  0  0  0  0  0  0  0  0
  1  2  2  0  0  0  0
  1  3  1  0  0  0  0
  1  7  1  0  0  0  0
  3  4  1  0  0  0  0
  3  5  1  0  0  0  0
  3  6  1  0  0  0  0
  7  8  1  0  0  0  0
  7 12  1  0  0  0  0
  8  9  1  0  0  0  0
  8 11  1  0  0  0  0
  8 13  1  0  0  0  0
  9 10  2  0  0  0  0
  9 17  1  0  0  0  0
 11 14  1  0  0  0  0
 11 15  1  0  0  0  0
 11 16  1  0  0  0  0
 17 18  1  0  0  0  0
 17 23  1  0  0  0  0
 18 19  1  0  0  0  0
 18 21  1  0  0  0  0
 18 24  1  0  0  0  0
 19 20  2  0  0  0  0
 19 28  1  0  0  0  0
 21 22  1  0  0  0  0
 21 25  1  0  0  0  0
 21 26  1  0  0  0  0
 22 27  1  0  0  0  0
 28 29  1  0  0  0  0
 28 33  1  0  0  0  0
 29 30  1  0  0  0  0
 29 32  1  0  0  0  0
 29 34  1  0  0  0  0
 30 31  2  0  0  0  0
 30 38  1  0  0  0  0
 32 35  1  0  0  0  0
 32 36  1  0  0  0  0
 32 37  1  0  0  0  0
 38 39  1  0  0  0  0
 38 40  1  0  0  0  0
 39 41  1  0  0  0  0
 39 42  1  0  0  0  0
 39 43  1  0  0  0  0
M  END
$$$$

  -OEChem-05262216003D

 43 42  0     1  0  0  0  0  0999 V2000
   -3.5224   -4.8368    1.4088 C   0  0  0  0  0  0  0  0  0  0  0  0
   -2.7361   -5.3229    2.2068 O   0  0  0  0  0  0  0  0  0  0  0  0
   -4.9990   -5.1737    1.4932 C   0  0  0  0  0  0  0  0  0  0  0  0
   -5.3177   -5.6805    0.5794 H   0  0  0  0  0  0  0  0  0  0  0  0
   -5.1870   -5.8320    2.3461 H   0  0  0  0  0  0  0  0  0  0  0  0
   -5.5849   -4.2596    1.6170 H   0  0  0  0  0  0  0  0  0  0  0  0
   -3.0700   -3.9776    0.4305 N   0  0  0  0  0  0  0  0  0  0  0  0
   -1.6977   -3.4621    0.3512 C   0  0  2  0  0  0  0  0  0  0  0  0
   -1.6574   -2.0615   -0.2957 C   0  0  0  0  0  0  0  0  0  0  0  0
   -2.6351   -1.6375   -0.9026 O   0  0  0  0  0  0  0  0  0  0  0  0
   -0.8528   -4.4540   -0.4549 C   0  0  0  0  0  0  0  0  0  0  0  0
   -3.7705   -3.4961   -0.1333 H   0  0  0  0  0  0  0  0  0  0  0  0
   -1.2827   -3.3677    1.3604 H   0  0  0  0  0  0  0  0  0  0  0  0
   -1.2433   -4.5467   -1.4734 H   0  0  0  0  0  0  0  0  0  0  0  0
    0.1877   -4.1201   -0.5090 H   0  0  0  0  0  0  0  0  0  0  0  0
   -0.8721   -5.4416    0.0174 H   0  0  0  0  0  0  0  0  0  0  0  0
   -0.5009   -1.3048   -0.2566 N   0  0  0  0  0  0  0  0  0  0  0  0
   -0.4354    0.1306   -0.5759 C   0  0  2  0  0  0  0  0  0  0  0  0
    0.9474    0.4736   -1.1587 C   0  0  0  0  0  0  0  0  0  0  0  0
    1.9600    0.2328   -0.5103 O   0  0  0  0  0  0  0  0  0  0  0  0
   -0.6369    0.9769    0.6960 C   0  0  0  0  0  0  0  0  0  0  0  0
   -2.3164    0.7830    1.4225 S   0  0  0  0  0  0  0  0  0  0  0  0
    0.2838   -1.6960    0.2599 H   0  0  0  0  0  0  0  0  0  0  0  0
   -1.2014    0.3970   -1.3122 H   0  0  0  0  0  0  0  0  0  0  0  0
    0.1116    0.6949    1.4444 H   0  0  0  0  0  0  0  0  0  0  0  0
   -0.4808    2.0334    0.4536 H   0  0  0  0  0  0  0  0  0  0  0  0
   -2.2423    1.6178    2.4818 H   0  0  0  0  0  0  0  0  0  0  0  0
    1.0689    1.0049   -2.4277 N   0  0  0  0  0  0  0  0  0  0  0  0
    2.3362    1.4098   -3.0498 C   0  0  2  0  0  0  0  0  0  0  0  0
    2.1233    2.5217   -4.0993 C   0  0  0  0  0  0  0  0  0  0  0  0
    0.9897    2.8180   -4.4603 O   0  0  0  0  0  0  0  0  0  0  0  0
    2.9764    0.1763   -3.6959 C   0  0  0  0  0  0  0  0  0  0  0  0
    0.2129    1.2563   -2.9238 H   0  0  0  0  0  0  0  0  0  0  0  0
    3.0099    1.8088   -2.2838 H   0  0  0  0  0  0  0  0  0  0  0  0
    2.3168   -0.2381   -4.4652 H   0  0  0  0  0  0  0  0  0  0  0  0
    3.9327    0.4360   -4.1594 H   0  0  0  0  0  0  0  0  0  0  0  0
    3.1599   -0.5957   -2.9421 H   0  0  0  0  0  0  0  0  0  0  0  0
    3.2027    3.2079   -4.6245 N   0  0  0  0  0  0  0  0  0  0  0  0
    3.0689    4.2842   -5.5989 C   0  0  0  0  0  0  0  0  0  0  0  0
    4.1292    2.9563   -4.2926 H   0  0  0  0  0  0  0  0  0  0  0  0
    2.5617    3.9251   -6.5007 H   0  0  0  0  0  0  0  0  0  0  0  0
    2.4916    5.1129   -5.1758 H   0  0  0  0  0  0  0  0  0  0  0  0
    4.0555    4.6611   -5.8853 H   0  0  0  0  0  0  0  0  0  0  0  0
  1  2  2  0  0  0  0
  1  3  1  0  0  0  0
  1  7  1  0  0  0  0
  3  4  1  0  0  0  0
  3  5  1  0  0  0  0
  3  6  1  0  0  0  0
  7  8  1  0  0  0  0
  7 12  1  0  0  0  0
  8  9  1  0  0  0  0
  8 11  1  0  0  0  0
  8 13  1  0  0  0  0
  9 10  2  0  0  0  0
  9 17  1  0  0  0  0
 11 14  1  0  0  0  0
 11 15  1  0  0  0  0
 11 16  1  0  0  0  0
 17 18  1  0  0  0  0
 17 23  1  0  0  0  0
 18 19  1  0  0  0  0
 18 21  1  0  0  0  0
 18 24  1  0  0  0  0
 19 20  2  0  0  0  0
 19 28  1  0  0  0  0
 21 22  1  0  0  0  0
 21 25  1  0  0  0  0
 21 26  1  0  0  0  0
 22 27  1  0  0  0  0
 28 29  1  0  0  0  0
 28 33  1  0  0  0  0
 29 30  1  0  0  0  0
 29 32  1  0  0  0  0
 29 34  1  0  0  0  0
 30 31  2  0  0  0  0
 30 38  1  0  0  0  0
 32 35  1  0  0  0  0
 32 36  1  0  0  0  0
 32 37  1  0  0  0  0
 38 39  1  0  0  0  0
 38 40  1  0  0  0  0
 39 41  1  0  0  0  0
 39 42  1  0  0  0  0
 39 43  1  0  0  0  0
M  END
$$$$

  -OEChem-05262216003D

 43 42  0     1  0  0  0  0  0999 V2000
   -3.4898   -4.8609    1.3581 C   0  0  0  0  0  0  0  0  0  0  0  0
   -2.6891   -5.3683    2.1279 O   0  0  0  0  0  0  0  0  0  0  0  0
   -4.9661   -5.1933    1.4647 C   0  0  0  0  0  0  0  0  0  0  0  0
   -5.3203   -5.6225    0.5243 H   0  0  0  0  0  0  0  0  0  0  0  0
   -5.1335   -5.9162    2.2680 H   0  0  0  0  0  0  0  0  0  0  0  0
   -5.5369   -4.2873    1.6819 H   0  0  0  0  0  0  0  0  0  0  0  0
   -3.0558   -3.9761    0.3947 N   0  0  0  0  0  0  0  0  0  0  0  0
   -1.6860   -3.4557    0.3042 C   0  0  2  0  0  0  0  0  0  0  0  0
   -1.6650   -2.0350   -0.2971 C   0  0  0  0  0  0  0  0  0  0  0  0
   -2.6541   -1.5990   -0.8769 O   0  0  0  0  0  0  0  0  0  0  0  0
   -0.8544   -4.4166   -0.5520 C   0  0  0  0  0  0  0  0  0  0  0  0
   -3.7676   -3.4770   -0.1390 H   0  0  0  0  0  0  0  0  0  0  0  0
   -1.2496   -3.3923    1.3070 H   0  0  0  0  0  0  0  0  0  0  0  0
   -1.2684   -4.4833   -1.5632 H   0  0  0  0  0  0  0  0  0  0  0  0
    0.1820   -4.0727   -0.6212 H   0  0  0  0  0  0  0  0  0  0  0  0
   -0.8555   -5.4173   -0.1081 H   0  0  0  0  0  0  0  0  0  0  0  0
   -0.5134   -1.2725   -0.2476 N   0  0  0  0  0  0  0  0  0  0  0  0
   -0.4444    0.1631   -0.5645 C   0  0  2  0  0  0  0  0  0  0  0  0
    0.9420    0.5126   -1.1329 C   0  0  0  0  0  0  0  0  0  0  0  0
    1.9511    0.0669   -0.5971 O   0  0  0  0  0  0  0  0  0  0  0  0
   -0.6478    1.0069    0.7079 C   0  0  0  0  0  0  0  0  0  0  0  0
   -2.3295    0.8149    1.4296 S   0  0  0  0  0  0  0  0  0  0  0  0
    0.2942   -1.6815    0.2180 H   0  0  0  0  0  0  0  0  0  0  0  0
   -1.2052    0.4286   -1.3061 H   0  0  0  0  0  0  0  0  0  0  0  0
    0.0977    0.7203    1.4575 H   0  0  0  0  0  0  0  0  0  0  0  0
   -0.4890    2.0641    0.4701 H   0  0  0  0  0  0  0  0  0  0  0  0
   -2.2495    1.6293    2.5042 H   0  0  0  0  0  0  0  0  0  0  0  0
    1.0671    1.3173   -2.2481 N   0  0  0  0  0  0  0  0  0  0  0  0
    2.3437    1.7648   -2.8188 C   0  0  2  0  0  0  0  0  0  0  0  0
    2.1888    3.1041   -3.5702 C   0  0  0  0  0  0  0  0  0  0  0  0
    1.0732    3.5744   -3.7641 O   0  0  0  0  0  0  0  0  0  0  0  0
    2.8633    0.6739   -3.7616 C   0  0  0  0  0  0  0  0  0  0  0  0
    0.2209    1.7437   -2.6275 H   0  0  0  0  0  0  0  0  0  0  0  0
    3.0703    1.9237   -2.0149 H   0  0  0  0  0  0  0  0  0  0  0  0
    2.1499    0.4990   -4.5736 H   0  0  0  0  0  0  0  0  0  0  0  0
    3.8235    0.9657   -4.1975 H   0  0  0  0  0  0  0  0  0  0  0  0
    3.0062   -0.2645   -3.2160 H   0  0  0  0  0  0  0  0  0  0  0  0
    3.3017    3.7924   -4.0163 N   0  0  0  0  0  0  0  0  0  0  0  0
    3.2248    5.0611   -4.7302 C   0  0  0  0  0  0  0  0  0  0  0  0
    4.2138    3.3833   -3.8358 H   0  0  0  0  0  0  0  0  0  0  0  0
    2.6219    4.9547   -5.6383 H   0  0  0  0  0  0  0  0  0  0  0  0
    2.7737    5.8312   -4.0957 H   0  0  0  0  0  0  0  0  0  0  0  0
    4.2265    5.3933   -5.0190 H   0  0  0  0  0  0  0  0  0  0  0  0
  1  2  2  0  0  0  0
  1  3  1  0  0  0  0
  1  7  1  0  0  0  0
  3  4  1  0  0  0  0
  3  5  1  0  0  0  0
  3  6  1  0  0  0  0
  7  8  1  0  0  0  0
  7 12  1  0  0  0  0
  8  9  1  0  0  0  0
  8 11  1  0  0  0  0
  8 13  1  0  0  0  0
  9 10  2  0  0  0  0
  9 17  1  0  0  0  0
 11 14  1  0  0  0  0
 11 15  1  0  0  0  0
 11 16  1  0  0  0  0
 17 18  1  0  0  0  0
 17 23  1  0  0  0  0
 18 19  1  0  0  0  0
 18 21  1  0  0  0  0
 18 24  1  0  0  0  0
 19 20  2  0  0  0  0
 19 28  1  0  0  0  0
 21 22  1  0  0  0  0
 21 25  1  0  0  0  0
 21 26  1  0  0  0  0
 22 27  1  0  0  0  0
 28 29  1  0  0  0  0
 28 33  1  0  0  0  0
 29 30  1  0  0  0  0
 29 32  1  0  0  0  0
 29 34  1  0  0  0  0
 30 31  2  0  0  0  0
 30 38  1  0  0  0  0
 32 35  1  0  0  0  0
 32 36  1  0  0  0  0
 32 37  1  0  0  0  0
 38 39  1  0  0  0  0
 38 40  1  0  0  0  0
 39 41  1  0  0  0  0
 39 42  1  0  0  0  0
 39 43  1  0  0  0  0
M  END
$$$$

  -OEChem-05262216003D

 43 42  0     1  0  0  0  0  0999 V2000
   -3.4943   -4.8599    1.3422 C   0  0  0  0  0  0  0  0  0  0  0  0
   -2.6981   -5.3672    2.1167 O   0  0  0  0  0  0  0  0  0  0  0  0
   -4.9716   -5.1905    1.4424 C   0  0  0  0  0  0  0  0  0  0  0  0
   -5.3146   -5.6506    0.5127 H   0  0  0  0  0  0  0  0  0  0  0  0
   -5.1473   -5.8873    2.2667 H   0  0  0  0  0  0  0  0  0  0  0  0
   -5.5462   -4.2788    1.6234 H   0  0  0  0  0  0  0  0  0  0  0  0
   -3.0555   -3.9765    0.3796 N   0  0  0  0  0  0  0  0  0  0  0  0
   -1.6889   -3.4449    0.3038 C   0  0  2  0  0  0  0  0  0  0  0  0
   -1.6721   -2.0191   -0.2861 C   0  0  0  0  0  0  0  0  0  0  0  0
   -2.6700   -1.5744   -0.8438 O   0  0  0  0  0  0  0  0  0  0  0  0
   -0.8421   -4.3926   -0.5522 C   0  0  0  0  0  0  0  0  0  0  0  0
   -3.7664   -3.4742   -0.1519 H   0  0  0  0  0  0  0  0  0  0  0  0
   -1.2608   -3.3858    1.3103 H   0  0  0  0  0  0  0  0  0  0  0  0
   -1.2471   -4.4550   -1.5673 H   0  0  0  0  0  0  0  0  0  0  0  0
    0.1921   -4.0397   -0.6102 H   0  0  0  0  0  0  0  0  0  0  0  0
   -0.8379   -5.3966   -0.1159 H   0  0  0  0  0  0  0  0  0  0  0  0
   -0.5165   -1.2617   -0.2521 N   0  0  0  0  0  0  0  0  0  0  0  0
   -0.4332    0.1679   -0.5923 C   0  0  2  0  0  0  0  0  0  0  0  0
    0.9543    0.5050   -1.1692 C   0  0  0  0  0  0  0  0  0  0  0  0
    1.9452   -0.1072   -0.7838 O   0  0  0  0  0  0  0  0  0  0  0  0
   -0.6174    1.0295    0.6712 C   0  0  0  0  0  0  0  0  0  0  0  0
   -2.2937    0.8685    1.4117 S   0  0  0  0  0  0  0  0  0  0  0  0
    0.3114   -1.6885    0.1591 H   0  0  0  0  0  0  0  0  0  0  0  0
   -1.1944    0.4288   -1.3355 H   0  0  0  0  0  0  0  0  0  0  0  0
    0.1329    0.7446    1.4167 H   0  0  0  0  0  0  0  0  0  0  0  0
   -0.4512    2.0820    0.4188 H   0  0  0  0  0  0  0  0  0  0  0  0
   -2.1967    1.7043    2.4685 H   0  0  0  0  0  0  0  0  0  0  0  0
    1.1040    1.5239   -2.0897 N   0  0  0  0  0  0  0  0  0  0  0  0
    2.3939    2.0210   -2.5865 C   0  0  2  0  0  0  0  0  0  0  0  0
    2.3177    3.5193   -2.9512 C   0  0  0  0  0  0  0  0  0  0  0  0
    1.2347    4.0943   -2.9603 O   0  0  0  0  0  0  0  0  0  0  0  0
    2.7988    1.1852   -3.8053 C   0  0  0  0  0  0  0  0  0  0  0  0
    0.2835    2.0907   -2.3073 H   0  0  0  0  0  0  0  0  0  0  0  0
    3.1556    1.9154   -1.8067 H   0  0  0  0  0  0  0  0  0  0  0  0
    2.0560    1.2880   -4.6029 H   0  0  0  0  0  0  0  0  0  0  0  0
    3.7706    1.5085   -4.1900 H   0  0  0  0  0  0  0  0  0  0  0  0
    2.8729    0.1275   -3.5328 H   0  0  0  0  0  0  0  0  0  0  0  0
    3.4658    4.2319   -3.2446 N   0  0  0  0  0  0  0  0  0  0  0  0
    3.4646    5.6526   -3.5730 C   0  0  0  0  0  0  0  0  0  0  0  0
    4.3510    3.7345   -3.2130 H   0  0  0  0  0  0  0  0  0  0  0  0
    2.8266    5.8457   -4.4419 H   0  0  0  0  0  0  0  0  0  0  0  0
    3.0949    6.2413   -2.7268 H   0  0  0  0  0  0  0  0  0  0  0  0
    4.4791    5.9870   -3.8102 H   0  0  0  0  0  0  0  0  0  0  0  0
  1  2  2  0  0  0  0
  1  3  1  0  0  0  0
  1  7  1  0  0  0  0
  3  4  1  0  0  0  0
  3  5  1  0  0  0  0
  3  6  1  0  0  0  0
  7  8  1  0  0  0  0
  7 12  1  0  0  0  0
  8  9  1  0  0  0  0
  8 11  1  0  0  0  0
  8 13  1  0  0  0  0
  9 10  2  0  0  0  0
  9 17  1  0  0  0  0
 11 14  1  0  0  0  0
 11 15  1  0  0  0  0
 11 16  1  0  0  0  0
 17 18  1  0  0  0  0
 17 23  1  0  0  0  0
 18 19  1  0  0  0  0
 18 21  1  0  0  0  0
 18 24  1  0  0  0  0
 19 20  2  0  0  0  0
 19 28  1  0  0  0  0
 21 22  1  0  0  0  0
 21 25  1  0  0  0  0
 21 26  1  0  0  0  0
 22 27  1  0  0  0  0
 28 29  1  0  0  0  0
 28 33  1  0  0  0  0
 29 30  1  0  0  0  0
 29 32  1  0  0  0  0
 29 34  1  0  0  0  0
 30 31  2  0  0  0  0
 30 38  1  0  0  0  0
 32 35  1  0  0  0  0
 32 36  1  0  0  0  0
 32 37  1  0  0  0  0
 38 39  1  0  0  0  0
 38 40  1  0  0  0  0
 39 41  1  0  0  0  0
 39 42  1  0  0  0  0
 39 43  1  0  0  0  0
M  END
$$$$

  -OEChem-05262216003D

 43 42  0     1  0  0  0  0  0999 V2000
   -3.4583   -4.8885    1.2941 C   0  0  0  0  0  0  0  0  0  0  0  0
   -2.6349   -5.4324    2.0134 O   0  0  0  0  0  0  0  0  0  0  0  0
   -4.9310   -5.2270    1.4310 C   0  0  0  0  0  0  0  0  0  0  0  0
   -5.3143   -5.6165    0.4847 H   0  0  0  0  0  0  0  0  0  0  0  0
   -5.0737   -5.9840    2.2072 H   0  0  0  0  0  0  0  0  0  0  0  0
   -5.4952   -4.3318    1.7041 H   0  0  0  0  0  0  0  0  0  0  0  0
   -3.0541   -3.9580    0.3612 N   0  0  0  0  0  0  0  0  0  0  0  0
   -1.6891   -3.4273    0.2561 C   0  0  2  0  0  0  0  0  0  0  0  0
   -1.6894   -1.9757   -0.2670 C   0  0  0  0  0  0  0  0  0  0  0  0
   -2.6999   -1.5116   -0.7846 O   0  0  0  0  0  0  0  0  0  0  0  0
   -0.8834   -4.3381   -0.6757 C   0  0  0  0  0  0  0  0  0  0  0  0
   -3.7826   -3.4357   -0.1257 H   0  0  0  0  0  0  0  0  0  0  0  0
   -1.2207   -3.4160    1.2462 H   0  0  0  0  0  0  0  0  0  0  0  0
   -1.3320   -4.3564   -1.6741 H   0  0  0  0  0  0  0  0  0  0  0  0
    0.1483   -3.9843   -0.7631 H   0  0  0  0  0  0  0  0  0  0  0  0
   -0.8640   -5.3600   -0.2834 H   0  0  0  0  0  0  0  0  0  0  0  0
   -0.5346   -1.2180   -0.2236 N   0  0  0  0  0  0  0  0  0  0  0  0
   -0.4429    0.2132   -0.5573 C   0  0  2  0  0  0  0  0  0  0  0  0
    0.9505    0.5521   -1.1239 C   0  0  0  0  0  0  0  0  0  0  0  0
    1.8979   -0.2022   -0.9261 O   0  0  0  0  0  0  0  0  0  0  0  0
   -0.6327    1.0649    0.7139 C   0  0  0  0  0  0  0  0  0  0  0  0
   -2.3136    0.9059    1.4444 S   0  0  0  0  0  0  0  0  0  0  0  0
    0.3138   -1.6721    0.1097 H   0  0  0  0  0  0  0  0  0  0  0  0
   -1.1981    0.4808   -1.3039 H   0  0  0  0  0  0  0  0  0  0  0  0
    0.1112    0.7679    1.4610 H   0  0  0  0  0  0  0  0  0  0  0  0
   -0.4603    2.1196    0.4757 H   0  0  0  0  0  0  0  0  0  0  0  0
   -2.2223    1.7372    2.5048 H   0  0  0  0  0  0  0  0  0  0  0  0
    1.1704    1.7444   -1.7870 N   0  0  0  0  0  0  0  0  0  0  0  0
    2.4878    2.2376   -2.2101 C   0  0  2  0  0  0  0  0  0  0  0  0
    2.5243    3.7809   -2.2547 C   0  0  0  0  0  0  0  0  0  0  0  0
    1.4942    4.4235   -2.0807 O   0  0  0  0  0  0  0  0  0  0  0  0
    2.8103    1.6441   -3.5859 C   0  0  0  0  0  0  0  0  0  0  0  0
    0.3971    2.4081   -1.8415 H   0  0  0  0  0  0  0  0  0  0  0  0
    3.2494    1.9160   -1.4917 H   0  0  0  0  0  0  0  0  0  0  0  0
    2.0674    1.9630   -4.3241 H   0  0  0  0  0  0  0  0  0  0  0  0
    3.7994    1.9678   -3.9230 H   0  0  0  0  0  0  0  0  0  0  0  0
    2.8061    0.5504   -3.5384 H   0  0  0  0  0  0  0  0  0  0  0  0
    3.7149    4.4523   -2.4653 N   0  0  0  0  0  0  0  0  0  0  0  0
    3.8192    5.9063   -2.5049 C   0  0  0  0  0  0  0  0  0  0  0  0
    4.5544    3.8955   -2.5971 H   0  0  0  0  0  0  0  0  0  0  0  0
    3.1939    6.3154   -3.3054 H   0  0  0  0  0  0  0  0  0  0  0  0
    3.4994    6.3401   -1.5516 H   0  0  0  0  0  0  0  0  0  0  0  0
    4.8552    6.2059   -2.6900 H   0  0  0  0  0  0  0  0  0  0  0  0
  1  2  2  0  0  0  0
  1  3  1  0  0  0  0
  1  7  1  0  0  0  0
  3  4  1  0  0  0  0
  3  5  1  0  0  0  0
  3  6  1  0  0  0  0
  7  8  1  0  0  0  0
  7 12  1  0  0  0  0
  8  9  1  0  0  0  0
  8 11  1  0  0  0  0
  8 13  1  0  0  0  0
  9 10  2  0  0  0  0
  9 17  1  0  0  0  0
 11 14  1  0  0  0  0
 11 15  1  0  0  0  0
 11 16  1  0  0  0  0
 17 18  1  0  0  0  0
 17 23  1  0  0  0  0
 18 19  1  0  0  0  0
 18 21  1  0  0  0  0
 18 24  1  0  0  0  0
 19 20  2  0  0  0  0
 19 28  1  0  0  0  0
 21 22  1  0  0  0  0
 21 25  1  0  0  0  0
 21 26  1  0  0  0  0
 22 27  1  0  0  0  0
 28 29  1  0  0  0  0
 28 33  1  0  0  0  0
 29 30  1  0  0  0  0
 29 32  1  0  0  0  0
 29 34  1  0  0  0  0
 30 31  2  0  0  0  0
 30 38  1  0  0  0  0
 32 35  1  0  0  0  0
 32 36  1  0  0  0  0
 32 37  1  0  0  0  0
 38 39  1  0  0  0  0
 38 40  1  0  0  0  0
 39 41  1  0  0  0  0
 39 42  1  0  0  0  0
 39 43  1  0  0  0  0
M  END
$$$$

  -OEChem-05262216003D

 43 42  0     1  0  0  0  0  0999 V2000
   -3.3331   -4.9866    1.2506 C   0  0  0  0  0  0  0  0  0  0  0  0
   -2.4550   -5.5763    1.8608 O   0  0  0  0  0  0  0  0  0  0  0  0
   -4.7862   -5.3819    1.4341 C   0  0  0  0  0  0  0  0  0  0  0  0
   -5.2268   -5.6425    0.4688 H   0  0  0  0  0  0  0  0  0  0  0  0
   -4.8614   -6.2461    2.0998 H   0  0  0  0  0  0  0  0  0  0  0  0
   -5.3463   -4.5510    1.8696 H   0  0  0  0  0  0  0  0  0  0  0  0
   -3.0088   -3.9553    0.3959 N   0  0  0  0  0  0  0  0  0  0  0  0
   -1.6641   -3.3821    0.2589 C   0  0  2  0  0  0  0  0  0  0  0  0
   -1.7263   -1.8848   -0.1099 C   0  0  0  0  0  0  0  0  0  0  0  0
   -2.7873   -1.3885   -0.4751 O   0  0  0  0  0  0  0  0  0  0  0  0
   -0.9064   -4.1738   -0.8118 C   0  0  0  0  0  0  0  0  0  0  0  0
   -3.7776   -3.4042    0.0143 H   0  0  0  0  0  0  0  0  0  0  0  0
   -1.1302   -3.4599    1.2124 H   0  0  0  0  0  0  0  0  0  0  0  0
   -1.4252   -4.1101   -1.7737 H   0  0  0  0  0  0  0  0  0  0  0  0
    0.1077   -3.7825   -0.9360 H   0  0  0  0  0  0  0  0  0  0  0  0
   -0.8352   -5.2272   -0.5230 H   0  0  0  0  0  0  0  0  0  0  0  0
   -0.5795   -1.1140   -0.0782 N   0  0  0  0  0  0  0  0  0  0  0  0
   -0.5107    0.3034   -0.4718 C   0  0  2  0  0  0  0  0  0  0  0  0
    0.7212    0.5710   -1.3624 C   0  0  0  0  0  0  0  0  0  0  0  0
    1.5421   -0.3178   -1.5680 O   0  0  0  0  0  0  0  0  0  0  0  0
   -0.3982    1.1643    0.8006 C   0  0  0  0  0  0  0  0  0  0  0  0
   -1.9071    1.0474    1.8468 S   0  0  0  0  0  0  0  0  0  0  0  0
    0.3042   -1.6096    0.0211 H   0  0  0  0  0  0  0  0  0  0  0  0
   -1.4024    0.5978   -1.0350 H   0  0  0  0  0  0  0  0  0  0  0  0
    0.4722    0.8434    1.3825 H   0  0  0  0  0  0  0  0  0  0  0  0
   -0.2479    2.2144    0.5301 H   0  0  0  0  0  0  0  0  0  0  0  0
   -1.5814    1.8653    2.8711 H   0  0  0  0  0  0  0  0  0  0  0  0
    0.9770    1.8396   -1.8474 N   0  0  0  0  0  0  0  0  0  0  0  0
    2.2261    2.2521   -2.5001 C   0  0  2  0  0  0  0  0  0  0  0  0
    2.5522    3.7301   -2.1954 C   0  0  0  0  0  0  0  0  0  0  0  0
    1.7392    4.4252   -1.5948 O   0  0  0  0  0  0  0  0  0  0  0  0
    2.0803    2.0232   -4.0074 C   0  0  0  0  0  0  0  0  0  0  0  0
    0.3524    2.5911   -1.5534 H   0  0  0  0  0  0  0  0  0  0  0  0
    3.0606    1.6512   -2.1228 H   0  0  0  0  0  0  0  0  0  0  0  0
    1.2602    2.6274   -4.4083 H   0  0  0  0  0  0  0  0  0  0  0  0
    3.0022    2.2951   -4.5299 H   0  0  0  0  0  0  0  0  0  0  0  0
    1.8680    0.9687   -4.2112 H   0  0  0  0  0  0  0  0  0  0  0  0
    3.7657    4.2756   -2.5712 N   0  0  0  0  0  0  0  0  0  0  0  0
    4.1437    5.6562   -2.2943 C   0  0  0  0  0  0  0  0  0  0  0  0
    4.4260    3.6712   -3.0515 H   0  0  0  0  0  0  0  0  0  0  0  0
    3.4022    6.3483   -2.7075 H   0  0  0  0  0  0  0  0  0  0  0  0
    4.2181    5.8236   -1.2149 H   0  0  0  0  0  0  0  0  0  0  0  0
    5.1142    5.8804   -2.7473 H   0  0  0  0  0  0  0  0  0  0  0  0
  1  2  2  0  0  0  0
  1  3  1  0  0  0  0
  1  7  1  0  0  0  0
  3  4  1  0  0  0  0
  3  5  1  0  0  0  0
  3  6  1  0  0  0  0
  7  8  1  0  0  0  0
  7 12  1  0  0  0  0
  8  9  1  0  0  0  0
  8 11  1  0  0  0  0
  8 13  1  0  0  0  0
  9 10  2  0  0  0  0
  9 17  1  0  0  0  0
 11 14  1  0  0  0  0
 11 15  1  0  0  0  0
 11 16  1  0  0  0  0
 17 18  1  0  0  0  0
 17 23  1  0  0  0  0
 18 19  1  0  0  0  0
 18 21  1  0  0  0  0
 18 24  1  0  0  0  0
 19 20  2  0  0  0  0
 19 28  1  0  0  0  0
 21 22  1  0  0  0  0
 21 25  1  0  0  0  0
 21 26  1  0  0  0  0
 22 27  1  0  0  0  0
 28 29  1  0  0  0  0
 28 33  1  0  0  0  0
 29 30  1  0  0  0  0
 29 32  1  0  0  0  0
 29 34  1  0  0  0  0
 30 31  2  0  0  0  0
 30 38  1  0  0  0  0
 32 35  1  0  0  0  0
 32 36  1  0  0  0  0
 32 37  1  0  0  0  0
 38 39  1  0  0  0  0
 38 40  1  0  0  0  0
 39 41  1  0  0  0  0
 39 42  1  0  0  0  0
 39 43  1  0  0  0  0
M  END
$$$$

  -OEChem-05262216003D

 43 42  0     1  0  0  0  0  0999 V2000
   -3.3238   -4.9932    1.1792 C   0  0  0  0  0  0  0  0  0  0  0  0
   -2.4297   -5.6287    1.7157 O   0  0  0  0  0  0  0  0  0  0  0  0
   -4.7750   -5.3566    1.4326 C   0  0  0  0  0  0  0  0  0  0  0  0
   -5.2679   -5.6012    0.4888 H   0  0  0  0  0  0  0  0  0  0  0  0
   -4.8371   -6.2227    2.0973 H   0  0  0  0  0  0  0  0  0  0  0  0
   -5.2939   -4.5161    1.9000 H   0  0  0  0  0  0  0  0  0  0  0  0
   -3.0184   -3.9373    0.3478 N   0  0  0  0  0  0  0  0  0  0  0  0
   -1.6709   -3.3799    0.1746 C   0  0  2  0  0  0  0  0  0  0  0  0
   -1.7246   -1.8614   -0.0941 C   0  0  0  0  0  0  0  0  0  0  0  0
   -2.7842   -1.3385   -0.4243 O   0  0  0  0  0  0  0  0  0  0  0  0
   -0.9879   -4.1103   -0.9862 C   0  0  0  0  0  0  0  0  0  0  0  0
   -3.7922   -3.3551    0.0274 H   0  0  0  0  0  0  0  0  0  0  0  0
   -1.0871   -3.5284    1.0895 H   0  0  0  0  0  0  0  0  0  0  0  0
   -1.5531   -3.9685   -1.9130 H   0  0  0  0  0  0  0  0  0  0  0  0
    0.0276   -3.7313   -1.1359 H   0  0  0  0  0  0  0  0  0  0  0  0
   -0.9274   -5.1829   -0.7756 H   0  0  0  0  0  0  0  0  0  0  0  0
   -0.5714   -1.1029   -0.0181 N   0  0  0  0  0  0  0  0  0  0  0  0
   -0.4894    0.3228   -0.3814 C   0  0  2  0  0  0  0  0  0  0  0  0
    0.7683    0.5934   -1.2398 C   0  0  0  0  0  0  0  0  0  0  0  0
    1.4516   -0.3430   -1.6418 O   0  0  0  0  0  0  0  0  0  0  0  0
   -0.4213    1.1544    0.9166 C   0  0  0  0  0  0  0  0  0  0  0  0
   -1.9631    1.0174    1.9112 S   0  0  0  0  0  0  0  0  0  0  0  0
    0.3053   -1.6192    0.0181 H   0  0  0  0  0  0  0  0  0  0  0  0
   -1.3625    0.6318   -0.9660 H   0  0  0  0  0  0  0  0  0  0  0  0
    0.4296    0.8207    1.5197 H   0  0  0  0  0  0  0  0  0  0  0  0
   -0.2675    2.2113    0.6789 H   0  0  0  0  0  0  0  0  0  0  0  0
   -1.6687    1.8055    2.9678 H   0  0  0  0  0  0  0  0  0  0  0  0
    1.2322    1.8788   -1.4508 N   0  0  0  0  0  0  0  0  0  0  0  0
    2.5207    2.2223   -2.0663 C   0  0  2  0  0  0  0  0  0  0  0  0
    3.0139    3.6046   -1.5843 C   0  0  0  0  0  0  0  0  0  0  0  0
    2.2976    4.2913   -0.8628 O   0  0  0  0  0  0  0  0  0  0  0  0
    2.3549    2.2015   -3.5900 C   0  0  0  0  0  0  0  0  0  0  0  0
    0.7245    2.6461   -1.0103 H   0  0  0  0  0  0  0  0  0  0  0  0
    3.2770    1.4854   -1.7749 H   0  0  0  0  0  0  0  0  0  0  0  0
    1.6076    2.9374   -3.9039 H   0  0  0  0  0  0  0  0  0  0  0  0
    3.3028    2.4330   -4.0848 H   0  0  0  0  0  0  0  0  0  0  0  0
    2.0285    1.2109   -3.9227 H   0  0  0  0  0  0  0  0  0  0  0  0
    4.2649    4.0746   -1.9400 N   0  0  0  0  0  0  0  0  0  0  0  0
    4.7788    5.3751   -1.5260 C   0  0  0  0  0  0  0  0  0  0  0  0
    4.8374    3.4872   -2.5396 H   0  0  0  0  0  0  0  0  0  0  0  0
    4.1194    6.1771   -1.8742 H   0  0  0  0  0  0  0  0  0  0  0  0
    4.8523    5.4284   -0.4346 H   0  0  0  0  0  0  0  0  0  0  0  0
    5.7746    5.5409   -1.9482 H   0  0  0  0  0  0  0  0  0  0  0  0
  1  2  2  0  0  0  0
  1  3  1  0  0  0  0
  1  7  1  0  0  0  0
  3  4  1  0  0  0  0
  3  5  1  0  0  0  0
  3  6  1  0  0  0  0
  7  8  1  0  0  0  0
  7 12  1  0  0  0  0
  8  9  1  0  0  0  0
  8 11  1  0  0  0  0
  8 13  1  0  0  0  0
  9 10  2  0  0  0  0
  9 17  1  0  0  0  0
 11 14  1  0  0  0  0
 11 15  1  0  0  0  0
 11 16  1  0  0  0  0
 17 18  1  0  0  0  0
 17 23  1  0  0  0  0
 18 19  1  0  0  0  0
 18 21  1  0  0  0  0
 18 24  1  0  0  0  0
 19 20  2  0  0  0  0
 19 28  1  0  0  0  0
 21 22  1  0  0  0  0
 21 25  1  0  0  0  0
 21 26  1  0  0  0  0
 22 27  1  0  0  0  0
 28 29  1  0  0  0  0
 28 33  1  0  0  0  0
 29 30  1  0  0  0  0
 29 32  1  0  0  0  0
 29 34  1  0  0  0  0
 30 31  2  0  0  0  0
 30 38  1  0  0  0  0
 32 35  1  0  0  0  0
 32 36  1  0  0  0  0
 32 37  1  0  0  0  0
 38 39  1  0  0  0  0
 38 40  1  0  0  0  0
 39 41  1  0  0  0  0
 39 42  1  0  0  0  0
 39 43  1  0  0  0  0
M  END
$$$$

  -OEChem-05262216003D

 43 42  0     1  0  0  0  0  0999 V2000
   -3.3100   -4.9893    1.1627 C   0  0  0  0  0  0  0  0  0  0  0  0
   -2.4138   -5.6290    1.6908 O   0  0  0  0  0  0  0  0  0  0  0  0
   -4.7606   -5.3530    1.4198 C   0  0  0  0  0  0  0  0  0  0  0  0
   -5.2498   -5.6240    0.4809 H   0  0  0  0  0  0  0  0  0  0  0  0
   -4.8208   -6.2016    2.1070 H   0  0  0  0  0  0  0  0  0  0  0  0
   -5.2847   -4.5028    1.8636 H   0  0  0  0  0  0  0  0  0  0  0  0
   -3.0082   -3.9264    0.3391 N   0  0  0  0  0  0  0  0  0  0  0  0
   -1.6614   -3.3696    0.1600 C   0  0  2  0  0  0  0  0  0  0  0  0
   -1.7149   -1.8463   -0.0798 C   0  0  0  0  0  0  0  0  0  0  0  0
   -2.7752   -1.3200   -0.4020 O   0  0  0  0  0  0  0  0  0  0  0  0
   -0.9980   -4.0783   -1.0253 C   0  0  0  0  0  0  0  0  0  0  0  0
   -3.7837   -3.3413    0.0284 H   0  0  0  0  0  0  0  0  0  0  0  0
   -1.0664   -3.5384    1.0640 H   0  0  0  0  0  0  0  0  0  0  0  0
   -1.5712   -3.9068   -1.9421 H   0  0  0  0  0  0  0  0  0  0  0  0
    0.0199   -3.7066   -1.1774 H   0  0  0  0  0  0  0  0  0  0  0  0
   -0.9471   -5.1564   -0.8423 H   0  0  0  0  0  0  0  0  0  0  0  0
   -0.5612   -1.0890    0.0086 N   0  0  0  0  0  0  0  0  0  0  0  0
   -0.4817    0.3387   -0.3493 C   0  0  2  0  0  0  0  0  0  0  0  0
    0.7847    0.6078   -1.1993 C   0  0  0  0  0  0  0  0  0  0  0  0
    1.3201   -0.3153   -1.8038 O   0  0  0  0  0  0  0  0  0  0  0  0
   -0.4456    1.1662    0.9543 C   0  0  0  0  0  0  0  0  0  0  0  0
   -2.0042    1.0176    1.9208 S   0  0  0  0  0  0  0  0  0  0  0  0
    0.3131   -1.6089    0.0313 H   0  0  0  0  0  0  0  0  0  0  0  0
   -1.3473    0.6455   -0.9463 H   0  0  0  0  0  0  0  0  0  0  0  0
    0.3978    0.8398    1.5718 H   0  0  0  0  0  0  0  0  0  0  0  0
   -0.3021    2.2256    0.7225 H   0  0  0  0  0  0  0  0  0  0  0  0
   -1.7378    1.8113    2.9807 H   0  0  0  0  0  0  0  0  0  0  0  0
    1.4387    1.8264   -1.1708 N   0  0  0  0  0  0  0  0  0  0  0  0
    2.7529    2.1005   -1.7656 C   0  0  2  0  0  0  0  0  0  0  0  0
    3.4457    3.2804   -1.0489 C   0  0  0  0  0  0  0  0  0  0  0  0
    2.8361    3.9225   -0.1993 O   0  0  0  0  0  0  0  0  0  0  0  0
    2.5647    2.4053   -3.2562 C   0  0  0  0  0  0  0  0  0  0  0  0
    1.0599    2.5554   -0.5670 H   0  0  0  0  0  0  0  0  0  0  0  0
    3.3987    1.2230   -1.6542 H   0  0  0  0  0  0  0  0  0  0  0  0
    1.9254    3.2838   -3.3895 H   0  0  0  0  0  0  0  0  0  0  0  0
    3.5287    2.5998   -3.7353 H   0  0  0  0  0  0  0  0  0  0  0  0
    2.0967    1.5549   -3.7623 H   0  0  0  0  0  0  0  0  0  0  0  0
    4.7562    3.6129   -1.3389 N   0  0  0  0  0  0  0  0  0  0  0  0
    5.4620    4.7204   -0.7046 C   0  0  0  0  0  0  0  0  0  0  0  0
    5.2366    3.0640   -2.0460 H   0  0  0  0  0  0  0  0  0  0  0  0
    4.9545    5.6683   -0.9135 H   0  0  0  0  0  0  0  0  0  0  0  0
    5.5077    4.5772    0.3802 H   0  0  0  0  0  0  0  0  0  0  0  0
    6.4856    4.7844   -1.0865 H   0  0  0  0  0  0  0  0  0  0  0  0
  1  2  2  0  0  0  0
  1  3  1  0  0  0  0
  1  7  1  0  0  0  0
  3  4  1  0  0  0  0
  3  5  1  0  0  0  0
  3  6  1  0  0  0  0
  7  8  1  0  0  0  0
  7 12  1  0  0  0  0
  8  9  1  0  0  0  0
  8 11  1  0  0  0  0
  8 13  1  0  0  0  0
  9 10  2  0  0  0  0
  9 17  1  0  0  0  0
 11 14  1  0  0  0  0
 11 15  1  0  0  0  0
 11 16  1  0  0  0  0
 17 18  1  0  0  0  0
 17 23  1  0  0  0  0
 18 19  1  0  0  0  0
 18 21  1  0  0  0  0
 18 24  1  0  0  0  0
 19 20  2  0  0  0  0
 19 28  1  0  0  0  0
 21 22  1  0  0  0  0
 21 25  1  0  0  0  0
 21 26  1  0  0  0  0
 22 27  1  0  0  0  0
 28 29  1  0  0  0  0
 28 33  1  0  0  0  0
 29 30  1  0  0  0  0
 29 32  1  0  0  0  0
 29 34  1  0  0  0  0
 30 31  2  0  0  0  0
 30 38  1  0  0  0  0
 32 35  1  0  0  0  0
 32 36  1  0  0  0  0
 32 37  1  0  0  0  0
 38 39  1  0  0  0  0
 38 40  1  0  0  0  0
 39 41  1  0  0  0  0
 39 42  1  0  0  0  0
 39 43  1  0  0  0  0
M  END
$$$$

  -OEChem-05262216003D

 43 42  0     1  0  0  0  0  0999 V2000
   -3.3067   -4.9758    1.1605 C   0  0  0  0  0  0  0  0  0  0  0  0
   -2.4124   -5.6124    1.6955 O   0  0  0  0  0  0  0  0  0  0  0  0
   -4.7577   -5.3401    1.4111 C   0  0  0  0  0  0  0  0  0  0  0  0
   -5.2432   -5.6044    0.4686 H   0  0  0  0  0  0  0  0  0  0  0  0
   -4.8209   -6.1934    2.0920 H   0  0  0  0  0  0  0  0  0  0  0  0
   -5.2825   -4.4925    1.8588 H   0  0  0  0  0  0  0  0  0  0  0  0
   -3.0023   -3.9157    0.3347 N   0  0  0  0  0  0  0  0  0  0  0  0
   -1.6545   -3.3617    0.1584 C   0  0  2  0  0  0  0  0  0  0  0  0
   -1.7045   -1.8398   -0.0877 C   0  0  0  0  0  0  0  0  0  0  0  0
   -2.7613   -1.3143   -0.4223 O   0  0  0  0  0  0  0  0  0  0  0  0
   -0.9888   -4.0751   -1.0223 C   0  0  0  0  0  0  0  0  0  0  0  0
   -3.7763   -3.3314    0.0184 H   0  0  0  0  0  0  0  0  0  0  0  0
   -1.0631   -3.5282    1.0654 H   0  0  0  0  0  0  0  0  0  0  0  0
   -1.5580   -3.9033   -1.9415 H   0  0  0  0  0  0  0  0  0  0  0  0
    0.0309   -3.7073   -1.1714 H   0  0  0  0  0  0  0  0  0  0  0  0
   -0.9432   -5.1529   -0.8367 H   0  0  0  0  0  0  0  0  0  0  0  0
   -0.5509   -1.0837    0.0154 N   0  0  0  0  0  0  0  0  0  0  0  0
   -0.4680    0.3454   -0.3375 C   0  0  2  0  0  0  0  0  0  0  0  0
    0.8078    0.6147   -1.1736 C   0  0  0  0  0  0  0  0  0  0  0  0
    1.1945   -0.2285   -1.9742 O   0  0  0  0  0  0  0  0  0  0  0  0
   -0.4657    1.1778    0.9636 C   0  0  0  0  0  0  0  0  0  0  0  0
   -2.0456    1.0268    1.8940 S   0  0  0  0  0  0  0  0  0  0  0  0
    0.3204   -1.6047    0.0695 H   0  0  0  0  0  0  0  0  0  0  0  0
   -1.3237    0.6484   -0.9507 H   0  0  0  0  0  0  0  0  0  0  0  0
    0.3640    0.8585    1.6032 H   0  0  0  0  0  0  0  0  0  0  0  0
   -0.3228    2.2365    0.7259 H   0  0  0  0  0  0  0  0  0  0  0  0
   -1.8109    1.8275    2.9559 H   0  0  0  0  0  0  0  0  0  0  0  0
    1.6384    1.6934   -0.9260 N   0  0  0  0  0  0  0  0  0  0  0  0
    2.9681    1.8951   -1.5153 C   0  0  2  0  0  0  0  0  0  0  0  0
    3.8432    2.7782   -0.5996 C   0  0  0  0  0  0  0  0  0  0  0  0
    3.3532    3.2958    0.3995 O   0  0  0  0  0  0  0  0  0  0  0  0
    2.8005    2.5397   -2.8960 C   0  0  0  0  0  0  0  0  0  0  0  0
    1.3948    2.3125   -0.1533 H   0  0  0  0  0  0  0  0  0  0  0  0
    3.4757    0.9305   -1.6234 H   0  0  0  0  0  0  0  0  0  0  0  0
    2.3064    3.5124   -2.8064 H   0  0  0  0  0  0  0  0  0  0  0  0
    3.7731    2.6848   -3.3749 H   0  0  0  0  0  0  0  0  0  0  0  0
    2.1931    1.8997   -3.5438 H   0  0  0  0  0  0  0  0  0  0  0  0
    5.1822    2.9784   -0.8797 N   0  0  0  0  0  0  0  0  0  0  0  0
    6.0581    3.8001   -0.0526 C   0  0  0  0  0  0  0  0  0  0  0  0
    5.5630    2.5348   -1.7107 H   0  0  0  0  0  0  0  0  0  0  0  0
    5.6786    4.8258    0.0068 H   0  0  0  0  0  0  0  0  0  0  0  0
    6.1245    3.3894    0.9606 H   0  0  0  0  0  0  0  0  0  0  0  0
    7.0648    3.8294   -0.4808 H   0  0  0  0  0  0  0  0  0  0  0  0
  1  2  2  0  0  0  0
  1  3  1  0  0  0  0
  1  7  1  0  0  0  0
  3  4  1  0  0  0  0
  3  5  1  0  0  0  0
  3  6  1  0  0  0  0
  7  8  1  0  0  0  0
  7 12  1  0  0  0  0
  8  9  1  0  0  0  0
  8 11  1  0  0  0  0
  8 13  1  0  0  0  0
  9 10  2  0  0  0  0
  9 17  1  0  0  0  0
 11 14  1  0  0  0  0
 11 15  1  0  0  0  0
 11 16  1  0  0  0  0
 17 18  1  0  0  0  0
 17 23  1  0  0  0  0
 18 19  1  0  0  0  0
 18 21  1  0  0  0  0
 18 24  1  0  0  0  0
 19 20  2  0  0  0  0
 19 28  1  0  0  0  0
 21 22  1  0  0  0  0
 21 25  1  0  0  0  0
 21 26  1  0  0  0  0
 22 27  1  0  0  0  0
 28 29  1  0  0  0  0
 28 33  1  0  0  0  0
 29 30  1  0  0  0  0
 29 32  1  0  0  0  0
 29 34  1  0  0  0  0
 30 31  2  0  0  0  0
 30 38  1  0  0  0  0
 32 35  1  0  0  0  0
 32 36  1  0  0  0  0
 32 37  1  0  0  0  0
 38 39  1  0  0  0  0
 38 40  1  0  0  0  0
 39 41  1  0  0  0  0
 39 42  1  0  0  0  0
 39 43  1  0  0  0  0
M  END
$$$$

  -OEChem-05262216003D

 43 42  0     1  0  0  0  0  0999 V2000
   -3.3242   -4.9487    1.1715 C   0  0  0  0  0  0  0  0  0  0  0  0
   -2.4392   -5.5714    1.7378 O   0  0  0  0  0  0  0  0  0  0  0  0
   -4.7794   -5.3026    1.4127 C   0  0  0  0  0  0  0  0  0  0  0  0
   -5.2633   -5.5572    0.4667 H   0  0  0  0  0  0  0  0  0  0  0  0
   -4.8529   -6.1595    2.0883 H   0  0  0  0  0  0  0  0  0  0  0  0
   -5.2991   -4.4532    1.8625 H   0  0  0  0  0  0  0  0  0  0  0  0
   -3.0046   -3.9140    0.3193 N   0  0  0  0  0  0  0  0  0  0  0  0
   -1.6531   -3.3660    0.1513 C   0  0  2  0  0  0  0  0  0  0  0  0
   -1.6917   -1.8476   -0.1183 C   0  0  0  0  0  0  0  0  0  0  0  0
   -2.7405   -1.3225   -0.4771 O   0  0  0  0  0  0  0  0  0  0  0  0
   -0.9753   -4.1001   -1.0094 C   0  0  0  0  0  0  0  0  0  0  0  0
   -3.7724   -3.3379   -0.0254 H   0  0  0  0  0  0  0  0  0  0  0  0
   -1.0741   -3.5208    1.0681 H   0  0  0  0  0  0  0  0  0  0  0  0
   -1.5341   -3.9447   -1.9381 H   0  0  0  0  0  0  0  0  0  0  0  0
    0.0460   -3.7353   -1.1537 H   0  0  0  0  0  0  0  0  0  0  0  0
   -0.9325   -5.1742   -0.8033 H   0  0  0  0  0  0  0  0  0  0  0  0
   -0.5372   -1.0942    0.0009 N   0  0  0  0  0  0  0  0  0  0  0  0
   -0.4448    0.3387   -0.3343 C   0  0  2  0  0  0  0  0  0  0  0  0
    0.8368    0.6142   -1.1567 C   0  0  0  0  0  0  0  0  0  0  0  0
    1.0770   -0.0693   -2.1435 O   0  0  0  0  0  0  0  0  0  0  0  0
   -0.4623    1.1648    0.9699 C   0  0  0  0  0  0  0  0  0  0  0  0
   -2.0592    1.0131    1.8710 S   0  0  0  0  0  0  0  0  0  0  0  0
    0.3272   -1.6116    0.1317 H   0  0  0  0  0  0  0  0  0  0  0  0
   -1.2923    0.6474   -0.9564 H   0  0  0  0  0  0  0  0  0  0  0  0
    0.3530    0.8390    1.6247 H   0  0  0  0  0  0  0  0  0  0  0  0
   -0.3084    2.2231    0.7351 H   0  0  0  0  0  0  0  0  0  0  0  0
   -1.8445    1.8095    2.9404 H   0  0  0  0  0  0  0  0  0  0  0  0
    1.8222    1.4825   -0.7198 N   0  0  0  0  0  0  0  0  0  0  0  0
    3.1551    1.6232   -1.3202 C   0  0  2  0  0  0  0  0  0  0  0  0
    4.1698    2.1468   -0.2810 C   0  0  0  0  0  0  0  0  0  0  0  0
    3.7819    2.4838    0.8335 O   0  0  0  0  0  0  0  0  0  0  0  0
    3.0588    2.5784   -2.5156 C   0  0  0  0  0  0  0  0  0  0  0  0
    1.6951    1.9236    0.1908 H   0  0  0  0  0  0  0  0  0  0  0  0
    3.5110    0.6459   -1.6637 H   0  0  0  0  0  0  0  0  0  0  0  0
    2.7159    3.5654   -2.1889 H   0  0  0  0  0  0  0  0  0  0  0  0
    4.0331    2.6899   -3.0005 H   0  0  0  0  0  0  0  0  0  0  0  0
    2.3516    2.1919   -3.2566 H   0  0  0  0  0  0  0  0  0  0  0  0
    5.5171    2.2222   -0.5813 N   0  0  0  0  0  0  0  0  0  0  0  0
    6.5201    2.7054    0.3602 C   0  0  0  0  0  0  0  0  0  0  0  0
    5.8117    1.9313   -1.5091 H   0  0  0  0  0  0  0  0  0  0  0  0
    6.2841    3.7251    0.6828 H   0  0  0  0  0  0  0  0  0  0  0  0
    6.5611    2.0573    1.2421 H   0  0  0  0  0  0  0  0  0  0  0  0
    7.5079    2.7133   -0.1104 H   0  0  0  0  0  0  0  0  0  0  0  0
  1  2  2  0  0  0  0
  1  3  1  0  0  0  0
  1  7  1  0  0  0  0
  3  4  1  0  0  0  0
  3  5  1  0  0  0  0
  3  6  1  0  0  0  0
  7  8  1  0  0  0  0
  7 12  1  0  0  0  0
  8  9  1  0  0  0  0
  8 11  1  0  0  0  0
  8 13  1  0  0  0  0
  9 10  2  0  0  0  0
  9 17  1  0  0  0  0
 11 14  1  0  0  0  0
 11 15  1  0  0  0  0
 11 16  1  0  0  0  0
 17 18  1  0  0  0  0
 17 23  1  0  0  0  0
 18 19  1  0  0  0  0
 18 21  1  0  0  0  0
 18 24  1  0  0  0  0
 19 20  2  0  0  0  0
 19 28  1  0  0  0  0
 21 22  1  0  0  0  0
 21 25  1  0  0  0  0
 21 26  1  0  0  0  0
 22 27  1  0  0  0  0
 28 29  1  0  0  0  0
 28 33  1  0  0  0  0
 29 30  1  0  0  0  0
 29 32  1  0  0  0  0
 29 34  1  0  0  0  0
 30 31  2  0  0  0  0
 30 38  1  0  0  0  0
 32 35  1  0  0  0  0
 32 36  1  0  0  0  0
 32 37  1  0  0  0  0
 38 39  1  0  0  0  0
 38 40  1  0  0  0  0
 39 41  1  0  0  0  0
 39 42  1  0  0  0  0
 39 43  1  0  0  0  0
M  END
$$$$

  -OEChem-05262216003D

 43 42  0     1  0  0  0  0  0999 V2000
   -3.3611   -4.9159    1.1937 C   0  0  0  0  0  0  0  0  0  0  0  0
   -2.4904   -5.5315    1.7891 O   0  0  0  0  0  0  0  0  0  0  0  0
   -4.8222   -5.2653    1.4073 C   0  0  0  0  0  0  0  0  0  0  0  0
   -5.2865   -5.5284    0.4538 H   0  0  0  0  0  0  0  0  0  0  0  0
   -4.9105   -6.1163    2.0886 H   0  0  0  0  0  0  0  0  0  0  0  0
   -5.3509   -4.4117    1.8388 H   0  0  0  0  0  0  0  0  0  0  0  0
   -3.0169   -3.8973    0.3311 N   0  0  0  0  0  0  0  0  0  0  0  0
   -1.6549   -3.3737    0.1661 C   0  0  2  0  0  0  0  0  0  0  0  0
   -1.6665   -1.8694   -0.1783 C   0  0  0  0  0  0  0  0  0  0  0  0
   -2.6966   -1.3519   -0.5959 O   0  0  0  0  0  0  0  0  0  0  0  0
   -0.9619   -4.1736   -0.9418 C   0  0  0  0  0  0  0  0  0  0  0  0
   -3.7720   -3.3308   -0.0556 H   0  0  0  0  0  0  0  0  0  0  0  0
   -1.0984   -3.4917    1.1021 H   0  0  0  0  0  0  0  0  0  0  0  0
   -1.4996   -4.0582   -1.8885 H   0  0  0  0  0  0  0  0  0  0  0  0
    0.0669   -3.8282   -1.0816 H   0  0  0  0  0  0  0  0  0  0  0  0
   -0.9361   -5.2371   -0.6830 H   0  0  0  0  0  0  0  0  0  0  0  0
   -0.5129   -1.1167   -0.0429 N   0  0  0  0  0  0  0  0  0  0  0  0
   -0.4129    0.3212   -0.3555 C   0  0  2  0  0  0  0  0  0  0  0  0
    0.8698    0.6187   -1.1655 C   0  0  0  0  0  0  0  0  0  0  0  0
    0.9805    0.1937   -2.3069 O   0  0  0  0  0  0  0  0  0  0  0  0
   -0.4408    1.1329    0.9562 C   0  0  0  0  0  0  0  0  0  0  0  0
   -2.0470    0.9773    1.8390 S   0  0  0  0  0  0  0  0  0  0  0  0
    0.3276   -1.6152    0.2324 H   0  0  0  0  0  0  0  0  0  0  0  0
   -1.2569    0.6394   -0.9779 H   0  0  0  0  0  0  0  0  0  0  0  0
    0.3613    0.7942    1.6202 H   0  0  0  0  0  0  0  0  0  0  0  0
   -0.2725    2.1915    0.7314 H   0  0  0  0  0  0  0  0  0  0  0  0
   -1.8397    1.7685    2.9140 H   0  0  0  0  0  0  0  0  0  0  0  0
    1.9724    1.2261   -0.5894 N   0  0  0  0  0  0  0  0  0  0  0  0
    3.2998    1.3338   -1.2093 C   0  0  2  0  0  0  0  0  0  0  0  0
    4.4009    1.4301   -0.1305 C   0  0  0  0  0  0  0  0  0  0  0  0
    4.0869    1.5278    1.0518 O   0  0  0  0  0  0  0  0  0  0  0  0
    3.3222    2.5666   -2.1199 C   0  0  0  0  0  0  0  0  0  0  0  0
    1.9306    1.4291    0.4088 H   0  0  0  0  0  0  0  0  0  0  0  0
    3.5022    0.4385   -1.8069 H   0  0  0  0  0  0  0  0  0  0  0  0
    3.1379    3.4757   -1.5388 H   0  0  0  0  0  0  0  0  0  0  0  0
    4.2924    2.6608   -2.6165 H   0  0  0  0  0  0  0  0  0  0  0  0
    2.5501    2.4844   -2.8915 H   0  0  0  0  0  0  0  0  0  0  0  0
    5.7394    1.3853   -0.4747 N   0  0  0  0  0  0  0  0  0  0  0  0
    6.8196    1.4610    0.5023 C   0  0  0  0  0  0  0  0  0  0  0  0
    5.9721    1.2961   -1.4597 H   0  0  0  0  0  0  0  0  0  0  0  0
    6.7498    2.3880    1.0812 H   0  0  0  0  0  0  0  0  0  0  0  0
    6.7729    0.6111    1.1912 H   0  0  0  0  0  0  0  0  0  0  0  0
    7.7901    1.4434   -0.0028 H   0  0  0  0  0  0  0  0  0  0  0  0
  1  2  2  0  0  0  0
  1  3  1  0  0  0  0
  1  7  1  0  0  0  0
  3  4  1  0  0  0  0
  3  5  1  0  0  0  0
  3  6  1  0  0  0  0
  7  8  1  0  0  0  0
  7 12  1  0  0  0  0
  8  9  1  0  0  0  0
  8 11  1  0  0  0  0
  8 13  1  0  0  0  0
  9 10  2  0  0  0  0
  9 17  1  0  0  0  0
 11 14  1  0  0  0  0
 11 15  1  0  0  0  0
 11 16  1  0  0  0  0
 17 18  1  0  0  0  0
 17 23  1  0  0  0  0
 18 19  1  0  0  0  0
 18 21  1  0  0  0  0
 18 24  1  0  0  0  0
 19 20  2  0  0  0  0
 19 28  1  0  0  0  0
 21 22  1  0  0  0  0
 21 25  1  0  0  0  0
 21 26  1  0  0  0  0
 22 27  1  0  0  0  0
 28 29  1  0  0  0  0
 28 33  1  0  0  0  0
 29 30  1  0  0  0  0
 29 32  1  0  0  0  0
 29 34  1  0  0  0  0
 30 31  2  0  0  0  0
 30 38  1  0  0  0  0
 32 35  1  0  0  0  0
 32 36  1  0  0  0  0
 32 37  1  0  0  0  0
 38 39  1  0  0  0  0
 38 40  1  0  0  0  0
 39 41  1  0  0  0  0
 39 42  1  0  0  0  0
 39 43  1  0  0  0  0
M  END
$$$$

  -OEChem-05262216003D

 43 42  0     1  0  0  0  0  0999 V2000
   -3.4109   -4.8445    1.2363 C   0  0  0  0  0  0  0  0  0  0  0  0
   -2.5949   -5.3936    1.9603 O   0  0  0  0  0  0  0  0  0  0  0  0
   -4.8861   -5.1772    1.3607 C   0  0  0  0  0  0  0  0  0  0  0  0
   -5.2672   -5.5509    0.4070 H   0  0  0  0  0  0  0  0  0  0  0  0
   -5.0366   -5.9442    2.1256 H   0  0  0  0  0  0  0  0  0  0  0  0
   -5.4467   -4.2831    1.6437 H   0  0  0  0  0  0  0  0  0  0  0  0
   -2.9940   -3.9125    0.3105 N   0  0  0  0  0  0  0  0  0  0  0  0
   -1.6245   -3.3919    0.2167 C   0  0  2  0  0  0  0  0  0  0  0  0
   -1.6108   -1.9219   -0.2521 C   0  0  0  0  0  0  0  0  0  0  0  0
   -2.6089   -1.4441   -0.7800 O   0  0  0  0  0  0  0  0  0  0  0  0
   -0.8381   -4.2747   -0.7564 C   0  0  0  0  0  0  0  0  0  0  0  0
   -3.7149   -3.3849   -0.1820 H   0  0  0  0  0  0  0  0  0  0  0  0
   -1.1486   -3.4251    1.2026 H   0  0  0  0  0  0  0  0  0  0  0  0
   -1.2974   -4.2501   -1.7499 H   0  0  0  0  0  0  0  0  0  0  0  0
    0.1961   -3.9281   -0.8420 H   0  0  0  0  0  0  0  0  0  0  0  0
   -0.8271   -5.3107   -0.4029 H   0  0  0  0  0  0  0  0  0  0  0  0
   -0.4721   -1.1521   -0.0876 N   0  0  0  0  0  0  0  0  0  0  0  0
   -0.3902    0.2876   -0.3971 C   0  0  2  0  0  0  0  0  0  0  0  0
    0.9019    0.6150   -1.1748 C   0  0  0  0  0  0  0  0  0  0  0  0
    0.9322    0.5066   -2.3922 O   0  0  0  0  0  0  0  0  0  0  0  0
   -0.4600    1.0977    0.9117 C   0  0  0  0  0  0  0  0  0  0  0  0
   -2.0866    0.9045    1.7481 S   0  0  0  0  0  0  0  0  0  0  0  0
    0.3233   -1.6027    0.3546 H   0  0  0  0  0  0  0  0  0  0  0  0
   -1.2257    0.5927   -1.0377 H   0  0  0  0  0  0  0  0  0  0  0  0
    0.3309    0.7760    1.5964 H   0  0  0  0  0  0  0  0  0  0  0  0
   -0.3039    2.1586    0.6889 H   0  0  0  0  0  0  0  0  0  0  0  0
   -1.9313    1.7012    2.8275 H   0  0  0  0  0  0  0  0  0  0  0  0
    2.0701    0.9544   -0.5152 N   0  0  0  0  0  0  0  0  0  0  0  0
    3.3870    1.0732   -1.1539 C   0  0  2  0  0  0  0  0  0  0  0  0
    4.5097    0.6484   -0.1841 C   0  0  0  0  0  0  0  0  0  0  0  0
    4.2463    0.4261    0.9937 O   0  0  0  0  0  0  0  0  0  0  0  0
    3.5755    2.5237   -1.6077 C   0  0  0  0  0  0  0  0  0  0  0  0
    2.0736    0.8784    0.5012 H   0  0  0  0  0  0  0  0  0  0  0  0
    3.4418    0.4122   -2.0256 H   0  0  0  0  0  0  0  0  0  0  0  0
    3.5402    3.2014   -0.7487 H   0  0  0  0  0  0  0  0  0  0  0  0
    4.5387    2.6478   -2.1113 H   0  0  0  0  0  0  0  0  0  0  0  0
    2.7831    2.8067   -2.3081 H   0  0  0  0  0  0  0  0  0  0  0  0
    5.8079    0.4908   -0.6323 N   0  0  0  0  0  0  0  0  0  0  0  0
    6.9077    0.0764    0.2306 C   0  0  0  0  0  0  0  0  0  0  0  0
    5.9932    0.6670   -1.6157 H   0  0  0  0  0  0  0  0  0  0  0  0
    7.0470    0.7945    1.0457 H   0  0  0  0  0  0  0  0  0  0  0  0
    6.7067   -0.9105    0.6607 H   0  0  0  0  0  0  0  0  0  0  0  0
    7.8382    0.0203   -0.3427 H   0  0  0  0  0  0  0  0  0  0  0  0
  1  2  2  0  0  0  0
  1  3  1  0  0  0  0
  1  7  1  0  0  0  0
  3  4  1  0  0  0  0
  3  5  1  0  0  0  0
  3  6  1  0  0  0  0
  7  8  1  0  0  0  0
  7 12  1  0  0  0  0
  8  9  1  0  0  0  0
  8 11  1  0  0  0  0
  8 13  1  0  0  0  0
  9 10  2  0  0  0  0
  9 17  1  0  0  0  0
 11 14  1  0  0  0  0
 11 15  1  0  0  0  0
 11 16  1  0  0  0  0
 17 18  1  0  0  0  0
 17 23  1  0  0  0  0
 18 19  1  0  0  0  0
 18 21  1  0  0  0  0
 18 24  1  0  0  0  0
 19 20  2  0  0  0  0
 19 28  1  0  0  0  0
 21 22  1  0  0  0  0
 21 25  1  0  0  0  0
 21 26  1  0  0  0  0
 22 27  1  0  0  0  0
 28 29  1  0  0  0  0
 28 33  1  0  0  0  0
 29 30  1  0  0  0  0
 29 32  1  0  0  0  0
 29 34  1  0  0  0  0
 30 31  2  0  0  0  0
 30 38  1  0  0  0  0
 32 35  1  0  0  0  0
 32 36  1  0  0  0  0
 32 37  1  0  0  0  0
 38 39  1  0  0  0  0
 38 40  1  0  0  0  0
 39 41  1  0  0  0  0
 39 42  1  0  0  0  0
 39 43  1  0  0  0  0
M  END
$$$$

  -OEChem-05262216003D

 43 42  0     1  0  0  0  0  0999 V2000
   -3.4383   -4.8181    1.2570 C   0  0  0  0  0  0  0  0  0  0  0  0
   -2.6449   -5.3445    2.0218 O   0  0  0  0  0  0  0  0  0  0  0  0
   -4.9174   -5.1405    1.3531 C   0  0  0  0  0  0  0  0  0  0  0  0
   -5.2784   -5.5266    0.3969 H   0  0  0  0  0  0  0  0  0  0  0  0
   -5.0896   -5.8953    2.1253 H   0  0  0  0  0  0  0  0  0  0  0  0
   -5.4792   -4.2391    1.6096 H   0  0  0  0  0  0  0  0  0  0  0  0
   -2.9925   -3.9202    0.3111 N   0  0  0  0  0  0  0  0  0  0  0  0
   -1.6200   -3.4034    0.2426 C   0  0  2  0  0  0  0  0  0  0  0  0
   -1.5890   -1.9491   -0.2720 C   0  0  0  0  0  0  0  0  0  0  0  0
   -2.5691   -1.4876   -0.8455 O   0  0  0  0  0  0  0  0  0  0  0  0
   -0.8044   -4.3168   -0.6771 C   0  0  0  0  0  0  0  0  0  0  0  0
   -3.6983   -3.4055   -0.2156 H   0  0  0  0  0  0  0  0  0  0  0  0
   -1.1752   -3.4046    1.2435 H   0  0  0  0  0  0  0  0  0  0  0  0
   -1.2312   -4.3225   -1.6854 H   0  0  0  0  0  0  0  0  0  0  0  0
    0.2329   -3.9746   -0.7396 H   0  0  0  0  0  0  0  0  0  0  0  0
   -0.8062   -5.3415   -0.2918 H   0  0  0  0  0  0  0  0  0  0  0  0
   -0.4558   -1.1739   -0.0937 N   0  0  0  0  0  0  0  0  0  0  0  0
   -0.3776    0.2651   -0.4122 C   0  0  2  0  0  0  0  0  0  0  0  0
    0.9220    0.5994   -1.1710 C   0  0  0  0  0  0  0  0  0  0  0  0
    0.9064    0.8009   -2.3766 O   0  0  0  0  0  0  0  0  0  0  0  0
   -0.4578    1.0907    0.8851 C   0  0  0  0  0  0  0  0  0  0  0  0
   -2.0897    0.9002    1.7126 S   0  0  0  0  0  0  0  0  0  0  0  0
    0.3146   -1.6077    0.4061 H   0  0  0  0  0  0  0  0  0  0  0  0
   -1.2086    0.5605   -1.0631 H   0  0  0  0  0  0  0  0  0  0  0  0
    0.3315    0.7847    1.5786 H   0  0  0  0  0  0  0  0  0  0  0  0
   -0.3058    2.1492    0.6478 H   0  0  0  0  0  0  0  0  0  0  0  0
   -1.9506    1.7255    2.7726 H   0  0  0  0  0  0  0  0  0  0  0  0
    2.1333    0.6468   -0.5044 N   0  0  0  0  0  0  0  0  0  0  0  0
    3.4433    0.7186   -1.1645 C   0  0  2  0  0  0  0  0  0  0  0  0
    4.4930   -0.1085   -0.3914 C   0  0  0  0  0  0  0  0  0  0  0  0
    4.2006   -0.6000    0.6946 O   0  0  0  0  0  0  0  0  0  0  0  0
    3.8586    2.1904   -1.2548 C   0  0  0  0  0  0  0  0  0  0  0  0
    2.1428    0.3232    0.4618 H   0  0  0  0  0  0  0  0  0  0  0  0
    3.3793    0.2998   -2.1748 H   0  0  0  0  0  0  0  0  0  0  0  0
    3.9572    2.6241   -0.2544 H   0  0  0  0  0  0  0  0  0  0  0  0
    4.8166    2.2900   -1.7742 H   0  0  0  0  0  0  0  0  0  0  0  0
    3.1069    2.7612   -1.8097 H   0  0  0  0  0  0  0  0  0  0  0  0
    5.7526   -0.3244   -0.9188 N   0  0  0  0  0  0  0  0  0  0  0  0
    6.7797   -1.1099   -0.2449 C   0  0  0  0  0  0  0  0  0  0  0  0
    5.9590    0.0787   -1.8284 H   0  0  0  0  0  0  0  0  0  0  0  0
    7.0061   -0.6830    0.7380 H   0  0  0  0  0  0  0  0  0  0  0  0
    6.4450   -2.1440   -0.1116 H   0  0  0  0  0  0  0  0  0  0  0  0
    7.6998   -1.1179   -0.8374 H   0  0  0  0  0  0  0  0  0  0  0  0
  1  2  2  0  0  0  0
  1  3  1  0  0  0  0
  1  7  1  0  0  0  0
  3  4  1  0  0  0  0
  3  5  1  0  0  0  0
  3  6  1  0  0  0  0
  7  8  1  0  0  0  0
  7 12  1  0  0  0  0
  8  9  1  0  0  0  0
  8 11  1  0  0  0  0
  8 13  1  0  0  0  0
  9 10  2  0  0  0  0
  9 17  1  0  0  0  0
 11 14  1  0  0  0  0
 11 15  1  0  0  0  0
 11 16  1  0  0  0  0
 17 18  1  0  0  0  0
 17 23  1  0  0  0  0
 18 19  1  0  0  0  0
 18 21  1  0  0  0  0
 18 24  1  0  0  0  0
 19 20  2  0  0  0  0
 19 28  1  0  0  0  0
 21 22  1  0  0  0  0
 21 25  1  0  0  0  0
 21 26  1  0  0  0  0
 22 27  1  0  0  0  0
 28 29  1  0  0  0  0
 28 33  1  0  0  0  0
 29 30  1  0  0  0  0
 29 32  1  0  0  0  0
 29 34  1  0  0  0  0
 30 31  2  0  0  0  0
 30 38  1  0  0  0  0
 32 35  1  0  0  0  0
 32 36  1  0  0  0  0
 32 37  1  0  0  0  0
 38 39  1  0  0  0  0
 38 40  1  0  0  0  0
 39 41  1  0  0  0  0
 39 42  1  0  0  0  0
 39 43  1  0  0  0  0
M  END
$$$$

  -OEChem-05262216003D

 43 42  0     1  0  0  0  0  0999 V2000
   -3.4702   -4.7943    1.2733 C   0  0  0  0  0  0  0  0  0  0  0  0
   -2.7099   -5.2941    2.0879 O   0  0  0  0  0  0  0  0  0  0  0  0
   -4.9539   -5.1074    1.3223 C   0  0  0  0  0  0  0  0  0  0  0  0
   -5.2775   -5.5329    0.3691 H   0  0  0  0  0  0  0  0  0  0  0  0
   -5.1618   -5.8275    2.1187 H   0  0  0  0  0  0  0  0  0  0  0  0
   -5.5209   -4.1937    1.5167 H   0  0  0  0  0  0  0  0  0  0  0  0
   -2.9838   -3.9339    0.3129 N   0  0  0  0  0  0  0  0  0  0  0  0
   -1.6098   -3.4176    0.2835 C   0  0  2  0  0  0  0  0  0  0  0  0
   -1.5614   -1.9816   -0.2789 C   0  0  0  0  0  0  0  0  0  0  0  0
   -2.5178   -1.5434   -0.9078 O   0  0  0  0  0  0  0  0  0  0  0  0
   -0.7551   -4.3593   -0.5699 C   0  0  0  0  0  0  0  0  0  0  0  0
   -3.6668   -3.4384   -0.2602 H   0  0  0  0  0  0  0  0  0  0  0  0
   -1.2064   -3.3850    1.3012 H   0  0  0  0  0  0  0  0  0  0  0  0
   -1.1358   -4.3973   -1.5958 H   0  0  0  0  0  0  0  0  0  0  0  0
    0.2845   -4.0189   -0.5960 H   0  0  0  0  0  0  0  0  0  0  0  0
   -0.7760   -5.3712   -0.1528 H   0  0  0  0  0  0  0  0  0  0  0  0
   -0.4368   -1.1973   -0.0878 N   0  0  0  0  0  0  0  0  0  0  0  0
   -0.3671    0.2401   -0.4221 C   0  0  2  0  0  0  0  0  0  0  0  0
    0.9395    0.5817   -1.1613 C   0  0  0  0  0  0  0  0  0  0  0  0
    0.9192    1.0814   -2.2768 O   0  0  0  0  0  0  0  0  0  0  0  0
   -0.4527    1.0791    0.8636 C   0  0  0  0  0  0  0  0  0  0  0  0
   -2.0846    0.8858    1.6905 S   0  0  0  0  0  0  0  0  0  0  0  0
    0.3007   -1.6052    0.4788 H   0  0  0  0  0  0  0  0  0  0  0  0
   -1.1941    0.5252   -1.0830 H   0  0  0  0  0  0  0  0  0  0  0  0
    0.3410    0.7884    1.5586 H   0  0  0  0  0  0  0  0  0  0  0  0
   -0.3083    2.1356    0.6126 H   0  0  0  0  0  0  0  0  0  0  0  0
   -1.9689    1.7562    2.7171 H   0  0  0  0  0  0  0  0  0  0  0  0
    2.1584    0.3484   -0.5521 N   0  0  0  0  0  0  0  0  0  0  0  0
    3.4482    0.3747   -1.2510 C   0  0  2  0  0  0  0  0  0  0  0  0
    4.3550   -0.7709   -0.7537 C   0  0  0  0  0  0  0  0  0  0  0  0
    4.0021   -1.4529    0.2044 O   0  0  0  0  0  0  0  0  0  0  0  0
    4.0989    1.7389   -1.0086 C   0  0  0  0  0  0  0  0  0  0  0  0
    2.1408   -0.1901    0.3122 H   0  0  0  0  0  0  0  0  0  0  0  0
    3.2990    0.2309   -2.3266 H   0  0  0  0  0  0  0  0  0  0  0  0
    4.2791    1.8928    0.0602 H   0  0  0  0  0  0  0  0  0  0  0  0
    5.0538    1.8102   -1.5378 H   0  0  0  0  0  0  0  0  0  0  0  0
    3.4446    2.5382   -1.3714 H   0  0  0  0  0  0  0  0  0  0  0  0
    5.5512   -1.0527   -1.3864 N   0  0  0  0  0  0  0  0  0  0  0  0
    6.4404   -2.1312   -0.9719 C   0  0  0  0  0  0  0  0  0  0  0  0
    5.8070   -0.4846   -2.1891 H   0  0  0  0  0  0  0  0  0  0  0  0
    6.7465   -1.9963    0.0710 H   0  0  0  0  0  0  0  0  0  0  0  0
    5.9396   -3.1002   -1.0695 H   0  0  0  0  0  0  0  0  0  0  0  0
    7.3393   -2.1420   -1.5959 H   0  0  0  0  0  0  0  0  0  0  0  0
  1  2  2  0  0  0  0
  1  3  1  0  0  0  0
  1  7  1  0  0  0  0
  3  4  1  0  0  0  0
  3  5  1  0  0  0  0
  3  6  1  0  0  0  0
  7  8  1  0  0  0  0
  7 12  1  0  0  0  0
  8  9  1  0  0  0  0
  8 11  1  0  0  0  0
  8 13  1  0  0  0  0
  9 10  2  0  0  0  0
  9 17  1  0  0  0  0
 11 14  1  0  0  0  0
 11 15  1  0  0  0  0
 11 16  1  0  0  0  0
 17 18  1  0  0  0  0
 17 23  1  0  0  0  0
 18 19  1  0  0  0  0
 18 21  1  0  0  0  0
 18 24  1  0  0  0  0
 19 20  2  0  0  0  0
 19 28  1  0  0  0  0
 21 22  1  0  0  0  0
 21 25  1  0  0  0  0
 21 26  1  0  0  0  0
 22 27  1  0  0  0  0
 28 29  1  0  0  0  0
 28 33  1  0  0  0  0
 29 30  1  0  0  0  0
 29 32  1  0  0  0  0
 29 34  1  0  0  0  0
 30 31  2  0  0  0  0
 30 38  1  0  0  0  0
 32 35  1  0  0  0  0
 32 36  1  0  0  0  0
 32 37  1  0  0  0  0
 38 39  1  0  0  0  0
 38 40  1  0  0  0  0
 39 41  1  0  0  0  0
 39 42  1  0  0  0  0
 39 43  1  0  0  0  0
M  END
$$$$

  -OEChem-05262216003D

 43 42  0     1  0  0  0  0  0999 V2000
   -3.5910   -4.7520    1.3011 C   0  0  0  0  0  0  0  0  0  0  0  0
   -2.8725   -5.2208    2.1704 O   0  0  0  0  0  0  0  0  0  0  0  0
   -5.0769   -5.0592    1.2924 C   0  0  0  0  0  0  0  0  0  0  0  0
   -5.3547   -5.5337    0.3480 H   0  0  0  0  0  0  0  0  0  0  0  0
   -5.3278   -5.7363    2.1139 H   0  0  0  0  0  0  0  0  0  0  0  0
   -5.6482   -4.1353    1.4104 H   0  0  0  0  0  0  0  0  0  0  0  0
   -3.0547   -3.9318    0.3316 N   0  0  0  0  0  0  0  0  0  0  0  0
   -1.6730   -3.4353    0.3392 C   0  0  2  0  0  0  0  0  0  0  0  0
   -1.5728   -2.0276   -0.2834 C   0  0  0  0  0  0  0  0  0  0  0  0
   -2.4847   -1.6035   -0.9838 O   0  0  0  0  0  0  0  0  0  0  0  0
   -0.7953   -4.4252   -0.4327 C   0  0  0  0  0  0  0  0  0  0  0  0
   -3.7057   -3.4584   -0.2949 H   0  0  0  0  0  0  0  0  0  0  0  0
   -1.3134   -3.3617    1.3711 H   0  0  0  0  0  0  0  0  0  0  0  0
   -1.1380   -4.5131   -1.4687 H   0  0  0  0  0  0  0  0  0  0  0  0
    0.2477   -4.0938   -0.4382 H   0  0  0  0  0  0  0  0  0  0  0  0
   -0.8398   -5.4140    0.0343 H   0  0  0  0  0  0  0  0  0  0  0  0
   -0.4370   -1.2632   -0.0797 N   0  0  0  0  0  0  0  0  0  0  0  0
   -0.3424    0.1704   -0.4263 C   0  0  2  0  0  0  0  0  0  0  0  0
    0.9767    0.4961   -1.1504 C   0  0  0  0  0  0  0  0  0  0  0  0
    0.9948    1.2703   -2.0965 O   0  0  0  0  0  0  0  0  0  0  0  0
   -0.4178    1.0188    0.8523 C   0  0  0  0  0  0  0  0  0  0  0  0
   -2.0571    0.8537    1.6713 S   0  0  0  0  0  0  0  0  0  0  0  0
    0.2216   -1.6403    0.5944 H   0  0  0  0  0  0  0  0  0  0  0  0
   -1.1598    0.4657   -1.0944 H   0  0  0  0  0  0  0  0  0  0  0  0
    0.3727    0.7233    1.5495 H   0  0  0  0  0  0  0  0  0  0  0  0
   -0.2586    2.0716    0.5936 H   0  0  0  0  0  0  0  0  0  0  0  0
   -1.9444    1.7466    2.6789 H   0  0  0  0  0  0  0  0  0  0  0  0
    2.1719   -0.0140   -0.6793 N   0  0  0  0  0  0  0  0  0  0  0  0
    3.4367    0.0317   -1.4213 C   0  0  2  0  0  0  0  0  0  0  0  0
    4.2147   -1.2891   -1.2379 C   0  0  0  0  0  0  0  0  0  0  0  0
    3.8391   -2.1042   -0.3996 O   0  0  0  0  0  0  0  0  0  0  0  0
    4.2515    1.2241   -0.9139 C   0  0  0  0  0  0  0  0  0  0  0  0
    2.1048   -0.7567    0.0135 H   0  0  0  0  0  0  0  0  0  0  0  0
    3.2431    0.1545   -2.4927 H   0  0  0  0  0  0  0  0  0  0  0  0
    4.4715    1.1118    0.1526 H   0  0  0  0  0  0  0  0  0  0  0  0
    5.1967    1.3044   -1.4591 H   0  0  0  0  0  0  0  0  0  0  0  0
    3.6908    2.1532   -1.0586 H   0  0  0  0  0  0  0  0  0  0  0  0
    5.3191   -1.5750   -2.0185 N   0  0  0  0  0  0  0  0  0  0  0  0
    6.0881   -2.8078   -1.8962 C   0  0  0  0  0  0  0  0  0  0  0  0
    5.5921   -0.8920   -2.7196 H   0  0  0  0  0  0  0  0  0  0  0  0
    6.5215   -2.8913   -0.8941 H   0  0  0  0  0  0  0  0  0  0  0  0
    5.4493   -3.6786   -2.0772 H   0  0  0  0  0  0  0  0  0  0  0  0
    6.9027   -2.8201   -2.6266 H   0  0  0  0  0  0  0  0  0  0  0  0
  1  2  2  0  0  0  0
  1  3  1  0  0  0  0
  1  7  1  0  0  0  0
  3  4  1  0  0  0  0
  3  5  1  0  0  0  0
  3  6  1  0  0  0  0
  7  8  1  0  0  0  0
  7 12  1  0  0  0  0
  8  9  1  0  0  0  0
  8 11  1  0  0  0  0
  8 13  1  0  0  0  0
  9 10  2  0  0  0  0
  9 17  1  0  0  0  0
 11 14  1  0  0  0  0
 11 15  1  0  0  0  0
 11 16  1  0  0  0  0
 17 18  1  0  0  0  0
 17 23  1  0  0  0  0
 18 19  1  0  0  0  0
 18 21  1  0  0  0  0
 18 24  1  0  0  0  0
 19 20  2  0  0  0  0
 19 28  1  0  0  0  0
 21 22  1  0  0  0  0
 21 25  1  0  0  0  0
 21 26  1  0  0  0  0
 22 27  1  0  0  0  0
 28 29  1  0  0  0  0
 28 33  1  0  0  0  0
 29 30  1  0  0  0  0
 29 32  1  0  0  0  0
 29 34  1  0  0  0  0
 30 31  2  0  0  0  0
 30 38  1  0  0  0  0
 32 35  1  0  0  0  0
 32 36  1  0  0  0  0
 32 37  1  0  0  0  0
 38 39  1  0  0  0  0
 38 40  1  0  0  0  0
 39 41  1  0  0  0  0
 39 42  1  0  0  0  0
 39 43  1  0  0  0  0
M  END
$$$$

  -OEChem-05262216003D

 43 42  0     1  0  0  0  0  0999 V2000
   -3.7684   -4.6720    1.3770 C   0  0  0  0  0  0  0  0  0  0  0  0
   -3.1069   -5.0999    2.3101 O   0  0  0  0  0  0  0  0  0  0  0  0
   -5.2561   -4.9594    1.3018 C   0  0  0  0  0  0  0  0  0  0  0  0
   -5.4905   -5.4756    0.3677 H   0  0  0  0  0  0  0  0  0  0  0  0
   -5.5604   -5.5926    2.1397 H   0  0  0  0  0  0  0  0  0  0  0  0
   -5.8188   -4.0237    1.3439 H   0  0  0  0  0  0  0  0  0  0  0  0
   -3.1647   -3.9195    0.3924 N   0  0  0  0  0  0  0  0  0  0  0  0
   -1.7720   -3.4574    0.4404 C   0  0  2  0  0  0  0  0  0  0  0  0
   -1.5991   -2.1007   -0.2743 C   0  0  0  0  0  0  0  0  0  0  0  0
   -2.4750   -1.6894   -1.0266 O   0  0  0  0  0  0  0  0  0  0  0  0
   -0.8841   -4.5243   -0.2086 C   0  0  0  0  0  0  0  0  0  0  0  0
   -3.7710   -3.4711   -0.2943 H   0  0  0  0  0  0  0  0  0  0  0  0
   -1.4671   -3.3180    1.4832 H   0  0  0  0  0  0  0  0  0  0  0  0
   -1.1710   -4.6757   -1.2543 H   0  0  0  0  0  0  0  0  0  0  0  0
    0.1678   -4.2246   -0.1761 H   0  0  0  0  0  0  0  0  0  0  0  0
   -0.9865   -5.4763    0.3220 H   0  0  0  0  0  0  0  0  0  0  0  0
   -0.4406   -1.3653   -0.0905 N   0  0  0  0  0  0  0  0  0  0  0  0
   -0.3244    0.0628   -0.4566 C   0  0  2  0  0  0  0  0  0  0  0  0
    0.9880    0.3635   -1.2038 C   0  0  0  0  0  0  0  0  0  0  0  0
    1.0854    1.3578   -1.9096 O   0  0  0  0  0  0  0  0  0  0  0  0
   -0.3615    0.9201    0.8172 C   0  0  0  0  0  0  0  0  0  0  0  0
   -1.9898    0.7893    1.6638 S   0  0  0  0  0  0  0  0  0  0  0  0
    0.1593   -1.7065    0.6543 H   0  0  0  0  0  0  0  0  0  0  0  0
   -1.1452    0.3685   -1.1151 H   0  0  0  0  0  0  0  0  0  0  0  0
    0.4373    0.6156    1.5010 H   0  0  0  0  0  0  0  0  0  0  0  0
   -0.1889    1.9684    0.5486 H   0  0  0  0  0  0  0  0  0  0  0  0
   -1.8513    1.7075    2.6452 H   0  0  0  0  0  0  0  0  0  0  0  0
    2.1185   -0.3889   -0.9470 N   0  0  0  0  0  0  0  0  0  0  0  0
    3.3741   -0.2758   -1.6974 C   0  0  2  0  0  0  0  0  0  0  0  0
    4.0267   -1.6633   -1.8736 C   0  0  0  0  0  0  0  0  0  0  0  0
    3.6030   -2.6219   -1.2340 O   0  0  0  0  0  0  0  0  0  0  0  0
    4.3075    0.6733   -0.9407 C   0  0  0  0  0  0  0  0  0  0  0  0
    1.9593   -1.2918   -0.5027 H   0  0  0  0  0  0  0  0  0  0  0  0
    3.1793    0.1267   -2.6974 H   0  0  0  0  0  0  0  0  0  0  0  0
    4.5300    0.2784    0.0557 H   0  0  0  0  0  0  0  0  0  0  0  0
    5.2488    0.8014   -1.4832 H   0  0  0  0  0  0  0  0  0  0  0  0
    3.8381    1.6558   -0.8295 H   0  0  0  0  0  0  0  0  0  0  0  0
    5.0753   -1.8430   -2.7561 N   0  0  0  0  0  0  0  0  0  0  0  0
    5.7219   -3.1306   -2.9784 C   0  0  0  0  0  0  0  0  0  0  0  0
    5.3850   -1.0373   -3.2920 H   0  0  0  0  0  0  0  0  0  0  0  0
    6.1519   -3.5099   -2.0451 H   0  0  0  0  0  0  0  0  0  0  0  0
    4.9998   -3.8620   -3.3567 H   0  0  0  0  0  0  0  0  0  0  0  0
    6.5270   -3.0286   -3.7127 H   0  0  0  0  0  0  0  0  0  0  0  0
  1  2  2  0  0  0  0
  1  3  1  0  0  0  0
  1  7  1  0  0  0  0
  3  4  1  0  0  0  0
  3  5  1  0  0  0  0
  3  6  1  0  0  0  0
  7  8  1  0  0  0  0
  7 12  1  0  0  0  0
  8  9  1  0  0  0  0
  8 11  1  0  0  0  0
  8 13  1  0  0  0  0
  9 10  2  0  0  0  0
  9 17  1  0  0  0  0
 11 14  1  0  0  0  0
 11 15  1  0  0  0  0
 11 16  1  0  0  0  0
 17 18  1  0  0  0  0
 17 23  1  0  0  0  0
 18 19  1  0  0  0  0
 18 21  1  0  0  0  0
 18 24  1  0  0  0  0
 19 20  2  0  0  0  0
 19 28  1  0  0  0  0
 21 22  1  0  0  0  0
 21 25  1  0  0  0  0
 21 26  1  0  0  0  0
 22 27  1  0  0  0  0
 28 29  1  0  0  0  0
 28 33  1  0  0  0  0
 29 30  1  0  0  0  0
 29 32  1  0  0  0  0
 29 34  1  0  0  0  0
 30 31  2  0  0  0  0
 30 38  1  0  0  0  0
 32 35  1  0  0  0  0
 32 36  1  0  0  0  0
 32 37  1  0  0  0  0
 38 39  1  0  0  0  0
 38 40  1  0  0  0  0
 39 41  1  0  0  0  0
 39 42  1  0  0  0  0
 39 43  1  0  0  0  0
M  END
$$$$

  -OEChem-05262216003D

 43 42  0     1  0  0  0  0  0999 V2000
   -3.8105   -4.6625    1.4331 C   0  0  0  0  0  0  0  0  0  0  0  0
   -3.1451   -5.0962    2.3608 O   0  0  0  0  0  0  0  0  0  0  0  0
   -5.2995   -4.9462    1.3656 C   0  0  0  0  0  0  0  0  0  0  0  0
   -5.5405   -5.4492    0.4261 H   0  0  0  0  0  0  0  0  0  0  0  0
   -5.5990   -5.5906    2.1969 H   0  0  0  0  0  0  0  0  0  0  0  0
   -5.8611   -4.0108    1.4245 H   0  0  0  0  0  0  0  0  0  0  0  0
   -3.2091   -3.9120    0.4454 N   0  0  0  0  0  0  0  0  0  0  0  0
   -1.8135   -3.4583    0.4834 C   0  0  2  0  0  0  0  0  0  0  0  0
   -1.6354   -2.1087   -0.2433 C   0  0  0  0  0  0  0  0  0  0  0  0
   -2.5177   -1.6898   -0.9839 O   0  0  0  0  0  0  0  0  0  0  0  0
   -0.9341   -4.5366   -0.1593 C   0  0  0  0  0  0  0  0  0  0  0  0
   -3.8171   -3.4615   -0.2384 H   0  0  0  0  0  0  0  0  0  0  0  0
   -1.5046   -3.3117    1.5240 H   0  0  0  0  0  0  0  0  0  0  0  0
   -1.2233   -4.6940   -1.2035 H   0  0  0  0  0  0  0  0  0  0  0  0
    0.1201   -4.2447   -0.1309 H   0  0  0  0  0  0  0  0  0  0  0  0
   -1.0425   -5.4839    0.3787 H   0  0  0  0  0  0  0  0  0  0  0  0
   -0.4615   -1.3906   -0.0921 N   0  0  0  0  0  0  0  0  0  0  0  0
   -0.3341    0.0360   -0.4611 C   0  0  2  0  0  0  0  0  0  0  0  0
    0.9631    0.3167   -1.2458 C   0  0  0  0  0  0  0  0  0  0  0  0
    1.1631    1.4158   -1.7451 O   0  0  0  0  0  0  0  0  0  0  0  0
   -0.3260    0.8830    0.8211 C   0  0  0  0  0  0  0  0  0  0  0  0
   -1.9340    0.7671    1.7080 S   0  0  0  0  0  0  0  0  0  0  0  0
    0.1549   -1.7370    0.6372 H   0  0  0  0  0  0  0  0  0  0  0  0
   -1.1680    0.3570   -1.0954 H   0  0  0  0  0  0  0  0  0  0  0  0
    0.4862    0.5608    1.4802 H   0  0  0  0  0  0  0  0  0  0  0  0
   -0.1461    1.9317    0.5594 H   0  0  0  0  0  0  0  0  0  0  0  0
   -1.7550    1.6708    2.6959 H   0  0  0  0  0  0  0  0  0  0  0  0
    1.9793   -0.6197   -1.2610 N   0  0  0  0  0  0  0  0  0  0  0  0
    3.2039   -0.5078   -2.0608 C   0  0  2  0  0  0  0  0  0  0  0  0
    3.6901   -1.9029   -2.5079 C   0  0  0  0  0  0  0  0  0  0  0  0
    3.1952   -2.9105   -2.0110 O   0  0  0  0  0  0  0  0  0  0  0  0
    4.2719    0.1960   -1.2182 C   0  0  0  0  0  0  0  0  0  0  0  0
    1.7128   -1.5675   -0.9956 H   0  0  0  0  0  0  0  0  0  0  0  0
    3.0070    0.0792   -2.9645 H   0  0  0  0  0  0  0  0  0  0  0  0
    4.4930   -0.3857   -0.3177 H   0  0  0  0  0  0  0  0  0  0  0  0
    5.1965    0.3179   -1.7902 H   0  0  0  0  0  0  0  0  0  0  0  0
    3.9213    1.1877   -0.9152 H   0  0  0  0  0  0  0  0  0  0  0  0
    4.6682   -2.0323   -3.4761 N   0  0  0  0  0  0  0  0  0  0  0  0
    5.1529   -3.3211   -3.9552 C   0  0  0  0  0  0  0  0  0  0  0  0
    5.0395   -1.1816   -3.8892 H   0  0  0  0  0  0  0  0  0  0  0  0
    5.5725   -3.9038   -3.1284 H   0  0  0  0  0  0  0  0  0  0  0  0
    4.3374   -3.8925   -4.4111 H   0  0  0  0  0  0  0  0  0  0  0  0
    5.9347   -3.1760   -4.7067 H   0  0  0  0  0  0  0  0  0  0  0  0
  1  2  2  0  0  0  0
  1  3  1  0  0  0  0
  1  7  1  0  0  0  0
  3  4  1  0  0  0  0
  3  5  1  0  0  0  0
  3  6  1  0  0  0  0
  7  8  1  0  0  0  0
  7 12  1  0  0  0  0
  8  9  1  0  0  0  0
  8 11  1  0  0  0  0
  8 13  1  0  0  0  0
  9 10  2  0  0  0  0
  9 17  1  0  0  0  0
 11 14  1  0  0  0  0
 11 15  1  0  0  0  0
 11 16  1  0  0  0  0
 17 18  1  0  0  0  0
 17 23  1  0  0  0  0
 18 19  1  0  0  0  0
 18 21  1  0  0  0  0
 18 24  1  0  0  0  0
 19 20  2  0  0  0  0
 19 28  1  0  0  0  0
 21 22  1  0  0  0  0
 21 25  1  0  0  0  0
 21 26  1  0  0  0  0
 22 27  1  0  0  0  0
 28 29  1  0  0  0  0
 28 33  1  0  0  0  0
 29 30  1  0  0  0  0
 29 32  1  0  0  0  0
 29 34  1  0  0  0  0
 30 31  2  0  0  0  0
 30 38  1  0  0  0  0
 32 35  1  0  0  0  0
 32 36  1  0  0  0  0
 32 37  1  0  0  0  0
 38 39  1  0  0  0  0
 38 40  1  0  0  0  0
 39 41  1  0  0  0  0
 39 42  1  0  0  0  0
 39 43  1  0  0  0  0
M  END
$$$$

  -OEChem-05262216003D

 43 42  0     1  0  0  0  0  0999 V2000
   -3.7875   -4.6841    1.4709 C   0  0  0  0  0  0  0  0  0  0  0  0
   -3.0910   -5.1451    2.3619 O   0  0  0  0  0  0  0  0  0  0  0  0
   -5.2792   -4.9590    1.4495 C   0  0  0  0  0  0  0  0  0  0  0  0
   -5.5494   -5.4775    0.5264 H   0  0  0  0  0  0  0  0  0  0  0  0
   -5.5595   -5.5851    2.3012 H   0  0  0  0  0  0  0  0  0  0  0  0
   -5.8331   -4.0189    1.5065 H   0  0  0  0  0  0  0  0  0  0  0  0
   -3.2186   -3.9093    0.4831 N   0  0  0  0  0  0  0  0  0  0  0  0
   -1.8196   -3.4652    0.4817 C   0  0  2  0  0  0  0  0  0  0  0  0
   -1.6592   -2.0995   -0.2180 C   0  0  0  0  0  0  0  0  0  0  0  0
   -2.5610   -1.6620   -0.9236 O   0  0  0  0  0  0  0  0  0  0  0  0
   -0.9727   -4.5315   -0.2212 C   0  0  0  0  0  0  0  0  0  0  0  0
   -3.8485   -3.4394   -0.1670 H   0  0  0  0  0  0  0  0  0  0  0  0
   -1.4718   -3.3469    1.5136 H   0  0  0  0  0  0  0  0  0  0  0  0
   -1.3020   -4.6595   -1.2576 H   0  0  0  0  0  0  0  0  0  0  0  0
    0.0837   -4.2468   -0.2245 H   0  0  0  0  0  0  0  0  0  0  0  0
   -1.0675   -5.4921    0.2952 H   0  0  0  0  0  0  0  0  0  0  0  0
   -0.4774   -1.3896   -0.0916 N   0  0  0  0  0  0  0  0  0  0  0  0
   -0.3476    0.0383   -0.4549 C   0  0  2  0  0  0  0  0  0  0  0  0
    0.9353    0.3073   -1.2691 C   0  0  0  0  0  0  0  0  0  0  0  0
    1.2502    1.4463   -1.5875 O   0  0  0  0  0  0  0  0  0  0  0  0
   -0.3086    0.8713    0.8377 C   0  0  0  0  0  0  0  0  0  0  0  0
   -1.8991    0.7565    1.7560 S   0  0  0  0  0  0  0  0  0  0  0  0
    0.1683   -1.7524    0.6041 H   0  0  0  0  0  0  0  0  0  0  0  0
   -1.1925    0.3701   -1.0682 H   0  0  0  0  0  0  0  0  0  0  0  0
    0.5149    0.5362    1.4765 H   0  0  0  0  0  0  0  0  0  0  0  0
   -0.1284    1.9226    0.5877 H   0  0  0  0  0  0  0  0  0  0  0  0
   -1.6844    1.6362    2.7586 H   0  0  0  0  0  0  0  0  0  0  0  0
    1.7942   -0.7323   -1.5706 N   0  0  0  0  0  0  0  0  0  0  0  0
    2.9746   -0.6239   -2.4351 C   0  0  2  0  0  0  0  0  0  0  0  0
    3.2742   -1.9734   -3.1228 C   0  0  0  0  0  0  0  0  0  0  0  0
    2.7162   -2.9948   -2.7332 O   0  0  0  0  0  0  0  0  0  0  0  0
    4.1682   -0.1758   -1.5854 C   0  0  0  0  0  0  0  0  0  0  0  0
    1.4230   -1.6731   -1.4353 H   0  0  0  0  0  0  0  0  0  0  0  0
    2.7888    0.1161   -3.2211 H   0  0  0  0  0  0  0  0  0  0  0  0
    4.3708   -0.9062   -0.7955 H   0  0  0  0  0  0  0  0  0  0  0  0
    5.0644   -0.0739   -2.2046 H   0  0  0  0  0  0  0  0  0  0  0  0
    3.9613    0.7930   -1.1196 H   0  0  0  0  0  0  0  0  0  0  0  0
    4.1554   -2.0447   -4.1859 N   0  0  0  0  0  0  0  0  0  0  0  0
    4.4633   -3.2856   -4.8872 C   0  0  0  0  0  0  0  0  0  0  0  0
    4.5904   -1.1812   -4.4984 H   0  0  0  0  0  0  0  0  0  0  0  0
    4.9337   -4.0035   -4.2071 H   0  0  0  0  0  0  0  0  0  0  0  0
    3.5504   -3.7328   -5.2950 H   0  0  0  0  0  0  0  0  0  0  0  0
    5.1517   -3.0922   -5.7155 H   0  0  0  0  0  0  0  0  0  0  0  0
  1  2  2  0  0  0  0
  1  3  1  0  0  0  0
  1  7  1  0  0  0  0
  3  4  1  0  0  0  0
  3  5  1  0  0  0  0
  3  6  1  0  0  0  0
  7  8  1  0  0  0  0
  7 12  1  0  0  0  0
  8  9  1  0  0  0  0
  8 11  1  0  0  0  0
  8 13  1  0  0  0  0
  9 10  2  0  0  0  0
  9 17  1  0  0  0  0
 11 14  1  0  0  0  0
 11 15  1  0  0  0  0
 11 16  1  0  0  0  0
 17 18  1  0  0  0  0
 17 23  1  0  0  0  0
 18 19  1  0  0  0  0
 18 21  1  0  0  0  0
 18 24  1  0  0  0  0
 19 20  2  0  0  0  0
 19 28  1  0  0  0  0
 21 22  1  0  0  0  0
 21 25  1  0  0  0  0
 21 26  1  0  0  0  0
 22 27  1  0  0  0  0
 28 29  1  0  0  0  0
 28 33  1  0  0  0  0
 29 30  1  0  0  0  0
 29 32  1  0  0  0  0
 29 34  1  0  0  0  0
 30 31  2  0  0  0  0
 30 38  1  0  0  0  0
 32 35  1  0  0  0  0
 32 36  1  0  0  0  0
 32 37  1  0  0  0  0
 38 39  1  0  0  0  0
 38 40  1  0  0  0  0
 39 41  1  0  0  0  0
 39 42  1  0  0  0  0
 39 43  1  0  0  0  0
M  END
$$$$

  -OEChem-05262216003D

 43 42  0     1  0  0  0  0  0999 V2000
   -3.7117   -4.7309    1.4824 C   0  0  0  0  0  0  0  0  0  0  0  0
   -2.9748   -5.2196    2.3249 O   0  0  0  0  0  0  0  0  0  0  0  0
   -5.2027   -5.0086    1.5199 C   0  0  0  0  0  0  0  0  0  0  0  0
   -5.5235   -5.4512    0.5738 H   0  0  0  0  0  0  0  0  0  0  0  0
   -5.4369   -5.7039    2.3310 H   0  0  0  0  0  0  0  0  0  0  0  0
   -5.7513   -4.0777    1.6834 H   0  0  0  0  0  0  0  0  0  0  0  0
   -3.1902   -3.9196    0.4975 N   0  0  0  0  0  0  0  0  0  0  0  0
   -1.7963   -3.4617    0.4538 C   0  0  2  0  0  0  0  0  0  0  0  0
   -1.6781   -2.0640   -0.1885 C   0  0  0  0  0  0  0  0  0  0  0  0
   -2.6135   -1.6034   -0.8328 O   0  0  0  0  0  0  0  0  0  0  0  0
   -0.9746   -4.4859   -0.3372 C   0  0  0  0  0  0  0  0  0  0  0  0
   -3.8504   -3.4317   -0.1077 H   0  0  0  0  0  0  0  0  0  0  0  0
   -1.4017   -3.3871    1.4730 H   0  0  0  0  0  0  0  0  0  0  0  0
   -1.3526   -4.5706   -1.3614 H   0  0  0  0  0  0  0  0  0  0  0  0
    0.0778   -4.1894   -0.3794 H   0  0  0  0  0  0  0  0  0  0  0  0
   -1.0355   -5.4701    0.1385 H   0  0  0  0  0  0  0  0  0  0  0  0
   -0.4929   -1.3555   -0.0956 N   0  0  0  0  0  0  0  0  0  0  0  0
   -0.3661    0.0759   -0.4430 C   0  0  2  0  0  0  0  0  0  0  0  0
    0.8956    0.3326   -1.2965 C   0  0  0  0  0  0  0  0  0  0  0  0
    1.3633    1.4569   -1.4229 O   0  0  0  0  0  0  0  0  0  0  0  0
   -0.2975    0.8936    0.8602 C   0  0  0  0  0  0  0  0  0  0  0  0
   -1.8678    0.7749    1.8133 S   0  0  0  0  0  0  0  0  0  0  0  0
    0.2042   -1.7500    0.5297 H   0  0  0  0  0  0  0  0  0  0  0  0
   -1.2247    0.4174   -1.0310 H   0  0  0  0  0  0  0  0  0  0  0  0
    0.5384    0.5481    1.4764 H   0  0  0  0  0  0  0  0  0  0  0  0
   -0.1196    1.9477    0.6208 H   0  0  0  0  0  0  0  0  0  0  0  0
   -1.6205    1.6256    2.8332 H   0  0  0  0  0  0  0  0  0  0  0  0
    1.5490   -0.7310   -1.8892 N   0  0  0  0  0  0  0  0  0  0  0  0
    2.6935   -0.6261   -2.8012 C   0  0  2  0  0  0  0  0  0  0  0  0
    2.7838   -1.8678   -3.7141 C   0  0  0  0  0  0  0  0  0  0  0  0
    2.1349   -2.8739   -3.4450 O   0  0  0  0  0  0  0  0  0  0  0  0
    3.9754   -0.4812   -1.9735 C   0  0  0  0  0  0  0  0  0  0  0  0
    1.0602   -1.6270   -1.8753 H   0  0  0  0  0  0  0  0  0  0  0  0
    2.5708    0.2526   -3.4434 H   0  0  0  0  0  0  0  0  0  0  0  0
    4.1095   -1.3516   -1.3233 H   0  0  0  0  0  0  0  0  0  0  0  0
    4.8485   -0.3959   -2.6271 H   0  0  0  0  0  0  0  0  0  0  0  0
    3.9274    0.4159   -1.3486 H   0  0  0  0  0  0  0  0  0  0  0  0
    3.5908   -1.8600   -4.8368 N   0  0  0  0  0  0  0  0  0  0  0  0
    3.7258   -3.0021   -5.7331 C   0  0  0  0  0  0  0  0  0  0  0  0
    4.1056   -1.0087   -5.0426 H   0  0  0  0  0  0  0  0  0  0  0  0
    4.1281   -3.8663   -5.1940 H   0  0  0  0  0  0  0  0  0  0  0  0
    2.7539   -3.2739   -6.1584 H   0  0  0  0  0  0  0  0  0  0  0  0
    4.4065   -2.7598   -6.5549 H   0  0  0  0  0  0  0  0  0  0  0  0
  1  2  2  0  0  0  0
  1  3  1  0  0  0  0
  1  7  1  0  0  0  0
  3  4  1  0  0  0  0
  3  5  1  0  0  0  0
  3  6  1  0  0  0  0
  7  8  1  0  0  0  0
  7 12  1  0  0  0  0
  8  9  1  0  0  0  0
  8 11  1  0  0  0  0
  8 13  1  0  0  0  0
  9 10  2  0  0  0  0
  9 17  1  0  0  0  0
 11 14  1  0  0  0  0
 11 15  1  0  0  0  0
 11 16  1  0  0  0  0
 17 18  1  0  0  0  0
 17 23  1  0  0  0  0
 18 19  1  0  0  0  0
 18 21  1  0  0  0  0
 18 24  1  0  0  0  0
 19 20  2  0  0  0  0
 19 28  1  0  0  0  0
 21 22  1  0  0  0  0
 21 25  1  0  0  0  0
 21 26  1  0  0  0  0
 22 27  1  0  0  0  0
 28 29  1  0  0  0  0
 28 33  1  0  0  0  0
 29 30  1  0  0  0  0
 29 32  1  0  0  0  0
 29 34  1  0  0  0  0
 30 31  2  0  0  0  0
 30 38  1  0  0  0  0
 32 35  1  0  0  0  0
 32 36  1  0  0  0  0
 32 37  1  0  0  0  0
 38 39  1  0  0  0  0
 38 40  1  0  0  0  0
 39 41  1  0  0  0  0
 39 42  1  0  0  0  0
 39 43  1  0  0  0  0
M  END
$$$$

  -OEChem-05262216003D

 43 42  0     1  0  0  0  0  0999 V2000
   -3.6786   -4.7445    1.5188 C   0  0  0  0  0  0  0  0  0  0  0  0
   -2.9337   -5.2401    2.3500 O   0  0  0  0  0  0  0  0  0  0  0  0
   -5.1692   -5.0213    1.5675 C   0  0  0  0  0  0  0  0  0  0  0  0
   -5.5003   -5.4497    0.6183 H   0  0  0  0  0  0  0  0  0  0  0  0
   -5.3960   -5.7277    2.3708 H   0  0  0  0  0  0  0  0  0  0  0  0
   -5.7142   -4.0919    1.7505 H   0  0  0  0  0  0  0  0  0  0  0  0
   -3.1672   -3.9231    0.5373 N   0  0  0  0  0  0  0  0  0  0  0  0
   -1.7730   -3.4676    0.4793 C   0  0  2  0  0  0  0  0  0  0  0  0
   -1.6585   -2.0850   -0.1957 C   0  0  0  0  0  0  0  0  0  0  0  0
   -2.5991   -1.6382   -0.8423 O   0  0  0  0  0  0  0  0  0  0  0  0
   -0.9516   -4.5089   -0.2883 C   0  0  0  0  0  0  0  0  0  0  0  0
   -3.8333   -3.4331   -0.0599 H   0  0  0  0  0  0  0  0  0  0  0  0
   -1.3771   -3.3694    1.4959 H   0  0  0  0  0  0  0  0  0  0  0  0
   -1.3262   -4.6121   -1.3119 H   0  0  0  0  0  0  0  0  0  0  0  0
    0.1015   -4.2155   -0.3303 H   0  0  0  0  0  0  0  0  0  0  0  0
   -1.0168   -5.4833    0.2061 H   0  0  0  0  0  0  0  0  0  0  0  0
   -0.4783   -1.3660   -0.1204 N   0  0  0  0  0  0  0  0  0  0  0  0
   -0.3771    0.0679   -0.4624 C   0  0  2  0  0  0  0  0  0  0  0  0
    0.8663    0.3359   -1.3387 C   0  0  0  0  0  0  0  0  0  0  0  0
    1.4791    1.3949   -1.2840 O   0  0  0  0  0  0  0  0  0  0  0  0
   -0.3070    0.8785    0.8453 C   0  0  0  0  0  0  0  0  0  0  0  0
   -1.8645    0.7305    1.8148 S   0  0  0  0  0  0  0  0  0  0  0  0
    0.2332   -1.7524    0.4937 H   0  0  0  0  0  0  0  0  0  0  0  0
   -1.2482    0.4013   -1.0368 H   0  0  0  0  0  0  0  0  0  0  0  0
    0.5415    0.5415    1.4491 H   0  0  0  0  0  0  0  0  0  0  0  0
   -0.1482    1.9366    0.6107 H   0  0  0  0  0  0  0  0  0  0  0  0
   -1.6140    1.5767    2.8383 H   0  0  0  0  0  0  0  0  0  0  0  0
    1.3257   -0.6548   -2.1849 N   0  0  0  0  0  0  0  0  0  0  0  0
    2.4386   -0.5152   -3.1317 C   0  0  2  0  0  0  0  0  0  0  0  0
    2.3252   -1.5388   -4.2817 C   0  0  0  0  0  0  0  0  0  0  0  0
    1.5580   -2.4907   -4.1826 O   0  0  0  0  0  0  0  0  0  0  0  0
    3.7584   -0.7110   -2.3771 C   0  0  0  0  0  0  0  0  0  0  0  0
    0.7321   -1.4792   -2.2902 H   0  0  0  0  0  0  0  0  0  0  0  0
    2.4164    0.4864   -3.5744 H   0  0  0  0  0  0  0  0  0  0  0  0
    3.7945   -1.7067   -1.9238 H   0  0  0  0  0  0  0  0  0  0  0  0
    4.6090   -0.6064   -3.0570 H   0  0  0  0  0  0  0  0  0  0  0  0
    3.8603    0.0364   -1.5841 H   0  0  0  0  0  0  0  0  0  0  0  0
    3.0829   -1.3950   -5.4295 N   0  0  0  0  0  0  0  0  0  0  0  0
    3.0091   -2.3172   -6.5566 C   0  0  0  0  0  0  0  0  0  0  0  0
    3.6979   -0.5887   -5.4922 H   0  0  0  0  0  0  0  0  0  0  0  0
    3.2569   -3.3348   -6.2367 H   0  0  0  0  0  0  0  0  0  0  0  0
    2.0016   -2.3182   -6.9857 H   0  0  0  0  0  0  0  0  0  0  0  0
    3.7165   -2.0196   -7.3365 H   0  0  0  0  0  0  0  0  0  0  0  0
  1  2  2  0  0  0  0
  1  3  1  0  0  0  0
  1  7  1  0  0  0  0
  3  4  1  0  0  0  0
  3  5  1  0  0  0  0
  3  6  1  0  0  0  0
  7  8  1  0  0  0  0
  7 12  1  0  0  0  0
  8  9  1  0  0  0  0
  8 11  1  0  0  0  0
  8 13  1  0  0  0  0
  9 10  2  0  0  0  0
  9 17  1  0  0  0  0
 11 14  1  0  0  0  0
 11 15  1  0  0  0  0
 11 16  1  0  0  0  0
 17 18  1  0  0  0  0
 17 23  1  0  0  0  0
 18 19  1  0  0  0  0
 18 21  1  0  0  0  0
 18 24  1  0  0  0  0
 19 20  2  0  0  0  0
 19 28  1  0  0  0  0
 21 22  1  0  0  0  0
 21 25  1  0  0  0  0
 21 26  1  0  0  0  0
 22 27  1  0  0  0  0
 28 29  1  0  0  0  0
 28 33  1  0  0  0  0
 29 30  1  0  0  0  0
 29 32  1  0  0  0  0
 29 34  1  0  0  0  0
 30 31  2  0  0  0  0
 30 38  1  0  0  0  0
 32 35  1  0  0  0  0
 32 36  1  0  0  0  0
 32 37  1  0  0  0  0
 38 39  1  0  0  0  0
 38 40  1  0  0  0  0
 39 41  1  0  0  0  0
 39 42  1  0  0  0  0
 39 43  1  0  0  0  0
M  END
$$$$

  -OEChem-05262216003D

 43 42  0     1  0  0  0  0  0999 V2000
   -3.6407   -4.7456    1.5567 C   0  0  0  0  0  0  0  0  0  0  0  0
   -2.8984   -5.2052    2.4107 O   0  0  0  0  0  0  0  0  0  0  0  0
   -5.1302   -5.0275    1.6086 C   0  0  0  0  0  0  0  0  0  0  0  0
   -5.4513   -5.5094    0.6821 H   0  0  0  0  0  0  0  0  0  0  0  0
   -5.3598   -5.6895    2.4483 H   0  0  0  0  0  0  0  0  0  0  0  0
   -5.6819   -4.0927    1.7350 H   0  0  0  0  0  0  0  0  0  0  0  0
   -3.1269   -3.9591    0.5481 N   0  0  0  0  0  0  0  0  0  0  0  0
   -1.7396   -3.4823    0.4972 C   0  0  2  0  0  0  0  0  0  0  0  0
   -1.6394   -2.1132   -0.2069 C   0  0  0  0  0  0  0  0  0  0  0  0
   -2.5851   -1.6897   -0.8619 O   0  0  0  0  0  0  0  0  0  0  0  0
   -0.8924   -4.5287   -0.2340 C   0  0  0  0  0  0  0  0  0  0  0  0
   -3.7926   -3.4900   -0.0660 H   0  0  0  0  0  0  0  0  0  0  0  0
   -1.3586   -3.3542    1.5162 H   0  0  0  0  0  0  0  0  0  0  0  0
   -1.2492   -4.6599   -1.2608 H   0  0  0  0  0  0  0  0  0  0  0  0
    0.1573   -4.2219   -0.2660 H   0  0  0  0  0  0  0  0  0  0  0  0
   -0.9529   -5.4926    0.2817 H   0  0  0  0  0  0  0  0  0  0  0  0
   -0.4692   -1.3774   -0.1447 N   0  0  0  0  0  0  0  0  0  0  0  0
   -0.3944    0.0545   -0.4946 C   0  0  2  0  0  0  0  0  0  0  0  0
    0.8390    0.3281   -1.3825 C   0  0  0  0  0  0  0  0  0  0  0  0
    1.5988    1.2648   -1.1665 O   0  0  0  0  0  0  0  0  0  0  0  0
   -0.3355    0.8764    0.8075 C   0  0  0  0  0  0  0  0  0  0  0  0
   -1.8876    0.7087    1.7826 S   0  0  0  0  0  0  0  0  0  0  0  0
    0.2479   -1.7445    0.4744 H   0  0  0  0  0  0  0  0  0  0  0  0
   -1.2739    0.3705   -1.0657 H   0  0  0  0  0  0  0  0  0  0  0  0
    0.5208    0.5597    1.4118 H   0  0  0  0  0  0  0  0  0  0  0  0
   -0.1955    1.9351    0.5632 H   0  0  0  0  0  0  0  0  0  0  0  0
   -1.6469    1.5617    2.8023 H   0  0  0  0  0  0  0  0  0  0  0  0
    1.1183   -0.5231   -2.4344 N   0  0  0  0  0  0  0  0  0  0  0  0
    2.2110   -0.3434   -3.3991 C   0  0  2  0  0  0  0  0  0  0  0  0
    1.9020   -1.0348   -4.7438 C   0  0  0  0  0  0  0  0  0  0  0  0
    1.0112   -1.8740   -4.8141 O   0  0  0  0  0  0  0  0  0  0  0  0
    3.4997   -0.9127   -2.7949 C   0  0  0  0  0  0  0  0  0  0  0  0
    0.4216   -1.2385   -2.6498 H   0  0  0  0  0  0  0  0  0  0  0  0
    2.3458    0.7243   -3.6021 H   0  0  0  0  0  0  0  0  0  0  0  0
    3.3798   -1.9786   -2.5759 H   0  0  0  0  0  0  0  0  0  0  0  0
    4.3366   -0.7918   -3.4894 H   0  0  0  0  0  0  0  0  0  0  0  0
    3.7485   -0.3912   -1.8652 H   0  0  0  0  0  0  0  0  0  0  0  0
    2.6224   -0.7127   -5.8793 N   0  0  0  0  0  0  0  0  0  0  0  0
    2.3612   -1.3019   -7.1870 C   0  0  0  0  0  0  0  0  0  0  0  0
    3.3359    0.0057   -5.7973 H   0  0  0  0  0  0  0  0  0  0  0  0
    2.4532   -2.3923   -7.1428 H   0  0  0  0  0  0  0  0  0  0  0  0
    1.3520   -1.0466   -7.5269 H   0  0  0  0  0  0  0  0  0  0  0  0
    3.0793   -0.9256   -7.9219 H   0  0  0  0  0  0  0  0  0  0  0  0
  1  2  2  0  0  0  0
  1  3  1  0  0  0  0
  1  7  1  0  0  0  0
  3  4  1  0  0  0  0
  3  5  1  0  0  0  0
  3  6  1  0  0  0  0
  7  8  1  0  0  0  0
  7 12  1  0  0  0  0
  8  9  1  0  0  0  0
  8 11  1  0  0  0  0
  8 13  1  0  0  0  0
  9 10  2  0  0  0  0
  9 17  1  0  0  0  0
 11 14  1  0  0  0  0
 11 15  1  0  0  0  0
 11 16  1  0  0  0  0
 17 18  1  0  0  0  0
 17 23  1  0  0  0  0
 18 19  1  0  0  0  0
 18 21  1  0  0  0  0
 18 24  1  0  0  0  0
 19 20  2  0  0  0  0
 19 28  1  0  0  0  0
 21 22  1  0  0  0  0
 21 25  1  0  0  0  0
 21 26  1  0  0  0  0
 22 27  1  0  0  0  0
 28 29  1  0  0  0  0
 28 33  1  0  0  0  0
 29 30  1  0  0  0  0
 29 32  1  0  0  0  0
 29 34  1  0  0  0  0
 30 31  2  0  0  0  0
 30 38  1  0  0  0  0
 32 35  1  0  0  0  0
 32 36  1  0  0  0  0
 32 37  1  0  0  0  0
 38 39  1  0  0  0  0
 38 40  1  0  0  0  0
 39 41  1  0  0  0  0
 39 42  1  0  0  0  0
 39 43  1  0  0  0  0
M  END
$$$$

  -OEChem-05262216003D

 43 42  0     1  0  0  0  0  0999 V2000
   -3.5571   -4.7968    1.5177 C   0  0  0  0  0  0  0  0  0  0  0  0
   -2.7841   -5.2742    2.3337 O   0  0  0  0  0  0  0  0  0  0  0  0
   -5.0390   -5.1126    1.5938 C   0  0  0  0  0  0  0  0  0  0  0  0
   -5.3678   -5.5823    0.6636 H   0  0  0  0  0  0  0  0  0  0  0  0
   -5.2372   -5.7970    2.4234 H   0  0  0  0  0  0  0  0  0  0  0  0
   -5.6089   -4.1936    1.7509 H   0  0  0  0  0  0  0  0  0  0  0  0
   -3.0853   -3.9648    0.5254 N   0  0  0  0  0  0  0  0  0  0  0  0
   -1.7062   -3.4674    0.4467 C   0  0  2  0  0  0  0  0  0  0  0  0
   -1.6464   -2.0662   -0.1967 C   0  0  0  0  0  0  0  0  0  0  0  0
   -2.6159   -1.6285   -0.8062 O   0  0  0  0  0  0  0  0  0  0  0  0
   -0.8764   -4.4669   -0.3656 C   0  0  0  0  0  0  0  0  0  0  0  0
   -3.7767   -3.4875   -0.0529 H   0  0  0  0  0  0  0  0  0  0  0  0
   -1.2877   -3.3819    1.4554 H   0  0  0  0  0  0  0  0  0  0  0  0
   -1.2730   -4.5551   -1.3823 H   0  0  0  0  0  0  0  0  0  0  0  0
    0.1674   -4.1445   -0.4253 H   0  0  0  0  0  0  0  0  0  0  0  0
   -0.9045   -5.4541    0.1064 H   0  0  0  0  0  0  0  0  0  0  0  0
   -0.4796   -1.3243   -0.1477 N   0  0  0  0  0  0  0  0  0  0  0  0
   -0.4084    0.1098   -0.4836 C   0  0  2  0  0  0  0  0  0  0  0  0
    0.8135    0.3801   -1.3865 C   0  0  0  0  0  0  0  0  0  0  0  0
    1.7274    1.1175   -1.0365 O   0  0  0  0  0  0  0  0  0  0  0  0
   -0.3308    0.9236    0.8226 C   0  0  0  0  0  0  0  0  0  0  0  0
   -1.8707    0.7504    1.8165 S   0  0  0  0  0  0  0  0  0  0  0  0
    0.2668   -1.7092    0.4243 H   0  0  0  0  0  0  0  0  0  0  0  0
   -1.2960    0.4326   -1.0380 H   0  0  0  0  0  0  0  0  0  0  0  0
    0.5309    0.5981    1.4149 H   0  0  0  0  0  0  0  0  0  0  0  0
   -0.1865    1.9828    0.5832 H   0  0  0  0  0  0  0  0  0  0  0  0
   -1.6120    1.5838    2.8480 H   0  0  0  0  0  0  0  0  0  0  0  0
    0.9029   -0.2565   -2.6092 N   0  0  0  0  0  0  0  0  0  0  0  0
    1.9814   -0.0637   -3.5879 C   0  0  2  0  0  0  0  0  0  0  0  0
    1.5181   -0.4142   -5.0182 C   0  0  0  0  0  0  0  0  0  0  0  0
    0.4984   -1.0725   -5.1894 O   0  0  0  0  0  0  0  0  0  0  0  0
    3.1730   -0.9417   -3.1885 C   0  0  0  0  0  0  0  0  0  0  0  0
    0.1014   -0.8166   -2.9054 H   0  0  0  0  0  0  0  0  0  0  0  0
    2.2892    0.9873   -3.5881 H   0  0  0  0  0  0  0  0  0  0  0  0
    2.8839   -1.9975   -3.1839 H   0  0  0  0  0  0  0  0  0  0  0  0
    4.0010   -0.8101   -3.8915 H   0  0  0  0  0  0  0  0  0  0  0  0
    3.5276   -0.6731   -2.1886 H   0  0  0  0  0  0  0  0  0  0  0  0
    2.2436    0.0063   -6.1183 N   0  0  0  0  0  0  0  0  0  0  0  0
    1.8525   -0.2875   -7.4925 C   0  0  0  0  0  0  0  0  0  0  0  0
    3.0776    0.5616   -5.9511 H   0  0  0  0  0  0  0  0  0  0  0  0
    1.8263   -1.3694   -7.6609 H   0  0  0  0  0  0  0  0  0  0  0  0
    0.8609    0.1258   -7.7059 H   0  0  0  0  0  0  0  0  0  0  0  0
    2.5681    0.1536   -8.1933 H   0  0  0  0  0  0  0  0  0  0  0  0
  1  2  2  0  0  0  0
  1  3  1  0  0  0  0
  1  7  1  0  0  0  0
  3  4  1  0  0  0  0
  3  5  1  0  0  0  0
  3  6  1  0  0  0  0
  7  8  1  0  0  0  0
  7 12  1  0  0  0  0
  8  9  1  0  0  0  0
  8 11  1  0  0  0  0
  8 13  1  0  0  0  0
  9 10  2  0  0  0  0
  9 17  1  0  0  0  0
 11 14  1  0  0  0  0
 11 15  1  0  0  0  0
 11 16  1  0  0  0  0
 17 18  1  0  0  0  0
 17 23  1  0  0  0  0
 18 19  1  0  0  0  0
 18 21  1  0  0  0  0
 18 24  1  0  0  0  0
 19 20  2  0  0  0  0
 19 28  1  0  0  0  0
 21 22  1  0  0  0  0
 21 25  1  0  0  0  0
 21 26  1  0  0  0  0
 22 27  1  0  0  0  0
 28 29  1  0  0  0  0
 28 33  1  0  0  0  0
 29 30  1  0  0  0  0
 29 32  1  0  0  0  0
 29 34  1  0  0  0  0
 30 31  2  0  0  0  0
 30 38  1  0  0  0  0
 32 35  1  0  0  0  0
 32 36  1  0  0  0  0
 32 37  1  0  0  0  0
 38 39  1  0  0  0  0
 38 40  1  0  0  0  0
 39 41  1  0  0  0  0
 39 42  1  0  0  0  0
 39 43  1  0  0  0  0
M  END
$$$$

  -OEChem-05262216003D

 43 42  0     1  0  0  0  0  0999 V2000
   -3.5295   -4.8154    1.5393 C   0  0  0  0  0  0  0  0  0  0  0  0
   -2.7568   -5.2776    2.3642 O   0  0  0  0  0  0  0  0  0  0  0  0
   -5.0076   -5.1502    1.6057 C   0  0  0  0  0  0  0  0  0  0  0  0
   -5.3097   -5.6821    0.7002 H   0  0  0  0  0  0  0  0  0  0  0  0
   -5.2119   -5.7848    2.4725 H   0  0  0  0  0  0  0  0  0  0  0  0
   -5.5949   -4.2330    1.6946 H   0  0  0  0  0  0  0  0  0  0  0  0
   -3.0601   -3.9854    0.5443 N   0  0  0  0  0  0  0  0  0  0  0  0
   -1.6859   -3.4746    0.4704 C   0  0  2  0  0  0  0  0  0  0  0  0
   -1.6342   -2.0920   -0.2130 C   0  0  0  0  0  0  0  0  0  0  0  0
   -2.6040   -1.6803   -0.8402 O   0  0  0  0  0  0  0  0  0  0  0  0
   -0.8332   -4.4895   -0.2986 C   0  0  0  0  0  0  0  0  0  0  0  0
   -3.7512   -3.5243   -0.0474 H   0  0  0  0  0  0  0  0  0  0  0  0
   -1.2835   -3.3538    1.4820 H   0  0  0  0  0  0  0  0  0  0  0  0
   -1.2183   -4.6183   -1.3153 H   0  0  0  0  0  0  0  0  0  0  0  0
    0.2066   -4.1544   -0.3590 H   0  0  0  0  0  0  0  0  0  0  0  0
   -0.8526   -5.4608    0.2062 H   0  0  0  0  0  0  0  0  0  0  0  0
   -0.4790   -1.3327   -0.1696 N   0  0  0  0  0  0  0  0  0  0  0  0
   -0.4250    0.0946   -0.5315 C   0  0  2  0  0  0  0  0  0  0  0  0
    0.7987    0.3650   -1.4295 C   0  0  0  0  0  0  0  0  0  0  0  0
    1.8161    0.8873   -0.9886 O   0  0  0  0  0  0  0  0  0  0  0  0
   -0.3632    0.9375    0.7563 C   0  0  0  0  0  0  0  0  0  0  0  0
   -1.9038    0.7679    1.7489 S   0  0  0  0  0  0  0  0  0  0  0  0
    0.2721   -1.6962    0.4102 H   0  0  0  0  0  0  0  0  0  0  0  0
   -1.3147    0.3956   -1.0947 H   0  0  0  0  0  0  0  0  0  0  0  0
    0.4975    0.6336    1.3614 H   0  0  0  0  0  0  0  0  0  0  0  0
   -0.2267    1.9918    0.4931 H   0  0  0  0  0  0  0  0  0  0  0  0
   -1.6497    1.6164    2.7690 H   0  0  0  0  0  0  0  0  0  0  0  0
    0.7700   -0.0323   -2.7519 N   0  0  0  0  0  0  0  0  0  0  0  0
    1.8310    0.2301   -3.7329 C   0  0  2  0  0  0  0  0  0  0  0  0
    1.2653    0.3490   -5.1641 C   0  0  0  0  0  0  0  0  0  0  0  0
    0.1236   -0.0243   -5.4077 O   0  0  0  0  0  0  0  0  0  0  0  0
    2.8576   -0.9045   -3.6539 C   0  0  0  0  0  0  0  0  0  0  0  0
   -0.1113   -0.4036   -3.1113 H   0  0  0  0  0  0  0  0  0  0  0  0
    2.3226    1.1797   -3.4963 H   0  0  0  0  0  0  0  0  0  0  0  0
    2.3855   -1.8640   -3.8892 H   0  0  0  0  0  0  0  0  0  0  0  0
    3.6746   -0.7346   -4.3615 H   0  0  0  0  0  0  0  0  0  0  0  0
    3.2825   -0.9623   -2.6469 H   0  0  0  0  0  0  0  0  0  0  0  0
    2.0315    0.8889   -6.1809 N   0  0  0  0  0  0  0  0  0  0  0  0
    1.5406    1.0654   -7.5426 C   0  0  0  0  0  0  0  0  0  0  0  0
    2.9633    1.2184   -5.9464 H   0  0  0  0  0  0  0  0  0  0  0  0
    1.2000    0.1095   -7.9549 H   0  0  0  0  0  0  0  0  0  0  0  0
    0.7053    1.7735   -7.5596 H   0  0  0  0  0  0  0  0  0  0  0  0
    2.3369    1.4535   -8.1853 H   0  0  0  0  0  0  0  0  0  0  0  0
  1  2  2  0  0  0  0
  1  3  1  0  0  0  0
  1  7  1  0  0  0  0
  3  4  1  0  0  0  0
  3  5  1  0  0  0  0
  3  6  1  0  0  0  0
  7  8  1  0  0  0  0
  7 12  1  0  0  0  0
  8  9  1  0  0  0  0
  8 11  1  0  0  0  0
  8 13  1  0  0  0  0
  9 10  2  0  0  0  0
  9 17  1  0  0  0  0
 11 14  1  0  0  0  0
 11 15  1  0  0  0  0
 11 16  1  0  0  0  0
 17 18  1  0  0  0  0
 17 23  1  0  0  0  0
 18 19  1  0  0  0  0
 18 21  1  0  0  0  0
 18 24  1  0  0  0  0
 19 20  2  0  0  0  0
 19 28  1  0  0  0  0
 21 22  1  0  0  0  0
 21 25  1  0  0  0  0
 21 26  1  0  0  0  0
 22 27  1  0  0  0  0
 28 29  1  0  0  0  0
 28 33  1  0  0  0  0
 29 30  1  0  0  0  0
 29 32  1  0  0  0  0
 29 34  1  0  0  0  0
 30 31  2  0  0  0  0
 30 38  1  0  0  0  0
 32 35  1  0  0  0  0
 32 36  1  0  0  0  0
 32 37  1  0  0  0  0
 38 39  1  0  0  0  0
 38 40  1  0  0  0  0
 39 41  1  0  0  0  0
 39 42  1  0  0  0  0
 39 43  1  0  0  0  0
M  END
$$$$

  -OEChem-05262216003D

 43 42  0     1  0  0  0  0  0999 V2000
   -3.4950   -4.8410    1.5304 C   0  0  0  0  0  0  0  0  0  0  0  0
   -2.7114   -5.2963    2.3488 O   0  0  0  0  0  0  0  0  0  0  0  0
   -4.9698   -5.1871    1.6123 C   0  0  0  0  0  0  0  0  0  0  0  0
   -5.2847   -5.6973    0.6988 H   0  0  0  0  0  0  0  0  0  0  0  0
   -5.1558   -5.8455    2.4654 H   0  0  0  0  0  0  0  0  0  0  0  0
   -5.5604   -4.2759    1.7352 H   0  0  0  0  0  0  0  0  0  0  0  0
   -3.0413   -4.0065    0.5316 N   0  0  0  0  0  0  0  0  0  0  0  0
   -1.6737   -3.4789    0.4521 C   0  0  2  0  0  0  0  0  0  0  0  0
   -1.6395   -2.0977   -0.2349 C   0  0  0  0  0  0  0  0  0  0  0  0
   -2.6207   -1.6916   -0.8486 O   0  0  0  0  0  0  0  0  0  0  0  0
   -0.8071   -4.4840   -0.3138 C   0  0  0  0  0  0  0  0  0  0  0  0
   -3.7420   -3.5456   -0.0488 H   0  0  0  0  0  0  0  0  0  0  0  0
   -1.2720   -3.3496    1.4629 H   0  0  0  0  0  0  0  0  0  0  0  0
   -1.1877   -4.6192   -1.3313 H   0  0  0  0  0  0  0  0  0  0  0  0
    0.2285   -4.1357   -0.3715 H   0  0  0  0  0  0  0  0  0  0  0  0
   -0.8143   -5.4544    0.1928 H   0  0  0  0  0  0  0  0  0  0  0  0
   -0.4916   -1.3275   -0.1981 N   0  0  0  0  0  0  0  0  0  0  0  0
   -0.4519    0.1008   -0.5542 C   0  0  2  0  0  0  0  0  0  0  0  0
    0.7607    0.3898   -1.4596 C   0  0  0  0  0  0  0  0  0  0  0  0
    1.8580    0.6512   -0.9797 O   0  0  0  0  0  0  0  0  0  0  0  0
   -0.3709    0.9389    0.7342 C   0  0  0  0  0  0  0  0  0  0  0  0
   -1.8923    0.7567    1.7531 S   0  0  0  0  0  0  0  0  0  0  0  0
    0.2755   -1.6895    0.3620 H   0  0  0  0  0  0  0  0  0  0  0  0
   -1.3526    0.3985   -1.1016 H   0  0  0  0  0  0  0  0  0  0  0  0
    0.5012    0.6353    1.3230 H   0  0  0  0  0  0  0  0  0  0  0  0
   -0.2424    1.9942    0.4715 H   0  0  0  0  0  0  0  0  0  0  0  0
   -1.6090    1.5746    2.7903 H   0  0  0  0  0  0  0  0  0  0  0  0
    0.6332    0.2966   -2.8316 N   0  0  0  0  0  0  0  0  0  0  0  0
    1.6943    0.6145   -3.7960 C   0  0  2  0  0  0  0  0  0  0  0  0
    1.1212    1.1653   -5.1192 C   0  0  0  0  0  0  0  0  0  0  0  0
   -0.0798    1.0875   -5.3513 O   0  0  0  0  0  0  0  0  0  0  0  0
    2.5088   -0.6575   -4.0506 C   0  0  0  0  0  0  0  0  0  0  0  0
   -0.3024    0.1373   -3.2084 H   0  0  0  0  0  0  0  0  0  0  0  0
    2.3502    1.3868   -3.3806 H   0  0  0  0  0  0  0  0  0  0  0  0
    1.8695   -1.4435   -4.4653 H   0  0  0  0  0  0  0  0  0  0  0  0
    3.3211   -0.4600   -4.7563 H   0  0  0  0  0  0  0  0  0  0  0  0
    2.9464   -1.0212   -3.1156 H   0  0  0  0  0  0  0  0  0  0  0  0
    1.9535    1.7588   -6.0507 N   0  0  0  0  0  0  0  0  0  0  0  0
    1.4772    2.3046   -7.3160 C   0  0  0  0  0  0  0  0  0  0  0  0
    2.9427    1.8213   -5.8285 H   0  0  0  0  0  0  0  0  0  0  0  0
    0.9716    1.5298   -7.9019 H   0  0  0  0  0  0  0  0  0  0  0  0
    0.7757    3.1266   -7.1386 H   0  0  0  0  0  0  0  0  0  0  0  0
    2.3172    2.6873   -7.9035 H   0  0  0  0  0  0  0  0  0  0  0  0
  1  2  2  0  0  0  0
  1  3  1  0  0  0  0
  1  7  1  0  0  0  0
  3  4  1  0  0  0  0
  3  5  1  0  0  0  0
  3  6  1  0  0  0  0
  7  8  1  0  0  0  0
  7 12  1  0  0  0  0
  8  9  1  0  0  0  0
  8 11  1  0  0  0  0
  8 13  1  0  0  0  0
  9 10  2  0  0  0  0
  9 17  1  0  0  0  0
 11 14  1  0  0  0  0
 11 15  1  0  0  0  0
 11 16  1  0  0  0  0
 17 18  1  0  0  0  0
 17 23  1  0  0  0  0
 18 19  1  0  0  0  0
 18 21  1  0  0  0  0
 18 24  1  0  0  0  0
 19 20  2  0  0  0  0
 19 28  1  0  0  0  0
 21 22  1  0  0  0  0
 21 25  1  0  0  0  0
 21 26  1  0  0  0  0
 22 27  1  0  0  0  0
 28 29  1  0  0  0  0
 28 33  1  0  0  0  0
 29 30  1  0  0  0  0
 29 32  1  0  0  0  0
 29 34  1  0  0  0  0
 30 31  2  0  0  0  0
 30 38  1  0  0  0  0
 32 35  1  0  0  0  0
 32 36  1  0  0  0  0
 32 37  1  0  0  0  0
 38 39  1  0  0  0  0
 38 40  1  0  0  0  0
 39 41  1  0  0  0  0
 39 42  1  0  0  0  0
 39 43  1  0  0  0  0
M  END
$$$$

  -OEChem-05262216003D

 43 42  0     1  0  0  0  0  0999 V2000
   -3.4451   -4.8974    1.4576 C   0  0  0  0  0  0  0  0  0  0  0  0
   -2.6332   -5.3926    2.2236 O   0  0  0  0  0  0  0  0  0  0  0  0
   -4.9147   -5.2574    1.5683 C   0  0  0  0  0  0  0  0  0  0  0  0
   -5.2539   -5.7263    0.6415 H   0  0  0  0  0  0  0  0  0  0  0  0
   -5.0707   -5.9560    2.3950 H   0  0  0  0  0  0  0  0  0  0  0  0
   -5.5072   -4.3576    1.7514 H   0  0  0  0  0  0  0  0  0  0  0  0
   -3.0285   -4.0038    0.4943 N   0  0  0  0  0  0  0  0  0  0  0  0
   -1.6663   -3.4645    0.3984 C   0  0  2  0  0  0  0  0  0  0  0  0
   -1.6608   -2.0502   -0.2196 C   0  0  0  0  0  0  0  0  0  0  0  0
   -2.6643   -1.6213   -0.7794 O   0  0  0  0  0  0  0  0  0  0  0  0
   -0.8215   -4.4248   -0.4450 C   0  0  0  0  0  0  0  0  0  0  0  0
   -3.7493   -3.5196   -0.0409 H   0  0  0  0  0  0  0  0  0  0  0  0
   -1.2327   -3.3845    1.4012 H   0  0  0  0  0  0  0  0  0  0  0  0
   -1.2329   -4.5082   -1.4560 H   0  0  0  0  0  0  0  0  0  0  0  0
    0.2106   -4.0695   -0.5161 H   0  0  0  0  0  0  0  0  0  0  0  0
   -0.8112   -5.4204    0.0097 H   0  0  0  0  0  0  0  0  0  0  0  0
   -0.5149   -1.2768   -0.1877 N   0  0  0  0  0  0  0  0  0  0  0  0
   -0.4712    0.1535   -0.5339 C   0  0  2  0  0  0  0  0  0  0  0  0
    0.7360    0.4454   -1.4442 C   0  0  0  0  0  0  0  0  0  0  0  0
    1.8734    0.4327   -0.9870 O   0  0  0  0  0  0  0  0  0  0  0  0
   -0.3614    0.9859    0.7549 C   0  0  0  0  0  0  0  0  0  0  0  0
   -1.8659    0.8102    1.8004 S   0  0  0  0  0  0  0  0  0  0  0  0
    0.2845   -1.6629    0.3077 H   0  0  0  0  0  0  0  0  0  0  0  0
   -1.3776    0.4581   -1.0675 H   0  0  0  0  0  0  0  0  0  0  0  0
    0.5189    0.6734    1.3266 H   0  0  0  0  0  0  0  0  0  0  0  0
   -0.2306    2.0415    0.4944 H   0  0  0  0  0  0  0  0  0  0  0  0
   -1.5575    1.6158    2.8401 H   0  0  0  0  0  0  0  0  0  0  0  0
    0.5555    0.6718   -2.7946 N   0  0  0  0  0  0  0  0  0  0  0  0
    1.6269    1.0100   -3.7406 C   0  0  2  0  0  0  0  0  0  0  0  0
    1.1061    1.8842   -4.9020 C   0  0  0  0  0  0  0  0  0  0  0  0
   -0.0991    2.0421   -5.0613 O   0  0  0  0  0  0  0  0  0  0  0  0
    2.2272   -0.2955   -4.2734 C   0  0  0  0  0  0  0  0  0  0  0  0
   -0.4026    0.7417   -3.1399 H   0  0  0  0  0  0  0  0  0  0  0  0
    2.4056    1.5834   -3.2265 H   0  0  0  0  0  0  0  0  0  0  0  0
    1.4624   -0.8848   -4.7894 H   0  0  0  0  0  0  0  0  0  0  0  0
    3.0406   -0.0889   -4.9753 H   0  0  0  0  0  0  0  0  0  0  0  0
    2.6292   -0.8931   -3.4491 H   0  0  0  0  0  0  0  0  0  0  0  0
    1.9902    2.5117   -5.7610 N   0  0  0  0  0  0  0  0  0  0  0  0
    1.5649    3.3727   -6.8584 C   0  0  0  0  0  0  0  0  0  0  0  0
    2.9838    2.3860   -5.5909 H   0  0  0  0  0  0  0  0  0  0  0  0
    0.8941    2.8316   -7.5344 H   0  0  0  0  0  0  0  0  0  0  0  0
    1.0411    4.2536   -6.4728 H   0  0  0  0  0  0  0  0  0  0  0  0
    2.4328    3.7099   -7.4332 H   0  0  0  0  0  0  0  0  0  0  0  0
  1  2  2  0  0  0  0
  1  3  1  0  0  0  0
  1  7  1  0  0  0  0
  3  4  1  0  0  0  0
  3  5  1  0  0  0  0
  3  6  1  0  0  0  0
  7  8  1  0  0  0  0
  7 12  1  0  0  0  0
  8  9  1  0  0  0  0
  8 11  1  0  0  0  0
  8 13  1  0  0  0  0
  9 10  2  0  0  0  0
  9 17  1  0  0  0  0
 11 14  1  0  0  0  0
 11 15  1  0  0  0  0
 11 16  1  0  0  0  0
 17 18  1  0  0  0  0
 17 23  1  0  0  0  0
 18 19  1  0  0  0  0
 18 21  1  0  0  0  0
 18 24  1  0  0  0  0
 19 20  2  0  0  0  0
 19 28  1  0  0  0  0
 21 22  1  0  0  0  0
 21 25  1  0  0  0  0
 21 26  1  0  0  0  0
 22 27  1  0  0  0  0
 28 29  1  0  0  0  0
 28 33  1  0  0  0  0
 29 30  1  0  0  0  0
 29 32  1  0  0  0  0
 29 34  1  0  0  0  0
 30 31  2  0  0  0  0
 30 38  1  0  0  0  0
 32 35  1  0  0  0  0
 32 36  1  0  0  0  0
 32 37  1  0  0  0  0
 38 39  1  0  0  0  0
 38 40  1  0  0  0  0
 39 41  1  0  0  0  0
 39 42  1  0  0  0  0
 39 43  1  0  0  0  0
M  END
$$$$

  -OEChem-05262216003D

 43 42  0     1  0  0  0  0  0999 V2000
   -3.4102   -4.9384    1.3998 C   0  0  0  0  0  0  0  0  0  0  0  0
   -2.5784   -5.4604    2.1256 O   0  0  0  0  0  0  0  0  0  0  0  0
   -4.8757   -5.3088    1.5289 C   0  0  0  0  0  0  0  0  0  0  0  0
   -5.2335   -5.7472    0.5941 H   0  0  0  0  0  0  0  0  0  0  0  0
   -5.0118   -6.0361    2.3343 H   0  0  0  0  0  0  0  0  0  0  0  0
   -5.4665   -4.4177    1.7548 H   0  0  0  0  0  0  0  0  0  0  0  0
   -3.0216   -4.0043    0.4639 N   0  0  0  0  0  0  0  0  0  0  0  0
   -1.6659   -3.4507    0.3571 C   0  0  2  0  0  0  0  0  0  0  0  0
   -1.6866   -2.0115   -0.2000 C   0  0  0  0  0  0  0  0  0  0  0  0
   -2.7103   -1.5641   -0.7066 O   0  0  0  0  0  0  0  0  0  0  0  0
   -0.8365   -4.3679   -0.5482 C   0  0  0  0  0  0  0  0  0  0  0  0
   -3.7591   -3.5006   -0.0286 H   0  0  0  0  0  0  0  0  0  0  0  0
   -1.2063   -3.4089    1.3507 H   0  0  0  0  0  0  0  0  0  0  0  0
   -1.2738   -4.4112   -1.5509 H   0  0  0  0  0  0  0  0  0  0  0  0
    0.1914   -4.0025   -0.6311 H   0  0  0  0  0  0  0  0  0  0  0  0
   -0.8075   -5.3820   -0.1369 H   0  0  0  0  0  0  0  0  0  0  0  0
   -0.5422   -1.2364   -0.1738 N   0  0  0  0  0  0  0  0  0  0  0  0
   -0.4906    0.1932   -0.5197 C   0  0  2  0  0  0  0  0  0  0  0  0
    0.7150    0.4805   -1.4316 C   0  0  0  0  0  0  0  0  0  0  0  0
    1.8480    0.2110   -1.0482 O   0  0  0  0  0  0  0  0  0  0  0  0
   -0.3566    1.0276    0.7643 C   0  0  0  0  0  0  0  0  0  0  0  0
   -1.8484    0.8682    1.8301 S   0  0  0  0  0  0  0  0  0  0  0  0
    0.2884   -1.6480    0.2449 H   0  0  0  0  0  0  0  0  0  0  0  0
   -1.3996    0.5009   -1.0471 H   0  0  0  0  0  0  0  0  0  0  0  0
    0.5282    0.7062    1.3246 H   0  0  0  0  0  0  0  0  0  0  0  0
   -0.2187    2.0818    0.5015 H   0  0  0  0  0  0  0  0  0  0  0  0
   -1.5140    1.6636    2.8695 H   0  0  0  0  0  0  0  0  0  0  0  0
    0.5368    1.0079   -2.6956 N   0  0  0  0  0  0  0  0  0  0  0  0
    1.6256    1.3838   -3.6065 C   0  0  2  0  0  0  0  0  0  0  0  0
    1.2117    2.5404   -4.5413 C   0  0  0  0  0  0  0  0  0  0  0  0
    0.0397    2.8958   -4.5988 O   0  0  0  0  0  0  0  0  0  0  0  0
    2.0242    0.1477   -4.4193 C   0  0  0  0  0  0  0  0  0  0  0  0
   -0.4061    1.2915   -2.9649 H   0  0  0  0  0  0  0  0  0  0  0  0
    2.4881    1.7286   -3.0263 H   0  0  0  0  0  0  0  0  0  0  0  0
    1.1764   -0.2088   -5.0133 H   0  0  0  0  0  0  0  0  0  0  0  0
    2.8511    0.3810   -5.0967 H   0  0  0  0  0  0  0  0  0  0  0  0
    2.3448   -0.6580   -3.7512 H   0  0  0  0  0  0  0  0  0  0  0  0
    2.1582    3.2015   -5.3025 N   0  0  0  0  0  0  0  0  0  0  0  0
    1.8386    4.3225   -6.1786 C   0  0  0  0  0  0  0  0  0  0  0  0
    3.1256    2.9033   -5.2169 H   0  0  0  0  0  0  0  0  0  0  0  0
    1.0778    4.0329   -6.9113 H   0  0  0  0  0  0  0  0  0  0  0  0
    1.4613    5.1688   -5.5948 H   0  0  0  0  0  0  0  0  0  0  0  0
    2.7324    4.6465   -6.7205 H   0  0  0  0  0  0  0  0  0  0  0  0
  1  2  2  0  0  0  0
  1  3  1  0  0  0  0
  1  7  1  0  0  0  0
  3  4  1  0  0  0  0
  3  5  1  0  0  0  0
  3  6  1  0  0  0  0
  7  8  1  0  0  0  0
  7 12  1  0  0  0  0
  8  9  1  0  0  0  0
  8 11  1  0  0  0  0
  8 13  1  0  0  0  0
  9 10  2  0  0  0  0
  9 17  1  0  0  0  0
 11 14  1  0  0  0  0
 11 15  1  0  0  0  0
 11 16  1  0  0  0  0
 17 18  1  0  0  0  0
 17 23  1  0  0  0  0
 18 19  1  0  0  0  0
 18 21  1  0  0  0  0
 18 24  1  0  0  0  0
 19 20  2  0  0  0  0
 19 28  1  0  0  0  0
 21 22  1  0  0  0  0
 21 25  1  0  0  0  0
 21 26  1  0  0  0  0
 22 27  1  0  0  0  0
 28 29  1  0  0  0  0
 28 33  1  0  0  0  0
 29 30  1  0  0  0  0
 29 32  1  0  0  0  0
 29 34  1  0  0  0  0
 30 31  2  0  0  0  0
 30 38  1  0  0  0  0
 32 35  1  0  0  0  0
 32 36  1  0  0  0  0
 32 37  1  0  0  0  0
 38 39  1  0  0  0  0
 38 40  1  0  0  0  0
 39 41  1  0  0  0  0
 39 42  1  0  0  0  0
 39 43  1  0  0  0  0
M  END
$$$$

  -OEChem-05262216003D

 43 42  0     1  0  0  0  0  0999 V2000
   -3.3851   -4.9666    1.3423 C   0  0  0  0  0  0  0  0  0  0  0  0
   -2.5353   -5.5162    2.0256 O   0  0  0  0  0  0  0  0  0  0  0  0
   -4.8472   -5.3409    1.4969 C   0  0  0  0  0  0  0  0  0  0  0  0
   -5.2365   -5.7230    0.5502 H   0  0  0  0  0  0  0  0  0  0  0  0
   -4.9599   -6.1143    2.2618 H   0  0  0  0  0  0  0  0  0  0  0  0
   -5.4274   -4.4638    1.7941 H   0  0  0  0  0  0  0  0  0  0  0  0
   -3.0196   -3.9981    0.4324 N   0  0  0  0  0  0  0  0  0  0  0  0
   -1.6668   -3.4393    0.3149 C   0  0  2  0  0  0  0  0  0  0  0  0
   -1.7024   -1.9787   -0.1826 C   0  0  0  0  0  0  0  0  0  0  0  0
   -2.7382   -1.5149   -0.6485 O   0  0  0  0  0  0  0  0  0  0  0  0
   -0.8579   -4.3175   -0.6458 C   0  0  0  0  0  0  0  0  0  0  0  0
   -3.7685   -3.4741   -0.0201 H   0  0  0  0  0  0  0  0  0  0  0  0
   -1.1838   -3.4372    1.2980 H   0  0  0  0  0  0  0  0  0  0  0  0
   -1.3172   -4.3206   -1.6393 H   0  0  0  0  0  0  0  0  0  0  0  0
    0.1676   -3.9471   -0.7364 H   0  0  0  0  0  0  0  0  0  0  0  0
   -0.8193   -5.3473   -0.2768 H   0  0  0  0  0  0  0  0  0  0  0  0
   -0.5594   -1.2019   -0.1515 N   0  0  0  0  0  0  0  0  0  0  0  0
   -0.5012    0.2269   -0.5004 C   0  0  2  0  0  0  0  0  0  0  0  0
    0.7109    0.5138   -1.4041 C   0  0  0  0  0  0  0  0  0  0  0  0
    1.8047    0.0329   -1.1275 O   0  0  0  0  0  0  0  0  0  0  0  0
   -0.3658    1.0644    0.7808 C   0  0  0  0  0  0  0  0  0  0  0  0
   -1.8587    0.9162    1.8464 S   0  0  0  0  0  0  0  0  0  0  0  0
    0.2953   -1.6380    0.1867 H   0  0  0  0  0  0  0  0  0  0  0  0
   -1.4066    0.5331   -1.0346 H   0  0  0  0  0  0  0  0  0  0  0  0
    0.5167    0.7396    1.3421 H   0  0  0  0  0  0  0  0  0  0  0  0
   -0.2229    2.1173    0.5156 H   0  0  0  0  0  0  0  0  0  0  0  0
   -1.5213    1.7103    2.8857 H   0  0  0  0  0  0  0  0  0  0  0  0
    0.5857    1.3108   -2.5253 N   0  0  0  0  0  0  0  0  0  0  0  0
    1.7013    1.7223   -3.3873 C   0  0  2  0  0  0  0  0  0  0  0  0
    1.4338    3.0926   -4.0456 C   0  0  0  0  0  0  0  0  0  0  0  0
    0.3280    3.6141   -3.9533 O   0  0  0  0  0  0  0  0  0  0  0  0
    1.9144    0.6422   -4.4531 C   0  0  0  0  0  0  0  0  0  0  0  0
   -0.3100    1.7745   -2.6824 H   0  0  0  0  0  0  0  0  0  0  0  0
    2.6123    1.8226   -2.7877 H   0  0  0  0  0  0  0  0  0  0  0  0
    1.0149    0.5275   -5.0666 H   0  0  0  0  0  0  0  0  0  0  0  0
    2.7510    0.9054   -5.1071 H   0  0  0  0  0  0  0  0  0  0  0  0
    2.1383   -0.3193   -3.9800 H   0  0  0  0  0  0  0  0  0  0  0  0
    2.4407    3.7553   -4.7233 N   0  0  0  0  0  0  0  0  0  0  0  0
    2.2621    5.0624   -5.3441 C   0  0  0  0  0  0  0  0  0  0  0  0
    3.3512    3.3075   -4.7719 H   0  0  0  0  0  0  0  0  0  0  0  0
    1.4485    5.0321   -6.0767 H   0  0  0  0  0  0  0  0  0  0  0  0
    2.0261    5.8168   -4.5860 H   0  0  0  0  0  0  0  0  0  0  0  0
    3.1785    5.3647   -5.8602 H   0  0  0  0  0  0  0  0  0  0  0  0
  1  2  2  0  0  0  0
  1  3  1  0  0  0  0
  1  7  1  0  0  0  0
  3  4  1  0  0  0  0
  3  5  1  0  0  0  0
  3  6  1  0  0  0  0
  7  8  1  0  0  0  0
  7 12  1  0  0  0  0
  8  9  1  0  0  0  0
  8 11  1  0  0  0  0
  8 13  1  0  0  0  0
  9 10  2  0  0  0  0
  9 17  1  0  0  0  0
 11 14  1  0  0  0  0
 11 15  1  0  0  0  0
 11 16  1  0  0  0  0
 17 18  1  0  0  0  0
 17 23  1  0  0  0  0
 18 19  1  0  0  0  0
 18 21  1  0  0  0  0
 18 24  1  0  0  0  0
 19 20  2  0  0  0  0
 19 28  1  0  0  0  0
 21 22  1  0  0  0  0
 21 25  1  0  0  0  0
 21 26  1  0  0  0  0
 22 27  1  0  0  0  0
 28 29  1  0  0  0  0
 28 33  1  0  0  0  0
 29 30  1  0  0  0  0
 29 32  1  0  0  0  0
 29 34  1  0  0  0  0
 30 31  2  0  0  0  0
 30 38  1  0  0  0  0
 32 35  1  0  0  0  0
 32 36  1  0  0  0  0
 32 37  1  0  0  0  0
 38 39  1  0  0  0  0
 38 40  1  0  0  0  0
 39 41  1  0  0  0  0
 39 42  1  0  0  0  0
 39 43  1  0  0  0  0
M  END
$$$$

  -OEChem-05262216003D

 43 42  0     1  0  0  0  0  0999 V2000
   -3.3657   -4.9863    1.2904 C   0  0  0  0  0  0  0  0  0  0  0  0
   -2.5025   -5.5650    1.9317 O   0  0  0  0  0  0  0  0  0  0  0  0
   -4.8256   -5.3592    1.4660 C   0  0  0  0  0  0  0  0  0  0  0  0
   -5.2326   -5.7256    0.5204 H   0  0  0  0  0  0  0  0  0  0  0  0
   -4.9267   -6.1433    2.2217 H   0  0  0  0  0  0  0  0  0  0  0  0
   -5.3975   -4.4851    1.7868 H   0  0  0  0  0  0  0  0  0  0  0  0
   -3.0186   -3.9837    0.4110 N   0  0  0  0  0  0  0  0  0  0  0  0
   -1.6685   -3.4209    0.2843 C   0  0  2  0  0  0  0  0  0  0  0  0
   -1.7165   -1.9410   -0.1505 C   0  0  0  0  0  0  0  0  0  0  0  0
   -2.7634   -1.4594   -0.5714 O   0  0  0  0  0  0  0  0  0  0  0  0
   -0.8840   -4.2576   -0.7318 C   0  0  0  0  0  0  0  0  0  0  0  0
   -3.7768   -3.4404   -0.0019 H   0  0  0  0  0  0  0  0  0  0  0  0
   -1.1610   -3.4601    1.2542 H   0  0  0  0  0  0  0  0  0  0  0  0
   -1.3700   -4.2227   -1.7120 H   0  0  0  0  0  0  0  0  0  0  0  0
    0.1380   -3.8809   -0.8356 H   0  0  0  0  0  0  0  0  0  0  0  0
   -0.8333   -5.3010   -0.4047 H   0  0  0  0  0  0  0  0  0  0  0  0
   -0.5714   -1.1683   -0.1198 N   0  0  0  0  0  0  0  0  0  0  0  0
   -0.5032    0.2564   -0.4829 C   0  0  2  0  0  0  0  0  0  0  0  0
    0.7162    0.5314   -1.3808 C   0  0  0  0  0  0  0  0  0  0  0  0
    1.7411   -0.1289   -1.2437 O   0  0  0  0  0  0  0  0  0  0  0  0
   -0.3654    1.1059    0.7901 C   0  0  0  0  0  0  0  0  0  0  0  0
   -1.8604    0.9795    1.8547 S   0  0  0  0  0  0  0  0  0  0  0  0
    0.3018   -1.6317    0.1234 H   0  0  0  0  0  0  0  0  0  0  0  0
   -1.4039    0.5615   -1.0268 H   0  0  0  0  0  0  0  0  0  0  0  0
    0.5135    0.7794    1.3561 H   0  0  0  0  0  0  0  0  0  0  0  0
   -0.2146    2.1555    0.5163 H   0  0  0  0  0  0  0  0  0  0  0  0
   -1.5153    1.7787    2.8873 H   0  0  0  0  0  0  0  0  0  0  0  0
    0.6852    1.5458   -2.3173 N   0  0  0  0  0  0  0  0  0  0  0  0
    1.8372    1.9802   -3.1174 C   0  0  2  0  0  0  0  0  0  0  0  0
    1.7399    3.4788   -3.4743 C   0  0  0  0  0  0  0  0  0  0  0  0
    0.7091    4.0996   -3.2381 O   0  0  0  0  0  0  0  0  0  0  0  0
    1.8991    1.1223   -4.3855 C   0  0  0  0  0  0  0  0  0  0  0  0
   -0.1372    2.1502   -2.3365 H   0  0  0  0  0  0  0  0  0  0  0  0
    2.7590    1.8417   -2.5423 H   0  0  0  0  0  0  0  0  0  0  0  0
    0.9878    1.2496   -4.9785 H   0  0  0  0  0  0  0  0  0  0  0  0
    2.7580    1.4050   -5.0015 H   0  0  0  0  0  0  0  0  0  0  0  0
    1.9987    0.0642   -4.1230 H   0  0  0  0  0  0  0  0  0  0  0  0
    2.8167    4.1414   -4.0340 N   0  0  0  0  0  0  0  0  0  0  0  0
    2.7952    5.5596   -4.3720 C   0  0  0  0  0  0  0  0  0  0  0  0
    3.6636    3.6070   -4.2049 H   0  0  0  0  0  0  0  0  0  0  0  0
    2.0068    5.7679   -5.1030 H   0  0  0  0  0  0  0  0  0  0  0  0
    2.6146    6.1642   -3.4769 H   0  0  0  0  0  0  0  0  0  0  0  0
    3.7545    5.8603   -4.8041 H   0  0  0  0  0  0  0  0  0  0  0  0
  1  2  2  0  0  0  0
  1  3  1  0  0  0  0
  1  7  1  0  0  0  0
  3  4  1  0  0  0  0
  3  5  1  0  0  0  0
  3  6  1  0  0  0  0
  7  8  1  0  0  0  0
  7 12  1  0  0  0  0
  8  9  1  0  0  0  0
  8 11  1  0  0  0  0
  8 13  1  0  0  0  0
  9 10  2  0  0  0  0
  9 17  1  0  0  0  0
 11 14  1  0  0  0  0
 11 15  1  0  0  0  0
 11 16  1  0  0  0  0
 17 18  1  0  0  0  0
 17 23  1  0  0  0  0
 18 19  1  0  0  0  0
 18 21  1  0  0  0  0
 18 24  1  0  0  0  0
 19 20  2  0  0  0  0
 19 28  1  0  0  0  0
 21 22  1  0  0  0  0
 21 25  1  0  0  0  0
 21 26  1  0  0  0  0
 22 27  1  0  0  0  0
 28 29  1  0  0  0  0
 28 33  1  0  0  0  0
 29 30  1  0  0  0  0
 29 32  1  0  0  0  0
 29 34  1  0  0  0  0
 30 31  2  0  0  0  0
 30 38  1  0  0  0  0
 32 35  1  0  0  0  0
 32 36  1  0  0  0  0
 32 37  1  0  0  0  0
 38 39  1  0  0  0  0
 38 40  1  0  0  0  0
 39 41  1  0  0  0  0
 39 42  1  0  0  0  0
 39 43  1  0  0  0  0
M  END
$$$$

  -OEChem-05262216003D

 43 42  0     1  0  0  0  0  0999 V2000
   -3.3529   -4.9836    1.2762 C   0  0  0  0  0  0  0  0  0  0  0  0
   -2.4885   -5.5584    1.9192 O   0  0  0  0  0  0  0  0  0  0  0  0
   -4.8112   -5.3663    1.4464 C   0  0  0  0  0  0  0  0  0  0  0  0
   -5.2307   -5.6752    0.4858 H   0  0  0  0  0  0  0  0  0  0  0  0
   -4.9039   -6.1943    2.1547 H   0  0  0  0  0  0  0  0  0  0  0  0
   -5.3781   -4.5127    1.8261 H   0  0  0  0  0  0  0  0  0  0  0  0
   -3.0080   -3.9801    0.3969 N   0  0  0  0  0  0  0  0  0  0  0  0
   -1.6613   -3.4071    0.2790 C   0  0  2  0  0  0  0  0  0  0  0  0
   -1.7202   -1.9184   -0.1231 C   0  0  0  0  0  0  0  0  0  0  0  0
   -2.7764   -1.4301   -0.5120 O   0  0  0  0  0  0  0  0  0  0  0  0
   -0.8769   -4.2193   -0.7578 C   0  0  0  0  0  0  0  0  0  0  0  0
   -3.7679   -3.4367   -0.0125 H   0  0  0  0  0  0  0  0  0  0  0  0
   -1.1499   -3.4626    1.2462 H   0  0  0  0  0  0  0  0  0  0  0  0
   -1.3679   -4.1671   -1.7349 H   0  0  0  0  0  0  0  0  0  0  0  0
    0.1430   -3.8359   -0.8593 H   0  0  0  0  0  0  0  0  0  0  0  0
   -0.8196   -5.2690   -0.4525 H   0  0  0  0  0  0  0  0  0  0  0  0
   -0.5754   -1.1450   -0.0989 N   0  0  0  0  0  0  0  0  0  0  0  0
   -0.5085    0.2732   -0.4882 C   0  0  2  0  0  0  0  0  0  0  0  0
    0.7152    0.5418   -1.3853 C   0  0  0  0  0  0  0  0  0  0  0  0
    1.6514   -0.2511   -1.4082 O   0  0  0  0  0  0  0  0  0  0  0  0
   -0.3806    1.1415    0.7750 C   0  0  0  0  0  0  0  0  0  0  0  0
   -1.8794    1.0310    1.8364 S   0  0  0  0  0  0  0  0  0  0  0  0
    0.3073   -1.6239    0.0684 H   0  0  0  0  0  0  0  0  0  0  0  0
   -1.4055    0.5674   -1.0439 H   0  0  0  0  0  0  0  0  0  0  0  0
    0.4964    0.8254    1.3498 H   0  0  0  0  0  0  0  0  0  0  0  0
   -0.2326    2.1883    0.4894 H   0  0  0  0  0  0  0  0  0  0  0  0
   -1.5496    1.8646    2.8468 H   0  0  0  0  0  0  0  0  0  0  0  0
    0.8062    1.7128   -2.1123 N   0  0  0  0  0  0  0  0  0  0  0  0
    2.0054    2.1567   -2.8343 C   0  0  2  0  0  0  0  0  0  0  0  0
    2.1216    3.6959   -2.8344 C   0  0  0  0  0  0  0  0  0  0  0  0
    1.2022    4.3796   -2.3966 O   0  0  0  0  0  0  0  0  0  0  0  0
    1.9359    1.6124   -4.2646 C   0  0  0  0  0  0  0  0  0  0  0  0
    0.0753    2.4118   -1.9742 H   0  0  0  0  0  0  0  0  0  0  0  0
    2.9018    1.7644   -2.3422 H   0  0  0  0  0  0  0  0  0  0  0  0
    1.0535    2.0043   -4.7805 H   0  0  0  0  0  0  0  0  0  0  0  0
    2.8269    1.8986   -4.8309 H   0  0  0  0  0  0  0  0  0  0  0  0
    1.8747    0.5195   -4.2512 H   0  0  0  0  0  0  0  0  0  0  0  0
    3.2675    4.3158   -3.2973 N   0  0  0  0  0  0  0  0  0  0  0  0
    3.4535    5.7619   -3.2919 C   0  0  0  0  0  0  0  0  0  0  0  0
    4.0204    3.7239   -3.6360 H   0  0  0  0  0  0  0  0  0  0  0  0
    2.6509    6.2553   -3.8501 H   0  0  0  0  0  0  0  0  0  0  0  0
    3.4552    6.1433   -2.2654 H   0  0  0  0  0  0  0  0  0  0  0  0
    4.4078    6.0221   -3.7597 H   0  0  0  0  0  0  0  0  0  0  0  0
  1  2  2  0  0  0  0
  1  3  1  0  0  0  0
  1  7  1  0  0  0  0
  3  4  1  0  0  0  0
  3  5  1  0  0  0  0
  3  6  1  0  0  0  0
  7  8  1  0  0  0  0
  7 12  1  0  0  0  0
  8  9  1  0  0  0  0
  8 11  1  0  0  0  0
  8 13  1  0  0  0  0
  9 10  2  0  0  0  0
  9 17  1  0  0  0  0
 11 14  1  0  0  0  0
 11 15  1  0  0  0  0
 11 16  1  0  0  0  0
 17 18  1  0  0  0  0
 17 23  1  0  0  0  0
 18 19  1  0  0  0  0
 18 21  1  0  0  0  0
 18 24  1  0  0  0  0
 19 20  2  0  0  0  0
 19 28  1  0  0  0  0
 21 22  1  0  0  0  0
 21 25  1  0  0  0  0
 21 26  1  0  0  0  0
 22 27  1  0  0  0  0
 28 29  1  0  0  0  0
 28 33  1  0  0  0  0
 29 30  1  0  0  0  0
 29 32  1  0  0  0  0
 29 34  1  0  0  0  0
 30 31  2  0  0  0  0
 30 38  1  0  0  0  0
 32 35  1  0  0  0  0
 32 36  1  0  0  0  0
 32 37  1  0  0  0  0
 38 39  1  0  0  0  0
 38 40  1  0  0  0  0
 39 41  1  0  0  0  0
 39 42  1  0  0  0  0
 39 43  1  0  0  0  0
M  END
$$$$

  -OEChem-05262216003D

 43 42  0     1  0  0  0  0  0999 V2000
   -3.2910   -5.0383    1.1572 C   0  0  0  0  0  0  0  0  0  0  0  0
   -2.3854   -5.6994    1.6408 O   0  0  0  0  0  0  0  0  0  0  0  0
   -4.7369   -5.4098    1.4279 C   0  0  0  0  0  0  0  0  0  0  0  0
   -5.2469   -5.6325    0.4876 H   0  0  0  0  0  0  0  0  0  0  0  0
   -4.7866   -6.2910    2.0733 H   0  0  0  0  0  0  0  0  0  0  0  0
   -5.2480   -4.5810    1.9235 H   0  0  0  0  0  0  0  0  0  0  0  0
   -3.0042   -3.9451    0.3688 N   0  0  0  0  0  0  0  0  0  0  0  0
   -1.6603   -3.3843    0.1817 C   0  0  2  0  0  0  0  0  0  0  0  0
   -1.7179   -1.8571   -0.0320 C   0  0  0  0  0  0  0  0  0  0  0  0
   -2.7882   -1.3190   -0.2988 O   0  0  0  0  0  0  0  0  0  0  0  0
   -1.0091   -4.0735   -1.0217 C   0  0  0  0  0  0  0  0  0  0  0  0
   -3.7848   -3.3482    0.0960 H   0  0  0  0  0  0  0  0  0  0  0  0
   -1.0548   -3.5667    1.0761 H   0  0  0  0  0  0  0  0  0  0  0  0
   -1.5968   -3.8960   -1.9280 H   0  0  0  0  0  0  0  0  0  0  0  0
    0.0038   -3.6924   -1.1832 H   0  0  0  0  0  0  0  0  0  0  0  0
   -0.9473   -5.1531   -0.8522 H   0  0  0  0  0  0  0  0  0  0  0  0
   -0.5634   -1.1004    0.0419 N   0  0  0  0  0  0  0  0  0  0  0  0
   -0.4910    0.3249   -0.3258 C   0  0  2  0  0  0  0  0  0  0  0  0
    0.5164    0.5615   -1.4701 C   0  0  0  0  0  0  0  0  0  0  0  0
    1.2194   -0.3571   -1.8790 O   0  0  0  0  0  0  0  0  0  0  0  0
   -0.0588    1.1232    0.9154 C   0  0  0  0  0  0  0  0  0  0  0  0
   -1.3347    1.0319    2.2381 S   0  0  0  0  0  0  0  0  0  0  0  0
    0.3117   -1.6196    0.0421 H   0  0  0  0  0  0  0  0  0  0  0  0
   -1.4636    0.6965   -0.6646 H   0  0  0  0  0  0  0  0  0  0  0  0
    0.8914    0.7317    1.2934 H   0  0  0  0  0  0  0  0  0  0  0  0
    0.0941    2.1745    0.6513 H   0  0  0  0  0  0  0  0  0  0  0  0
   -0.7736    1.7940    3.2021 H   0  0  0  0  0  0  0  0  0  0  0  0
    0.7300    1.8342   -1.9640 N   0  0  0  0  0  0  0  0  0  0  0  0
    1.7841    2.2042   -2.9164 C   0  0  2  0  0  0  0  0  0  0  0  0
    2.1691    3.6923   -2.7678 C   0  0  0  0  0  0  0  0  0  0  0  0
    1.5493    4.4102   -1.9898 O   0  0  0  0  0  0  0  0  0  0  0  0
    1.2847    1.9083   -4.3347 C   0  0  0  0  0  0  0  0  0  0  0  0
    0.2218    2.6046   -1.5285 H   0  0  0  0  0  0  0  0  0  0  0  0
    2.6840    1.6118   -2.7190 H   0  0  0  0  0  0  0  0  0  0  0  0
    0.3855    2.4933   -4.5532 H   0  0  0  0  0  0  0  0  0  0  0  0
    2.0517    2.1569   -5.0739 H   0  0  0  0  0  0  0  0  0  0  0  0
    1.0425    0.8458   -4.4380 H   0  0  0  0  0  0  0  0  0  0  0  0
    3.2230    4.2254   -3.4866 N   0  0  0  0  0  0  0  0  0  0  0  0
    3.6314    5.6221   -3.3919 C   0  0  0  0  0  0  0  0  0  0  0  0
    3.7194    3.6098   -4.1243 H   0  0  0  0  0  0  0  0  0  0  0  0
    2.8018    6.2844   -3.6617 H   0  0  0  0  0  0  0  0  0  0  0  0
    3.9538    5.8585   -2.3723 H   0  0  0  0  0  0  0  0  0  0  0  0
    4.4650    5.8197   -4.0728 H   0  0  0  0  0  0  0  0  0  0  0  0
  1  2  2  0  0  0  0
  1  3  1  0  0  0  0
  1  7  1  0  0  0  0
  3  4  1  0  0  0  0
  3  5  1  0  0  0  0
  3  6  1  0  0  0  0
  7  8  1  0  0  0  0
  7 12  1  0  0  0  0
  8  9  1  0  0  0  0
  8 11  1  0  0  0  0
  8 13  1  0  0  0  0
  9 10  2  0  0  0  0
  9 17  1  0  0  0  0
 11 14  1  0  0  0  0
 11 15  1  0  0  0  0
 11 16  1  0  0  0  0
 17 18  1  0  0  0  0
 17 23  1  0  0  0  0
 18 19  1  0  0  0  0
 18 21  1  0  0  0  0
 18 24  1  0  0  0  0
 19 20  2  0  0  0  0
 19 28  1  0  0  0  0
 21 22  1  0  0  0  0
 21 25  1  0  0  0  0
 21 26  1  0  0  0  0
 22 27  1  0  0  0  0
 28 29  1  0  0  0  0
 28 33  1  0  0  0  0
 29 30  1  0  0  0  0
 29 32  1  0  0  0  0
 29 34  1  0  0  0  0
 30 31  2  0  0  0  0
 30 38  1  0  0  0  0
 32 35  1  0  0  0  0
 32 36  1  0  0  0  0
 32 37  1  0  0  0  0
 38 39  1  0  0  0  0
 38 40  1  0  0  0  0
 39 41  1  0  0  0  0
 39 42  1  0  0  0  0
 39 43  1  0  0  0  0
M  END
$$$$

  -OEChem-05262216003D

 43 42  0     1  0  0  0  0  0999 V2000
   -3.2796   -5.0240    1.1408 C   0  0  0  0  0  0  0  0  0  0  0  0
   -2.3717   -5.6781    1.6296 O   0  0  0  0  0  0  0  0  0  0  0  0
   -4.7240   -5.3945    1.4209 C   0  0  0  0  0  0  0  0  0  0  0  0
   -5.2375   -5.6269    0.4849 H   0  0  0  0  0  0  0  0  0  0  0  0
   -4.7695   -6.2694    2.0752 H   0  0  0  0  0  0  0  0  0  0  0  0
   -5.2336   -4.5612    1.9109 H   0  0  0  0  0  0  0  0  0  0  0  0
   -2.9973   -3.9388    0.3398 N   0  0  0  0  0  0  0  0  0  0  0  0
   -1.6554   -3.3699    0.1581 C   0  0  2  0  0  0  0  0  0  0  0  0
   -1.7160   -1.8375   -0.0128 C   0  0  0  0  0  0  0  0  0  0  0  0
   -2.7902   -1.2945   -0.2524 O   0  0  0  0  0  0  0  0  0  0  0  0
   -1.0140   -4.0245   -1.0696 C   0  0  0  0  0  0  0  0  0  0  0  0
   -3.7803   -3.3422    0.0728 H   0  0  0  0  0  0  0  0  0  0  0  0
   -1.0411   -3.5757    1.0415 H   0  0  0  0  0  0  0  0  0  0  0  0
   -1.6124   -3.8258   -1.9644 H   0  0  0  0  0  0  0  0  0  0  0  0
   -0.0047   -3.6349   -1.2331 H   0  0  0  0  0  0  0  0  0  0  0  0
   -0.9459   -5.1079   -0.9284 H   0  0  0  0  0  0  0  0  0  0  0  0
   -0.5596   -1.0836    0.0673 N   0  0  0  0  0  0  0  0  0  0  0  0
   -0.4891    0.3425   -0.3011 C   0  0  2  0  0  0  0  0  0  0  0  0
    0.5257    0.5742   -1.4442 C   0  0  0  0  0  0  0  0  0  0  0  0
    1.0484   -0.3808   -2.0096 O   0  0  0  0  0  0  0  0  0  0  0  0
   -0.0763    1.1345    0.9537 C   0  0  0  0  0  0  0  0  0  0  0  0
   -1.3691    1.0314    2.2592 S   0  0  0  0  0  0  0  0  0  0  0  0
    0.3102   -1.6095    0.0300 H   0  0  0  0  0  0  0  0  0  0  0  0
   -1.4588    0.7137   -0.6488 H   0  0  0  0  0  0  0  0  0  0  0  0
    0.8712    0.7456    1.3412 H   0  0  0  0  0  0  0  0  0  0  0  0
    0.0726    2.1897    0.7049 H   0  0  0  0  0  0  0  0  0  0  0  0
   -0.8123    1.7715    3.2425 H   0  0  0  0  0  0  0  0  0  0  0  0
    0.9816    1.8440   -1.7460 N   0  0  0  0  0  0  0  0  0  0  0  0
    2.0880    2.1514   -2.6610 C   0  0  2  0  0  0  0  0  0  0  0  0
    2.7430    3.5030   -2.3021 C   0  0  0  0  0  0  0  0  0  0  0  0
    2.2597    4.2005   -1.4159 O   0  0  0  0  0  0  0  0  0  0  0  0
    1.5452    2.1719   -4.0942 C   0  0  0  0  0  0  0  0  0  0  0  0
    0.6290    2.6208   -1.1867 H   0  0  0  0  0  0  0  0  0  0  0  0
    2.8617    1.3807   -2.5776 H   0  0  0  0  0  0  0  0  0  0  0  0
    0.7734    2.9409   -4.1994 H   0  0  0  0  0  0  0  0  0  0  0  0
    2.3471    2.3818   -4.8079 H   0  0  0  0  0  0  0  0  0  0  0  0
    1.1061    1.2021   -4.3493 H   0  0  0  0  0  0  0  0  0  0  0  0
    3.8847    3.9316   -2.9538 N   0  0  0  0  0  0  0  0  0  0  0  0
    4.5440    5.1986   -2.6604 C   0  0  0  0  0  0  0  0  0  0  0  0
    4.2638    3.3365   -3.6848 H   0  0  0  0  0  0  0  0  0  0  0  0
    3.8564    6.0352   -2.8236 H   0  0  0  0  0  0  0  0  0  0  0  0
    4.8847    5.2212   -1.6200 H   0  0  0  0  0  0  0  0  0  0  0  0
    5.4131    5.3334   -3.3113 H   0  0  0  0  0  0  0  0  0  0  0  0
  1  2  2  0  0  0  0
  1  3  1  0  0  0  0
  1  7  1  0  0  0  0
  3  4  1  0  0  0  0
  3  5  1  0  0  0  0
  3  6  1  0  0  0  0
  7  8  1  0  0  0  0
  7 12  1  0  0  0  0
  8  9  1  0  0  0  0
  8 11  1  0  0  0  0
  8 13  1  0  0  0  0
  9 10  2  0  0  0  0
  9 17  1  0  0  0  0
 11 14  1  0  0  0  0
 11 15  1  0  0  0  0
 11 16  1  0  0  0  0
 17 18  1  0  0  0  0
 17 23  1  0  0  0  0
 18 19  1  0  0  0  0
 18 21  1  0  0  0  0
 18 24  1  0  0  0  0
 19 20  2  0  0  0  0
 19 28  1  0  0  0  0
 21 22  1  0  0  0  0
 21 25  1  0  0  0  0
 21 26  1  0  0  0  0
 22 27  1  0  0  0  0
 28 29  1  0  0  0  0
 28 33  1  0  0  0  0
 29 30  1  0  0  0  0
 29 32  1  0  0  0  0
 29 34  1  0  0  0  0
 30 31  2  0  0  0  0
 30 38  1  0  0  0  0
 32 35  1  0  0  0  0
 32 36  1  0  0  0  0
 32 37  1  0  0  0  0
 38 39  1  0  0  0  0
 38 40  1  0  0  0  0
 39 41  1  0  0  0  0
 39 42  1  0  0  0  0
 39 43  1  0  0  0  0
M  END
$$$$

  -OEChem-05262216003D

 43 42  0     1  0  0  0  0  0999 V2000
   -3.2572   -5.0236    1.1264 C   0  0  0  0  0  0  0  0  0  0  0  0
   -2.3417   -5.6793    1.5988 O   0  0  0  0  0  0  0  0  0  0  0  0
   -4.6968   -5.4102    1.4086 C   0  0  0  0  0  0  0  0  0  0  0  0
   -5.2140   -5.6294    0.4713 H   0  0  0  0  0  0  0  0  0  0  0  0
   -4.7313   -6.2976    2.0467 H   0  0  0  0  0  0  0  0  0  0  0  0
   -5.2108   -4.5908    1.9171 H   0  0  0  0  0  0  0  0  0  0  0  0
   -2.9867   -3.9235    0.3417 N   0  0  0  0  0  0  0  0  0  0  0  0
   -1.6489   -3.3488    0.1537 C   0  0  2  0  0  0  0  0  0  0  0  0
   -1.7133   -1.8158   -0.0101 C   0  0  0  0  0  0  0  0  0  0  0  0
   -2.7885   -1.2751   -0.2501 O   0  0  0  0  0  0  0  0  0  0  0  0
   -1.0132   -3.9961   -1.0806 C   0  0  0  0  0  0  0  0  0  0  0  0
   -3.7743   -3.3298    0.0822 H   0  0  0  0  0  0  0  0  0  0  0  0
   -1.0293   -3.5577    1.0325 H   0  0  0  0  0  0  0  0  0  0  0  0
   -1.6043   -3.7761   -1.9756 H   0  0  0  0  0  0  0  0  0  0  0  0
    0.0024   -3.6185   -1.2334 H   0  0  0  0  0  0  0  0  0  0  0  0
   -0.9617   -5.0824   -0.9551 H   0  0  0  0  0  0  0  0  0  0  0  0
   -0.5584   -1.0605    0.0840 N   0  0  0  0  0  0  0  0  0  0  0  0
   -0.4884    0.3658   -0.2850 C   0  0  2  0  0  0  0  0  0  0  0  0
    0.5422    0.5919   -1.4184 C   0  0  0  0  0  0  0  0  0  0  0  0
    0.8711   -0.3411   -2.1428 O   0  0  0  0  0  0  0  0  0  0  0  0
   -0.1160    1.1627    0.9808 C   0  0  0  0  0  0  0  0  0  0  0  0
   -1.4421    1.0525    2.2518 S   0  0  0  0  0  0  0  0  0  0  0  0
    0.3108   -1.5871    0.0600 H   0  0  0  0  0  0  0  0  0  0  0  0
   -1.4530    0.7304   -0.6540 H   0  0  0  0  0  0  0  0  0  0  0  0
    0.8253    0.7851    1.3943 H   0  0  0  0  0  0  0  0  0  0  0  0
    0.0242    2.2193    0.7342 H   0  0  0  0  0  0  0  0  0  0  0  0
   -0.9240    1.8068    3.2454 H   0  0  0  0  0  0  0  0  0  0  0  0
    1.2395    1.7803   -1.5402 N   0  0  0  0  0  0  0  0  0  0  0  0
    2.3751    2.0105   -2.4426 C   0  0  2  0  0  0  0  0  0  0  0  0
    3.2926    3.1274   -1.8990 C   0  0  0  0  0  0  0  0  0  0  0  0
    2.9623    3.7553   -0.8977 O   0  0  0  0  0  0  0  0  0  0  0  0
    1.8324    2.3796   -3.8273 C   0  0  0  0  0  0  0  0  0  0  0  0
    1.0587    2.5104   -0.8520 H   0  0  0  0  0  0  0  0  0  0  0  0
    2.9770    1.0986   -2.5201 H   0  0  0  0  0  0  0  0  0  0  0  0
    1.2394    3.2981   -3.7726 H   0  0  0  0  0  0  0  0  0  0  0  0
    2.6523    2.5349   -4.5346 H   0  0  0  0  0  0  0  0  0  0  0  0
    1.1961    1.5766   -4.2126 H   0  0  0  0  0  0  0  0  0  0  0  0
    4.4946    3.4202   -2.5164 N   0  0  0  0  0  0  0  0  0  0  0  0
    5.4051    4.4565   -2.0440 C   0  0  0  0  0  0  0  0  0  0  0  0
    4.7486    2.8785   -3.3375 H   0  0  0  0  0  0  0  0  0  0  0  0
    4.8927    5.4231   -1.9892 H   0  0  0  0  0  0  0  0  0  0  0  0
    5.7878    4.2041   -1.0496 H   0  0  0  0  0  0  0  0  0  0  0  0
    6.2538    4.5555   -2.7276 H   0  0  0  0  0  0  0  0  0  0  0  0
  1  2  2  0  0  0  0
  1  3  1  0  0  0  0
  1  7  1  0  0  0  0
  3  4  1  0  0  0  0
  3  5  1  0  0  0  0
  3  6  1  0  0  0  0
  7  8  1  0  0  0  0
  7 12  1  0  0  0  0
  8  9  1  0  0  0  0
  8 11  1  0  0  0  0
  8 13  1  0  0  0  0
  9 10  2  0  0  0  0
  9 17  1  0  0  0  0
 11 14  1  0  0  0  0
 11 15  1  0  0  0  0
 11 16  1  0  0  0  0
 17 18  1  0  0  0  0
 17 23  1  0  0  0  0
 18 19  1  0  0  0  0
 18 21  1  0  0  0  0
 18 24  1  0  0  0  0
 19 20  2  0  0  0  0
 19 28  1  0  0  0  0
 21 22  1  0  0  0  0
 21 25  1  0  0  0  0
 21 26  1  0  0  0  0
 22 27  1  0  0  0  0
 28 29  1  0  0  0  0
 28 33  1  0  0  0  0
 29 30  1  0  0  0  0
 29 32  1  0  0  0  0
 29 34  1  0  0  0  0
 30 31  2  0  0  0  0
 30 38  1  0  0  0  0
 32 35  1  0  0  0  0
 32 36  1  0  0  0  0
 32 37  1  0  0  0  0
 38 39  1  0  0  0  0
 38 40  1  0  0  0  0
 39 41  1  0  0  0  0
 39 42  1  0  0  0  0
 39 43  1  0  0  0  0
M  END
$$$$

  -OEChem-05262216003D

 43 42  0     1  0  0  0  0  0999 V2000
   -3.2613   -5.0107    1.1247 C   0  0  0  0  0  0  0  0  0  0  0  0
   -2.3472   -5.6665    1.6000 O   0  0  0  0  0  0  0  0  0  0  0  0
   -4.7016   -5.3999    1.4005 C   0  0  0  0  0  0  0  0  0  0  0  0
   -5.2093   -5.6388    0.4628 H   0  0  0  0  0  0  0  0  0  0  0  0
   -4.7372   -6.2761    2.0538 H   0  0  0  0  0  0  0  0  0  0  0  0
   -5.2243   -4.5746    1.8902 H   0  0  0  0  0  0  0  0  0  0  0  0
   -2.9872   -3.9082    0.3444 N   0  0  0  0  0  0  0  0  0  0  0  0
   -1.6470   -3.3397    0.1536 C   0  0  2  0  0  0  0  0  0  0  0  0
   -1.7038   -1.8089   -0.0314 C   0  0  0  0  0  0  0  0  0  0  0  0
   -2.7740   -1.2675   -0.2903 O   0  0  0  0  0  0  0  0  0  0  0  0
   -1.0090   -4.0052   -1.0695 C   0  0  0  0  0  0  0  0  0  0  0  0
   -3.7730   -3.3165    0.0750 H   0  0  0  0  0  0  0  0  0  0  0  0
   -1.0319   -3.5391    1.0376 H   0  0  0  0  0  0  0  0  0  0  0  0
   -1.6005   -3.8013   -1.9679 H   0  0  0  0  0  0  0  0  0  0  0  0
    0.0057   -3.6280   -1.2286 H   0  0  0  0  0  0  0  0  0  0  0  0
   -0.9555   -5.0890   -0.9254 H   0  0  0  0  0  0  0  0  0  0  0  0
   -0.5479   -1.0559    0.0758 N   0  0  0  0  0  0  0  0  0  0  0  0
   -0.4684    0.3724   -0.2836 C   0  0  2  0  0  0  0  0  0  0  0  0
    0.5730    0.5992   -1.4070 C   0  0  0  0  0  0  0  0  0  0  0  0
    0.7029   -0.2355   -2.2941 O   0  0  0  0  0  0  0  0  0  0  0  0
   -0.1210    1.1655    0.9916 C   0  0  0  0  0  0  0  0  0  0  0  0
   -1.4712    1.0538    2.2365 S   0  0  0  0  0  0  0  0  0  0  0  0
    0.3199   -1.5822    0.1130 H   0  0  0  0  0  0  0  0  0  0  0  0
   -1.4271    0.7388   -0.6661 H   0  0  0  0  0  0  0  0  0  0  0  0
    0.8109    0.7866    1.4244 H   0  0  0  0  0  0  0  0  0  0  0  0
    0.0229    2.2227    0.7475 H   0  0  0  0  0  0  0  0  0  0  0  0
   -0.9672    1.8008    3.2429 H   0  0  0  0  0  0  0  0  0  0  0  0
    1.4923    1.6322   -1.3572 N   0  0  0  0  0  0  0  0  0  0  0  0
    2.6382    1.7942   -2.2611 C   0  0  2  0  0  0  0  0  0  0  0  0
    3.7635    2.6034   -1.5804 C   0  0  0  0  0  0  0  0  0  0  0  0
    3.5685    3.1138   -0.4816 O   0  0  0  0  0  0  0  0  0  0  0  0
    2.1597    2.4935   -3.5385 C   0  0  0  0  0  0  0  0  0  0  0  0
    1.4794    2.2408   -0.5395 H   0  0  0  0  0  0  0  0  0  0  0  0
    3.0487    0.8120   -2.5184 H   0  0  0  0  0  0  0  0  0  0  0  0
    1.7583    3.4849   -3.3050 H   0  0  0  0  0  0  0  0  0  0  0  0
    2.9848    2.6092   -4.2477 H   0  0  0  0  0  0  0  0  0  0  0  0
    1.3732    1.9052   -4.0222 H   0  0  0  0  0  0  0  0  0  0  0  0
    4.9995    2.7463   -2.1835 N   0  0  0  0  0  0  0  0  0  0  0  0
    6.0967    3.5014   -1.5893 C   0  0  0  0  0  0  0  0  0  0  0  0
    5.1367    2.3100   -3.0907 H   0  0  0  0  0  0  0  0  0  0  0  0
    5.7909    4.5356   -1.3979 H   0  0  0  0  0  0  0  0  0  0  0  0
    6.4083    3.0453   -0.6436 H   0  0  0  0  0  0  0  0  0  0  0  0
    6.9570    3.5163   -2.2656 H   0  0  0  0  0  0  0  0  0  0  0  0
  1  2  2  0  0  0  0
  1  3  1  0  0  0  0
  1  7  1  0  0  0  0
  3  4  1  0  0  0  0
  3  5  1  0  0  0  0
  3  6  1  0  0  0  0
  7  8  1  0  0  0  0
  7 12  1  0  0  0  0
  8  9  1  0  0  0  0
  8 11  1  0  0  0  0
  8 13  1  0  0  0  0
  9 10  2  0  0  0  0
  9 17  1  0  0  0  0
 11 14  1  0  0  0  0
 11 15  1  0  0  0  0
 11 16  1  0  0  0  0
 17 18  1  0  0  0  0
 17 23  1  0  0  0  0
 18 19  1  0  0  0  0
 18 21  1  0  0  0  0
 18 24  1  0  0  0  0
 19 20  2  0  0  0  0
 19 28  1  0  0  0  0
 21 22  1  0  0  0  0
 21 25  1  0  0  0  0
 21 26  1  0  0  0  0
 22 27  1  0  0  0  0
 28 29  1  0  0  0  0
 28 33  1  0  0  0  0
 29 30  1  0  0  0  0
 29 32  1  0  0  0  0
 29 34  1  0  0  0  0
 30 31  2  0  0  0  0
 30 38  1  0  0  0  0
 32 35  1  0  0  0  0
 32 36  1  0  0  0  0
 32 37  1  0  0  0  0
 38 39  1  0  0  0  0
 38 40  1  0  0  0  0
 39 41  1  0  0  0  0
 39 42  1  0  0  0  0
 39 43  1  0  0  0  0
M  END
$$$$

  -OEChem-05262216003D

 43 42  0     1  0  0  0  0  0999 V2000
   -3.2870   -4.9829    1.1402 C   0  0  0  0  0  0  0  0  0  0  0  0
   -2.3885   -5.6291    1.6567 O   0  0  0  0  0  0  0  0  0  0  0  0
   -4.7368   -5.3420    1.4083 C   0  0  0  0  0  0  0  0  0  0  0  0
   -5.2440   -5.5748    0.4687 H   0  0  0  0  0  0  0  0  0  0  0  0
   -4.7948   -6.2142    2.0656 H   0  0  0  0  0  0  0  0  0  0  0  0
   -5.2445   -4.5028    1.8903 H   0  0  0  0  0  0  0  0  0  0  0  0
   -2.9871   -3.9137    0.3237 N   0  0  0  0  0  0  0  0  0  0  0  0
   -1.6401   -3.3563    0.1486 C   0  0  2  0  0  0  0  0  0  0  0  0
   -1.6854   -1.8270   -0.0504 C   0  0  0  0  0  0  0  0  0  0  0  0
   -2.7491   -1.2831   -0.3288 O   0  0  0  0  0  0  0  0  0  0  0  0
   -0.9905   -4.0345   -1.0615 C   0  0  0  0  0  0  0  0  0  0  0  0
   -3.7623   -3.3216    0.0259 H   0  0  0  0  0  0  0  0  0  0  0  0
   -1.0378   -3.5521    1.0421 H   0  0  0  0  0  0  0  0  0  0  0  0
   -1.5730   -3.8378   -1.9675 H   0  0  0  0  0  0  0  0  0  0  0  0
    0.0263   -3.6607   -1.2152 H   0  0  0  0  0  0  0  0  0  0  0  0
   -0.9402   -5.1171   -0.9077 H   0  0  0  0  0  0  0  0  0  0  0  0
   -0.5274   -1.0788    0.0664 N   0  0  0  0  0  0  0  0  0  0  0  0
   -0.4368    0.3501   -0.2867 C   0  0  2  0  0  0  0  0  0  0  0  0
    0.6121    0.5778   -1.4009 C   0  0  0  0  0  0  0  0  0  0  0  0
    0.5667   -0.0912   -2.4249 O   0  0  0  0  0  0  0  0  0  0  0  0
   -0.1060    1.1463    0.9899 C   0  0  0  0  0  0  0  0  0  0  0  0
   -1.4744    1.0426    2.2150 S   0  0  0  0  0  0  0  0  0  0  0  0
    0.3355   -1.6038    0.1683 H   0  0  0  0  0  0  0  0  0  0  0  0
   -1.3901    0.7194   -0.6799 H   0  0  0  0  0  0  0  0  0  0  0  0
    0.8160    0.7644    1.4408 H   0  0  0  0  0  0  0  0  0  0  0  0
    0.0482    2.2008    0.7384 H   0  0  0  0  0  0  0  0  0  0  0  0
   -0.9955    1.8108    3.2175 H   0  0  0  0  0  0  0  0  0  0  0  0
    1.7148    1.3923   -1.2114 N   0  0  0  0  0  0  0  0  0  0  0  0
    2.8581    1.5009   -2.1265 C   0  0  2  0  0  0  0  0  0  0  0  0
    4.1247    1.9519   -1.3672 C   0  0  0  0  0  0  0  0  0  0  0  0
    4.0477    2.2633   -0.1825 O   0  0  0  0  0  0  0  0  0  0  0  0
    2.5057    2.4963   -3.2380 C   0  0  0  0  0  0  0  0  0  0  0  0
    1.8366    1.8187   -0.2934 H   0  0  0  0  0  0  0  0  0  0  0  0
    3.0714    0.5225   -2.5704 H   0  0  0  0  0  0  0  0  0  0  0  0
    2.2956    3.4838   -2.8146 H   0  0  0  0  0  0  0  0  0  0  0  0
    3.3320    2.5894   -3.9488 H   0  0  0  0  0  0  0  0  0  0  0  0
    1.6207    2.1572   -3.7861 H   0  0  0  0  0  0  0  0  0  0  0  0
    5.3536    1.9904   -1.9994 N   0  0  0  0  0  0  0  0  0  0  0  0
    6.5843    2.3993   -1.3328 C   0  0  0  0  0  0  0  0  0  0  0  0
    5.3902    1.7194   -2.9780 H   0  0  0  0  0  0  0  0  0  0  0  0
    6.4838    3.4120   -0.9282 H   0  0  0  0  0  0  0  0  0  0  0  0
    6.8218    1.7141   -0.5121 H   0  0  0  0  0  0  0  0  0  0  0  0
    7.4184    2.3930   -2.0412 H   0  0  0  0  0  0  0  0  0  0  0  0
  1  2  2  0  0  0  0
  1  3  1  0  0  0  0
  1  7  1  0  0  0  0
  3  4  1  0  0  0  0
  3  5  1  0  0  0  0
  3  6  1  0  0  0  0
  7  8  1  0  0  0  0
  7 12  1  0  0  0  0
  8  9  1  0  0  0  0
  8 11  1  0  0  0  0
  8 13  1  0  0  0  0
  9 10  2  0  0  0  0
  9 17  1  0  0  0  0
 11 14  1  0  0  0  0
 11 15  1  0  0  0  0
 11 16  1  0  0  0  0
 17 18  1  0  0  0  0
 17 23  1  0  0  0  0
 18 19  1  0  0  0  0
 18 21  1  0  0  0  0
 18 24  1  0  0  0  0
 19 20  2  0  0  0  0
 19 28  1  0  0  0  0
 21 22  1  0  0  0  0
 21 25  1  0  0  0  0
 21 26  1  0  0  0  0
 22 27  1  0  0  0  0
 28 29  1  0  0  0  0
 28 33  1  0  0  0  0
 29 30  1  0  0  0  0
 29 32  1  0  0  0  0
 29 34  1  0  0  0  0
 30 31  2  0  0  0  0
 30 38  1  0  0  0  0
 32 35  1  0  0  0  0
 32 36  1  0  0  0  0
 32 37  1  0  0  0  0
 38 39  1  0  0  0  0
 38 40  1  0  0  0  0
 39 41  1  0  0  0  0
 39 42  1  0  0  0  0
 39 43  1  0  0  0  0
M  END
$$$$

  -OEChem-05262216003D

 43 42  0     1  0  0  0  0  0999 V2000
   -3.3156   -4.9562    1.1615 C   0  0  0  0  0  0  0  0  0  0  0  0
   -2.4275   -5.5969    1.7021 O   0  0  0  0  0  0  0  0  0  0  0  0
   -4.7703   -5.3078    1.4121 C   0  0  0  0  0  0  0  0  0  0  0  0
   -5.2629   -5.5530    0.4680 H   0  0  0  0  0  0  0  0  0  0  0  0
   -4.8410   -6.1701    2.0811 H   0  0  0  0  0  0  0  0  0  0  0  0
   -5.2838   -4.4609    1.8737 H   0  0  0  0  0  0  0  0  0  0  0  0
   -2.9987   -3.9038    0.3296 N   0  0  0  0  0  0  0  0  0  0  0  0
   -1.6444   -3.3646    0.1532 C   0  0  2  0  0  0  0  0  0  0  0  0
   -1.6721   -1.8418   -0.0963 C   0  0  0  0  0  0  0  0  0  0  0  0
   -2.7240   -1.3003   -0.4192 O   0  0  0  0  0  0  0  0  0  0  0  0
   -0.9866   -4.0884   -1.0255 C   0  0  0  0  0  0  0  0  0  0  0  0
   -3.7662   -3.3165    0.0031 H   0  0  0  0  0  0  0  0  0  0  0  0
   -1.0561   -3.5374    1.0608 H   0  0  0  0  0  0  0  0  0  0  0  0
   -1.5525   -3.9121   -1.9459 H   0  0  0  0  0  0  0  0  0  0  0  0
    0.0374   -3.7331   -1.1739 H   0  0  0  0  0  0  0  0  0  0  0  0
   -0.9542   -5.1662   -0.8375 H   0  0  0  0  0  0  0  0  0  0  0  0
   -0.5130   -1.0960    0.0322 N   0  0  0  0  0  0  0  0  0  0  0  0
   -0.4112    0.3366   -0.3024 C   0  0  2  0  0  0  0  0  0  0  0  0
    0.6419    0.5748   -1.4077 C   0  0  0  0  0  0  0  0  0  0  0  0
    0.4469    0.1526   -2.5388 O   0  0  0  0  0  0  0  0  0  0  0  0
   -0.0804    1.1200    0.9810 C   0  0  0  0  0  0  0  0  0  0  0  0
   -1.4558    1.0131    2.1984 S   0  0  0  0  0  0  0  0  0  0  0  0
    0.3385   -1.6107    0.2337 H   0  0  0  0  0  0  0  0  0  0  0  0
   -1.3616    0.7150   -0.6945 H   0  0  0  0  0  0  0  0  0  0  0  0
    0.8350    0.7273    1.4360 H   0  0  0  0  0  0  0  0  0  0  0  0
    0.0863    2.1740    0.7342 H   0  0  0  0  0  0  0  0  0  0  0  0
   -0.9794    1.7687    3.2117 H   0  0  0  0  0  0  0  0  0  0  0  0
    1.8834    1.1159   -1.1227 N   0  0  0  0  0  0  0  0  0  0  0  0
    3.0155    1.1742   -2.0566 C   0  0  2  0  0  0  0  0  0  0  0  0
    4.3548    1.2243   -1.2901 C   0  0  0  0  0  0  0  0  0  0  0  0
    4.3533    1.3275   -0.0671 O   0  0  0  0  0  0  0  0  0  0  0  0
    2.8549    2.4090   -2.9511 C   0  0  0  0  0  0  0  0  0  0  0  0
    2.0992    1.3185   -0.1471 H   0  0  0  0  0  0  0  0  0  0  0  0
    3.0266    0.2741   -2.6809 H   0  0  0  0  0  0  0  0  0  0  0  0
    2.8530    3.3218   -2.3469 H   0  0  0  0  0  0  0  0  0  0  0  0
    3.6733    2.4705   -3.6746 H   0  0  0  0  0  0  0  0  0  0  0  0
    1.9129    2.3573   -3.5064 H   0  0  0  0  0  0  0  0  0  0  0  0
    5.5601    1.1353   -1.9616 N   0  0  0  0  0  0  0  0  0  0  0  0
    6.8536    1.1833   -1.2906 C   0  0  0  0  0  0  0  0  0  0  0  0
    5.5327    1.0499   -2.9737 H   0  0  0  0  0  0  0  0  0  0  0  0
    6.9739    2.1327   -0.7581 H   0  0  0  0  0  0  0  0  0  0  0  0
    6.9421    0.3619   -0.5716 H   0  0  0  0  0  0  0  0  0  0  0  0
    7.6636    1.0924   -2.0209 H   0  0  0  0  0  0  0  0  0  0  0  0
  1  2  2  0  0  0  0
  1  3  1  0  0  0  0
  1  7  1  0  0  0  0
  3  4  1  0  0  0  0
  3  5  1  0  0  0  0
  3  6  1  0  0  0  0
  7  8  1  0  0  0  0
  7 12  1  0  0  0  0
  8  9  1  0  0  0  0
  8 11  1  0  0  0  0
  8 13  1  0  0  0  0
  9 10  2  0  0  0  0
  9 17  1  0  0  0  0
 11 14  1  0  0  0  0
 11 15  1  0  0  0  0
 11 16  1  0  0  0  0
 17 18  1  0  0  0  0
 17 23  1  0  0  0  0
 18 19  1  0  0  0  0
 18 21  1  0  0  0  0
 18 24  1  0  0  0  0
 19 20  2  0  0  0  0
 19 28  1  0  0  0  0
 21 22  1  0  0  0  0
 21 25  1  0  0  0  0
 21 26  1  0  0  0  0
 22 27  1  0  0  0  0
 28 29  1  0  0  0  0
 28 33  1  0  0  0  0
 29 30  1  0  0  0  0
 29 32  1  0  0  0  0
 29 34  1  0  0  0  0
 30 31  2  0  0  0  0
 30 38  1  0  0  0  0
 32 35  1  0  0  0  0
 32 36  1  0  0  0  0
 32 37  1  0  0  0  0
 38 39  1  0  0  0  0
 38 40  1  0  0  0  0
 39 41  1  0  0  0  0
 39 42  1  0  0  0  0
 39 43  1  0  0  0  0
M  END
$$$$

  -OEChem-05262216003D

 43 42  0     1  0  0  0  0  0999 V2000
   -3.3335   -4.9068    1.2064 C   0  0  0  0  0  0  0  0  0  0  0  0
   -2.4865   -5.4811    1.8731 O   0  0  0  0  0  0  0  0  0  0  0  0
   -4.7999   -5.2611    1.3678 C   0  0  0  0  0  0  0  0  0  0  0  0
   -5.2097   -5.5979    0.4125 H   0  0  0  0  0  0  0  0  0  0  0  0
   -4.9157   -6.0620    2.1035 H   0  0  0  0  0  0  0  0  0  0  0  0
   -5.3596   -4.3863    1.7080 H   0  0  0  0  0  0  0  0  0  0  0  0
   -2.9600   -3.9268    0.3120 N   0  0  0  0  0  0  0  0  0  0  0  0
   -1.6031   -3.3764    0.2058 C   0  0  2  0  0  0  0  0  0  0  0  0
   -1.6267   -1.8850   -0.1893 C   0  0  0  0  0  0  0  0  0  0  0  0
   -2.6559   -1.3917   -0.6366 O   0  0  0  0  0  0  0  0  0  0  0  0
   -0.8291   -4.1941   -0.8326 C   0  0  0  0  0  0  0  0  0  0  0  0
   -3.7047   -3.3853   -0.1270 H   0  0  0  0  0  0  0  0  0  0  0  0
   -1.0989   -3.4496    1.1753 H   0  0  0  0  0  0  0  0  0  0  0  0
   -1.3103   -4.1187   -1.8132 H   0  0  0  0  0  0  0  0  0  0  0  0
    0.1995   -3.8317   -0.9207 H   0  0  0  0  0  0  0  0  0  0  0  0
   -0.7990   -5.2484   -0.5394 H   0  0  0  0  0  0  0  0  0  0  0  0
   -0.4899   -1.1107   -0.0371 N   0  0  0  0  0  0  0  0  0  0  0  0
   -0.4117    0.3259   -0.3592 C   0  0  2  0  0  0  0  0  0  0  0  0
    0.6532    0.5985   -1.4417 C   0  0  0  0  0  0  0  0  0  0  0  0
    0.3680    0.5156   -2.6277 O   0  0  0  0  0  0  0  0  0  0  0  0
   -0.1118    1.1127    0.9283 C   0  0  0  0  0  0  0  0  0  0  0  0
   -1.5000    0.9736    2.1270 S   0  0  0  0  0  0  0  0  0  0  0  0
    0.3294   -1.5723    0.3456 H   0  0  0  0  0  0  0  0  0  0  0  0
   -1.3654    0.6866   -0.7619 H   0  0  0  0  0  0  0  0  0  0  0  0
    0.8054    0.7408    1.3960 H   0  0  0  0  0  0  0  0  0  0  0  0
    0.0375    2.1691    0.6812 H   0  0  0  0  0  0  0  0  0  0  0  0
   -1.0600    1.7538    3.1388 H   0  0  0  0  0  0  0  0  0  0  0  0
    1.9657    0.8685   -1.0970 N   0  0  0  0  0  0  0  0  0  0  0  0
    3.0839    0.9239   -2.0464 C   0  0  2  0  0  0  0  0  0  0  0  0
    4.3906    0.4345   -1.3872 C   0  0  0  0  0  0  0  0  0  0  0  0
    4.4206    0.2179   -0.1795 O   0  0  0  0  0  0  0  0  0  0  0  0
    3.2276    2.3666   -2.5404 C   0  0  0  0  0  0  0  0  0  0  0  0
    2.2210    0.7713   -0.1152 H   0  0  0  0  0  0  0  0  0  0  0  0
    2.8826    0.2673   -2.8997 H   0  0  0  0  0  0  0  0  0  0  0  0
    3.4445    3.0382   -1.7036 H   0  0  0  0  0  0  0  0  0  0  0  0
    4.0383    2.4455   -3.2707 H   0  0  0  0  0  0  0  0  0  0  0  0
    2.3006    2.6963   -3.0206 H   0  0  0  0  0  0  0  0  0  0  0  0
    5.5252    0.2167   -2.1464 N   0  0  0  0  0  0  0  0  0  0  0  0
    6.7885   -0.2465   -1.5848 C   0  0  0  0  0  0  0  0  0  0  0  0
    5.4655    0.3925   -3.1455 H   0  0  0  0  0  0  0  0  0  0  0  0
    7.1736    0.4775   -0.8589 H   0  0  0  0  0  0  0  0  0  0  0  0
    6.6549   -1.2113   -1.0840 H   0  0  0  0  0  0  0  0  0  0  0  0
    7.5329   -0.3696   -2.3776 H   0  0  0  0  0  0  0  0  0  0  0  0
  1  2  2  0  0  0  0
  1  3  1  0  0  0  0
  1  7  1  0  0  0  0
  3  4  1  0  0  0  0
  3  5  1  0  0  0  0
  3  6  1  0  0  0  0
  7  8  1  0  0  0  0
  7 12  1  0  0  0  0
  8  9  1  0  0  0  0
  8 11  1  0  0  0  0
  8 13  1  0  0  0  0
  9 10  2  0  0  0  0
  9 17  1  0  0  0  0
 11 14  1  0  0  0  0
 11 15  1  0  0  0  0
 11 16  1  0  0  0  0
 17 18  1  0  0  0  0
 17 23  1  0  0  0  0
 18 19  1  0  0  0  0
 18 21  1  0  0  0  0
 18 24  1  0  0  0  0
 19 20  2  0  0  0  0
 19 28  1  0  0  0  0
 21 22  1  0  0  0  0
 21 25  1  0  0  0  0
 21 26  1  0  0  0  0
 22 27  1  0  0  0  0
 28 29  1  0  0  0  0
 28 33  1  0  0  0  0
 29 30  1  0  0  0  0
 29 32  1  0  0  0  0
 29 34  1  0  0  0  0
 30 31  2  0  0  0  0
 30 38  1  0  0  0  0
 32 35  1  0  0  0  0
 32 36  1  0  0  0  0
 32 37  1  0  0  0  0
 38 39  1  0  0  0  0
 38 40  1  0  0  0  0
 39 41  1  0  0  0  0
 39 42  1  0  0  0  0
 39 43  1  0  0  0  0
M  END
$$$$

  -OEChem-05262216003D

 43 42  0     1  0  0  0  0  0999 V2000
   -3.3748   -4.8649    1.2431 C   0  0  0  0  0  0  0  0  0  0  0  0
   -2.5654   -5.3946    1.9885 O   0  0  0  0  0  0  0  0  0  0  0  0
   -4.8468   -5.2180    1.3429 C   0  0  0  0  0  0  0  0  0  0  0  0
   -5.2004   -5.6168    0.3892 H   0  0  0  0  0  0  0  0  0  0  0  0
   -5.0015   -5.9719    2.1198 H   0  0  0  0  0  0  0  0  0  0  0  0
   -5.4279   -4.3278    1.5954 H   0  0  0  0  0  0  0  0  0  0  0  0
   -2.9522   -3.9377    0.3144 N   0  0  0  0  0  0  0  0  0  0  0  0
   -1.5897   -3.3938    0.2488 C   0  0  2  0  0  0  0  0  0  0  0  0
   -1.5858   -1.9307   -0.2425 C   0  0  0  0  0  0  0  0  0  0  0  0
   -2.5848   -1.4688   -0.7815 O   0  0  0  0  0  0  0  0  0  0  0  0
   -0.7606   -4.2780   -0.6878 C   0  0  0  0  0  0  0  0  0  0  0  0
   -3.6706   -3.4269   -0.1989 H   0  0  0  0  0  0  0  0  0  0  0  0
   -1.1412   -3.4032    1.2480 H   0  0  0  0  0  0  0  0  0  0  0  0
   -1.1900   -4.2753   -1.6949 H   0  0  0  0  0  0  0  0  0  0  0  0
    0.2704   -3.9167   -0.7477 H   0  0  0  0  0  0  0  0  0  0  0  0
   -0.7435   -5.3087   -0.3191 H   0  0  0  0  0  0  0  0  0  0  0  0
   -0.4609   -1.1429   -0.0683 N   0  0  0  0  0  0  0  0  0  0  0  0
   -0.3956    0.2951   -0.3942 C   0  0  2  0  0  0  0  0  0  0  0  0
    0.6851    0.5849   -1.4544 C   0  0  0  0  0  0  0  0  0  0  0  0
    0.3769    0.8415   -2.6092 O   0  0  0  0  0  0  0  0  0  0  0  0
   -0.1205    1.0952    0.8885 C   0  0  0  0  0  0  0  0  0  0  0  0
   -1.5241    0.9429    2.0672 S   0  0  0  0  0  0  0  0  0  0  0  0
    0.3147   -1.5671    0.4312 H   0  0  0  0  0  0  0  0  0  0  0  0
   -1.3480    0.6426   -0.8112 H   0  0  0  0  0  0  0  0  0  0  0  0
    0.7977    0.7446    1.3697 H   0  0  0  0  0  0  0  0  0  0  0  0
    0.0150    2.1516    0.6326 H   0  0  0  0  0  0  0  0  0  0  0  0
   -1.1207    1.7559    3.0676 H   0  0  0  0  0  0  0  0  0  0  0  0
    2.0248    0.5684   -1.1108 N   0  0  0  0  0  0  0  0  0  0  0  0
    3.1279    0.6066   -2.0786 C   0  0  2  0  0  0  0  0  0  0  0  0
    4.2908   -0.2977   -1.6178 C   0  0  0  0  0  0  0  0  0  0  0  0
    4.2685   -0.7942   -0.4953 O   0  0  0  0  0  0  0  0  0  0  0  0
    3.5857    2.0601   -2.2286 C   0  0  0  0  0  0  0  0  0  0  0  0
    2.2597    0.2016   -0.1896 H   0  0  0  0  0  0  0  0  0  0  0  0
    2.7897    0.2323   -3.0511 H   0  0  0  0  0  0  0  0  0  0  0  0
    3.9463    2.4493   -1.2711 H   0  0  0  0  0  0  0  0  0  0  0  0
    4.3931    2.1361   -2.9628 H   0  0  0  0  0  0  0  0  0  0  0  0
    2.7532    2.6848   -2.5679 H   0  0  0  0  0  0  0  0  0  0  0  0
    5.3491   -0.5748   -2.4631 N   0  0  0  0  0  0  0  0  0  0  0  0
    6.4681   -1.4322   -2.0905 C   0  0  0  0  0  0  0  0  0  0  0  0
    5.3278   -0.1700   -3.3949 H   0  0  0  0  0  0  0  0  0  0  0  0
    6.9916   -1.0223   -1.2203 H   0  0  0  0  0  0  0  0  0  0  0  0
    6.1148   -2.4397   -1.8469 H   0  0  0  0  0  0  0  0  0  0  0  0
    7.1802   -1.5068   -2.9182 H   0  0  0  0  0  0  0  0  0  0  0  0
  1  2  2  0  0  0  0
  1  3  1  0  0  0  0
  1  7  1  0  0  0  0
  3  4  1  0  0  0  0
  3  5  1  0  0  0  0
  3  6  1  0  0  0  0
  7  8  1  0  0  0  0
  7 12  1  0  0  0  0
  8  9  1  0  0  0  0
  8 11  1  0  0  0  0
  8 13  1  0  0  0  0
  9 10  2  0  0  0  0
  9 17  1  0  0  0  0
 11 14  1  0  0  0  0
 11 15  1  0  0  0  0
 11 16  1  0  0  0  0
 17 18  1  0  0  0  0
 17 23  1  0  0  0  0
 18 19  1  0  0  0  0
 18 21  1  0  0  0  0
 18 24  1  0  0  0  0
 19 20  2  0  0  0  0
 19 28  1  0  0  0  0
 21 22  1  0  0  0  0
 21 25  1  0  0  0  0
 21 26  1  0  0  0  0
 22 27  1  0  0  0  0
 28 29  1  0  0  0  0
 28 33  1  0  0  0  0
 29 30  1  0  0  0  0
 29 32  1  0  0  0  0
 29 34  1  0  0  0  0
 30 31  2  0  0  0  0
 30 38  1  0  0  0  0
 32 35  1  0  0  0  0
 32 36  1  0  0  0  0
 32 37  1  0  0  0  0
 38 39  1  0  0  0  0
 38 40  1  0  0  0  0
 39 41  1  0  0  0  0
 39 42  1  0  0  0  0
 39 43  1  0  0  0  0
M  END
$$$$

  -OEChem-05262216003D

 43 42  0     1  0  0  0  0  0999 V2000
   -3.4549   -4.8011    1.2903 C   0  0  0  0  0  0  0  0  0  0  0  0
   -2.7111   -5.2559    2.1455 O   0  0  0  0  0  0  0  0  0  0  0  0
   -4.9298   -5.1565    1.2956 C   0  0  0  0  0  0  0  0  0  0  0  0
   -5.1992   -5.6444    0.3559 H   0  0  0  0  0  0  0  0  0  0  0  0
   -5.1500   -5.8378    2.1221 H   0  0  0  0  0  0  0  0  0  0  0  0
   -5.5318   -4.2522    1.4140 H   0  0  0  0  0  0  0  0  0  0  0  0
   -2.9564   -3.9575    0.3208 N   0  0  0  0  0  0  0  0  0  0  0  0
   -1.5914   -3.4170    0.3169 C   0  0  2  0  0  0  0  0  0  0  0  0
   -1.5460   -1.9971   -0.2853 C   0  0  0  0  0  0  0  0  0  0  0  0
   -2.4957   -1.5820   -0.9393 O   0  0  0  0  0  0  0  0  0  0  0  0
   -0.6963   -4.3697   -0.4815 C   0  0  0  0  0  0  0  0  0  0  0  0
   -3.6301   -3.4963   -0.2905 H   0  0  0  0  0  0  0  0  0  0  0  0
   -1.2201   -3.3468    1.3450 H   0  0  0  0  0  0  0  0  0  0  0  0
   -1.0509   -4.4518   -1.5142 H   0  0  0  0  0  0  0  0  0  0  0  0
    0.3365   -4.0083   -0.4952 H   0  0  0  0  0  0  0  0  0  0  0  0
   -0.7062   -5.3668   -0.0296 H   0  0  0  0  0  0  0  0  0  0  0  0
   -0.4340   -1.1973   -0.0878 N   0  0  0  0  0  0  0  0  0  0  0  0
   -0.3819    0.2381   -0.4299 C   0  0  2  0  0  0  0  0  0  0  0  0
    0.7189    0.5367   -1.4644 C   0  0  0  0  0  0  0  0  0  0  0  0
    0.4542    1.1053   -2.5138 O   0  0  0  0  0  0  0  0  0  0  0  0
   -0.1239    1.0526    0.8453 C   0  0  0  0  0  0  0  0  0  0  0  0
   -1.5348    0.8948    2.0150 S   0  0  0  0  0  0  0  0  0  0  0  0
    0.2646   -1.5667    0.5496 H   0  0  0  0  0  0  0  0  0  0  0  0
   -1.3314    0.5721   -0.8645 H   0  0  0  0  0  0  0  0  0  0  0  0
    0.7974    0.7178    1.3323 H   0  0  0  0  0  0  0  0  0  0  0  0
    0.0011    2.1081    0.5801 H   0  0  0  0  0  0  0  0  0  0  0  0
   -1.1628    1.7433    2.9979 H   0  0  0  0  0  0  0  0  0  0  0  0
    2.0394    0.2474   -1.1737 N   0  0  0  0  0  0  0  0  0  0  0  0
    3.1248    0.2842   -2.1609 C   0  0  2  0  0  0  0  0  0  0  0  0
    4.0739   -0.9175   -1.9708 C   0  0  0  0  0  0  0  0  0  0  0  0
    3.9751   -1.6204   -0.9689 O   0  0  0  0  0  0  0  0  0  0  0  0
    3.8767    1.6084   -2.0023 C   0  0  0  0  0  0  0  0  0  0  0  0
    2.2019   -0.3581   -0.3711 H   0  0  0  0  0  0  0  0  0  0  0  0
    2.7166    0.2203   -3.1754 H   0  0  0  0  0  0  0  0  0  0  0  0
    4.3105    1.6857   -1.0003 H   0  0  0  0  0  0  0  0  0  0  0  0
    4.6832    1.6847   -2.7378 H   0  0  0  0  0  0  0  0  0  0  0  0
    3.1933    2.4502   -2.1527 H   0  0  0  0  0  0  0  0  0  0  0  0
    5.0226   -1.2245   -2.9283 N   0  0  0  0  0  0  0  0  0  0  0  0
    5.9275   -2.3627   -2.8229 C   0  0  0  0  0  0  0  0  0  0  0  0
    5.0591   -0.6427   -3.7606 H   0  0  0  0  0  0  0  0  0  0  0  0
    6.5441   -2.2797   -1.9215 H   0  0  0  0  0  0  0  0  0  0  0  0
    5.3625   -3.2998   -2.7787 H   0  0  0  0  0  0  0  0  0  0  0  0
    6.5908   -2.4005   -3.6926 H   0  0  0  0  0  0  0  0  0  0  0  0
  1  2  2  0  0  0  0
  1  3  1  0  0  0  0
  1  7  1  0  0  0  0
  3  4  1  0  0  0  0
  3  5  1  0  0  0  0
  3  6  1  0  0  0  0
  7  8  1  0  0  0  0
  7 12  1  0  0  0  0
  8  9  1  0  0  0  0
  8 11  1  0  0  0  0
  8 13  1  0  0  0  0
  9 10  2  0  0  0  0
  9 17  1  0  0  0  0
 11 14  1  0  0  0  0
 11 15  1  0  0  0  0
 11 16  1  0  0  0  0
 17 18  1  0  0  0  0
 17 23  1  0  0  0  0
 18 19  1  0  0  0  0
 18 21  1  0  0  0  0
 18 24  1  0  0  0  0
 19 20  2  0  0  0  0
 19 28  1  0  0  0  0
 21 22  1  0  0  0  0
 21 25  1  0  0  0  0
 21 26  1  0  0  0  0
 22 27  1  0  0  0  0
 28 29  1  0  0  0  0
 28 33  1  0  0  0  0
 29 30  1  0  0  0  0
 29 32  1  0  0  0  0
 29 34  1  0  0  0  0
 30 31  2  0  0  0  0
 30 38  1  0  0  0  0
 32 35  1  0  0  0  0
 32 36  1  0  0  0  0
 32 37  1  0  0  0  0
 38 39  1  0  0  0  0
 38 40  1  0  0  0  0
 39 41  1  0  0  0  0
 39 42  1  0  0  0  0
 39 43  1  0  0  0  0
M  END
$$$$

  -OEChem-05262216003D

 43 42  0     1  0  0  0  0  0999 V2000
   -3.5459   -4.7724    1.3355 C   0  0  0  0  0  0  0  0  0  0  0  0
   -2.8300   -5.2127    2.2215 O   0  0  0  0  0  0  0  0  0  0  0  0
   -5.0240   -5.1127    1.3093 C   0  0  0  0  0  0  0  0  0  0  0  0
   -5.2780   -5.6013    0.3655 H   0  0  0  0  0  0  0  0  0  0  0  0
   -5.2699   -5.7882    2.1334 H   0  0  0  0  0  0  0  0  0  0  0  0
   -5.6181   -4.2012    1.4112 H   0  0  0  0  0  0  0  0  0  0  0  0
   -3.0134   -3.9552    0.3616 N   0  0  0  0  0  0  0  0  0  0  0  0
   -1.6418   -3.4321    0.3803 C   0  0  2  0  0  0  0  0  0  0  0  0
   -1.5578   -2.0374   -0.2736 C   0  0  0  0  0  0  0  0  0  0  0  0
   -2.4750   -1.6367   -0.9807 O   0  0  0  0  0  0  0  0  0  0  0  0
   -0.7333   -4.4240   -0.3528 C   0  0  0  0  0  0  0  0  0  0  0  0
   -3.6641   -3.5087   -0.2846 H   0  0  0  0  0  0  0  0  0  0  0  0
   -1.3022   -3.3276    1.4164 H   0  0  0  0  0  0  0  0  0  0  0  0
   -1.0537   -4.5391   -1.3932 H   0  0  0  0  0  0  0  0  0  0  0  0
    0.3042   -4.0767   -0.3444 H   0  0  0  0  0  0  0  0  0  0  0  0
   -0.7720   -5.4035    0.1341 H   0  0  0  0  0  0  0  0  0  0  0  0
   -0.4350   -1.2517   -0.0830 N   0  0  0  0  0  0  0  0  0  0  0  0
   -0.3706    0.1788   -0.4453 C   0  0  2  0  0  0  0  0  0  0  0  0
    0.7321    0.4531   -1.4832 C   0  0  0  0  0  0  0  0  0  0  0  0
    0.5636    1.2797   -2.3686 O   0  0  0  0  0  0  0  0  0  0  0  0
   -0.0860    1.0066    0.8143 C   0  0  0  0  0  0  0  0  0  0  0  0
   -1.4833    0.8804    2.0041 S   0  0  0  0  0  0  0  0  0  0  0  0
    0.2102   -1.5902    0.6242 H   0  0  0  0  0  0  0  0  0  0  0  0
   -1.3185    0.5197   -0.8776 H   0  0  0  0  0  0  0  0  0  0  0  0
    0.8395    0.6692    1.2914 H   0  0  0  0  0  0  0  0  0  0  0  0
    0.0467    2.0571    0.5322 H   0  0  0  0  0  0  0  0  0  0  0  0
   -1.1081    1.7710    2.9485 H   0  0  0  0  0  0  0  0  0  0  0  0
    1.9812   -0.1169   -1.3251 N   0  0  0  0  0  0  0  0  0  0  0  0
    3.0376   -0.0735   -2.3420 C   0  0  2  0  0  0  0  0  0  0  0  0
    3.7731   -1.4286   -2.4173 C   0  0  0  0  0  0  0  0  0  0  0  0
    3.5800   -2.2762   -1.5503 O   0  0  0  0  0  0  0  0  0  0  0  0
    4.0052    1.0573   -1.9831 C   0  0  0  0  0  0  0  0  0  0  0  0
    2.0304   -0.9062   -0.6831 H   0  0  0  0  0  0  0  0  0  0  0  0
    2.6045    0.1213   -3.3291 H   0  0  0  0  0  0  0  0  0  0  0  0
    4.4668    0.8720   -1.0077 H   0  0  0  0  0  0  0  0  0  0  0  0
    4.7968    1.1393   -2.7340 H   0  0  0  0  0  0  0  0  0  0  0  0
    3.4709    2.0121   -1.9404 H   0  0  0  0  0  0  0  0  0  0  0  0
    4.6356   -1.7072   -3.4610 N   0  0  0  0  0  0  0  0  0  0  0  0
    5.3400   -2.9763   -3.6008 C   0  0  0  0  0  0  0  0  0  0  0  0
    4.7479   -0.9999   -4.1816 H   0  0  0  0  0  0  0  0  0  0  0  0
    5.9621   -3.1693   -2.7203 H   0  0  0  0  0  0  0  0  0  0  0  0
    4.6276   -3.8000   -3.7164 H   0  0  0  0  0  0  0  0  0  0  0  0
    5.9886   -2.9534   -4.4819 H   0  0  0  0  0  0  0  0  0  0  0  0
  1  2  2  0  0  0  0
  1  3  1  0  0  0  0
  1  7  1  0  0  0  0
  3  4  1  0  0  0  0
  3  5  1  0  0  0  0
  3  6  1  0  0  0  0
  7  8  1  0  0  0  0
  7 12  1  0  0  0  0
  8  9  1  0  0  0  0
  8 11  1  0  0  0  0
  8 13  1  0  0  0  0
  9 10  2  0  0  0  0
  9 17  1  0  0  0  0
 11 14  1  0  0  0  0
 11 15  1  0  0  0  0
 11 16  1  0  0  0  0
 17 18  1  0  0  0  0
 17 23  1  0  0  0  0
 18 19  1  0  0  0  0
 18 21  1  0  0  0  0
 18 24  1  0  0  0  0
 19 20  2  0  0  0  0
 19 28  1  0  0  0  0
 21 22  1  0  0  0  0
 21 25  1  0  0  0  0
 21 26  1  0  0  0  0
 22 27  1  0  0  0  0
 28 29  1  0  0  0  0
 28 33  1  0  0  0  0
 29 30  1  0  0  0  0
 29 32  1  0  0  0  0
 29 34  1  0  0  0  0
 30 31  2  0  0  0  0
 30 38  1  0  0  0  0
 32 35  1  0  0  0  0
 32 36  1  0  0  0  0
 32 37  1  0  0  0  0
 38 39  1  0  0  0  0
 38 40  1  0  0  0  0
 39 41  1  0  0  0  0
 39 42  1  0  0  0  0
 39 43  1  0  0  0  0
M  END
$$$$

  -OEChem-05262216003D

 43 42  0     1  0  0  0  0  0999 V2000
   -3.5934   -4.7673    1.3789 C   0  0  0  0  0  0  0  0  0  0  0  0
   -2.8764   -5.2138    2.2608 O   0  0  0  0  0  0  0  0  0  0  0  0
   -5.0696   -5.1153    1.3463 C   0  0  0  0  0  0  0  0  0  0  0  0
   -5.3180   -5.5985    0.3982 H   0  0  0  0  0  0  0  0  0  0  0  0
   -5.3149   -5.7981    2.1645 H   0  0  0  0  0  0  0  0  0  0  0  0
   -5.6689   -4.2078    1.4526 H   0  0  0  0  0  0  0  0  0  0  0  0
   -3.0630   -3.9407    0.4117 N   0  0  0  0  0  0  0  0  0  0  0  0
   -1.6861   -3.4316    0.4210 C   0  0  2  0  0  0  0  0  0  0  0  0
   -1.5910   -2.0387   -0.2352 C   0  0  0  0  0  0  0  0  0  0  0  0
   -2.5072   -1.6280   -0.9379 O   0  0  0  0  0  0  0  0  0  0  0  0
   -0.7933   -4.4329   -0.3202 C   0  0  0  0  0  0  0  0  0  0  0  0
   -3.7135   -3.4921   -0.2332 H   0  0  0  0  0  0  0  0  0  0  0  0
   -1.3383   -3.3311    1.4549 H   0  0  0  0  0  0  0  0  0  0  0  0
   -1.1225   -4.5427   -1.3585 H   0  0  0  0  0  0  0  0  0  0  0  0
    0.2485   -4.0976   -0.3199 H   0  0  0  0  0  0  0  0  0  0  0  0
   -0.8390   -5.4132    0.1649 H   0  0  0  0  0  0  0  0  0  0  0  0
   -0.4513   -1.2726   -0.0677 N   0  0  0  0  0  0  0  0  0  0  0  0
   -0.3686    0.1545   -0.4419 C   0  0  2  0  0  0  0  0  0  0  0  0
    0.7213    0.4031   -1.4999 C   0  0  0  0  0  0  0  0  0  0  0  0
    0.6847    1.3974   -2.2112 O   0  0  0  0  0  0  0  0  0  0  0  0
   -0.0410    0.9798    0.8090 C   0  0  0  0  0  0  0  0  0  0  0  0
   -1.4156    0.8822    2.0283 S   0  0  0  0  0  0  0  0  0  0  0  0
    0.1864   -1.6070    0.6489 H   0  0  0  0  0  0  0  0  0  0  0  0
   -1.3166    0.5121   -0.8592 H   0  0  0  0  0  0  0  0  0  0  0  0
    0.8899    0.6264    1.2647 H   0  0  0  0  0  0  0  0  0  0  0  0
    0.1043    2.0274    0.5220 H   0  0  0  0  0  0  0  0  0  0  0  0
   -1.0021    1.7637    2.9652 H   0  0  0  0  0  0  0  0  0  0  0  0
    1.8372   -0.4104   -1.5370 N   0  0  0  0  0  0  0  0  0  0  0  0
    2.8477   -0.3786   -2.5993 C   0  0  2  0  0  0  0  0  0  0  0  0
    3.3590   -1.8044   -2.8990 C   0  0  0  0  0  0  0  0  0  0  0  0
    3.0648   -2.7290   -2.1464 O   0  0  0  0  0  0  0  0  0  0  0  0
    3.9944    0.5322   -2.1519 C   0  0  0  0  0  0  0  0  0  0  0  0
    1.7469   -1.3014   -1.0501 H   0  0  0  0  0  0  0  0  0  0  0  0
    2.4085    0.0157   -3.5222 H   0  0  0  0  0  0  0  0  0  0  0  0
    4.4557    0.1455   -1.2375 H   0  0  0  0  0  0  0  0  0  0  0  0
    4.7609    0.5968   -2.9297 H   0  0  0  0  0  0  0  0  0  0  0  0
    3.6199    1.5416   -1.9538 H   0  0  0  0  0  0  0  0  0  0  0  0
    4.1321   -2.0587   -4.0165 N   0  0  0  0  0  0  0  0  0  0  0  0
    4.6255   -3.3866   -4.3618 C   0  0  0  0  0  0  0  0  0  0  0  0
    4.3355   -1.2809   -4.6378 H   0  0  0  0  0  0  0  0  0  0  0  0
    5.2580   -3.7813   -3.5595 H   0  0  0  0  0  0  0  0  0  0  0  0
    3.7901   -4.0762   -4.5237 H   0  0  0  0  0  0  0  0  0  0  0  0
    5.2204   -3.3423   -5.2791 H   0  0  0  0  0  0  0  0  0  0  0  0
  1  2  2  0  0  0  0
  1  3  1  0  0  0  0
  1  7  1  0  0  0  0
  3  4  1  0  0  0  0
  3  5  1  0  0  0  0
  3  6  1  0  0  0  0
  7  8  1  0  0  0  0
  7 12  1  0  0  0  0
  8  9  1  0  0  0  0
  8 11  1  0  0  0  0
  8 13  1  0  0  0  0
  9 10  2  0  0  0  0
  9 17  1  0  0  0  0
 11 14  1  0  0  0  0
 11 15  1  0  0  0  0
 11 16  1  0  0  0  0
 17 18  1  0  0  0  0
 17 23  1  0  0  0  0
 18 19  1  0  0  0  0
 18 21  1  0  0  0  0
 18 24  1  0  0  0  0
 19 20  2  0  0  0  0
 19 28  1  0  0  0  0
 21 22  1  0  0  0  0
 21 25  1  0  0  0  0
 21 26  1  0  0  0  0
 22 27  1  0  0  0  0
 28 29  1  0  0  0  0
 28 33  1  0  0  0  0
 29 30  1  0  0  0  0
 29 32  1  0  0  0  0
 29 34  1  0  0  0  0
 30 31  2  0  0  0  0
 30 38  1  0  0  0  0
 32 35  1  0  0  0  0
 32 36  1  0  0  0  0
 32 37  1  0  0  0  0
 38 39  1  0  0  0  0
 38 40  1  0  0  0  0
 39 41  1  0  0  0  0
 39 42  1  0  0  0  0
 39 43  1  0  0  0  0
M  END
$$$$

  -OEChem-05262216003D

 43 42  0     1  0  0  0  0  0999 V2000
   -3.6363   -4.7529    1.4417 C   0  0  0  0  0  0  0  0  0  0  0  0
   -2.9232   -5.1886    2.3322 O   0  0  0  0  0  0  0  0  0  0  0  0
   -5.1153   -5.0894    1.4160 C   0  0  0  0  0  0  0  0  0  0  0  0
   -5.3697   -5.5825    0.4746 H   0  0  0  0  0  0  0  0  0  0  0  0
   -5.3637   -5.7601    2.2435 H   0  0  0  0  0  0  0  0  0  0  0  0
   -5.7073   -4.1759    1.5127 H   0  0  0  0  0  0  0  0  0  0  0  0
   -3.0989   -3.9476    0.4605 N   0  0  0  0  0  0  0  0  0  0  0  0
   -1.7199   -3.4436    0.4663 C   0  0  2  0  0  0  0  0  0  0  0  0
   -1.6170   -2.0589   -0.2063 C   0  0  0  0  0  0  0  0  0  0  0  0
   -2.5351   -1.6450   -0.9044 O   0  0  0  0  0  0  0  0  0  0  0  0
   -0.8296   -4.4594   -0.2580 C   0  0  0  0  0  0  0  0  0  0  0  0
   -3.7459   -3.5062   -0.1926 H   0  0  0  0  0  0  0  0  0  0  0  0
   -1.3743   -3.3304    1.4995 H   0  0  0  0  0  0  0  0  0  0  0  0
   -1.1593   -4.5869   -1.2942 H   0  0  0  0  0  0  0  0  0  0  0  0
    0.2129   -4.1268   -0.2641 H   0  0  0  0  0  0  0  0  0  0  0  0
   -0.8772   -5.4306    0.2447 H   0  0  0  0  0  0  0  0  0  0  0  0
   -0.4662   -1.3038   -0.0647 N   0  0  0  0  0  0  0  0  0  0  0  0
   -0.3745    0.1206   -0.4503 C   0  0  2  0  0  0  0  0  0  0  0  0
    0.6991    0.3542   -1.5307 C   0  0  0  0  0  0  0  0  0  0  0  0
    0.8148    1.4463   -2.0705 O   0  0  0  0  0  0  0  0  0  0  0  0
   -0.0190    0.9442    0.7952 C   0  0  0  0  0  0  0  0  0  0  0  0
   -1.3760    0.8644    2.0355 S   0  0  0  0  0  0  0  0  0  0  0  0
    0.1823   -1.6378    0.6426 H   0  0  0  0  0  0  0  0  0  0  0  0
   -1.3256    0.4862   -0.8529 H   0  0  0  0  0  0  0  0  0  0  0  0
    0.9145    0.5808    1.2367 H   0  0  0  0  0  0  0  0  0  0  0  0
    0.1339    1.9904    0.5066 H   0  0  0  0  0  0  0  0  0  0  0  0
   -0.9315    1.7343    2.9690 H   0  0  0  0  0  0  0  0  0  0  0  0
    1.6350   -0.6276   -1.7923 N   0  0  0  0  0  0  0  0  0  0  0  0
    2.6052   -0.5832   -2.8909 C   0  0  2  0  0  0  0  0  0  0  0  0
    2.8755   -2.0038   -3.4328 C   0  0  0  0  0  0  0  0  0  0  0  0
    2.4921   -2.9828   -2.7990 O   0  0  0  0  0  0  0  0  0  0  0  0
    3.8964    0.0578   -2.3732 C   0  0  0  0  0  0  0  0  0  0  0  0
    1.4035   -1.5584   -1.4456 H   0  0  0  0  0  0  0  0  0  0  0  0
    2.2064    0.0171   -3.7159 H   0  0  0  0  0  0  0  0  0  0  0  0
    4.3159   -0.5348   -1.5539 H   0  0  0  0  0  0  0  0  0  0  0  0
    4.6405    0.1247   -3.1724 H   0  0  0  0  0  0  0  0  0  0  0  0
    3.6959    1.0690   -2.0048 H   0  0  0  0  0  0  0  0  0  0  0  0
    3.5355   -2.1892   -4.6334 N   0  0  0  0  0  0  0  0  0  0  0  0
    3.8075   -3.5047   -5.2007 C   0  0  0  0  0  0  0  0  0  0  0  0
    3.8125   -1.3614   -5.1532 H   0  0  0  0  0  0  0  0  0  0  0  0
    4.4097   -4.1034   -4.5091 H   0  0  0  0  0  0  0  0  0  0  0  0
    2.8715   -4.0359   -5.4032 H   0  0  0  0  0  0  0  0  0  0  0  0
    4.3594   -3.4057   -6.1404 H   0  0  0  0  0  0  0  0  0  0  0  0
  1  2  2  0  0  0  0
  1  3  1  0  0  0  0
  1  7  1  0  0  0  0
  3  4  1  0  0  0  0
  3  5  1  0  0  0  0
  3  6  1  0  0  0  0
  7  8  1  0  0  0  0
  7 12  1  0  0  0  0
  8  9  1  0  0  0  0
  8 11  1  0  0  0  0
  8 13  1  0  0  0  0
  9 10  2  0  0  0  0
  9 17  1  0  0  0  0
 11 14  1  0  0  0  0
 11 15  1  0  0  0  0
 11 16  1  0  0  0  0
 17 18  1  0  0  0  0
 17 23  1  0  0  0  0
 18 19  1  0  0  0  0
 18 21  1  0  0  0  0
 18 24  1  0  0  0  0
 19 20  2  0  0  0  0
 19 28  1  0  0  0  0
 21 22  1  0  0  0  0
 21 25  1  0  0  0  0
 21 26  1  0  0  0  0
 22 27  1  0  0  0  0
 28 29  1  0  0  0  0
 28 33  1  0  0  0  0
 29 30  1  0  0  0  0
 29 32  1  0  0  0  0
 29 34  1  0  0  0  0
 30 31  2  0  0  0  0
 30 38  1  0  0  0  0
 32 35  1  0  0  0  0
 32 36  1  0  0  0  0
 32 37  1  0  0  0  0
 38 39  1  0  0  0  0
 38 40  1  0  0  0  0
 39 41  1  0  0  0  0
 39 42  1  0  0  0  0
 39 43  1  0  0  0  0
M  END
$$$$

  -OEChem-05262216003D

 43 42  0     1  0  0  0  0  0999 V2000
   -3.6308   -4.7607    1.4848 C   0  0  0  0  0  0  0  0  0  0  0  0
   -2.8945   -5.2137    2.3473 O   0  0  0  0  0  0  0  0  0  0  0  0
   -5.1127   -5.0839    1.5008 C   0  0  0  0  0  0  0  0  0  0  0  0
   -5.4013   -5.5561    0.5587 H   0  0  0  0  0  0  0  0  0  0  0  0
   -5.3406   -5.7685    2.3224 H   0  0  0  0  0  0  0  0  0  0  0  0
   -5.6928   -4.1677    1.6342 H   0  0  0  0  0  0  0  0  0  0  0  0
   -3.1166   -3.9480    0.4971 N   0  0  0  0  0  0  0  0  0  0  0  0
   -1.7350   -3.4520    0.4680 C   0  0  2  0  0  0  0  0  0  0  0  0
   -1.6452   -2.0524   -0.1753 C   0  0  0  0  0  0  0  0  0  0  0  0
   -2.5829   -1.6158   -0.8325 O   0  0  0  0  0  0  0  0  0  0  0  0
   -0.8778   -4.4558   -0.3111 C   0  0  0  0  0  0  0  0  0  0  0  0
   -3.7797   -3.4935   -0.1303 H   0  0  0  0  0  0  0  0  0  0  0  0
   -1.3528   -3.3654    1.4908 H   0  0  0  0  0  0  0  0  0  0  0  0
   -1.2431   -4.5546   -1.3386 H   0  0  0  0  0  0  0  0  0  0  0  0
    0.1667   -4.1311   -0.3439 H   0  0  0  0  0  0  0  0  0  0  0  0
   -0.9168   -5.4391    0.1685 H   0  0  0  0  0  0  0  0  0  0  0  0
   -0.4820   -1.3115   -0.0648 N   0  0  0  0  0  0  0  0  0  0  0  0
   -0.3844    0.1148   -0.4408 C   0  0  2  0  0  0  0  0  0  0  0  0
    0.6595    0.3403   -1.5542 C   0  0  0  0  0  0  0  0  0  0  0  0
    0.9420    1.4690   -1.9339 O   0  0  0  0  0  0  0  0  0  0  0  0
    0.0119    0.9150    0.8092 C   0  0  0  0  0  0  0  0  0  0  0  0
   -1.3144    0.8335    2.0825 S   0  0  0  0  0  0  0  0  0  0  0  0
    0.2021   -1.6696    0.5956 H   0  0  0  0  0  0  0  0  0  0  0  0
   -1.3420    0.4961   -0.8123 H   0  0  0  0  0  0  0  0  0  0  0  0
    0.9517    0.5338    1.2211 H   0  0  0  0  0  0  0  0  0  0  0  0
    0.1697    1.9641    0.5356 H   0  0  0  0  0  0  0  0  0  0  0  0
   -0.8298    1.6751    3.0223 H   0  0  0  0  0  0  0  0  0  0  0  0
    1.3607   -0.7342   -2.0662 N   0  0  0  0  0  0  0  0  0  0  0  0
    2.2835   -0.6774   -3.2047 C   0  0  2  0  0  0  0  0  0  0  0  0
    2.3288   -2.0366   -3.9367 C   0  0  0  0  0  0  0  0  0  0  0  0
    1.8516   -3.0343   -3.4041 O   0  0  0  0  0  0  0  0  0  0  0  0
    3.6751   -0.2943   -2.6904 C   0  0  0  0  0  0  0  0  0  0  0  0
    0.9939   -1.6569   -1.8314 H   0  0  0  0  0  0  0  0  0  0  0  0
    1.9392    0.0763   -3.9211 H   0  0  0  0  0  0  0  0  0  0  0  0
    4.0356   -1.0386   -1.9732 H   0  0  0  0  0  0  0  0  0  0  0  0
    4.3883   -0.2331   -3.5177 H   0  0  0  0  0  0  0  0  0  0  0  0
    3.6412    0.6804   -2.1936 H   0  0  0  0  0  0  0  0  0  0  0  0
    2.8930   -2.1446   -5.1946 N   0  0  0  0  0  0  0  0  0  0  0  0
    2.9493   -3.3961   -5.9412 C   0  0  0  0  0  0  0  0  0  0  0  0
    3.2513   -1.2975   -5.6260 H   0  0  0  0  0  0  0  0  0  0  0  0
    3.4859   -4.1603   -5.3690 H   0  0  0  0  0  0  0  0  0  0  0  0
    1.9392   -3.7611   -6.1548 H   0  0  0  0  0  0  0  0  0  0  0  0
    3.4715   -3.2474   -6.8913 H   0  0  0  0  0  0  0  0  0  0  0  0
  1  2  2  0  0  0  0
  1  3  1  0  0  0  0
  1  7  1  0  0  0  0
  3  4  1  0  0  0  0
  3  5  1  0  0  0  0
  3  6  1  0  0  0  0
  7  8  1  0  0  0  0
  7 12  1  0  0  0  0
  8  9  1  0  0  0  0
  8 11  1  0  0  0  0
  8 13  1  0  0  0  0
  9 10  2  0  0  0  0
  9 17  1  0  0  0  0
 11 14  1  0  0  0  0
 11 15  1  0  0  0  0
 11 16  1  0  0  0  0
 17 18  1  0  0  0  0
 17 23  1  0  0  0  0
 18 19  1  0  0  0  0
 18 21  1  0  0  0  0
 18 24  1  0  0  0  0
 19 20  2  0  0  0  0
 19 28  1  0  0  0  0
 21 22  1  0  0  0  0
 21 25  1  0  0  0  0
 21 26  1  0  0  0  0
 22 27  1  0  0  0  0
 28 29  1  0  0  0  0
 28 33  1  0  0  0  0
 29 30  1  0  0  0  0
 29 32  1  0  0  0  0
 29 34  1  0  0  0  0
 30 31  2  0  0  0  0
 30 38  1  0  0  0  0
 32 35  1  0  0  0  0
 32 36  1  0  0  0  0
 32 37  1  0  0  0  0
 38 39  1  0  0  0  0
 38 40  1  0  0  0  0
 39 41  1  0  0  0  0
 39 42  1  0  0  0  0
 39 43  1  0  0  0  0
M  END
$$$$

  -OEChem-05262216003D

 43 42  0     1  0  0  0  0  0999 V2000
   -3.5822   -4.8026    1.4775 C   0  0  0  0  0  0  0  0  0  0  0  0
   -2.8150   -5.2945    2.2904 O   0  0  0  0  0  0  0  0  0  0  0  0
   -5.0619   -5.1326    1.5295 C   0  0  0  0  0  0  0  0  0  0  0  0
   -5.3792   -5.5743    0.5817 H   0  0  0  0  0  0  0  0  0  0  0  0
   -5.2606   -5.8454    2.3346 H   0  0  0  0  0  0  0  0  0  0  0  0
   -5.6404   -4.2238    1.7128 H   0  0  0  0  0  0  0  0  0  0  0  0
   -3.1052   -3.9398    0.5139 N   0  0  0  0  0  0  0  0  0  0  0  0
   -1.7252   -3.4425    0.4570 C   0  0  2  0  0  0  0  0  0  0  0  0
   -1.6563   -2.0234   -0.1440 C   0  0  0  0  0  0  0  0  0  0  0  0
   -2.6153   -1.5657   -0.7547 O   0  0  0  0  0  0  0  0  0  0  0  0
   -0.8922   -4.4193   -0.3805 C   0  0  0  0  0  0  0  0  0  0  0  0
   -3.7901   -3.4594   -0.0693 H   0  0  0  0  0  0  0  0  0  0  0  0
   -1.3119   -3.3890    1.4700 H   0  0  0  0  0  0  0  0  0  0  0  0
   -1.2849   -4.4813   -1.4007 H   0  0  0  0  0  0  0  0  0  0  0  0
    0.1517   -4.0956   -0.4298 H   0  0  0  0  0  0  0  0  0  0  0  0
   -0.9207   -5.4189    0.0647 H   0  0  0  0  0  0  0  0  0  0  0  0
   -0.4860   -1.2903   -0.0622 N   0  0  0  0  0  0  0  0  0  0  0  0
   -0.3869    0.1394   -0.4232 C   0  0  2  0  0  0  0  0  0  0  0  0
    0.6271    0.3589   -1.5669 C   0  0  0  0  0  0  0  0  0  0  0  0
    1.0944    1.4659   -1.8019 O   0  0  0  0  0  0  0  0  0  0  0  0
    0.0406    0.9208    0.8296 C   0  0  0  0  0  0  0  0  0  0  0  0
   -1.2590    0.8320    2.1292 S   0  0  0  0  0  0  0  0  0  0  0  0
    0.2346   -1.6750    0.5422 H   0  0  0  0  0  0  0  0  0  0  0  0
   -1.3498    0.5316   -0.7674 H   0  0  0  0  0  0  0  0  0  0  0  0
    0.9863    0.5275    1.2159 H   0  0  0  0  0  0  0  0  0  0  0  0
    0.1994    1.9727    0.5686 H   0  0  0  0  0  0  0  0  0  0  0  0
   -0.7449    1.6561    3.0686 H   0  0  0  0  0  0  0  0  0  0  0  0
    1.0599   -0.7217   -2.3107 N   0  0  0  0  0  0  0  0  0  0  0  0
    1.9293   -0.6539   -3.4898 C   0  0  2  0  0  0  0  0  0  0  0  0
    1.7265   -1.8914   -4.3901 C   0  0  0  0  0  0  0  0  0  0  0  0
    1.1508   -2.8818   -3.9501 O   0  0  0  0  0  0  0  0  0  0  0  0
    3.3877   -0.5665   -3.0272 C   0  0  0  0  0  0  0  0  0  0  0  0
    0.5589   -1.5990   -2.1646 H   0  0  0  0  0  0  0  0  0  0  0  0
    1.6789    0.2352   -4.0783 H   0  0  0  0  0  0  0  0  0  0  0  0
    3.6544   -1.4493   -2.4374 H   0  0  0  0  0  0  0  0  0  0  0  0
    4.0611   -0.5051   -3.8872 H   0  0  0  0  0  0  0  0  0  0  0  0
    3.5392    0.3240   -2.4091 H   0  0  0  0  0  0  0  0  0  0  0  0
    2.1880   -1.8988   -5.6933 N   0  0  0  0  0  0  0  0  0  0  0  0
    2.0282   -3.0370   -6.5906 C   0  0  0  0  0  0  0  0  0  0  0  0
    2.6444   -1.0593   -6.0381 H   0  0  0  0  0  0  0  0  0  0  0  0
    2.5282   -3.9209   -6.1806 H   0  0  0  0  0  0  0  0  0  0  0  0
    0.9671   -3.2673   -6.7330 H   0  0  0  0  0  0  0  0  0  0  0  0
    2.4674   -2.8142   -7.5678 H   0  0  0  0  0  0  0  0  0  0  0  0
  1  2  2  0  0  0  0
  1  3  1  0  0  0  0
  1  7  1  0  0  0  0
  3  4  1  0  0  0  0
  3  5  1  0  0  0  0
  3  6  1  0  0  0  0
  7  8  1  0  0  0  0
  7 12  1  0  0  0  0
  8  9  1  0  0  0  0
  8 11  1  0  0  0  0
  8 13  1  0  0  0  0
  9 10  2  0  0  0  0
  9 17  1  0  0  0  0
 11 14  1  0  0  0  0
 11 15  1  0  0  0  0
 11 16  1  0  0  0  0
 17 18  1  0  0  0  0
 17 23  1  0  0  0  0
 18 19  1  0  0  0  0
 18 21  1  0  0  0  0
 18 24  1  0  0  0  0
 19 20  2  0  0  0  0
 19 28  1  0  0  0  0
 21 22  1  0  0  0  0
 21 25  1  0  0  0  0
 21 26  1  0  0  0  0
 22 27  1  0  0  0  0
 28 29  1  0  0  0  0
 28 33  1  0  0  0  0
 29 30  1  0  0  0  0
 29 32  1  0  0  0  0
 29 34  1  0  0  0  0
 30 31  2  0  0  0  0
 30 38  1  0  0  0  0
 32 35  1  0  0  0  0
 32 36  1  0  0  0  0
 32 37  1  0  0  0  0
 38 39  1  0  0  0  0
 38 40  1  0  0  0  0
 39 41  1  0  0  0  0
 39 42  1  0  0  0  0
 39 43  1  0  0  0  0
M  END
$$$$

  -OEChem-05262216003D

 43 42  0     1  0  0  0  0  0999 V2000
   -3.5325   -4.8311    1.4774 C   0  0  0  0  0  0  0  0  0  0  0  0
   -2.7461   -5.3394    2.2614 O   0  0  0  0  0  0  0  0  0  0  0  0
   -5.0118   -5.1571    1.5612 C   0  0  0  0  0  0  0  0  0  0  0  0
   -5.3563   -5.5745    0.6120 H   0  0  0  0  0  0  0  0  0  0  0  0
   -5.1927   -5.8884    2.3540 H   0  0  0  0  0  0  0  0  0  0  0  0
   -5.5814   -4.2506    1.7807 H   0  0  0  0  0  0  0  0  0  0  0  0
   -3.0781   -3.9506    0.5191 N   0  0  0  0  0  0  0  0  0  0  0  0
   -1.7011   -3.4481    0.4411 C   0  0  2  0  0  0  0  0  0  0  0  0
   -1.6502   -2.0177   -0.1349 C   0  0  0  0  0  0  0  0  0  0  0  0
   -2.6249   -1.5524   -0.7143 O   0  0  0  0  0  0  0  0  0  0  0  0
   -0.8858   -4.4059   -0.4347 C   0  0  0  0  0  0  0  0  0  0  0  0
   -3.7770   -3.4594   -0.0379 H   0  0  0  0  0  0  0  0  0  0  0  0
   -1.2649   -3.4125    1.4453 H   0  0  0  0  0  0  0  0  0  0  0  0
   -1.2947   -4.4374   -1.4501 H   0  0  0  0  0  0  0  0  0  0  0  0
    0.1587   -4.0849   -0.4905 H   0  0  0  0  0  0  0  0  0  0  0  0
   -0.9124   -5.4176   -0.0175 H   0  0  0  0  0  0  0  0  0  0  0  0
   -0.4803   -1.2818   -0.0762 N   0  0  0  0  0  0  0  0  0  0  0  0
   -0.3967    0.1527   -0.4183 C   0  0  2  0  0  0  0  0  0  0  0  0
    0.5853    0.3795   -1.5883 C   0  0  0  0  0  0  0  0  0  0  0  0
    1.2432    1.4077   -1.6880 O   0  0  0  0  0  0  0  0  0  0  0  0
    0.0531    0.9208    0.8361 C   0  0  0  0  0  0  0  0  0  0  0  0
   -1.2185    0.8067    2.1613 S   0  0  0  0  0  0  0  0  0  0  0  0
    0.2662   -1.6777    0.4880 H   0  0  0  0  0  0  0  0  0  0  0  0
   -1.3693    0.5456   -0.7328 H   0  0  0  0  0  0  0  0  0  0  0  0
    1.0099    0.5298    1.1967 H   0  0  0  0  0  0  0  0  0  0  0  0
    0.1990    1.9773    0.5860 H   0  0  0  0  0  0  0  0  0  0  0  0
   -0.6936    1.6319    3.0937 H   0  0  0  0  0  0  0  0  0  0  0  0
    0.7516   -0.6138   -2.5336 N   0  0  0  0  0  0  0  0  0  0  0  0
    1.5960   -0.5252   -3.7301 C   0  0  2  0  0  0  0  0  0  0  0  0
    1.1630   -1.5599   -4.7903 C   0  0  0  0  0  0  0  0  0  0  0  0
    0.4617   -2.5131   -4.4676 O   0  0  0  0  0  0  0  0  0  0  0  0
    3.0575   -0.7626   -3.3327 C   0  0  0  0  0  0  0  0  0  0  0  0
    0.1179   -1.4125   -2.4746 H   0  0  0  0  0  0  0  0  0  0  0  0
    1.4951    0.4713   -4.1727 H   0  0  0  0  0  0  0  0  0  0  0  0
    3.1722   -1.7494   -2.8729 H   0  0  0  0  0  0  0  0  0  0  0  0
    3.7081   -0.7094   -4.2108 H   0  0  0  0  0  0  0  0  0  0  0  0
    3.3876   -0.0041   -2.6163 H   0  0  0  0  0  0  0  0  0  0  0  0
    1.5577   -1.4234   -6.1085 N   0  0  0  0  0  0  0  0  0  0  0  0
    1.1622   -2.3512   -7.1614 C   0  0  0  0  0  0  0  0  0  0  0  0
    2.1198   -0.6131   -6.3521 H   0  0  0  0  0  0  0  0  0  0  0  0
    1.5219   -3.3610   -6.9374 H   0  0  0  0  0  0  0  0  0  0  0  0
    0.0716   -2.3787   -7.2586 H   0  0  0  0  0  0  0  0  0  0  0  0
    1.5865   -2.0387   -8.1205 H   0  0  0  0  0  0  0  0  0  0  0  0
  1  2  2  0  0  0  0
  1  3  1  0  0  0  0
  1  7  1  0  0  0  0
  3  4  1  0  0  0  0
  3  5  1  0  0  0  0
  3  6  1  0  0  0  0
  7  8  1  0  0  0  0
  7 12  1  0  0  0  0
  8  9  1  0  0  0  0
  8 11  1  0  0  0  0
  8 13  1  0  0  0  0
  9 10  2  0  0  0  0
  9 17  1  0  0  0  0
 11 14  1  0  0  0  0
 11 15  1  0  0  0  0
 11 16  1  0  0  0  0
 17 18  1  0  0  0  0
 17 23  1  0  0  0  0
 18 19  1  0  0  0  0
 18 21  1  0  0  0  0
 18 24  1  0  0  0  0
 19 20  2  0  0  0  0
 19 28  1  0  0  0  0
 21 22  1  0  0  0  0
 21 25  1  0  0  0  0
 21 26  1  0  0  0  0
 22 27  1  0  0  0  0
 28 29  1  0  0  0  0
 28 33  1  0  0  0  0
 29 30  1  0  0  0  0
 29 32  1  0  0  0  0
 29 34  1  0  0  0  0
 30 31  2  0  0  0  0
 30 38  1  0  0  0  0
 32 35  1  0  0  0  0
 32 36  1  0  0  0  0
 32 37  1  0  0  0  0
 38 39  1  0  0  0  0
 38 40  1  0  0  0  0
 39 41  1  0  0  0  0
 39 42  1  0  0  0  0
 39 43  1  0  0  0  0
M  END
$$$$

  -OEChem-05262216003D

 43 42  0     1  0  0  0  0  0999 V2000
   -3.4983   -4.8353    1.5005 C   0  0  0  0  0  0  0  0  0  0  0  0
   -2.7143   -5.3297    2.2956 O   0  0  0  0  0  0  0  0  0  0  0  0
   -4.9753   -5.1729    1.5754 C   0  0  0  0  0  0  0  0  0  0  0  0
   -5.3069   -5.6124    0.6315 H   0  0  0  0  0  0  0  0  0  0  0  0
   -5.1580   -5.8895    2.3810 H   0  0  0  0  0  0  0  0  0  0  0  0
   -5.5548   -4.2673    1.7709 H   0  0  0  0  0  0  0  0  0  0  0  0
   -3.0431   -3.9618    0.5366 N   0  0  0  0  0  0  0  0  0  0  0  0
   -1.6695   -3.4500    0.4633 C   0  0  2  0  0  0  0  0  0  0  0  0
   -1.6264   -2.0377   -0.1552 C   0  0  0  0  0  0  0  0  0  0  0  0
   -2.6038   -1.5934   -0.7466 O   0  0  0  0  0  0  0  0  0  0  0  0
   -0.8318   -4.4259   -0.3694 C   0  0  0  0  0  0  0  0  0  0  0  0
   -3.7418   -3.4810   -0.0300 H   0  0  0  0  0  0  0  0  0  0  0  0
   -1.2495   -3.3786    1.4724 H   0  0  0  0  0  0  0  0  0  0  0  0
   -1.2306   -4.4997   -1.3863 H   0  0  0  0  0  0  0  0  0  0  0  0
    0.2082   -4.0915   -0.4264 H   0  0  0  0  0  0  0  0  0  0  0  0
   -0.8478   -5.4221    0.0839 H   0  0  0  0  0  0  0  0  0  0  0  0
   -0.4661   -1.2874   -0.1073 N   0  0  0  0  0  0  0  0  0  0  0  0
   -0.4127    0.1489   -0.4399 C   0  0  2  0  0  0  0  0  0  0  0  0
    0.5485    0.3899   -1.6232 C   0  0  0  0  0  0  0  0  0  0  0  0
    1.3898    1.2805   -1.6034 O   0  0  0  0  0  0  0  0  0  0  0  0
    0.0308    0.9164    0.8168 C   0  0  0  0  0  0  0  0  0  0  0  0
   -1.2309    0.7668    2.1484 S   0  0  0  0  0  0  0  0  0  0  0  0
    0.2839   -1.6659    0.4639 H   0  0  0  0  0  0  0  0  0  0  0  0
   -1.3951    0.5277   -0.7411 H   0  0  0  0  0  0  0  0  0  0  0  0
    0.9972    0.5407    1.1679 H   0  0  0  0  0  0  0  0  0  0  0  0
    0.1555    1.9770    0.5722 H   0  0  0  0  0  0  0  0  0  0  0  0
   -0.7028    1.5689    3.0991 H   0  0  0  0  0  0  0  0  0  0  0  0
    0.4846   -0.4441   -2.7225 N   0  0  0  0  0  0  0  0  0  0  0  0
    1.3071   -0.3201   -3.9322 C   0  0  2  0  0  0  0  0  0  0  0  0
    0.6481   -1.0193   -5.1398 C   0  0  0  0  0  0  0  0  0  0  0  0
   -0.2252   -1.8610   -4.9631 O   0  0  0  0  0  0  0  0  0  0  0  0
    2.6857   -0.9327   -3.6604 C   0  0  0  0  0  0  0  0  0  0  0  0
   -0.2747   -1.1277   -2.7419 H   0  0  0  0  0  0  0  0  0  0  0  0
    1.4233    0.7390   -4.1844 H   0  0  0  0  0  0  0  0  0  0  0  0
    2.5867   -1.9875   -3.3849 H   0  0  0  0  0  0  0  0  0  0  0  0
    3.3193   -0.8629   -4.5495 H   0  0  0  0  0  0  0  0  0  0  0  0
    3.1856   -0.4047   -2.8425 H   0  0  0  0  0  0  0  0  0  0  0  0
    1.0369   -0.7067   -6.4296 N   0  0  0  0  0  0  0  0  0  0  0  0
    0.4422   -1.3159   -7.6133 C   0  0  0  0  0  0  0  0  0  0  0  0
    1.7450    0.0118   -6.5483 H   0  0  0  0  0  0  0  0  0  0  0  0
    0.6067   -2.3986   -7.6114 H   0  0  0  0  0  0  0  0  0  0  0  0
   -0.6355   -1.1235   -7.6427 H   0  0  0  0  0  0  0  0  0  0  0  0
    0.8919   -0.8999   -8.5201 H   0  0  0  0  0  0  0  0  0  0  0  0
  1  2  2  0  0  0  0
  1  3  1  0  0  0  0
  1  7  1  0  0  0  0
  3  4  1  0  0  0  0
  3  5  1  0  0  0  0
  3  6  1  0  0  0  0
  7  8  1  0  0  0  0
  7 12  1  0  0  0  0
  8  9  1  0  0  0  0
  8 11  1  0  0  0  0
  8 13  1  0  0  0  0
  9 10  2  0  0  0  0
  9 17  1  0  0  0  0
 11 14  1  0  0  0  0
 11 15  1  0  0  0  0
 11 16  1  0  0  0  0
 17 18  1  0  0  0  0
 17 23  1  0  0  0  0
 18 19  1  0  0  0  0
 18 21  1  0  0  0  0
 18 24  1  0  0  0  0
 19 20  2  0  0  0  0
 19 28  1  0  0  0  0
 21 22  1  0  0  0  0
 21 25  1  0  0  0  0
 21 26  1  0  0  0  0
 22 27  1  0  0  0  0
 28 29  1  0  0  0  0
 28 33  1  0  0  0  0
 29 30  1  0  0  0  0
 29 32  1  0  0  0  0
 29 34  1  0  0  0  0
 30 31  2  0  0  0  0
 30 38  1  0  0  0  0
 32 35  1  0  0  0  0
 32 36  1  0  0  0  0
 32 37  1  0  0  0  0
 38 39  1  0  0  0  0
 38 40  1  0  0  0  0
 39 41  1  0  0  0  0
 39 42  1  0  0  0  0
 39 43  1  0  0  0  0
M  END
$$$$

  -OEChem-05262216003D

 43 42  0     1  0  0  0  0  0999 V2000
   -3.4537   -4.8686    1.4973 C   0  0  0  0  0  0  0  0  0  0  0  0
   -2.6567   -5.3639    2.2788 O   0  0  0  0  0  0  0  0  0  0  0  0
   -4.9231   -5.2400    1.5679 C   0  0  0  0  0  0  0  0  0  0  0  0
   -5.2444   -5.6728    0.6173 H   0  0  0  0  0  0  0  0  0  0  0  0
   -5.0895   -5.9726    2.3627 H   0  0  0  0  0  0  0  0  0  0  0  0
   -5.5230   -4.3508    1.7767 H   0  0  0  0  0  0  0  0  0  0  0  0
   -3.0185   -3.9677    0.5490 N   0  0  0  0  0  0  0  0  0  0  0  0
   -1.6494   -3.4442    0.4668 C   0  0  2  0  0  0  0  0  0  0  0  0
   -1.6170   -2.0357   -0.1630 C   0  0  0  0  0  0  0  0  0  0  0  0
   -2.5994   -1.6014   -0.7540 O   0  0  0  0  0  0  0  0  0  0  0  0
   -0.8064   -4.4213   -0.3604 C   0  0  0  0  0  0  0  0  0  0  0  0
   -3.7261   -3.4941   -0.0125 H   0  0  0  0  0  0  0  0  0  0  0  0
   -1.2280   -3.3619    1.4747 H   0  0  0  0  0  0  0  0  0  0  0  0
   -1.2105   -4.5096   -1.3742 H   0  0  0  0  0  0  0  0  0  0  0  0
    0.2300   -4.0773   -0.4264 H   0  0  0  0  0  0  0  0  0  0  0  0
   -0.8096   -5.4132    0.1030 H   0  0  0  0  0  0  0  0  0  0  0  0
   -0.4632   -1.2750   -0.1225 N   0  0  0  0  0  0  0  0  0  0  0  0
   -0.4259    0.1621   -0.4497 C   0  0  2  0  0  0  0  0  0  0  0  0
    0.5226    0.4127   -1.6400 C   0  0  0  0  0  0  0  0  0  0  0  0
    1.5216    1.1151   -1.5344 O   0  0  0  0  0  0  0  0  0  0  0  0
    0.0228    0.9306    0.8050 C   0  0  0  0  0  0  0  0  0  0  0  0
   -1.2247    0.7664    2.1483 S   0  0  0  0  0  0  0  0  0  0  0  0
    0.2955   -1.6474    0.4410 H   0  0  0  0  0  0  0  0  0  0  0  0
   -1.4141    0.5353   -0.7389 H   0  0  0  0  0  0  0  0  0  0  0  0
    0.9946    0.5605    1.1479 H   0  0  0  0  0  0  0  0  0  0  0  0
    0.1401    1.9920    0.5599 H   0  0  0  0  0  0  0  0  0  0  0  0
   -0.6870    1.5584    3.1016 H   0  0  0  0  0  0  0  0  0  0  0  0
    0.2606   -0.1984   -2.8507 N   0  0  0  0  0  0  0  0  0  0  0  0
    1.0563   -0.0268   -4.0729 C   0  0  2  0  0  0  0  0  0  0  0  0
    0.2264   -0.3154   -5.3417 C   0  0  0  0  0  0  0  0  0  0  0  0
   -0.8447   -0.9049   -5.2580 O   0  0  0  0  0  0  0  0  0  0  0  0
    2.2646   -0.9675   -4.0066 C   0  0  0  0  0  0  0  0  0  0  0  0
   -0.6122   -0.7251   -2.9300 H   0  0  0  0  0  0  0  0  0  0  0  0
    1.4060    1.0091   -4.1374 H   0  0  0  0  0  0  0  0  0  0  0  0
    1.9332   -2.0085   -3.9349 H   0  0  0  0  0  0  0  0  0  0  0  0
    2.8855   -0.8598   -4.9011 H   0  0  0  0  0  0  0  0  0  0  0  0
    2.8812   -0.7373   -3.1320 H   0  0  0  0  0  0  0  0  0  0  0  0
    0.6818    0.0850   -6.5847 N   0  0  0  0  0  0  0  0  0  0  0  0
   -0.0615   -0.1420   -7.8183 C   0  0  0  0  0  0  0  0  0  0  0  0
    1.5641    0.5864   -6.6261 H   0  0  0  0  0  0  0  0  0  0  0  0
   -0.2462   -1.2117   -7.9642 H   0  0  0  0  0  0  0  0  0  0  0  0
   -1.0235    0.3803   -7.7862 H   0  0  0  0  0  0  0  0  0  0  0  0
    0.5059    0.2297   -8.6769 H   0  0  0  0  0  0  0  0  0  0  0  0
  1  2  2  0  0  0  0
  1  3  1  0  0  0  0
  1  7  1  0  0  0  0
  3  4  1  0  0  0  0
  3  5  1  0  0  0  0
  3  6  1  0  0  0  0
  7  8  1  0  0  0  0
  7 12  1  0  0  0  0
  8  9  1  0  0  0  0
  8 11  1  0  0  0  0
  8 13  1  0  0  0  0
  9 10  2  0  0  0  0
  9 17  1  0  0  0  0
 11 14  1  0  0  0  0
 11 15  1  0  0  0  0
 11 16  1  0  0  0  0
 17 18  1  0  0  0  0
 17 23  1  0  0  0  0
 18 19  1  0  0  0  0
 18 21  1  0  0  0  0
 18 24  1  0  0  0  0
 19 20  2  0  0  0  0
 19 28  1  0  0  0  0
 21 22  1  0  0  0  0
 21 25  1  0  0  0  0
 21 26  1  0  0  0  0
 22 27  1  0  0  0  0
 28 29  1  0  0  0  0
 28 33  1  0  0  0  0
 29 30  1  0  0  0  0
 29 32  1  0  0  0  0
 29 34  1  0  0  0  0
 30 31  2  0  0  0  0
 30 38  1  0  0  0  0
 32 35  1  0  0  0  0
 32 36  1  0  0  0  0
 32 37  1  0  0  0  0
 38 39  1  0  0  0  0
 38 40  1  0  0  0  0
 39 41  1  0  0  0  0
 39 42  1  0  0  0  0
 39 43  1  0  0  0  0
M  END
$$$$

  -OEChem-05262216003D

 43 42  0     1  0  0  0  0  0999 V2000
   -3.4194   -4.8942    1.4841 C   0  0  0  0  0  0  0  0  0  0  0  0
   -2.6146   -5.3875    2.2586 O   0  0  0  0  0  0  0  0  0  0  0  0
   -4.8855   -5.2767    1.5619 C   0  0  0  0  0  0  0  0  0  0  0  0
   -5.1966   -5.7520    0.6284 H   0  0  0  0  0  0  0  0  0  0  0  0
   -5.0489   -5.9771    2.3858 H   0  0  0  0  0  0  0  0  0  0  0  0
   -5.4959   -4.3860    1.7306 H   0  0  0  0  0  0  0  0  0  0  0  0
   -2.9961   -3.9874    0.5363 N   0  0  0  0  0  0  0  0  0  0  0  0
   -1.6318   -3.4521    0.4500 C   0  0  2  0  0  0  0  0  0  0  0  0
   -1.6145   -2.0407   -0.1734 C   0  0  0  0  0  0  0  0  0  0  0  0
   -2.6062   -1.6111   -0.7526 O   0  0  0  0  0  0  0  0  0  0  0  0
   -0.7855   -4.4192   -0.3850 C   0  0  0  0  0  0  0  0  0  0  0  0
   -3.7109   -3.5145   -0.0163 H   0  0  0  0  0  0  0  0  0  0  0  0
   -1.2060   -3.3700    1.4560 H   0  0  0  0  0  0  0  0  0  0  0  0
   -1.1946   -4.5085   -1.3966 H   0  0  0  0  0  0  0  0  0  0  0  0
    0.2478   -4.0666   -0.4561 H   0  0  0  0  0  0  0  0  0  0  0  0
   -0.7786   -5.4122    0.0759 H   0  0  0  0  0  0  0  0  0  0  0  0
   -0.4681   -1.2689   -0.1328 N   0  0  0  0  0  0  0  0  0  0  0  0
   -0.4414    0.1662   -0.4657 C   0  0  2  0  0  0  0  0  0  0  0  0
    0.5079    0.4210   -1.6527 C   0  0  0  0  0  0  0  0  0  0  0  0
    1.6222    0.9061   -1.4919 O   0  0  0  0  0  0  0  0  0  0  0  0
    0.0007    0.9477    0.7828 C   0  0  0  0  0  0  0  0  0  0  0  0
   -1.2447    0.7847    2.1279 S   0  0  0  0  0  0  0  0  0  0  0  0
    0.3046   -1.6402    0.4125 H   0  0  0  0  0  0  0  0  0  0  0  0
   -1.4329    0.5298   -0.7558 H   0  0  0  0  0  0  0  0  0  0  0  0
    0.9739    0.5850    1.1303 H   0  0  0  0  0  0  0  0  0  0  0  0
    0.1139    2.0069    0.5274 H   0  0  0  0  0  0  0  0  0  0  0  0
   -0.7099    1.5863    3.0749 H   0  0  0  0  0  0  0  0  0  0  0  0
    0.1052    0.0722   -2.9266 N   0  0  0  0  0  0  0  0  0  0  0  0
    0.8866    0.2971   -4.1495 C   0  0  2  0  0  0  0  0  0  0  0  0
   -0.0194    0.4368   -5.3914 C   0  0  0  0  0  0  0  0  0  0  0  0
   -1.1939    0.0906   -5.3411 O   0  0  0  0  0  0  0  0  0  0  0  0
    1.8593   -0.8738   -4.3269 C   0  0  0  0  0  0  0  0  0  0  0  0
   -0.8466   -0.2837   -3.0381 H   0  0  0  0  0  0  0  0  0  0  0  0
    1.4553    1.2280   -4.0532 H   0  0  0  0  0  0  0  0  0  0  0  0
    1.3091   -1.8148   -4.4284 H   0  0  0  0  0  0  0  0  0  0  0  0
    2.4746   -0.7309   -5.2203 H   0  0  0  0  0  0  0  0  0  0  0  0
    2.5245   -0.9509   -3.4610 H   0  0  0  0  0  0  0  0  0  0  0  0
    0.4805    0.9596   -6.5701 N   0  0  0  0  0  0  0  0  0  0  0  0
   -0.3295    1.1446   -7.7682 C   0  0  0  0  0  0  0  0  0  0  0  0
    1.4502    1.2614   -6.5793 H   0  0  0  0  0  0  0  0  0  0  0  0
   -0.7673    0.1926   -8.0866 H   0  0  0  0  0  0  0  0  0  0  0  0
   -1.1378    1.8581   -7.5762 H   0  0  0  0  0  0  0  0  0  0  0  0
    0.2863    1.5302   -8.5864 H   0  0  0  0  0  0  0  0  0  0  0  0
  1  2  2  0  0  0  0
  1  3  1  0  0  0  0
  1  7  1  0  0  0  0
  3  4  1  0  0  0  0
  3  5  1  0  0  0  0
  3  6  1  0  0  0  0
  7  8  1  0  0  0  0
  7 12  1  0  0  0  0
  8  9  1  0  0  0  0
  8 11  1  0  0  0  0
  8 13  1  0  0  0  0
  9 10  2  0  0  0  0
  9 17  1  0  0  0  0
 11 14  1  0  0  0  0
 11 15  1  0  0  0  0
 11 16  1  0  0  0  0
 17 18  1  0  0  0  0
 17 23  1  0  0  0  0
 18 19  1  0  0  0  0
 18 21  1  0  0  0  0
 18 24  1  0  0  0  0
 19 20  2  0  0  0  0
 19 28  1  0  0  0  0
 21 22  1  0  0  0  0
 21 25  1  0  0  0  0
 21 26  1  0  0  0  0
 22 27  1  0  0  0  0
 28 29  1  0  0  0  0
 28 33  1  0  0  0  0
 29 30  1  0  0  0  0
 29 32  1  0  0  0  0
 29 34  1  0  0  0  0
 30 31  2  0  0  0  0
 30 38  1  0  0  0  0
 32 35  1  0  0  0  0
 32 36  1  0  0  0  0
 32 37  1  0  0  0  0
 38 39  1  0  0  0  0
 38 40  1  0  0  0  0
 39 41  1  0  0  0  0
 39 42  1  0  0  0  0
 39 43  1  0  0  0  0
M  END
$$$$

  -OEChem-05262216003D

 43 42  0     1  0  0  0  0  0999 V2000
   -3.3837   -4.9311    1.4423 C   0  0  0  0  0  0  0  0  0  0  0  0
   -2.5596   -5.4451    2.1825 O   0  0  0  0  0  0  0  0  0  0  0  0
   -4.8486   -5.3107    1.5506 C   0  0  0  0  0  0  0  0  0  0  0  0
   -5.1914   -5.7478    0.6096 H   0  0  0  0  0  0  0  0  0  0  0  0
   -4.9901   -6.0419    2.3513 H   0  0  0  0  0  0  0  0  0  0  0  0
   -5.4489   -4.4250    1.7725 H   0  0  0  0  0  0  0  0  0  0  0  0
   -2.9839   -4.0023    0.5057 N   0  0  0  0  0  0  0  0  0  0  0  0
   -1.6247   -3.4558    0.4052 C   0  0  2  0  0  0  0  0  0  0  0  0
   -1.6337   -2.0220   -0.1653 C   0  0  0  0  0  0  0  0  0  0  0  0
   -2.6447   -1.5787   -0.7001 O   0  0  0  0  0  0  0  0  0  0  0  0
   -0.7920   -4.3824   -0.4876 C   0  0  0  0  0  0  0  0  0  0  0  0
   -3.7140   -3.5099   -0.0089 H   0  0  0  0  0  0  0  0  0  0  0  0
   -1.1729   -3.4090    1.4021 H   0  0  0  0  0  0  0  0  0  0  0  0
   -1.2208   -4.4292   -1.4938 H   0  0  0  0  0  0  0  0  0  0  0  0
    0.2383   -4.0221   -0.5639 H   0  0  0  0  0  0  0  0  0  0  0  0
   -0.7712   -5.3942   -0.0705 H   0  0  0  0  0  0  0  0  0  0  0  0
   -0.4910   -1.2451   -0.1279 N   0  0  0  0  0  0  0  0  0  0  0  0
   -0.4644    0.1899   -0.4553 C   0  0  2  0  0  0  0  0  0  0  0  0
    0.4811    0.4491   -1.6436 C   0  0  0  0  0  0  0  0  0  0  0  0
    1.6744    0.6670   -1.4664 O   0  0  0  0  0  0  0  0  0  0  0  0
   -0.0061    0.9675    0.7885 C   0  0  0  0  0  0  0  0  0  0  0  0
   -1.2349    0.8054    2.1486 S   0  0  0  0  0  0  0  0  0  0  0  0
    0.3091   -1.6330    0.3640 H   0  0  0  0  0  0  0  0  0  0  0  0
   -1.4582    0.5564   -0.7335 H   0  0  0  0  0  0  0  0  0  0  0  0
    0.9695    0.6006    1.1245 H   0  0  0  0  0  0  0  0  0  0  0  0
    0.1070    2.0264    0.5333 H   0  0  0  0  0  0  0  0  0  0  0  0
   -0.6626    1.5686    3.1053 H   0  0  0  0  0  0  0  0  0  0  0  0
   -0.0102    0.4076   -2.9332 N   0  0  0  0  0  0  0  0  0  0  0  0
    0.7747    0.6828   -4.1436 C   0  0  2  0  0  0  0  0  0  0  0  0
   -0.1097    1.2225   -5.2880 C   0  0  0  0  0  0  0  0  0  0  0  0
   -1.3308    1.1500   -5.2121 O   0  0  0  0  0  0  0  0  0  0  0  0
    1.4746   -0.6114   -4.5721 C   0  0  0  0  0  0  0  0  0  0  0  0
   -1.0146    0.2624   -3.0519 H   0  0  0  0  0  0  0  0  0  0  0  0
    1.5288    1.4467   -3.9261 H   0  0  0  0  0  0  0  0  0  0  0  0
    0.7371   -1.3934   -4.7792 H   0  0  0  0  0  0  0  0  0  0  0  0
    2.0712   -0.4473   -5.4742 H   0  0  0  0  0  0  0  0  0  0  0  0
    2.1420   -0.9633   -3.7793 H   0  0  0  0  0  0  0  0  0  0  0  0
    0.4640    1.7991   -6.4064 N   0  0  0  0  0  0  0  0  0  0  0  0
   -0.3132    2.3340   -7.5183 C   0  0  0  0  0  0  0  0  0  0  0  0
    1.4772    1.8622   -6.4380 H   0  0  0  0  0  0  0  0  0  0  0  0
   -0.9401    1.5520   -7.9600 H   0  0  0  0  0  0  0  0  0  0  0  0
   -0.9576    3.1512   -7.1774 H   0  0  0  0  0  0  0  0  0  0  0  0
    0.3542    2.7206   -8.2945 H   0  0  0  0  0  0  0  0  0  0  0  0
  1  2  2  0  0  0  0
  1  3  1  0  0  0  0
  1  7  1  0  0  0  0
  3  4  1  0  0  0  0
  3  5  1  0  0  0  0
  3  6  1  0  0  0  0
  7  8  1  0  0  0  0
  7 12  1  0  0  0  0
  8  9  1  0  0  0  0
  8 11  1  0  0  0  0
  8 13  1  0  0  0  0
  9 10  2  0  0  0  0
  9 17  1  0  0  0  0
 11 14  1  0  0  0  0
 11 15  1  0  0  0  0
 11 16  1  0  0  0  0
 17 18  1  0  0  0  0
 17 23  1  0  0  0  0
 18 19  1  0  0  0  0
 18 21  1  0  0  0  0
 18 24  1  0  0  0  0
 19 20  2  0  0  0  0
 19 28  1  0  0  0  0
 21 22  1  0  0  0  0
 21 25  1  0  0  0  0
 21 26  1  0  0  0  0
 22 27  1  0  0  0  0
 28 29  1  0  0  0  0
 28 33  1  0  0  0  0
 29 30  1  0  0  0  0
 29 32  1  0  0  0  0
 29 34  1  0  0  0  0
 30 31  2  0  0  0  0
 30 38  1  0  0  0  0
 32 35  1  0  0  0  0
 32 36  1  0  0  0  0
 32 37  1  0  0  0  0
 38 39  1  0  0  0  0
 38 40  1  0  0  0  0
 39 41  1  0  0  0  0
 39 42  1  0  0  0  0
 39 43  1  0  0  0  0
M  END
$$$$

  -OEChem-05262216003D

 43 42  0     1  0  0  0  0  0999 V2000
   -3.3527   -4.9766    1.4115 C   0  0  0  0  0  0  0  0  0  0  0  0
   -2.5110   -5.5014    2.1238 O   0  0  0  0  0  0  0  0  0  0  0  0
   -4.8121   -5.3696    1.5400 C   0  0  0  0  0  0  0  0  0  0  0  0
   -5.1668   -5.7990    0.5998 H   0  0  0  0  0  0  0  0  0  0  0  0
   -4.9346   -6.1109    2.3346 H   0  0  0  0  0  0  0  0  0  0  0  0
   -5.4151   -4.4911    1.7823 H   0  0  0  0  0  0  0  0  0  0  0  0
   -2.9793   -4.0209    0.4911 N   0  0  0  0  0  0  0  0  0  0  0  0
   -1.6287   -3.4543    0.3863 C   0  0  2  0  0  0  0  0  0  0  0  0
   -1.6625   -2.0069   -0.1487 C   0  0  0  0  0  0  0  0  0  0  0  0
   -2.6934   -1.5568   -0.6381 O   0  0  0  0  0  0  0  0  0  0  0  0
   -0.7970   -4.3510   -0.5369 C   0  0  0  0  0  0  0  0  0  0  0  0
   -3.7235   -3.5204    0.0054 H   0  0  0  0  0  0  0  0  0  0  0  0
   -1.1646   -3.4252    1.3782 H   0  0  0  0  0  0  0  0  0  0  0  0
   -1.2386   -4.3824   -1.5381 H   0  0  0  0  0  0  0  0  0  0  0  0
    0.2276   -3.9761   -0.6187 H   0  0  0  0  0  0  0  0  0  0  0  0
   -0.7581   -5.3710   -0.1411 H   0  0  0  0  0  0  0  0  0  0  0  0
   -0.5243   -1.2231   -0.1221 N   0  0  0  0  0  0  0  0  0  0  0  0
   -0.4944    0.2083   -0.4638 C   0  0  2  0  0  0  0  0  0  0  0  0
    0.4506    0.4598   -1.6528 C   0  0  0  0  0  0  0  0  0  0  0  0
    1.6661    0.4121   -1.5002 O   0  0  0  0  0  0  0  0  0  0  0  0
   -0.0224    1.0014    0.7639 C   0  0  0  0  0  0  0  0  0  0  0  0
   -1.2373    0.8645    2.1394 S   0  0  0  0  0  0  0  0  0  0  0  0
    0.3081   -1.6287    0.2970 H   0  0  0  0  0  0  0  0  0  0  0  0
   -1.4896    0.5725   -0.7391 H   0  0  0  0  0  0  0  0  0  0  0  0
    0.9540    0.6331    1.0964 H   0  0  0  0  0  0  0  0  0  0  0  0
    0.0942    2.0559    0.4927 H   0  0  0  0  0  0  0  0  0  0  0  0
   -0.6504    1.6346    3.0818 H   0  0  0  0  0  0  0  0  0  0  0  0
   -0.0619    0.7195   -2.9087 N   0  0  0  0  0  0  0  0  0  0  0  0
    0.7418    1.0451   -4.0939 C   0  0  2  0  0  0  0  0  0  0  0  0
   -0.0242    1.9650   -5.0692 C   0  0  0  0  0  0  0  0  0  0  0  0
   -1.2260    2.1562   -4.9216 O   0  0  0  0  0  0  0  0  0  0  0  0
    1.1351   -0.2659   -4.7830 C   0  0  0  0  0  0  0  0  0  0  0  0
   -1.0752    0.8073   -2.9986 H   0  0  0  0  0  0  0  0  0  0  0  0
    1.6479    1.5790   -3.7887 H   0  0  0  0  0  0  0  0  0  0  0  0
    0.2417   -0.8146   -5.0983 H   0  0  0  0  0  0  0  0  0  0  0  0
    1.7527   -0.0687   -5.6644 H   0  0  0  0  0  0  0  0  0  0  0  0
    1.7076   -0.8984   -4.0970 H   0  0  0  0  0  0  0  0  0  0  0  0
    0.6385    2.5976   -6.1054 N   0  0  0  0  0  0  0  0  0  0  0  0
   -0.0176    3.5076   -7.0371 C   0  0  0  0  0  0  0  0  0  0  0  0
    1.6392    2.4446   -6.1887 H   0  0  0  0  0  0  0  0  0  0  0  0
   -0.8597    3.0110   -7.5308 H   0  0  0  0  0  0  0  0  0  0  0  0
   -0.3906    4.3921   -6.5100 H   0  0  0  0  0  0  0  0  0  0  0  0
    0.6878    3.8349   -7.8069 H   0  0  0  0  0  0  0  0  0  0  0  0
  1  2  2  0  0  0  0
  1  3  1  0  0  0  0
  1  7  1  0  0  0  0
  3  4  1  0  0  0  0
  3  5  1  0  0  0  0
  3  6  1  0  0  0  0
  7  8  1  0  0  0  0
  7 12  1  0  0  0  0
  8  9  1  0  0  0  0
  8 11  1  0  0  0  0
  8 13  1  0  0  0  0
  9 10  2  0  0  0  0
  9 17  1  0  0  0  0
 11 14  1  0  0  0  0
 11 15  1  0  0  0  0
 11 16  1  0  0  0  0
 17 18  1  0  0  0  0
 17 23  1  0  0  0  0
 18 19  1  0  0  0  0
 18 21  1  0  0  0  0
 18 24  1  0  0  0  0
 19 20  2  0  0  0  0
 19 28  1  0  0  0  0
 21 22  1  0  0  0  0
 21 25  1  0  0  0  0
 21 26  1  0  0  0  0
 22 27  1  0  0  0  0
 28 29  1  0  0  0  0
 28 33  1  0  0  0  0
 29 30  1  0  0  0  0
 29 32  1  0  0  0  0
 29 34  1  0  0  0  0
 30 31  2  0  0  0  0
 30 38  1  0  0  0  0
 32 35  1  0  0  0  0
 32 36  1  0  0  0  0
 32 37  1  0  0  0  0
 38 39  1  0  0  0  0
 38 40  1  0  0  0  0
 39 41  1  0  0  0  0
 39 42  1  0  0  0  0
 39 43  1  0  0  0  0
M  END
$$$$

  -OEChem-05262216003D

 43 42  0     1  0  0  0  0  0999 V2000
   -3.3201   -5.0182    1.3182 C   0  0  0  0  0  0  0  0  0  0  0  0
   -2.4465   -5.5960    1.9458 O   0  0  0  0  0  0  0  0  0  0  0  0
   -4.7743   -5.4094    1.4991 C   0  0  0  0  0  0  0  0  0  0  0  0
   -5.1917   -5.7419    0.5456 H   0  0  0  0  0  0  0  0  0  0  0  0
   -4.8586   -6.2228    2.2252 H   0  0  0  0  0  0  0  0  0  0  0  0
   -5.3484   -4.5534    1.8616 H   0  0  0  0  0  0  0  0  0  0  0  0
   -2.9876   -4.0031    0.4472 N   0  0  0  0  0  0  0  0  0  0  0  0
   -1.6401   -3.4362    0.3104 C   0  0  2  0  0  0  0  0  0  0  0  0
   -1.6926   -1.9555   -0.1216 C   0  0  0  0  0  0  0  0  0  0  0  0
   -2.7416   -1.4744   -0.5374 O   0  0  0  0  0  0  0  0  0  0  0  0
   -0.8639   -4.2690   -0.7153 C   0  0  0  0  0  0  0  0  0  0  0  0
   -3.7519   -3.4655    0.0386 H   0  0  0  0  0  0  0  0  0  0  0  0
   -1.1237   -3.4769    1.2757 H   0  0  0  0  0  0  0  0  0  0  0  0
   -1.3583   -4.2305   -1.6914 H   0  0  0  0  0  0  0  0  0  0  0  0
    0.1570   -3.8915   -0.8254 H   0  0  0  0  0  0  0  0  0  0  0  0
   -0.8098   -5.3137   -0.3927 H   0  0  0  0  0  0  0  0  0  0  0  0
   -0.5521   -1.1759   -0.0855 N   0  0  0  0  0  0  0  0  0  0  0  0
   -0.5080    0.2591   -0.4086 C   0  0  2  0  0  0  0  0  0  0  0  0
    0.4409    0.5172   -1.5917 C   0  0  0  0  0  0  0  0  0  0  0  0
    1.6227    0.2009   -1.5085 O   0  0  0  0  0  0  0  0  0  0  0  0
   -0.0144    1.0352    0.8201 C   0  0  0  0  0  0  0  0  0  0  0  0
   -1.2150    0.8997    2.2080 S   0  0  0  0  0  0  0  0  0  0  0  0
    0.3087   -1.6200    0.2234 H   0  0  0  0  0  0  0  0  0  0  0  0
   -1.5009    0.6343   -0.6774 H   0  0  0  0  0  0  0  0  0  0  0  0
    0.9619    0.6528    1.1367 H   0  0  0  0  0  0  0  0  0  0  0  0
    0.1098    2.0912    0.5584 H   0  0  0  0  0  0  0  0  0  0  0  0
   -0.5977    1.6344    3.1592 H   0  0  0  0  0  0  0  0  0  0  0  0
   -0.0246    1.0936   -2.7569 N   0  0  0  0  0  0  0  0  0  0  0  0
    0.8100    1.4397   -3.9142 C   0  0  2  0  0  0  0  0  0  0  0  0
    0.2095    2.6131   -4.7177 C   0  0  0  0  0  0  0  0  0  0  0  0
   -0.9239    3.0110   -4.4726 O   0  0  0  0  0  0  0  0  0  0  0  0
    0.9489    0.1969   -4.7995 C   0  0  0  0  0  0  0  0  0  0  0  0
   -0.9977    1.4011   -2.7816 H   0  0  0  0  0  0  0  0  0  0  0  0
    1.8019    1.7529   -3.5713 H   0  0  0  0  0  0  0  0  0  0  0  0
   -0.0342   -0.1325   -5.1512 H   0  0  0  0  0  0  0  0  0  0  0  0
    1.5772    0.4109   -5.6691 H   0  0  0  0  0  0  0  0  0  0  0  0
    1.4096   -0.6211   -4.2367 H   0  0  0  0  0  0  0  0  0  0  0  0
    0.9454    3.2372   -5.7085 N   0  0  0  0  0  0  0  0  0  0  0  0
    0.4384    4.3545   -6.4968 C   0  0  0  0  0  0  0  0  0  0  0  0
    1.8846    2.8939   -5.8872 H   0  0  0  0  0  0  0  0  0  0  0  0
   -0.4796    4.0684   -7.0213 H   0  0  0  0  0  0  0  0  0  0  0  0
    0.2221    5.2122   -5.8510 H   0  0  0  0  0  0  0  0  0  0  0  0
    1.1799    4.6604   -7.2413 H   0  0  0  0  0  0  0  0  0  0  0  0
  1  2  2  0  0  0  0
  1  3  1  0  0  0  0
  1  7  1  0  0  0  0
  3  4  1  0  0  0  0
  3  5  1  0  0  0  0
  3  6  1  0  0  0  0
  7  8  1  0  0  0  0
  7 12  1  0  0  0  0
  8  9  1  0  0  0  0
  8 11  1  0  0  0  0
  8 13  1  0  0  0  0
  9 10  2  0  0  0  0
  9 17  1  0  0  0  0
 11 14  1  0  0  0  0
 11 15  1  0  0  0  0
 11 16  1  0  0  0  0
 17 18  1  0  0  0  0
 17 23  1  0  0  0  0
 18 19  1  0  0  0  0
 18 21  1  0  0  0  0
 18 24  1  0  0  0  0
 19 20  2  0  0  0  0
 19 28  1  0  0  0  0
 21 22  1  0  0  0  0
 21 25  1  0  0  0  0
 21 26  1  0  0  0  0
 22 27  1  0  0  0  0
 28 29  1  0  0  0  0
 28 33  1  0  0  0  0
 29 30  1  0  0  0  0
 29 32  1  0  0  0  0
 29 34  1  0  0  0  0
 30 31  2  0  0  0  0
 30 38  1  0  0  0  0
 32 35  1  0  0  0  0
 32 36  1  0  0  0  0
 32 37  1  0  0  0  0
 38 39  1  0  0  0  0
 38 40  1  0  0  0  0
 39 41  1  0  0  0  0
 39 42  1  0  0  0  0
 39 43  1  0  0  0  0
M  END
$$$$

  -OEChem-05262216003D

 43 42  0     1  0  0  0  0  0999 V2000
   -3.3058   -5.0314    1.2491 C   0  0  0  0  0  0  0  0  0  0  0  0
   -2.4196   -5.6325    1.8357 O   0  0  0  0  0  0  0  0  0  0  0  0
   -4.7585   -5.4111    1.4670 C   0  0  0  0  0  0  0  0  0  0  0  0
   -5.2270   -5.6593    0.5116 H   0  0  0  0  0  0  0  0  0  0  0  0
   -4.8273   -6.2791    2.1286 H   0  0  0  0  0  0  0  0  0  0  0  0
   -5.2967   -4.5766    1.9232 H   0  0  0  0  0  0  0  0  0  0  0  0
   -2.9903   -3.9962    0.3954 N   0  0  0  0  0  0  0  0  0  0  0  0
   -1.6456   -3.4264    0.2442 C   0  0  2  0  0  0  0  0  0  0  0  0
   -1.7081   -1.9224   -0.0943 C   0  0  0  0  0  0  0  0  0  0  0  0
   -2.7680   -1.4176   -0.4506 O   0  0  0  0  0  0  0  0  0  0  0  0
   -0.9114   -4.1956   -0.8594 C   0  0  0  0  0  0  0  0  0  0  0  0
   -3.7625   -3.4362    0.0347 H   0  0  0  0  0  0  0  0  0  0  0  0
   -1.0940   -3.5257    1.1855 H   0  0  0  0  0  0  0  0  0  0  0  0
   -1.4429   -4.0984   -1.8116 H   0  0  0  0  0  0  0  0  0  0  0  0
    0.1052   -3.8114   -0.9874 H   0  0  0  0  0  0  0  0  0  0  0  0
   -0.8474   -5.2579   -0.6028 H   0  0  0  0  0  0  0  0  0  0  0  0
   -0.5644   -1.1490   -0.0419 N   0  0  0  0  0  0  0  0  0  0  0  0
   -0.5045    0.2856   -0.3642 C   0  0  2  0  0  0  0  0  0  0  0  0
    0.4630    0.5434   -1.5321 C   0  0  0  0  0  0  0  0  0  0  0  0
    1.5646    0.0045   -1.5446 O   0  0  0  0  0  0  0  0  0  0  0  0
   -0.0238    1.0596    0.8702 C   0  0  0  0  0  0  0  0  0  0  0  0
   -1.2458    0.9355    2.2406 S   0  0  0  0  0  0  0  0  0  0  0  0
    0.3126   -1.6252    0.1543 H   0  0  0  0  0  0  0  0  0  0  0  0
   -1.4917    0.6635   -0.6499 H   0  0  0  0  0  0  0  0  0  0  0  0
    0.9430    0.6659    1.2016 H   0  0  0  0  0  0  0  0  0  0  0  0
    0.1157    2.1143    0.6109 H   0  0  0  0  0  0  0  0  0  0  0  0
   -0.6469    1.6793    3.1959 H   0  0  0  0  0  0  0  0  0  0  0  0
    0.1089    1.3885   -2.5651 N   0  0  0  0  0  0  0  0  0  0  0  0
    0.9829    1.7658   -3.6826 C   0  0  2  0  0  0  0  0  0  0  0  0
    0.5803    3.1338   -4.2751 C   0  0  0  0  0  0  0  0  0  0  0  0
   -0.4470    3.6882   -3.8995 O   0  0  0  0  0  0  0  0  0  0  0  0
    0.9038    0.6709   -4.7524 C   0  0  0  0  0  0  0  0  0  0  0  0
   -0.7805    1.8841   -2.4918 H   0  0  0  0  0  0  0  0  0  0  0  0
    2.0155    1.8532   -3.3279 H   0  0  0  0  0  0  0  0  0  0  0  0
   -0.1217    0.5720   -5.1226 H   0  0  0  0  0  0  0  0  0  0  0  0
    1.5581    0.9078   -5.5965 H   0  0  0  0  0  0  0  0  0  0  0  0
    1.2172   -0.2916   -4.3359 H   0  0  0  0  0  0  0  0  0  0  0  0
    1.3741    3.7537   -5.2226 N   0  0  0  0  0  0  0  0  0  0  0  0
    1.0413    5.0380   -5.8281 C   0  0  0  0  0  0  0  0  0  0  0  0
    2.2215    3.2757   -5.5151 H   0  0  0  0  0  0  0  0  0  0  0  0
    0.0596    4.9911   -6.3115 H   0  0  0  0  0  0  0  0  0  0  0  0
    1.0217    5.8269   -5.0688 H   0  0  0  0  0  0  0  0  0  0  0  0
    1.7856    5.3045   -6.5847 H   0  0  0  0  0  0  0  0  0  0  0  0
  1  2  2  0  0  0  0
  1  3  1  0  0  0  0
  1  7  1  0  0  0  0
  3  4  1  0  0  0  0
  3  5  1  0  0  0  0
  3  6  1  0  0  0  0
  7  8  1  0  0  0  0
  7 12  1  0  0  0  0
  8  9  1  0  0  0  0
  8 11  1  0  0  0  0
  8 13  1  0  0  0  0
  9 10  2  0  0  0  0
  9 17  1  0  0  0  0
 11 14  1  0  0  0  0
 11 15  1  0  0  0  0
 11 16  1  0  0  0  0
 17 18  1  0  0  0  0
 17 23  1  0  0  0  0
 18 19  1  0  0  0  0
 18 21  1  0  0  0  0
 18 24  1  0  0  0  0
 19 20  2  0  0  0  0
 19 28  1  0  0  0  0
 21 22  1  0  0  0  0
 21 25  1  0  0  0  0
 21 26  1  0  0  0  0
 22 27  1  0  0  0  0
 28 29  1  0  0  0  0
 28 33  1  0  0  0  0
 29 30  1  0  0  0  0
 29 32  1  0  0  0  0
 29 34  1  0  0  0  0
 30 31  2  0  0  0  0
 30 38  1  0  0  0  0
 32 35  1  0  0  0  0
 32 36  1  0  0  0  0
 32 37  1  0  0  0  0
 38 39  1  0  0  0  0
 38 40  1  0  0  0  0
 39 41  1  0  0  0  0
 39 42  1  0  0  0  0
 39 43  1  0  0  0  0
M  END
$$$$

  -OEChem-05262216003D

 43 42  0     1  0  0  0  0  0999 V2000
   -3.2786   -5.0628    1.2262 C   0  0  0  0  0  0  0  0  0  0  0  0
   -2.3809   -5.6752    1.7830 O   0  0  0  0  0  0  0  0  0  0  0  0
   -4.7253   -5.4663    1.4408 C   0  0  0  0  0  0  0  0  0  0  0  0
   -5.1830   -5.7357    0.4858 H   0  0  0  0  0  0  0  0  0  0  0  0
   -4.7813   -6.3264    2.1139 H   0  0  0  0  0  0  0  0  0  0  0  0
   -5.2823   -4.6363    1.8823 H   0  0  0  0  0  0  0  0  0  0  0  0
   -2.9824   -3.9954    0.4064 N   0  0  0  0  0  0  0  0  0  0  0  0
   -1.6459   -3.4044    0.2644 C   0  0  2  0  0  0  0  0  0  0  0  0
   -1.7295   -1.8928   -0.0360 C   0  0  0  0  0  0  0  0  0  0  0  0
   -2.8050   -1.3884   -0.3436 O   0  0  0  0  0  0  0  0  0  0  0  0
   -0.9063   -4.1385   -0.8592 C   0  0  0  0  0  0  0  0  0  0  0  0
   -3.7645   -3.4324    0.0728 H   0  0  0  0  0  0  0  0  0  0  0  0
   -1.0888   -3.5206    1.2004 H   0  0  0  0  0  0  0  0  0  0  0  0
   -1.4444   -4.0303   -1.8063 H   0  0  0  0  0  0  0  0  0  0  0  0
    0.1035   -3.7363   -0.9842 H   0  0  0  0  0  0  0  0  0  0  0  0
   -0.8241   -5.2047   -0.6251 H   0  0  0  0  0  0  0  0  0  0  0  0
   -0.5879   -1.1145   -0.0101 N   0  0  0  0  0  0  0  0  0  0  0  0
   -0.5377    0.3097   -0.3799 C   0  0  2  0  0  0  0  0  0  0  0  0
    0.4259    0.5384   -1.5583 C   0  0  0  0  0  0  0  0  0  0  0  0
    1.4209   -0.1680   -1.6845 O   0  0  0  0  0  0  0  0  0  0  0  0
   -0.0522    1.1280    0.8245 C   0  0  0  0  0  0  0  0  0  0  0  0
   -1.2605    1.0471    2.2095 S   0  0  0  0  0  0  0  0  0  0  0  0
    0.3001   -1.6014    0.0889 H   0  0  0  0  0  0  0  0  0  0  0  0
   -1.5278    0.6721   -0.6763 H   0  0  0  0  0  0  0  0  0  0  0  0
    0.9190    0.7502    1.1613 H   0  0  0  0  0  0  0  0  0  0  0  0
    0.0801    2.1741    0.5290 H   0  0  0  0  0  0  0  0  0  0  0  0
   -0.6544    1.8229    3.1345 H   0  0  0  0  0  0  0  0  0  0  0  0
    0.2084    1.5675   -2.4533 N   0  0  0  0  0  0  0  0  0  0  0  0
    1.1425    1.9674   -3.5130 C   0  0  2  0  0  0  0  0  0  0  0  0
    1.0412    3.4801   -3.8054 C   0  0  0  0  0  0  0  0  0  0  0  0
    0.1454    4.1451   -3.2962 O   0  0  0  0  0  0  0  0  0  0  0  0
    0.8312    1.1451   -4.7680 C   0  0  0  0  0  0  0  0  0  0  0  0
   -0.5637    2.2073   -2.2623 H   0  0  0  0  0  0  0  0  0  0  0  0
    2.1712    1.7650   -3.1958 H   0  0  0  0  0  0  0  0  0  0  0  0
   -0.1881    1.3453   -5.1137 H   0  0  0  0  0  0  0  0  0  0  0  0
    1.5284    1.3925   -5.5741 H   0  0  0  0  0  0  0  0  0  0  0  0
    0.9217    0.0754   -4.5528 H   0  0  0  0  0  0  0  0  0  0  0  0
    1.9708    4.1053   -4.6154 N   0  0  0  0  0  0  0  0  0  0  0  0
    1.9474    5.5342   -4.9046 C   0  0  0  0  0  0  0  0  0  0  0  0
    2.7133    3.5349   -5.0092 H   0  0  0  0  0  0  0  0  0  0  0  0
    0.9940    5.8180   -5.3626 H   0  0  0  0  0  0  0  0  0  0  0  0
    2.0824    6.1138   -3.9854 H   0  0  0  0  0  0  0  0  0  0  0  0
    2.7533    5.7925   -5.5981 H   0  0  0  0  0  0  0  0  0  0  0  0
  1  2  2  0  0  0  0
  1  3  1  0  0  0  0
  1  7  1  0  0  0  0
  3  4  1  0  0  0  0
  3  5  1  0  0  0  0
  3  6  1  0  0  0  0
  7  8  1  0  0  0  0
  7 12  1  0  0  0  0
  8  9  1  0  0  0  0
  8 11  1  0  0  0  0
  8 13  1  0  0  0  0
  9 10  2  0  0  0  0
  9 17  1  0  0  0  0
 11 14  1  0  0  0  0
 11 15  1  0  0  0  0
 11 16  1  0  0  0  0
 17 18  1  0  0  0  0
 17 23  1  0  0  0  0
 18 19  1  0  0  0  0
 18 21  1  0  0  0  0
 18 24  1  0  0  0  0
 19 20  2  0  0  0  0
 19 28  1  0  0  0  0
 21 22  1  0  0  0  0
 21 25  1  0  0  0  0
 21 26  1  0  0  0  0
 22 27  1  0  0  0  0
 28 29  1  0  0  0  0
 28 33  1  0  0  0  0
 29 30  1  0  0  0  0
 29 32  1  0  0  0  0
 29 34  1  0  0  0  0
 30 31  2  0  0  0  0
 30 38  1  0  0  0  0
 32 35  1  0  0  0  0
 32 36  1  0  0  0  0
 32 37  1  0  0  0  0
 38 39  1  0  0  0  0
 38 40  1  0  0  0  0
 39 41  1  0  0  0  0
 39 42  1  0  0  0  0
 39 43  1  0  0  0  0
M  END
$$$$

  -OEChem-05262216003D

 43 42  0     1  0  0  0  0  0999 V2000
   -3.3012   -5.0405    1.1772 C   0  0  0  0  0  0  0  0  0  0  0  0
   -2.3988   -5.6876    1.6849 O   0  0  0  0  0  0  0  0  0  0  0  0
   -4.7482   -5.4141    1.4392 C   0  0  0  0  0  0  0  0  0  0  0  0
   -5.2514   -5.6390    0.4956 H   0  0  0  0  0  0  0  0  0  0  0  0
   -4.7997   -6.2950    2.0853 H   0  0  0  0  0  0  0  0  0  0  0  0
   -5.2639   -4.5857    1.9314 H   0  0  0  0  0  0  0  0  0  0  0  0
   -3.0090   -3.9612    0.3715 N   0  0  0  0  0  0  0  0  0  0  0  0
   -1.6640   -3.4001    0.1912 C   0  0  2  0  0  0  0  0  0  0  0  0
   -1.7207   -1.8787   -0.0614 C   0  0  0  0  0  0  0  0  0  0  0  0
   -2.7873   -1.3484   -0.3565 O   0  0  0  0  0  0  0  0  0  0  0  0
   -0.9922   -4.1188   -0.9835 C   0  0  0  0  0  0  0  0  0  0  0  0
   -3.7882   -3.3733    0.0761 H   0  0  0  0  0  0  0  0  0  0  0  0
   -1.0724   -3.5582    1.0994 H   0  0  0  0  0  0  0  0  0  0  0  0
   -1.5682   -3.9688   -1.9022 H   0  0  0  0  0  0  0  0  0  0  0  0
    0.0215   -3.7382   -1.1415 H   0  0  0  0  0  0  0  0  0  0  0  0
   -0.9285   -5.1932   -0.7836 H   0  0  0  0  0  0  0  0  0  0  0  0
   -0.5698   -1.1169    0.0127 N   0  0  0  0  0  0  0  0  0  0  0  0
   -0.4954    0.3125   -0.3362 C   0  0  2  0  0  0  0  0  0  0  0  0
    0.5051    0.5602   -1.4812 C   0  0  0  0  0  0  0  0  0  0  0  0
    1.3655   -0.2742   -1.7436 O   0  0  0  0  0  0  0  0  0  0  0  0
   -0.0456    1.1010    0.9028 C   0  0  0  0  0  0  0  0  0  0  0  0
   -1.3045    1.0043    2.2411 S   0  0  0  0  0  0  0  0  0  0  0  0
    0.3097   -1.6261    0.0656 H   0  0  0  0  0  0  0  0  0  0  0  0
   -1.4715    0.6887   -0.6610 H   0  0  0  0  0  0  0  0  0  0  0  0
    0.9083    0.7045    1.2666 H   0  0  0  0  0  0  0  0  0  0  0  0
    0.1085    2.1525    0.6388 H   0  0  0  0  0  0  0  0  0  0  0  0
   -0.7185    1.7441    3.2075 H   0  0  0  0  0  0  0  0  0  0  0  0
    0.5012    1.7605   -2.1646 N   0  0  0  0  0  0  0  0  0  0  0  0
    1.4940    2.1609   -3.1698 C   0  0  2  0  0  0  0  0  0  0  0  0
    1.5967    3.6983   -3.2728 C   0  0  0  0  0  0  0  0  0  0  0  0
    0.8332    4.4078   -2.6264 O   0  0  0  0  0  0  0  0  0  0  0  0
    1.0955    1.5505   -4.5185 C   0  0  0  0  0  0  0  0  0  0  0  0
   -0.1500    2.4828   -1.8548 H   0  0  0  0  0  0  0  0  0  0  0  0
    2.4815    1.7862   -2.8802 H   0  0  0  0  0  0  0  0  0  0  0  0
    0.1122    1.9184   -4.8288 H   0  0  0  0  0  0  0  0  0  0  0  0
    1.8251    1.8096   -5.2913 H   0  0  0  0  0  0  0  0  0  0  0  0
    1.0505    0.4593   -4.4438 H   0  0  0  0  0  0  0  0  0  0  0  0
    2.5549    4.2909   -4.0746 N   0  0  0  0  0  0  0  0  0  0  0  0
    2.6894    5.7349   -4.2246 C   0  0  0  0  0  0  0  0  0  0  0  0
    3.1707    3.6811   -4.6045 H   0  0  0  0  0  0  0  0  0  0  0  0
    1.7616    6.1670   -4.6143 H   0  0  0  0  0  0  0  0  0  0  0  0
    2.9176    6.2013   -3.2605 H   0  0  0  0  0  0  0  0  0  0  0  0
    3.4993    5.9698   -4.9218 H   0  0  0  0  0  0  0  0  0  0  0  0
  1  2  2  0  0  0  0
  1  3  1  0  0  0  0
  1  7  1  0  0  0  0
  3  4  1  0  0  0  0
  3  5  1  0  0  0  0
  3  6  1  0  0  0  0
  7  8  1  0  0  0  0
  7 12  1  0  0  0  0
  8  9  1  0  0  0  0
  8 11  1  0  0  0  0
  8 13  1  0  0  0  0
  9 10  2  0  0  0  0
  9 17  1  0  0  0  0
 11 14  1  0  0  0  0
 11 15  1  0  0  0  0
 11 16  1  0  0  0  0
 17 18  1  0  0  0  0
 17 23  1  0  0  0  0
 18 19  1  0  0  0  0
 18 21  1  0  0  0  0
 18 24  1  0  0  0  0
 19 20  2  0  0  0  0
 19 28  1  0  0  0  0
 21 22  1  0  0  0  0
 21 25  1  0  0  0  0
 21 26  1  0  0  0  0
 22 27  1  0  0  0  0
 28 29  1  0  0  0  0
 28 33  1  0  0  0  0
 29 30  1  0  0  0  0
 29 32  1  0  0  0  0
 29 34  1  0  0  0  0
 30 31  2  0  0  0  0
 30 38  1  0  0  0  0
 32 35  1  0  0  0  0
 32 36  1  0  0  0  0
 32 37  1  0  0  0  0
 38 39  1  0  0  0  0
 38 40  1  0  0  0  0
 39 41  1  0  0  0  0
 39 42  1  0  0  0  0
 39 43  1  0  0  0  0
M  END
$$$$

  -OEChem-05262216003D

 43 42  0     1  0  0  0  0  0999 V2000
   -3.2003   -5.1045    1.1167 C   0  0  0  0  0  0  0  0  0  0  0  0
   -2.2612   -5.7619    1.5373 O   0  0  0  0  0  0  0  0  0  0  0  0
   -4.6244   -5.5596    1.3735 C   0  0  0  0  0  0  0  0  0  0  0  0
   -5.1429   -5.7138    0.4239 H   0  0  0  0  0  0  0  0  0  0  0  0
   -4.6247   -6.4999    1.9321 H   0  0  0  0  0  0  0  0  0  0  0  0
   -5.1588   -4.8038    1.9543 H   0  0  0  0  0  0  0  0  0  0  0  0
   -2.9700   -3.9452    0.4078 N   0  0  0  0  0  0  0  0  0  0  0  0
   -1.6468   -3.3404    0.2111 C   0  0  2  0  0  0  0  0  0  0  0  0
   -1.7386   -1.8074    0.0597 C   0  0  0  0  0  0  0  0  0  0  0  0
   -2.8273   -1.2743   -0.1314 O   0  0  0  0  0  0  0  0  0  0  0  0
   -1.0104   -3.9640   -1.0354 C   0  0  0  0  0  0  0  0  0  0  0  0
   -3.7763   -3.3648    0.1785 H   0  0  0  0  0  0  0  0  0  0  0  0
   -1.0159   -3.5450    1.0829 H   0  0  0  0  0  0  0  0  0  0  0  0
   -1.6291   -3.7705   -1.9174 H   0  0  0  0  0  0  0  0  0  0  0  0
   -0.0145   -3.5468   -1.2116 H   0  0  0  0  0  0  0  0  0  0  0  0
   -0.9115   -5.0467   -0.9099 H   0  0  0  0  0  0  0  0  0  0  0  0
   -0.5911   -1.0384    0.1050 N   0  0  0  0  0  0  0  0  0  0  0  0
   -0.5521    0.3868   -0.2680 C   0  0  2  0  0  0  0  0  0  0  0  0
    0.1123    0.5974   -1.6454 C   0  0  0  0  0  0  0  0  0  0  0  0
    0.6450   -0.3405   -2.2302 O   0  0  0  0  0  0  0  0  0  0  0  0
    0.2427    1.1388    0.8114 C   0  0  0  0  0  0  0  0  0  0  0  0
   -0.6316    1.0803    2.4294 S   0  0  0  0  0  0  0  0  0  0  0  0
    0.2839   -1.5526    0.0498 H   0  0  0  0  0  0  0  0  0  0  0  0
   -1.5612    0.8100   -0.3173 H   0  0  0  0  0  0  0  0  0  0  0  0
    1.2388    0.6958    0.9138 H   0  0  0  0  0  0  0  0  0  0  0  0
    0.3719    2.1867    0.5223 H   0  0  0  0  0  0  0  0  0  0  0  0
    0.2217    1.7722    3.2159 H   0  0  0  0  0  0  0  0  0  0  0  0
    0.2417    1.8684   -2.1730 N   0  0  0  0  0  0  0  0  0  0  0  0
    1.0560    2.2115   -3.3461 C   0  0  2  0  0  0  0  0  0  0  0  0
    1.6399    3.6359   -3.2281 C   0  0  0  0  0  0  0  0  0  0  0  0
    1.3001    4.3635   -2.3008 O   0  0  0  0  0  0  0  0  0  0  0  0
    0.1779    2.0826   -4.5945 C   0  0  0  0  0  0  0  0  0  0  0  0
   -0.0913    2.6498   -1.6082 H   0  0  0  0  0  0  0  0  0  0  0  0
    1.9026    1.5211   -3.4259 H   0  0  0  0  0  0  0  0  0  0  0  0
   -0.6647    2.7794   -4.5422 H   0  0  0  0  0  0  0  0  0  0  0  0
    0.7557    2.3003   -5.4976 H   0  0  0  0  0  0  0  0  0  0  0  0
   -0.2165    1.0646   -4.6765 H   0  0  0  0  0  0  0  0  0  0  0  0
    2.5655    4.0956   -4.1467 N   0  0  0  0  0  0  0  0  0  0  0  0
    3.1605    5.4252   -4.0872 C   0  0  0  0  0  0  0  0  0  0  0  0
    2.8326    3.4703   -4.9015 H   0  0  0  0  0  0  0  0  0  0  0  0
    2.3854    6.1959   -4.1538 H   0  0  0  0  0  0  0  0  0  0  0  0
    3.7100    5.5572   -3.1494 H   0  0  0  0  0  0  0  0  0  0  0  0
    3.8580    5.5657   -4.9184 H   0  0  0  0  0  0  0  0  0  0  0  0
  1  2  2  0  0  0  0
  1  3  1  0  0  0  0
  1  7  1  0  0  0  0
  3  4  1  0  0  0  0
  3  5  1  0  0  0  0
  3  6  1  0  0  0  0
  7  8  1  0  0  0  0
  7 12  1  0  0  0  0
  8  9  1  0  0  0  0
  8 11  1  0  0  0  0
  8 13  1  0  0  0  0
  9 10  2  0  0  0  0
  9 17  1  0  0  0  0
 11 14  1  0  0  0  0
 11 15  1  0  0  0  0
 11 16  1  0  0  0  0
 17 18  1  0  0  0  0
 17 23  1  0  0  0  0
 18 19  1  0  0  0  0
 18 21  1  0  0  0  0
 18 24  1  0  0  0  0
 19 20  2  0  0  0  0
 19 28  1  0  0  0  0
 21 22  1  0  0  0  0
 21 25  1  0  0  0  0
 21 26  1  0  0  0  0
 22 27  1  0  0  0  0
 28 29  1  0  0  0  0
 28 33  1  0  0  0  0
 29 30  1  0  0  0  0
 29 32  1  0  0  0  0
 29 34  1  0  0  0  0
 30 31  2  0  0  0  0
 30 38  1  0  0  0  0
 32 35  1  0  0  0  0
 32 36  1  0  0  0  0
 32 37  1  0  0  0  0
 38 39  1  0  0  0  0
 38 40  1  0  0  0  0
 39 41  1  0  0  0  0
 39 42  1  0  0  0  0
 39 43  1  0  0  0  0
M  END
$$$$

  -OEChem-05262216003D

 43 42  0     1  0  0  0  0  0999 V2000
   -3.2549   -5.0359    1.1081 C   0  0  0  0  0  0  0  0  0  0  0  0
   -2.3431   -5.7053    1.5682 O   0  0  0  0  0  0  0  0  0  0  0  0
   -4.6969   -5.4049    1.4027 C   0  0  0  0  0  0  0  0  0  0  0  0
   -5.2222   -5.6288    0.4713 H   0  0  0  0  0  0  0  0  0  0  0  0
   -4.7369   -6.2848    2.0504 H   0  0  0  0  0  0  0  0  0  0  0  0
   -5.1994   -4.5747    1.9051 H   0  0  0  0  0  0  0  0  0  0  0  0
   -2.9796   -3.9345    0.3267 N   0  0  0  0  0  0  0  0  0  0  0  0
   -1.6395   -3.3647    0.1380 C   0  0  2  0  0  0  0  0  0  0  0  0
   -1.6970   -1.8265    0.0265 C   0  0  0  0  0  0  0  0  0  0  0  0
   -2.7749   -1.2702   -0.1620 O   0  0  0  0  0  0  0  0  0  0  0  0
   -1.0300   -3.9752   -1.1276 C   0  0  0  0  0  0  0  0  0  0  0  0
   -3.7638   -3.3311    0.0803 H   0  0  0  0  0  0  0  0  0  0  0  0
   -1.0065   -3.6067    0.9985 H   0  0  0  0  0  0  0  0  0  0  0  0
   -1.6401   -3.7295   -2.0028 H   0  0  0  0  0  0  0  0  0  0  0  0
   -0.0178   -3.5931   -1.2921 H   0  0  0  0  0  0  0  0  0  0  0  0
   -0.9770   -5.0646   -1.0340 H   0  0  0  0  0  0  0  0  0  0  0  0
   -0.5376   -1.0781    0.1149 N   0  0  0  0  0  0  0  0  0  0  0  0
   -0.4774    0.3525   -0.2378 C   0  0  2  0  0  0  0  0  0  0  0  0
    0.2245    0.5759   -1.5978 C   0  0  0  0  0  0  0  0  0  0  0  0
    0.5447   -0.3792   -2.2978 O   0  0  0  0  0  0  0  0  0  0  0  0
    0.2764    1.0796    0.8902 C   0  0  0  0  0  0  0  0  0  0  0  0
   -0.6674    0.9984    2.4677 S   0  0  0  0  0  0  0  0  0  0  0  0
    0.3283   -1.6064    0.0571 H   0  0  0  0  0  0  0  0  0  0  0  0
   -1.4805    0.7851   -0.3148 H   0  0  0  0  0  0  0  0  0  0  0  0
    1.2648    0.6287    1.0268 H   0  0  0  0  0  0  0  0  0  0  0  0
    0.4223    2.1330    0.6322 H   0  0  0  0  0  0  0  0  0  0  0  0
    0.1413    1.6929    3.2975 H   0  0  0  0  0  0  0  0  0  0  0  0
    0.6569    1.8343   -1.9730 N   0  0  0  0  0  0  0  0  0  0  0  0
    1.5054    2.1289   -3.1341 C   0  0  2  0  0  0  0  0  0  0  0  0
    2.2974    3.4374   -2.9205 C   0  0  0  0  0  0  0  0  0  0  0  0
    2.0934    4.1190   -1.9208 O   0  0  0  0  0  0  0  0  0  0  0  0
    0.6137    2.2246   -4.3772 C   0  0  0  0  0  0  0  0  0  0  0  0
    0.4902    2.6068   -1.3281 H   0  0  0  0  0  0  0  0  0  0  0  0
    2.2343    1.3232   -3.2721 H   0  0  0  0  0  0  0  0  0  0  0  0
   -0.1219    3.0270   -4.2599 H   0  0  0  0  0  0  0  0  0  0  0  0
    1.2139    2.4283   -5.2686 H   0  0  0  0  0  0  0  0  0  0  0  0
    0.0786    1.2824   -4.5336 H   0  0  0  0  0  0  0  0  0  0  0  0
    3.2537    3.8443   -3.8326 N   0  0  0  0  0  0  0  0  0  0  0  0
    4.0298    5.0701   -3.6847 C   0  0  0  0  0  0  0  0  0  0  0  0
    3.4037    3.2623   -4.6518 H   0  0  0  0  0  0  0  0  0  0  0  0
    3.3673    5.9404   -3.6315 H   0  0  0  0  0  0  0  0  0  0  0  0
    4.6355    5.0331   -2.7732 H   0  0  0  0  0  0  0  0  0  0  0  0
    4.7000    5.1997   -4.5400 H   0  0  0  0  0  0  0  0  0  0  0  0
  1  2  2  0  0  0  0
  1  3  1  0  0  0  0
  1  7  1  0  0  0  0
  3  4  1  0  0  0  0
  3  5  1  0  0  0  0
  3  6  1  0  0  0  0
  7  8  1  0  0  0  0
  7 12  1  0  0  0  0
  8  9  1  0  0  0  0
  8 11  1  0  0  0  0
  8 13  1  0  0  0  0
  9 10  2  0  0  0  0
  9 17  1  0  0  0  0
 11 14  1  0  0  0  0
 11 15  1  0  0  0  0
 11 16  1  0  0  0  0
 17 18  1  0  0  0  0
 17 23  1  0  0  0  0
 18 19  1  0  0  0  0
 18 21  1  0  0  0  0
 18 24  1  0  0  0  0
 19 20  2  0  0  0  0
 19 28  1  0  0  0  0
 21 22  1  0  0  0  0
 21 25  1  0  0  0  0
 21 26  1  0  0  0  0
 22 27  1  0  0  0  0
 28 29  1  0  0  0  0
 28 33  1  0  0  0  0
 29 30  1  0  0  0  0
 29 32  1  0  0  0  0
 29 34  1  0  0  0  0
 30 31  2  0  0  0  0
 30 38  1  0  0  0  0
 32 35  1  0  0  0  0
 32 36  1  0  0  0  0
 32 37  1  0  0  0  0
 38 39  1  0  0  0  0
 38 40  1  0  0  0  0
 39 41  1  0  0  0  0
 39 42  1  0  0  0  0
 39 43  1  0  0  0  0
M  END
$$$$

  -OEChem-05262216003D

 43 42  0     1  0  0  0  0  0999 V2000
   -3.2323   -5.0383    1.0868 C   0  0  0  0  0  0  0  0  0  0  0  0
   -2.3063   -5.7087    1.5163 O   0  0  0  0  0  0  0  0  0  0  0  0
   -4.6648   -5.4404    1.3834 C   0  0  0  0  0  0  0  0  0  0  0  0
   -5.1892   -5.6633    0.4512 H   0  0  0  0  0  0  0  0  0  0  0  0
   -4.6834   -6.3292    2.0202 H   0  0  0  0  0  0  0  0  0  0  0  0
   -5.1820   -4.6276    1.8992 H   0  0  0  0  0  0  0  0  0  0  0  0
   -2.9788   -3.9100    0.3370 N   0  0  0  0  0  0  0  0  0  0  0  0
   -1.6443   -3.3306    0.1371 C   0  0  2  0  0  0  0  0  0  0  0  0
   -1.7068   -1.7936    0.0195 C   0  0  0  0  0  0  0  0  0  0  0  0
   -2.7849   -1.2389   -0.1710 O   0  0  0  0  0  0  0  0  0  0  0  0
   -1.0329   -3.9401   -1.1282 C   0  0  0  0  0  0  0  0  0  0  0  0
   -3.7718   -3.3101    0.1105 H   0  0  0  0  0  0  0  0  0  0  0  0
   -1.0070   -3.5654    0.9963 H   0  0  0  0  0  0  0  0  0  0  0  0
   -1.6448   -3.6993   -2.0035 H   0  0  0  0  0  0  0  0  0  0  0  0
   -0.0232   -3.5522   -1.2939 H   0  0  0  0  0  0  0  0  0  0  0  0
   -0.9725   -5.0289   -1.0331 H   0  0  0  0  0  0  0  0  0  0  0  0
   -0.5475   -1.0464    0.1194 N   0  0  0  0  0  0  0  0  0  0  0  0
   -0.4791    0.3852   -0.2262 C   0  0  2  0  0  0  0  0  0  0  0  0
    0.2372    0.6049   -1.5820 C   0  0  0  0  0  0  0  0  0  0  0  0
    0.3157   -0.3091   -2.3953 O   0  0  0  0  0  0  0  0  0  0  0  0
    0.2492    1.1005    0.9269 C   0  0  0  0  0  0  0  0  0  0  0  0
   -0.7357    1.0052    2.4786 S   0  0  0  0  0  0  0  0  0  0  0  0
    0.3178   -1.5766    0.0942 H   0  0  0  0  0  0  0  0  0  0  0  0
   -1.4796    0.8205   -0.3179 H   0  0  0  0  0  0  0  0  0  0  0  0
    1.2345    0.6490    1.0834 H   0  0  0  0  0  0  0  0  0  0  0  0
    0.3978    2.1573    0.6857 H   0  0  0  0  0  0  0  0  0  0  0  0
    0.0618    1.6705    3.3424 H   0  0  0  0  0  0  0  0  0  0  0  0
    0.9517    1.7606   -1.8422 N   0  0  0  0  0  0  0  0  0  0  0  0
    1.8302    1.9742   -2.9996 C   0  0  2  0  0  0  0  0  0  0  0  0
    2.9152    3.0260   -2.6808 C   0  0  0  0  0  0  0  0  0  0  0  0
    2.8742    3.6447   -1.6217 O   0  0  0  0  0  0  0  0  0  0  0  0
    0.9738    2.4202   -4.1902 C   0  0  0  0  0  0  0  0  0  0  0  0
    0.9904    2.4711   -1.1122 H   0  0  0  0  0  0  0  0  0  0  0  0
    2.3426    1.0397   -3.2518 H   0  0  0  0  0  0  0  0  0  0  0  0
    0.4638    3.3619   -3.9638 H   0  0  0  0  0  0  0  0  0  0  0  0
    1.5947    2.5643   -5.0792 H   0  0  0  0  0  0  0  0  0  0  0  0
    0.2183    1.6622   -4.4200 H   0  0  0  0  0  0  0  0  0  0  0  0
    3.9459    3.2719   -3.5694 N   0  0  0  0  0  0  0  0  0  0  0  0
    4.9854    4.2678   -3.3343 C   0  0  0  0  0  0  0  0  0  0  0  0
    3.9570    2.7446   -4.4378 H   0  0  0  0  0  0  0  0  0  0  0  0
    4.5420    5.2597   -3.1951 H   0  0  0  0  0  0  0  0  0  0  0  0
    5.5662    4.0131   -2.4414 H   0  0  0  0  0  0  0  0  0  0  0  0
    5.6673    4.3125   -4.1893 H   0  0  0  0  0  0  0  0  0  0  0  0
  1  2  2  0  0  0  0
  1  3  1  0  0  0  0
  1  7  1  0  0  0  0
  3  4  1  0  0  0  0
  3  5  1  0  0  0  0
  3  6  1  0  0  0  0
  7  8  1  0  0  0  0
  7 12  1  0  0  0  0
  8  9  1  0  0  0  0
  8 11  1  0  0  0  0
  8 13  1  0  0  0  0
  9 10  2  0  0  0  0
  9 17  1  0  0  0  0
 11 14  1  0  0  0  0
 11 15  1  0  0  0  0
 11 16  1  0  0  0  0
 17 18  1  0  0  0  0
 17 23  1  0  0  0  0
 18 19  1  0  0  0  0
 18 21  1  0  0  0  0
 18 24  1  0  0  0  0
 19 20  2  0  0  0  0
 19 28  1  0  0  0  0
 21 22  1  0  0  0  0
 21 25  1  0  0  0  0
 21 26  1  0  0  0  0
 22 27  1  0  0  0  0
 28 29  1  0  0  0  0
 28 33  1  0  0  0  0
 29 30  1  0  0  0  0
 29 32  1  0  0  0  0
 29 34  1  0  0  0  0
 30 31  2  0  0  0  0
 30 38  1  0  0  0  0
 32 35  1  0  0  0  0
 32 36  1  0  0  0  0
 32 37  1  0  0  0  0
 38 39  1  0  0  0  0
 38 40  1  0  0  0  0
 39 41  1  0  0  0  0
 39 42  1  0  0  0  0
 39 43  1  0  0  0  0
M  END
$$$$

  -OEChem-05262216003D

 43 42  0     1  0  0  0  0  0999 V2000
   -3.2312   -5.0237    1.0876 C   0  0  0  0  0  0  0  0  0  0  0  0
   -2.3108   -5.6879    1.5382 O   0  0  0  0  0  0  0  0  0  0  0  0
   -4.6677   -5.4173    1.3766 C   0  0  0  0  0  0  0  0  0  0  0  0
   -5.1903   -5.6334    0.4416 H   0  0  0  0  0  0  0  0  0  0  0  0
   -4.6950   -6.3081    2.0104 H   0  0  0  0  0  0  0  0  0  0  0  0
   -5.1806   -4.6019    1.8925 H   0  0  0  0  0  0  0  0  0  0  0  0
   -2.9692   -3.9067    0.3237 N   0  0  0  0  0  0  0  0  0  0  0  0
   -1.6330   -3.3285    0.1327 C   0  0  2  0  0  0  0  0  0  0  0  0
   -1.6928   -1.7919    0.0052 C   0  0  0  0  0  0  0  0  0  0  0  0
   -2.7698   -1.2384   -0.1936 O   0  0  0  0  0  0  0  0  0  0  0  0
   -1.0126   -3.9458   -1.1242 C   0  0  0  0  0  0  0  0  0  0  0  0
   -3.7599   -3.3098    0.0818 H   0  0  0  0  0  0  0  0  0  0  0  0
   -1.0034   -3.5590    0.9988 H   0  0  0  0  0  0  0  0  0  0  0  0
   -1.6220   -3.7146   -2.0039 H   0  0  0  0  0  0  0  0  0  0  0  0
   -0.0041   -3.5546   -1.2879 H   0  0  0  0  0  0  0  0  0  0  0  0
   -0.9478   -5.0335   -1.0202 H   0  0  0  0  0  0  0  0  0  0  0  0
   -0.5346   -1.0436    0.1183 N   0  0  0  0  0  0  0  0  0  0  0  0
   -0.4606    0.3882   -0.2264 C   0  0  2  0  0  0  0  0  0  0  0  0
    0.2731    0.6031   -1.5740 C   0  0  0  0  0  0  0  0  0  0  0  0
    0.1299   -0.2012   -2.4869 O   0  0  0  0  0  0  0  0  0  0  0  0
    0.2341    1.1164    0.9389 C   0  0  0  0  0  0  0  0  0  0  0  0
   -0.7876    1.0268    2.4664 S   0  0  0  0  0  0  0  0  0  0  0  0
    0.3314   -1.5718    0.1445 H   0  0  0  0  0  0  0  0  0  0  0  0
   -1.4609    0.8188   -0.3402 H   0  0  0  0  0  0  0  0  0  0  0  0
    1.2197    0.6761    1.1237 H   0  0  0  0  0  0  0  0  0  0  0  0
    0.3749    2.1729    0.6900 H   0  0  0  0  0  0  0  0  0  0  0  0
   -0.0194    1.7099    3.3428 H   0  0  0  0  0  0  0  0  0  0  0  0
    1.2330    1.5879   -1.7319 N   0  0  0  0  0  0  0  0  0  0  0  0
    2.1203    1.7317   -2.8933 C   0  0  2  0  0  0  0  0  0  0  0  0
    3.4246    2.4609   -2.5031 C   0  0  0  0  0  0  0  0  0  0  0  0
    3.5498    2.9273   -1.3749 O   0  0  0  0  0  0  0  0  0  0  0  0
    1.3730    2.5018   -3.9877 C   0  0  0  0  0  0  0  0  0  0  0  0
    1.4618    2.1626   -0.9218 H   0  0  0  0  0  0  0  0  0  0  0  0
    2.3979    0.7422   -3.2721 H   0  0  0  0  0  0  0  0  0  0  0  0
    1.0989    3.5008   -3.6337 H   0  0  0  0  0  0  0  0  0  0  0  0
    1.9966    2.6063   -4.8804 H   0  0  0  0  0  0  0  0  0  0  0  0
    0.4587    1.9699   -4.2698 H   0  0  0  0  0  0  0  0  0  0  0  0
    4.4653    2.5818   -3.4055 N   0  0  0  0  0  0  0  0  0  0  0  0
    5.7180    3.2627   -3.0985 C   0  0  0  0  0  0  0  0  0  0  0  0
    4.3378    2.1792   -4.3295 H   0  0  0  0  0  0  0  0  0  0  0  0
    5.5275    4.2934   -2.7807 H   0  0  0  0  0  0  0  0  0  0  0  0
    6.2523    2.7408   -2.2978 H   0  0  0  0  0  0  0  0  0  0  0  0
    6.3612    3.2890   -3.9836 H   0  0  0  0  0  0  0  0  0  0  0  0
  1  2  2  0  0  0  0
  1  3  1  0  0  0  0
  1  7  1  0  0  0  0
  3  4  1  0  0  0  0
  3  5  1  0  0  0  0
  3  6  1  0  0  0  0
  7  8  1  0  0  0  0
  7 12  1  0  0  0  0
  8  9  1  0  0  0  0
  8 11  1  0  0  0  0
  8 13  1  0  0  0  0
  9 10  2  0  0  0  0
  9 17  1  0  0  0  0
 11 14  1  0  0  0  0
 11 15  1  0  0  0  0
 11 16  1  0  0  0  0
 17 18  1  0  0  0  0
 17 23  1  0  0  0  0
 18 19  1  0  0  0  0
 18 21  1  0  0  0  0
 18 24  1  0  0  0  0
 19 20  2  0  0  0  0
 19 28  1  0  0  0  0
 21 22  1  0  0  0  0
 21 25  1  0  0  0  0
 21 26  1  0  0  0  0
 22 27  1  0  0  0  0
 28 29  1  0  0  0  0
 28 33  1  0  0  0  0
 29 30  1  0  0  0  0
 29 32  1  0  0  0  0
 29 34  1  0  0  0  0
 30 31  2  0  0  0  0
 30 38  1  0  0  0  0
 32 35  1  0  0  0  0
 32 36  1  0  0  0  0
 32 37  1  0  0  0  0
 38 39  1  0  0  0  0
 38 40  1  0  0  0  0
 39 41  1  0  0  0  0
 39 42  1  0  0  0  0
 39 43  1  0  0  0  0
M  END
$$$$

  -OEChem-05262216003D

 43 42  0     1  0  0  0  0  0999 V2000
   -3.2534   -4.9964    1.1089 C   0  0  0  0  0  0  0  0  0  0  0  0
   -2.3441   -5.6565    1.5872 O   0  0  0  0  0  0  0  0  0  0  0  0
   -4.6962   -5.3786    1.3807 C   0  0  0  0  0  0  0  0  0  0  0  0
   -5.2050   -5.6051    0.4407 H   0  0  0  0  0  0  0  0  0  0  0  0
   -4.7374   -6.2607    2.0258 H   0  0  0  0  0  0  0  0  0  0  0  0
   -5.2140   -4.5545    1.8776 H   0  0  0  0  0  0  0  0  0  0  0  0
   -2.9708   -3.8977    0.3263 N   0  0  0  0  0  0  0  0  0  0  0  0
   -1.6268   -3.3374    0.1392 C   0  0  2  0  0  0  0  0  0  0  0  0
   -1.6726   -1.8050   -0.0366 C   0  0  0  0  0  0  0  0  0  0  0  0
   -2.7423   -1.2521   -0.2715 O   0  0  0  0  0  0  0  0  0  0  0  0
   -0.9941   -3.9997   -1.0885 C   0  0  0  0  0  0  0  0  0  0  0  0
   -3.7523   -3.3020    0.0530 H   0  0  0  0  0  0  0  0  0  0  0  0
   -1.0133   -3.5468    1.0222 H   0  0  0  0  0  0  0  0  0  0  0  0
   -1.5837   -3.7840   -1.9857 H   0  0  0  0  0  0  0  0  0  0  0  0
    0.0237   -3.6305   -1.2448 H   0  0  0  0  0  0  0  0  0  0  0  0
   -0.9499   -5.0848   -0.9524 H   0  0  0  0  0  0  0  0  0  0  0  0
   -0.5146   -1.0576    0.0868 N   0  0  0  0  0  0  0  0  0  0  0  0
   -0.4318    0.3764   -0.2456 C   0  0  2  0  0  0  0  0  0  0  0  0
    0.3094    0.5989   -1.5861 C   0  0  0  0  0  0  0  0  0  0  0  0
   -0.0346   -0.0150   -2.5873 O   0  0  0  0  0  0  0  0  0  0  0  0
    0.2498    1.1015    0.9288 C   0  0  0  0  0  0  0  0  0  0  0  0
   -0.7877    1.0109    2.4456 S   0  0  0  0  0  0  0  0  0  0  0  0
    0.3485   -1.5793    0.1989 H   0  0  0  0  0  0  0  0  0  0  0  0
   -1.4311    0.8081   -0.3669 H   0  0  0  0  0  0  0  0  0  0  0  0
    1.2311    0.6579    1.1277 H   0  0  0  0  0  0  0  0  0  0  0  0
    0.3966    2.1570    0.6768 H   0  0  0  0  0  0  0  0  0  0  0  0
   -0.0365    1.7078    3.3262 H   0  0  0  0  0  0  0  0  0  0  0  0
    1.4686    1.3516   -1.6605 N   0  0  0  0  0  0  0  0  0  0  0  0
    2.3479    1.4392   -2.8334 C   0  0  2  0  0  0  0  0  0  0  0  0
    3.7895    1.7961   -2.4110 C   0  0  0  0  0  0  0  0  0  0  0  0
    4.0318    2.0725   -1.2399 O   0  0  0  0  0  0  0  0  0  0  0  0
    1.7860    2.4944   -3.7934 C   0  0  0  0  0  0  0  0  0  0  0  0
    1.8445    1.7316   -0.7926 H   0  0  0  0  0  0  0  0  0  0  0  0
    2.3837    0.4697   -3.3420 H   0  0  0  0  0  0  0  0  0  0  0  0
    1.7542    3.4752   -3.3083 H   0  0  0  0  0  0  0  0  0  0  0  0
    2.4066    2.5696   -4.6914 H   0  0  0  0  0  0  0  0  0  0  0  0
    0.7705    2.2257   -4.1019 H   0  0  0  0  0  0  0  0  0  0  0  0
    4.8189    1.7907   -3.3340 N   0  0  0  0  0  0  0  0  0  0  0  0
    6.1989    2.1206   -2.9976 C   0  0  0  0  0  0  0  0  0  0  0  0
    4.5901    1.5513   -4.2947 H   0  0  0  0  0  0  0  0  0  0  0  0
    6.2583    3.1244   -2.5636 H   0  0  0  0  0  0  0  0  0  0  0  0
    6.6019    1.4009   -2.2773 H   0  0  0  0  0  0  0  0  0  0  0  0
    6.8229    2.0958   -3.8961 H   0  0  0  0  0  0  0  0  0  0  0  0
  1  2  2  0  0  0  0
  1  3  1  0  0  0  0
  1  7  1  0  0  0  0
  3  4  1  0  0  0  0
  3  5  1  0  0  0  0
  3  6  1  0  0  0  0
  7  8  1  0  0  0  0
  7 12  1  0  0  0  0
  8  9  1  0  0  0  0
  8 11  1  0  0  0  0
  8 13  1  0  0  0  0
  9 10  2  0  0  0  0
  9 17  1  0  0  0  0
 11 14  1  0  0  0  0
 11 15  1  0  0  0  0
 11 16  1  0  0  0  0
 17 18  1  0  0  0  0
 17 23  1  0  0  0  0
 18 19  1  0  0  0  0
 18 21  1  0  0  0  0
 18 24  1  0  0  0  0
 19 20  2  0  0  0  0
 19 28  1  0  0  0  0
 21 22  1  0  0  0  0
 21 25  1  0  0  0  0
 21 26  1  0  0  0  0
 22 27  1  0  0  0  0
 28 29  1  0  0  0  0
 28 33  1  0  0  0  0
 29 30  1  0  0  0  0
 29 32  1  0  0  0  0
 29 34  1  0  0  0  0
 30 31  2  0  0  0  0
 30 38  1  0  0  0  0
 32 35  1  0  0  0  0
 32 36  1  0  0  0  0
 32 37  1  0  0  0  0
 38 39  1  0  0  0  0
 38 40  1  0  0  0  0
 39 41  1  0  0  0  0
 39 42  1  0  0  0  0
 39 43  1  0  0  0  0
M  END
$$$$

  -OEChem-05262216003D

 43 42  0     1  0  0  0  0  0999 V2000
   -3.2590   -4.9763    1.1394 C   0  0  0  0  0  0  0  0  0  0  0  0
   -2.3646   -5.6082    1.6801 O   0  0  0  0  0  0  0  0  0  0  0  0
   -4.7085   -5.3662    1.3594 C   0  0  0  0  0  0  0  0  0  0  0  0
   -5.1854   -5.5829    0.4006 H   0  0  0  0  0  0  0  0  0  0  0  0
   -4.7682   -6.2562    1.9921 H   0  0  0  0  0  0  0  0  0  0  0  0
   -5.2449   -4.5491    1.8482 H   0  0  0  0  0  0  0  0  0  0  0  0
   -2.9537   -3.9022    0.3315 N   0  0  0  0  0  0  0  0  0  0  0  0
   -1.6066   -3.3409    0.1706 C   0  0  2  0  0  0  0  0  0  0  0  0
   -1.6544   -1.8218   -0.0961 C   0  0  0  0  0  0  0  0  0  0  0  0
   -2.7157   -1.2917   -0.4060 O   0  0  0  0  0  0  0  0  0  0  0  0
   -0.9135   -4.0656   -0.9875 C   0  0  0  0  0  0  0  0  0  0  0  0
   -3.7284   -3.3263    0.0019 H   0  0  0  0  0  0  0  0  0  0  0  0
   -1.0322   -3.4933    1.0905 H   0  0  0  0  0  0  0  0  0  0  0  0
   -1.4715   -3.9183   -1.9179 H   0  0  0  0  0  0  0  0  0  0  0  0
    0.1028   -3.6855   -1.1280 H   0  0  0  0  0  0  0  0  0  0  0  0
   -0.8550   -5.1394   -0.7824 H   0  0  0  0  0  0  0  0  0  0  0  0
   -0.5074   -1.0595    0.0363 N   0  0  0  0  0  0  0  0  0  0  0  0
   -0.4277    0.3762   -0.2883 C   0  0  2  0  0  0  0  0  0  0  0  0
    0.3220    0.6165   -1.6187 C   0  0  0  0  0  0  0  0  0  0  0  0
   -0.1761    0.2722   -2.6810 O   0  0  0  0  0  0  0  0  0  0  0  0
    0.2441    1.1018    0.8899 C   0  0  0  0  0  0  0  0  0  0  0  0
   -0.8024    1.0021    2.3995 S   0  0  0  0  0  0  0  0  0  0  0  0
    0.3442   -1.5546    0.2801 H   0  0  0  0  0  0  0  0  0  0  0  0
   -1.4295    0.8024   -0.4130 H   0  0  0  0  0  0  0  0  0  0  0  0
    1.2242    0.6604    1.0975 H   0  0  0  0  0  0  0  0  0  0  0  0
    0.3929    2.1566    0.6346 H   0  0  0  0  0  0  0  0  0  0  0  0
   -0.0617    1.7002    3.2881 H   0  0  0  0  0  0  0  0  0  0  0  0
    1.6170    1.1049   -1.6361 N   0  0  0  0  0  0  0  0  0  0  0  0
    2.4819    1.1541   -2.8213 C   0  0  2  0  0  0  0  0  0  0  0  0
    3.9686    1.0381   -2.4224 C   0  0  0  0  0  0  0  0  0  0  0  0
    4.2848    1.0457   -1.2365 O   0  0  0  0  0  0  0  0  0  0  0  0
    2.2169    2.4676   -3.5645 C   0  0  0  0  0  0  0  0  0  0  0  0
    2.0850    1.2296   -0.7394 H   0  0  0  0  0  0  0  0  0  0  0  0
    2.2544    0.3113   -3.4828 H   0  0  0  0  0  0  0  0  0  0  0  0
    2.4531    3.3243   -2.9251 H   0  0  0  0  0  0  0  0  0  0  0  0
    2.8281    2.5287   -4.4698 H   0  0  0  0  0  0  0  0  0  0  0  0
    1.1641    2.5314   -3.8576 H   0  0  0  0  0  0  0  0  0  0  0  0
    4.9500    0.9031   -3.3866 N   0  0  0  0  0  0  0  0  0  0  0  0
    6.3688    0.7785   -3.0743 C   0  0  0  0  0  0  0  0  0  0  0  0
    4.6567    0.8874   -4.3594 H   0  0  0  0  0  0  0  0  0  0  0  0
    6.7102    1.6379   -2.4875 H   0  0  0  0  0  0  0  0  0  0  0  0
    6.5567   -0.1361   -2.5020 H   0  0  0  0  0  0  0  0  0  0  0  0
    6.9569    0.7369   -3.9961 H   0  0  0  0  0  0  0  0  0  0  0  0
  1  2  2  0  0  0  0
  1  3  1  0  0  0  0
  1  7  1  0  0  0  0
  3  4  1  0  0  0  0
  3  5  1  0  0  0  0
  3  6  1  0  0  0  0
  7  8  1  0  0  0  0
  7 12  1  0  0  0  0
  8  9  1  0  0  0  0
  8 11  1  0  0  0  0
  8 13  1  0  0  0  0
  9 10  2  0  0  0  0
  9 17  1  0  0  0  0
 11 14  1  0  0  0  0
 11 15  1  0  0  0  0
 11 16  1  0  0  0  0
 17 18  1  0  0  0  0
 17 23  1  0  0  0  0
 18 19  1  0  0  0  0
 18 21  1  0  0  0  0
 18 24  1  0  0  0  0
 19 20  2  0  0  0  0
 19 28  1  0  0  0  0
 21 22  1  0  0  0  0
 21 25  1  0  0  0  0
 21 26  1  0  0  0  0
 22 27  1  0  0  0  0
 28 29  1  0  0  0  0
 28 33  1  0  0  0  0
 29 30  1  0  0  0  0
 29 32  1  0  0  0  0
 29 34  1  0  0  0  0
 30 31  2  0  0  0  0
 30 38  1  0  0  0  0
 32 35  1  0  0  0  0
 32 36  1  0  0  0  0
 32 37  1  0  0  0  0
 38 39  1  0  0  0  0
 38 40  1  0  0  0  0
 39 41  1  0  0  0  0
 39 42  1  0  0  0  0
 39 43  1  0  0  0  0
M  END
$$$$

  -OEChem-05262216003D

 43 42  0     1  0  0  0  0  0999 V2000
   -3.2938   -4.9331    1.1776 C   0  0  0  0  0  0  0  0  0  0  0  0
   -2.4456   -5.5027    1.8467 O   0  0  0  0  0  0  0  0  0  0  0  0
   -4.7563   -5.3124    1.3182 C   0  0  0  0  0  0  0  0  0  0  0  0
   -5.1532   -5.6371    0.3531 H   0  0  0  0  0  0  0  0  0  0  0  0
   -4.8661   -6.1291    2.0374 H   0  0  0  0  0  0  0  0  0  0  0  0
   -5.3317   -4.4529    1.6709 H   0  0  0  0  0  0  0  0  0  0  0  0
   -2.9244   -3.9348    0.3016 N   0  0  0  0  0  0  0  0  0  0  0  0
   -1.5718   -3.3699    0.2128 C   0  0  2  0  0  0  0  0  0  0  0  0
   -1.6055   -1.8799   -0.1889 C   0  0  0  0  0  0  0  0  0  0  0  0
   -2.6381   -1.3932   -0.6346 O   0  0  0  0  0  0  0  0  0  0  0  0
   -0.7715   -4.1852   -0.8079 C   0  0  0  0  0  0  0  0  0  0  0  0
   -3.6705   -3.3990   -0.1422 H   0  0  0  0  0  0  0  0  0  0  0  0
   -1.0824   -3.4322    1.1908 H   0  0  0  0  0  0  0  0  0  0  0  0
   -1.2420   -4.1295   -1.7949 H   0  0  0  0  0  0  0  0  0  0  0  0
    0.2518   -3.8063   -0.8877 H   0  0  0  0  0  0  0  0  0  0  0  0
   -0.7269   -5.2353   -0.5018 H   0  0  0  0  0  0  0  0  0  0  0  0
   -0.4790   -1.0929   -0.0268 N   0  0  0  0  0  0  0  0  0  0  0  0
   -0.4195    0.3467   -0.3395 C   0  0  2  0  0  0  0  0  0  0  0  0
    0.3535    0.6113   -1.6494 C   0  0  0  0  0  0  0  0  0  0  0  0
   -0.2245    0.6129   -2.7265 O   0  0  0  0  0  0  0  0  0  0  0  0
    0.2169    1.0862    0.8486 C   0  0  0  0  0  0  0  0  0  0  0  0
   -0.8547    0.9615    2.3383 S   0  0  0  0  0  0  0  0  0  0  0  0
    0.3282   -1.5348    0.4016 H   0  0  0  0  0  0  0  0  0  0  0  0
   -1.4283    0.7519   -0.4807 H   0  0  0  0  0  0  0  0  0  0  0  0
    1.2031    0.6688    1.0754 H   0  0  0  0  0  0  0  0  0  0  0  0
    0.3475    2.1431    0.5923 H   0  0  0  0  0  0  0  0  0  0  0  0
   -0.1659    1.7092    3.2283 H   0  0  0  0  0  0  0  0  0  0  0  0
    1.7208    0.8240   -1.6365 N   0  0  0  0  0  0  0  0  0  0  0  0
    2.5659    0.8869   -2.8355 C   0  0  2  0  0  0  0  0  0  0  0  0
    3.9582    0.2811   -2.5593 C   0  0  0  0  0  0  0  0  0  0  0  0
    4.2832   -0.0022   -1.4101 O   0  0  0  0  0  0  0  0  0  0  0  0
    2.6815    2.3522   -3.2649 C   0  0  0  0  0  0  0  0  0  0  0  0
    2.2097    0.6543   -0.7588 H   0  0  0  0  0  0  0  0  0  0  0  0
    2.1121    0.3066   -3.6464 H   0  0  0  0  0  0  0  0  0  0  0  0
    3.1453    2.9479   -2.4723 H   0  0  0  0  0  0  0  0  0  0  0  0
    3.2888    2.4424   -4.1704 H   0  0  0  0  0  0  0  0  0  0  0  0
    1.6890    2.7636   -3.4747 H   0  0  0  0  0  0  0  0  0  0  0  0
    4.8392    0.0337   -3.5956 N   0  0  0  0  0  0  0  0  0  0  0  0
    6.1588   -0.5550   -3.4014 C   0  0  0  0  0  0  0  0  0  0  0  0
    4.5329    0.2553   -4.5388 H   0  0  0  0  0  0  0  0  0  0  0  0
    6.7608    0.0662   -2.7298 H   0  0  0  0  0  0  0  0  0  0  0  0
    6.0719   -1.5578   -2.9701 H   0  0  0  0  0  0  0  0  0  0  0  0
    6.6827   -0.6351   -4.3588 H   0  0  0  0  0  0  0  0  0  0  0  0
  1  2  2  0  0  0  0
  1  3  1  0  0  0  0
  1  7  1  0  0  0  0
  3  4  1  0  0  0  0
  3  5  1  0  0  0  0
  3  6  1  0  0  0  0
  7  8  1  0  0  0  0
  7 12  1  0  0  0  0
  8  9  1  0  0  0  0
  8 11  1  0  0  0  0
  8 13  1  0  0  0  0
  9 10  2  0  0  0  0
  9 17  1  0  0  0  0
 11 14  1  0  0  0  0
 11 15  1  0  0  0  0
 11 16  1  0  0  0  0
 17 18  1  0  0  0  0
 17 23  1  0  0  0  0
 18 19  1  0  0  0  0
 18 21  1  0  0  0  0
 18 24  1  0  0  0  0
 19 20  2  0  0  0  0
 19 28  1  0  0  0  0
 21 22  1  0  0  0  0
 21 25  1  0  0  0  0
 21 26  1  0  0  0  0
 22 27  1  0  0  0  0
 28 29  1  0  0  0  0
 28 33  1  0  0  0  0
 29 30  1  0  0  0  0
 29 32  1  0  0  0  0
 29 34  1  0  0  0  0
 30 31  2  0  0  0  0
 30 38  1  0  0  0  0
 32 35  1  0  0  0  0
 32 36  1  0  0  0  0
 32 37  1  0  0  0  0
 38 39  1  0  0  0  0
 38 40  1  0  0  0  0
 39 41  1  0  0  0  0
 39 42  1  0  0  0  0
 39 43  1  0  0  0  0
M  END
$$$$

  -OEChem-05262216003D

 43 42  0     1  0  0  0  0  0999 V2000
   -3.3626   -4.8707    1.2374 C   0  0  0  0  0  0  0  0  0  0  0  0
   -2.5749   -5.3717    2.0247 O   0  0  0  0  0  0  0  0  0  0  0  0
   -4.8339   -5.2357    1.2946 C   0  0  0  0  0  0  0  0  0  0  0  0
   -5.1542   -5.6471    0.3343 H   0  0  0  0  0  0  0  0  0  0  0  0
   -5.0067   -5.9835    2.0736 H   0  0  0  0  0  0  0  0  0  0  0  0
   -5.4294   -4.3475    1.5200 H   0  0  0  0  0  0  0  0  0  0  0  0
   -2.9170   -3.9608    0.3029 N   0  0  0  0  0  0  0  0  0  0  0  0
   -1.5586   -3.4050    0.2715 C   0  0  2  0  0  0  0  0  0  0  0  0
   -1.5511   -1.9606   -0.2713 C   0  0  0  0  0  0  0  0  0  0  0  0
   -2.5335   -1.5246   -0.8596 O   0  0  0  0  0  0  0  0  0  0  0  0
   -0.6816   -4.3138   -0.5953 C   0  0  0  0  0  0  0  0  0  0  0  0
   -3.6213   -3.4733   -0.2508 H   0  0  0  0  0  0  0  0  0  0  0  0
   -1.1513   -3.3725    1.2877 H   0  0  0  0  0  0  0  0  0  0  0  0
   -1.0723   -4.3617   -1.6168 H   0  0  0  0  0  0  0  0  0  0  0  0
    0.3454   -3.9382   -0.6316 H   0  0  0  0  0  0  0  0  0  0  0  0
   -0.6628   -5.3271   -0.1814 H   0  0  0  0  0  0  0  0  0  0  0  0
   -0.4437   -1.1541   -0.0793 N   0  0  0  0  0  0  0  0  0  0  0  0
   -0.4099    0.2857   -0.3962 C   0  0  2  0  0  0  0  0  0  0  0  0
    0.3892    0.5654   -1.6847 C   0  0  0  0  0  0  0  0  0  0  0  0
   -0.1755    0.9274   -2.7068 O   0  0  0  0  0  0  0  0  0  0  0  0
    0.1968    1.0474    0.7912 C   0  0  0  0  0  0  0  0  0  0  0  0
   -0.8901    0.9069    2.2681 S   0  0  0  0  0  0  0  0  0  0  0  0
    0.2849   -1.5333    0.5178 H   0  0  0  0  0  0  0  0  0  0  0  0
   -1.4251    0.6678   -0.5568 H   0  0  0  0  0  0  0  0  0  0  0  0
    1.1918    0.6593    1.0300 H   0  0  0  0  0  0  0  0  0  0  0  0
    0.3028    2.1050    0.5263 H   0  0  0  0  0  0  0  0  0  0  0  0
   -0.2469    1.7032    3.1505 H   0  0  0  0  0  0  0  0  0  0  0  0
    1.7711    0.5014   -1.6763 N   0  0  0  0  0  0  0  0  0  0  0  0
    2.6060    0.5746   -2.8812 C   0  0  2  0  0  0  0  0  0  0  0  0
    3.7837   -0.4190   -2.7944 C   0  0  0  0  0  0  0  0  0  0  0  0
    4.0286   -0.9855   -1.7332 O   0  0  0  0  0  0  0  0  0  0  0  0
    3.1114    2.0123   -3.0251 C   0  0  0  0  0  0  0  0  0  0  0  0
    2.2001    0.0437   -0.8735 H   0  0  0  0  0  0  0  0  0  0  0  0
    2.0177    0.3082   -3.7660 H   0  0  0  0  0  0  0  0  0  0  0  0
    3.7184    2.2933   -2.1584 H   0  0  0  0  0  0  0  0  0  0  0  0
    3.7207    2.1177   -3.9276 H   0  0  0  0  0  0  0  0  0  0  0  0
    2.2656    2.7038   -3.0980 H   0  0  0  0  0  0  0  0  0  0  0  0
    4.5594   -0.6904   -3.9058 N   0  0  0  0  0  0  0  0  0  0  0  0
    5.6670   -1.6382   -3.8977 C   0  0  0  0  0  0  0  0  0  0  0  0
    4.3097   -0.2333   -4.7782 H   0  0  0  0  0  0  0  0  0  0  0  0
    6.4026   -1.3627   -3.1343 H   0  0  0  0  0  0  0  0  0  0  0  0
    5.3037   -2.6499   -3.6888 H   0  0  0  0  0  0  0  0  0  0  0  0
    6.1670   -1.6436   -4.8712 H   0  0  0  0  0  0  0  0  0  0  0  0
  1  2  2  0  0  0  0
  1  3  1  0  0  0  0
  1  7  1  0  0  0  0
  3  4  1  0  0  0  0
  3  5  1  0  0  0  0
  3  6  1  0  0  0  0
  7  8  1  0  0  0  0
  7 12  1  0  0  0  0
  8  9  1  0  0  0  0
  8 11  1  0  0  0  0
  8 13  1  0  0  0  0
  9 10  2  0  0  0  0
  9 17  1  0  0  0  0
 11 14  1  0  0  0  0
 11 15  1  0  0  0  0
 11 16  1  0  0  0  0
 17 18  1  0  0  0  0
 17 23  1  0  0  0  0
 18 19  1  0  0  0  0
 18 21  1  0  0  0  0
 18 24  1  0  0  0  0
 19 20  2  0  0  0  0
 19 28  1  0  0  0  0
 21 22  1  0  0  0  0
 21 25  1  0  0  0  0
 21 26  1  0  0  0  0
 22 27  1  0  0  0  0
 28 29  1  0  0  0  0
 28 33  1  0  0  0  0
 29 30  1  0  0  0  0
 29 32  1  0  0  0  0
 29 34  1  0  0  0  0
 30 31  2  0  0  0  0
 30 38  1  0  0  0  0
 32 35  1  0  0  0  0
 32 36  1  0  0  0  0
 32 37  1  0  0  0  0
 38 39  1  0  0  0  0
 38 40  1  0  0  0  0
 39 41  1  0  0  0  0
 39 42  1  0  0  0  0
 39 43  1  0  0  0  0
M  END
$$$$

  -OEChem-05262216003D

 43 42  0     1  0  0  0  0  0999 V2000
   -3.4216   -4.8387    1.2867 C   0  0  0  0  0  0  0  0  0  0  0  0
   -2.6598   -5.3129    2.1149 O   0  0  0  0  0  0  0  0  0  0  0  0
   -4.8946   -5.2019    1.3107 C   0  0  0  0  0  0  0  0  0  0  0  0
   -5.1856   -5.6438    0.3547 H   0  0  0  0  0  0  0  0  0  0  0  0
   -5.0920   -5.9251    2.1071 H   0  0  0  0  0  0  0  0  0  0  0  0
   -5.4967   -4.3074    1.4892 H   0  0  0  0  0  0  0  0  0  0  0  0
   -2.9457   -3.9640    0.3334 N   0  0  0  0  0  0  0  0  0  0  0  0
   -1.5809   -3.4235    0.3130 C   0  0  2  0  0  0  0  0  0  0  0  0
   -1.5446   -1.9963   -0.2725 C   0  0  0  0  0  0  0  0  0  0  0  0
   -2.4977   -1.5753   -0.9174 O   0  0  0  0  0  0  0  0  0  0  0  0
   -0.6984   -4.3652   -0.5124 C   0  0  0  0  0  0  0  0  0  0  0  0
   -3.6307   -3.4988   -0.2620 H   0  0  0  0  0  0  0  0  0  0  0  0
   -1.1925   -3.3671    1.3356 H   0  0  0  0  0  0  0  0  0  0  0  0
   -1.0684   -4.4337   -1.5406 H   0  0  0  0  0  0  0  0  0  0  0  0
    0.3339   -4.0036   -0.5373 H   0  0  0  0  0  0  0  0  0  0  0  0
   -0.7013   -5.3682   -0.0739 H   0  0  0  0  0  0  0  0  0  0  0  0
   -0.4338   -1.1946   -0.0793 N   0  0  0  0  0  0  0  0  0  0  0  0
   -0.4005    0.2421   -0.4120 C   0  0  2  0  0  0  0  0  0  0  0  0
    0.4037    0.5077   -1.6981 C   0  0  0  0  0  0  0  0  0  0  0  0
   -0.0781    1.1547   -2.6171 O   0  0  0  0  0  0  0  0  0  0  0  0
    0.2258    1.0137    0.7565 C   0  0  0  0  0  0  0  0  0  0  0  0
   -0.8387    0.8919    2.2516 S   0  0  0  0  0  0  0  0  0  0  0  0
    0.2473   -1.5441    0.5881 H   0  0  0  0  0  0  0  0  0  0  0  0
   -1.4147    0.6271   -0.5711 H   0  0  0  0  0  0  0  0  0  0  0  0
    1.2254    0.6275    0.9799 H   0  0  0  0  0  0  0  0  0  0  0  0
    0.3278    2.0682    0.4776 H   0  0  0  0  0  0  0  0  0  0  0  0
   -0.1951    1.7211    3.1025 H   0  0  0  0  0  0  0  0  0  0  0  0
    1.7367    0.1464   -1.7613 N   0  0  0  0  0  0  0  0  0  0  0  0
    2.5425    0.1945   -2.9865 C   0  0  2  0  0  0  0  0  0  0  0  0
    3.4798   -1.0283   -3.0724 C   0  0  0  0  0  0  0  0  0  0  0  0
    3.6158   -1.7649   -2.0996 O   0  0  0  0  0  0  0  0  0  0  0  0
    3.3434    1.4992   -2.9870 C   0  0  0  0  0  0  0  0  0  0  0  0
    2.0558   -0.5145   -1.0545 H   0  0  0  0  0  0  0  0  0  0  0  0
    1.8913    0.1695   -3.8671 H   0  0  0  0  0  0  0  0  0  0  0  0
    4.0155    1.5364   -2.1239 H   0  0  0  0  0  0  0  0  0  0  0  0
    3.9418    1.5836   -3.8991 H   0  0  0  0  0  0  0  0  0  0  0  0
    2.6656    2.3574   -2.9394 H   0  0  0  0  0  0  0  0  0  0  0  0
    4.1572   -1.3132   -4.2432 N   0  0  0  0  0  0  0  0  0  0  0  0
    5.0348   -2.4665   -4.4010 C   0  0  0  0  0  0  0  0  0  0  0  0
    3.9990   -0.7026   -5.0399 H   0  0  0  0  0  0  0  0  0  0  0  0
    5.8427   -2.4382   -3.6620 H   0  0  0  0  0  0  0  0  0  0  0  0
    4.4719   -3.3970   -4.2725 H   0  0  0  0  0  0  0  0  0  0  0  0
    5.4814   -2.4674   -5.4001 H   0  0  0  0  0  0  0  0  0  0  0  0
  1  2  2  0  0  0  0
  1  3  1  0  0  0  0
  1  7  1  0  0  0  0
  3  4  1  0  0  0  0
  3  5  1  0  0  0  0
  3  6  1  0  0  0  0
  7  8  1  0  0  0  0
  7 12  1  0  0  0  0
  8  9  1  0  0  0  0
  8 11  1  0  0  0  0
  8 13  1  0  0  0  0
  9 10  2  0  0  0  0
  9 17  1  0  0  0  0
 11 14  1  0  0  0  0
 11 15  1  0  0  0  0
 11 16  1  0  0  0  0
 17 18  1  0  0  0  0
 17 23  1  0  0  0  0
 18 19  1  0  0  0  0
 18 21  1  0  0  0  0
 18 24  1  0  0  0  0
 19 20  2  0  0  0  0
 19 28  1  0  0  0  0
 21 22  1  0  0  0  0
 21 25  1  0  0  0  0
 21 26  1  0  0  0  0
 22 27  1  0  0  0  0
 28 29  1  0  0  0  0
 28 33  1  0  0  0  0
 29 30  1  0  0  0  0
 29 32  1  0  0  0  0
 29 34  1  0  0  0  0
 30 31  2  0  0  0  0
 30 38  1  0  0  0  0
 32 35  1  0  0  0  0
 32 36  1  0  0  0  0
 32 37  1  0  0  0  0
 38 39  1  0  0  0  0
 38 40  1  0  0  0  0
 39 41  1  0  0  0  0
 39 42  1  0  0  0  0
 39 43  1  0  0  0  0
M  END
$$$$

  -OEChem-05262216003D

 43 42  0     1  0  0  0  0  0999 V2000
   -3.4546   -4.8208    1.3271 C   0  0  0  0  0  0  0  0  0  0  0  0
   -2.7127   -5.2718    2.1858 O   0  0  0  0  0  0  0  0  0  0  0  0
   -4.9260   -5.1882    1.3209 C   0  0  0  0  0  0  0  0  0  0  0  0
   -5.1883   -5.6616    0.3718 H   0  0  0  0  0  0  0  0  0  0  0  0
   -5.1432   -5.8854    2.1349 H   0  0  0  0  0  0  0  0  0  0  0  0
   -5.5348   -4.2906    1.4529 H   0  0  0  0  0  0  0  0  0  0  0  0
   -2.9579   -3.9677    0.3653 N   0  0  0  0  0  0  0  0  0  0  0  0
   -1.5921   -3.4301    0.3609 C   0  0  2  0  0  0  0  0  0  0  0  0
   -1.5402   -2.0205   -0.2634 C   0  0  0  0  0  0  0  0  0  0  0  0
   -2.4711   -1.6181   -0.9512 O   0  0  0  0  0  0  0  0  0  0  0  0
   -0.6939   -4.3956   -0.4191 C   0  0  0  0  0  0  0  0  0  0  0  0
   -3.6286   -3.5214   -0.2600 H   0  0  0  0  0  0  0  0  0  0  0  0
   -1.2263   -3.3466    1.3898 H   0  0  0  0  0  0  0  0  0  0  0  0
   -1.0373   -4.4860   -1.4548 H   0  0  0  0  0  0  0  0  0  0  0  0
    0.3412   -4.0409   -0.4258 H   0  0  0  0  0  0  0  0  0  0  0  0
   -0.7140   -5.3883    0.0420 H   0  0  0  0  0  0  0  0  0  0  0  0
   -0.4301   -1.2179   -0.0746 N   0  0  0  0  0  0  0  0  0  0  0  0
   -0.4029    0.2151   -0.4254 C   0  0  2  0  0  0  0  0  0  0  0  0
    0.4021    0.4640   -1.7125 C   0  0  0  0  0  0  0  0  0  0  0  0
    0.0623    1.3306   -2.5058 O   0  0  0  0  0  0  0  0  0  0  0  0
    0.2385    0.9991    0.7248 C   0  0  0  0  0  0  0  0  0  0  0  0
   -0.8065    0.8915    2.2347 S   0  0  0  0  0  0  0  0  0  0  0  0
    0.2172   -1.5382    0.6400 H   0  0  0  0  0  0  0  0  0  0  0  0
   -1.4173    0.6002   -0.5845 H   0  0  0  0  0  0  0  0  0  0  0  0
    1.2422    0.6166    0.9363 H   0  0  0  0  0  0  0  0  0  0  0  0
    0.3361    2.0508    0.4332 H   0  0  0  0  0  0  0  0  0  0  0  0
   -0.1568    1.7366    3.0654 H   0  0  0  0  0  0  0  0  0  0  0  0
    1.6216   -0.1631   -1.8823 N   0  0  0  0  0  0  0  0  0  0  0  0
    2.3862   -0.1402   -3.1335 C   0  0  2  0  0  0  0  0  0  0  0  0
    3.0207   -1.5200   -3.4093 C   0  0  0  0  0  0  0  0  0  0  0  0
    3.0147   -2.3821   -2.5350 O   0  0  0  0  0  0  0  0  0  0  0  0
    3.4591    0.9462   -3.0224 C   0  0  0  0  0  0  0  0  0  0  0  0
    1.7826   -0.9766   -1.2895 H   0  0  0  0  0  0  0  0  0  0  0  0
    1.7237    0.0896   -3.9750 H   0  0  0  0  0  0  0  0  0  0  0  0
    4.1432    0.7267   -2.1964 H   0  0  0  0  0  0  0  0  0  0  0  0
    4.0390    1.0111   -3.9480 H   0  0  0  0  0  0  0  0  0  0  0  0
    2.9920    1.9193   -2.8393 H   0  0  0  0  0  0  0  0  0  0  0  0
    3.5834   -1.8029   -4.6399 N   0  0  0  0  0  0  0  0  0  0  0  0
    4.1730   -3.0940   -4.9730 C   0  0  0  0  0  0  0  0  0  0  0  0
    3.5441   -1.0807   -5.3535 H   0  0  0  0  0  0  0  0  0  0  0  0
    4.9908   -3.3315   -4.2843 H   0  0  0  0  0  0  0  0  0  0  0  0
    3.4196   -3.8865   -4.9125 H   0  0  0  0  0  0  0  0  0  0  0  0
    4.5743   -3.0751   -5.9909 H   0  0  0  0  0  0  0  0  0  0  0  0
  1  2  2  0  0  0  0
  1  3  1  0  0  0  0
  1  7  1  0  0  0  0
  3  4  1  0  0  0  0
  3  5  1  0  0  0  0
  3  6  1  0  0  0  0
  7  8  1  0  0  0  0
  7 12  1  0  0  0  0
  8  9  1  0  0  0  0
  8 11  1  0  0  0  0
  8 13  1  0  0  0  0
  9 10  2  0  0  0  0
  9 17  1  0  0  0  0
 11 14  1  0  0  0  0
 11 15  1  0  0  0  0
 11 16  1  0  0  0  0
 17 18  1  0  0  0  0
 17 23  1  0  0  0  0
 18 19  1  0  0  0  0
 18 21  1  0  0  0  0
 18 24  1  0  0  0  0
 19 20  2  0  0  0  0
 19 28  1  0  0  0  0
 21 22  1  0  0  0  0
 21 25  1  0  0  0  0
 21 26  1  0  0  0  0
 22 27  1  0  0  0  0
 28 29  1  0  0  0  0
 28 33  1  0  0  0  0
 29 30  1  0  0  0  0
 29 32  1  0  0  0  0
 29 34  1  0  0  0  0
 30 31  2  0  0  0  0
 30 38  1  0  0  0  0
 32 35  1  0  0  0  0
 32 36  1  0  0  0  0
 32 37  1  0  0  0  0
 38 39  1  0  0  0  0
 38 40  1  0  0  0  0
 39 41  1  0  0  0  0
 39 42  1  0  0  0  0
 39 43  1  0  0  0  0
M  END
$$$$

  -OEChem-05262216003D

 43 42  0     1  0  0  0  0  0999 V2000
   -3.4932   -4.7984    1.3876 C   0  0  0  0  0  0  0  0  0  0  0  0
   -2.7807   -5.2022    2.2932 O   0  0  0  0  0  0  0  0  0  0  0  0
   -4.9598   -5.1838    1.3423 C   0  0  0  0  0  0  0  0  0  0  0  0
   -5.1778   -5.7097    0.4096 H   0  0  0  0  0  0  0  0  0  0  0  0
   -5.2034   -5.8408    2.1821 H   0  0  0  0  0  0  0  0  0  0  0  0
   -5.5831   -4.2881    1.4027 H   0  0  0  0  0  0  0  0  0  0  0  0
   -2.9665   -3.9862    0.4061 N   0  0  0  0  0  0  0  0  0  0  0  0
   -1.6039   -3.4404    0.4240 C   0  0  2  0  0  0  0  0  0  0  0  0
   -1.5398   -2.0498   -0.2407 C   0  0  0  0  0  0  0  0  0  0  0  0
   -2.4572   -1.6654   -0.9568 O   0  0  0  0  0  0  0  0  0  0  0  0
   -0.6789   -4.4240   -0.3007 C   0  0  0  0  0  0  0  0  0  0  0  0
   -3.6169   -3.5733   -0.2617 H   0  0  0  0  0  0  0  0  0  0  0  0
   -1.2676   -3.3231    1.4597 H   0  0  0  0  0  0  0  0  0  0  0  0
   -0.9954   -4.5514   -1.3410 H   0  0  0  0  0  0  0  0  0  0  0  0
    0.3537   -4.0614   -0.2943 H   0  0  0  0  0  0  0  0  0  0  0  0
   -0.7034   -5.4008    0.1929 H   0  0  0  0  0  0  0  0  0  0  0  0
   -0.4291   -1.2452   -0.0638 N   0  0  0  0  0  0  0  0  0  0  0  0
   -0.4043    0.1822   -0.4403 C   0  0  2  0  0  0  0  0  0  0  0  0
    0.3998    0.4175   -1.7315 C   0  0  0  0  0  0  0  0  0  0  0  0
    0.2301    1.4310   -2.3955 O   0  0  0  0  0  0  0  0  0  0  0  0
    0.2388    0.9806    0.6992 C   0  0  0  0  0  0  0  0  0  0  0  0
   -0.8061    0.8925    2.2108 S   0  0  0  0  0  0  0  0  0  0  0  0
    0.2043   -1.5429    0.6731 H   0  0  0  0  0  0  0  0  0  0  0  0
   -1.4187    0.5640   -0.6043 H   0  0  0  0  0  0  0  0  0  0  0  0
    1.2431    0.6004    0.9126 H   0  0  0  0  0  0  0  0  0  0  0  0
    0.3361    2.0288    0.3950 H   0  0  0  0  0  0  0  0  0  0  0  0
   -0.1658    1.7602    3.0249 H   0  0  0  0  0  0  0  0  0  0  0  0
    1.4512   -0.4234   -2.0410 N   0  0  0  0  0  0  0  0  0  0  0  0
    2.1671   -0.4083   -3.3206 C   0  0  2  0  0  0  0  0  0  0  0  0
    2.4750   -1.8465   -3.7889 C   0  0  0  0  0  0  0  0  0  0  0  0
    2.3447   -2.7859   -3.0091 O   0  0  0  0  0  0  0  0  0  0  0  0
    3.4571    0.3956   -3.1401 C   0  0  0  0  0  0  0  0  0  0  0  0
    1.4475   -1.3190   -1.5533 H   0  0  0  0  0  0  0  0  0  0  0  0
    1.5491    0.0640   -4.0921 H   0  0  0  0  0  0  0  0  0  0  0  0
    4.0964   -0.0715   -2.3842 H   0  0  0  0  0  0  0  0  0  0  0  0
    4.0120    0.4500   -4.0813 H   0  0  0  0  0  0  0  0  0  0  0  0
    3.2237    1.4153   -2.8178 H   0  0  0  0  0  0  0  0  0  0  0  0
    2.8856   -2.0912   -5.0861 N   0  0  0  0  0  0  0  0  0  0  0  0
    3.1564   -3.4281   -5.6005 C   0  0  0  0  0  0  0  0  0  0  0  0
    2.9469   -1.2985   -5.7187 H   0  0  0  0  0  0  0  0  0  0  0  0
    3.9355   -3.9171   -5.0062 H   0  0  0  0  0  0  0  0  0  0  0  0
    2.2500   -4.0416   -5.5676 H   0  0  0  0  0  0  0  0  0  0  0  0
    3.4990   -3.3722   -6.6383 H   0  0  0  0  0  0  0  0  0  0  0  0
  1  2  2  0  0  0  0
  1  3  1  0  0  0  0
  1  7  1  0  0  0  0
  3  4  1  0  0  0  0
  3  5  1  0  0  0  0
  3  6  1  0  0  0  0
  7  8  1  0  0  0  0
  7 12  1  0  0  0  0
  8  9  1  0  0  0  0
  8 11  1  0  0  0  0
  8 13  1  0  0  0  0
  9 10  2  0  0  0  0
  9 17  1  0  0  0  0
 11 14  1  0  0  0  0
 11 15  1  0  0  0  0
 11 16  1  0  0  0  0
 17 18  1  0  0  0  0
 17 23  1  0  0  0  0
 18 19  1  0  0  0  0
 18 21  1  0  0  0  0
 18 24  1  0  0  0  0
 19 20  2  0  0  0  0
 19 28  1  0  0  0  0
 21 22  1  0  0  0  0
 21 25  1  0  0  0  0
 21 26  1  0  0  0  0
 22 27  1  0  0  0  0
 28 29  1  0  0  0  0
 28 33  1  0  0  0  0
 29 30  1  0  0  0  0
 29 32  1  0  0  0  0
 29 34  1  0  0  0  0
 30 31  2  0  0  0  0
 30 38  1  0  0  0  0
 32 35  1  0  0  0  0
 32 36  1  0  0  0  0
 32 37  1  0  0  0  0
 38 39  1  0  0  0  0
 38 40  1  0  0  0  0
 39 41  1  0  0  0  0
 39 42  1  0  0  0  0
 39 43  1  0  0  0  0
M  END
$$$$

  -OEChem-05262216003D

 43 42  0     1  0  0  0  0  0999 V2000
   -3.5142   -4.8069    1.4223 C   0  0  0  0  0  0  0  0  0  0  0  0
   -2.7783   -5.2443    2.2930 O   0  0  0  0  0  0  0  0  0  0  0  0
   -4.9867   -5.1709    1.4146 C   0  0  0  0  0  0  0  0  0  0  0  0
   -5.2349   -5.6982    0.4904 H   0  0  0  0  0  0  0  0  0  0  0  0
   -5.2200   -5.8190    2.2640 H   0  0  0  0  0  0  0  0  0  0  0  0
   -5.5949   -4.2659    1.4847 H   0  0  0  0  0  0  0  0  0  0  0  0
   -3.0097   -3.9749    0.4459 N   0  0  0  0  0  0  0  0  0  0  0  0
   -1.6401   -3.4466    0.4331 C   0  0  2  0  0  0  0  0  0  0  0  0
   -1.5809   -2.0377   -0.1921 C   0  0  0  0  0  0  0  0  0  0  0  0
   -2.5142   -1.6226   -0.8693 O   0  0  0  0  0  0  0  0  0  0  0  0
   -0.7546   -4.4183   -0.3546 C   0  0  0  0  0  0  0  0  0  0  0  0
   -3.6761   -3.5377   -0.1901 H   0  0  0  0  0  0  0  0  0  0  0  0
   -1.2662   -3.3655    1.4595 H   0  0  0  0  0  0  0  0  0  0  0  0
   -1.1072   -4.5056   -1.3875 H   0  0  0  0  0  0  0  0  0  0  0  0
    0.2829   -4.0711   -0.3711 H   0  0  0  0  0  0  0  0  0  0  0  0
   -0.7773   -5.4107    0.1068 H   0  0  0  0  0  0  0  0  0  0  0  0
   -0.4484   -1.2580   -0.0448 N   0  0  0  0  0  0  0  0  0  0  0  0
   -0.4002    0.1699   -0.4192 C   0  0  2  0  0  0  0  0  0  0  0  0
    0.3745    0.3912   -1.7323 C   0  0  0  0  0  0  0  0  0  0  0  0
    0.3886    1.4886   -2.2737 O   0  0  0  0  0  0  0  0  0  0  0  0
    0.2938    0.9418    0.7097 C   0  0  0  0  0  0  0  0  0  0  0  0
   -0.7128    0.8692    2.2481 S   0  0  0  0  0  0  0  0  0  0  0  0
    0.2137   -1.5798    0.6559 H   0  0  0  0  0  0  0  0  0  0  0  0
   -1.4083    0.5777   -0.5548 H   0  0  0  0  0  0  0  0  0  0  0  0
    1.2925    0.5319    0.8929 H   0  0  0  0  0  0  0  0  0  0  0  0
    0.4127    1.9901    0.4130 H   0  0  0  0  0  0  0  0  0  0  0  0
   -0.0145    1.6950    3.0587 H   0  0  0  0  0  0  0  0  0  0  0  0
    1.1723   -0.6189   -2.2320 N   0  0  0  0  0  0  0  0  0  0  0  0
    1.8104   -0.6022   -3.5514 C   0  0  2  0  0  0  0  0  0  0  0  0
    1.8710   -2.0273   -4.1422 C   0  0  0  0  0  0  0  0  0  0  0  0
    1.6403   -2.9983   -3.4269 O   0  0  0  0  0  0  0  0  0  0  0  0
    3.2166   -0.0143   -3.4045 C   0  0  0  0  0  0  0  0  0  0  0  0
    1.0088   -1.5425   -1.8309 H   0  0  0  0  0  0  0  0  0  0  0  0
    1.2260    0.0179   -4.2399 H   0  0  0  0  0  0  0  0  0  0  0  0
    3.8201   -0.6303   -2.7302 H   0  0  0  0  0  0  0  0  0  0  0  0
    3.7171    0.0329   -4.3761 H   0  0  0  0  0  0  0  0  0  0  0  0
    3.1623    0.9996   -2.9957 H   0  0  0  0  0  0  0  0  0  0  0  0
    2.1736   -2.2240   -5.4767 N   0  0  0  0  0  0  0  0  0  0  0  0
    2.2271   -3.5415   -6.0988 C   0  0  0  0  0  0  0  0  0  0  0  0
    2.3316   -1.4010   -6.0510 H   0  0  0  0  0  0  0  0  0  0  0  0
    2.9868   -4.1633   -5.6136 H   0  0  0  0  0  0  0  0  0  0  0  0
    1.2571   -4.0436   -6.0189 H   0  0  0  0  0  0  0  0  0  0  0  0
    2.4820   -3.4493   -7.1588 H   0  0  0  0  0  0  0  0  0  0  0  0
  1  2  2  0  0  0  0
  1  3  1  0  0  0  0
  1  7  1  0  0  0  0
  3  4  1  0  0  0  0
  3  5  1  0  0  0  0
  3  6  1  0  0  0  0
  7  8  1  0  0  0  0
  7 12  1  0  0  0  0
  8  9  1  0  0  0  0
  8 11  1  0  0  0  0
  8 13  1  0  0  0  0
  9 10  2  0  0  0  0
  9 17  1  0  0  0  0
 11 14  1  0  0  0  0
 11 15  1  0  0  0  0
 11 16  1  0  0  0  0
 17 18  1  0  0  0  0
 17 23  1  0  0  0  0
 18 19  1  0  0  0  0
 18 21  1  0  0  0  0
 18 24  1  0  0  0  0
 19 20  2  0  0  0  0
 19 28  1  0  0  0  0
 21 22  1  0  0  0  0
 21 25  1  0  0  0  0
 21 26  1  0  0  0  0
 22 27  1  0  0  0  0
 28 29  1  0  0  0  0
 28 33  1  0  0  0  0
 29 30  1  0  0  0  0
 29 32  1  0  0  0  0
 29 34  1  0  0  0  0
 30 31  2  0  0  0  0
 30 38  1  0  0  0  0
 32 35  1  0  0  0  0
 32 36  1  0  0  0  0
 32 37  1  0  0  0  0
 38 39  1  0  0  0  0
 38 40  1  0  0  0  0
 39 41  1  0  0  0  0
 39 42  1  0  0  0  0
 39 43  1  0  0  0  0
M  END
$$$$

  -OEChem-05262216003D

 43 42  0     1  0  0  0  0  0999 V2000
   -3.5168   -4.8197    1.4572 C   0  0  0  0  0  0  0  0  0  0  0  0
   -2.7613   -5.2813    2.2982 O   0  0  0  0  0  0  0  0  0  0  0  0
   -4.9896   -5.1820    1.4741 C   0  0  0  0  0  0  0  0  0  0  0  0
   -5.2693   -5.6500    0.5271 H   0  0  0  0  0  0  0  0  0  0  0  0
   -5.1958   -5.8826    2.2880 H   0  0  0  0  0  0  0  0  0  0  0  0
   -5.5934   -4.2832    1.6210 H   0  0  0  0  0  0  0  0  0  0  0  0
   -3.0329   -3.9627    0.4922 N   0  0  0  0  0  0  0  0  0  0  0  0
   -1.6604   -3.4439    0.4571 C   0  0  2  0  0  0  0  0  0  0  0  0
   -1.6033   -2.0280   -0.1512 C   0  0  0  0  0  0  0  0  0  0  0  0
   -2.5501   -1.5935   -0.7967 O   0  0  0  0  0  0  0  0  0  0  0  0
   -0.7984   -4.4107   -0.3624 C   0  0  0  0  0  0  0  0  0  0  0  0
   -3.7110   -3.5112   -0.1210 H   0  0  0  0  0  0  0  0  0  0  0  0
   -1.2647   -3.3788    1.4763 H   0  0  0  0  0  0  0  0  0  0  0  0
   -1.1727   -4.4818   -1.3890 H   0  0  0  0  0  0  0  0  0  0  0  0
    0.2408   -4.0703   -0.3958 H   0  0  0  0  0  0  0  0  0  0  0  0
   -0.8185   -5.4091    0.0857 H   0  0  0  0  0  0  0  0  0  0  0  0
   -0.4545   -1.2665   -0.0388 N   0  0  0  0  0  0  0  0  0  0  0  0
   -0.3961    0.1625   -0.4081 C   0  0  2  0  0  0  0  0  0  0  0  0
    0.3389    0.3765   -1.7479 C   0  0  0  0  0  0  0  0  0  0  0  0
    0.5494    1.5033   -2.1776 O   0  0  0  0  0  0  0  0  0  0  0  0
    0.3389    0.9109    0.7124 C   0  0  0  0  0  0  0  0  0  0  0  0
   -0.6324    0.8370    2.2734 S   0  0  0  0  0  0  0  0  0  0  0  0
    0.2328   -1.6057    0.6288 H   0  0  0  0  0  0  0  0  0  0  0  0
   -1.4012    0.5869   -0.5102 H   0  0  0  0  0  0  0  0  0  0  0  0
    1.3349    0.4832    0.8663 H   0  0  0  0  0  0  0  0  0  0  0  0
    0.4677    1.9610    0.4274 H   0  0  0  0  0  0  0  0  0  0  0  0
    0.1006    1.6414    3.0745 H   0  0  0  0  0  0  0  0  0  0  0  0
    0.8413   -0.7111   -2.4351 N   0  0  0  0  0  0  0  0  0  0  0  0
    1.4179   -0.6702   -3.7820 C   0  0  2  0  0  0  0  0  0  0  0  0
    1.2247   -2.0255   -4.4964 C   0  0  0  0  0  0  0  0  0  0  0  0
    0.8998   -3.0185   -3.8517 O   0  0  0  0  0  0  0  0  0  0  0  0
    2.9070   -0.3273   -3.6703 C   0  0  0  0  0  0  0  0  0  0  0  0
    0.5270   -1.6251   -2.1079 H   0  0  0  0  0  0  0  0  0  0  0  0
    0.9102    0.0971   -4.3762 H   0  0  0  0  0  0  0  0  0  0  0  0
    3.4302   -1.0860   -3.0797 H   0  0  0  0  0  0  0  0  0  0  0  0
    3.3662   -0.2792   -4.6621 H   0  0  0  0  0  0  0  0  0  0  0  0
    3.0383    0.6442   -3.1837 H   0  0  0  0  0  0  0  0  0  0  0  0
    1.4082   -2.1357   -5.8625 N   0  0  0  0  0  0  0  0  0  0  0  0
    1.2132   -3.3805   -6.5967 C   0  0  0  0  0  0  0  0  0  0  0  0
    1.6402   -1.2912   -6.3775 H   0  0  0  0  0  0  0  0  0  0  0  0
    1.8573   -4.1691   -6.1930 H   0  0  0  0  0  0  0  0  0  0  0  0
    0.1702   -3.7071   -6.5263 H   0  0  0  0  0  0  0  0  0  0  0  0
    1.4619   -3.2408   -7.6533 H   0  0  0  0  0  0  0  0  0  0  0  0
  1  2  2  0  0  0  0
  1  3  1  0  0  0  0
  1  7  1  0  0  0  0
  3  4  1  0  0  0  0
  3  5  1  0  0  0  0
  3  6  1  0  0  0  0
  7  8  1  0  0  0  0
  7 12  1  0  0  0  0
  8  9  1  0  0  0  0
  8 11  1  0  0  0  0
  8 13  1  0  0  0  0
  9 10  2  0  0  0  0
  9 17  1  0  0  0  0
 11 14  1  0  0  0  0
 11 15  1  0  0  0  0
 11 16  1  0  0  0  0
 17 18  1  0  0  0  0
 17 23  1  0  0  0  0
 18 19  1  0  0  0  0
 18 21  1  0  0  0  0
 18 24  1  0  0  0  0
 19 20  2  0  0  0  0
 19 28  1  0  0  0  0
 21 22  1  0  0  0  0
 21 25  1  0  0  0  0
 21 26  1  0  0  0  0
 22 27  1  0  0  0  0
 28 29  1  0  0  0  0
 28 33  1  0  0  0  0
 29 30  1  0  0  0  0
 29 32  1  0  0  0  0
 29 34  1  0  0  0  0
 30 31  2  0  0  0  0
 30 38  1  0  0  0  0
 32 35  1  0  0  0  0
 32 36  1  0  0  0  0
 32 37  1  0  0  0  0
 38 39  1  0  0  0  0
 38 40  1  0  0  0  0
 39 41  1  0  0  0  0
 39 42  1  0  0  0  0
 39 43  1  0  0  0  0
M  END
$$$$

  -OEChem-05262216003D

 43 42  0     1  0  0  0  0  0999 V2000
   -3.4996   -4.8228    1.4967 C   0  0  0  0  0  0  0  0  0  0  0  0
   -2.7381   -5.2749    2.3375 O   0  0  0  0  0  0  0  0  0  0  0  0
   -4.9739   -5.1784    1.5330 C   0  0  0  0  0  0  0  0  0  0  0  0
   -5.2596   -5.6773    0.6037 H   0  0  0  0  0  0  0  0  0  0  0  0
   -5.1791   -5.8499    2.3714 H   0  0  0  0  0  0  0  0  0  0  0  0
   -5.5737   -4.2727    1.6522 H   0  0  0  0  0  0  0  0  0  0  0  0
   -3.0214   -3.9821    0.5146 N   0  0  0  0  0  0  0  0  0  0  0  0
   -1.6504   -3.4592    0.4675 C   0  0  2  0  0  0  0  0  0  0  0  0
   -1.6059   -2.0368   -0.1274 C   0  0  0  0  0  0  0  0  0  0  0  0
   -2.5667   -1.5934   -0.7456 O   0  0  0  0  0  0  0  0  0  0  0  0
   -0.7984   -4.4171   -0.3719 C   0  0  0  0  0  0  0  0  0  0  0  0
   -3.7054   -3.5334   -0.0943 H   0  0  0  0  0  0  0  0  0  0  0  0
   -1.2408   -3.4029    1.4819 H   0  0  0  0  0  0  0  0  0  0  0  0
   -1.1835   -4.4760   -1.3954 H   0  0  0  0  0  0  0  0  0  0  0  0
    0.2409   -4.0778   -0.4114 H   0  0  0  0  0  0  0  0  0  0  0  0
   -0.8155   -5.4205    0.0651 H   0  0  0  0  0  0  0  0  0  0  0  0
   -0.4525   -1.2786   -0.0470 N   0  0  0  0  0  0  0  0  0  0  0  0
   -0.4025    0.1543   -0.4029 C   0  0  2  0  0  0  0  0  0  0  0  0
    0.2880    0.3751   -1.7665 C   0  0  0  0  0  0  0  0  0  0  0  0
    0.7130    1.4761   -2.0936 O   0  0  0  0  0  0  0  0  0  0  0  0
    0.3584    0.8891    0.7109 C   0  0  0  0  0  0  0  0  0  0  0  0
   -0.5780    0.7970    2.2924 S   0  0  0  0  0  0  0  0  0  0  0  0
    0.2675   -1.6334    0.5763 H   0  0  0  0  0  0  0  0  0  0  0  0
   -1.4097    0.5801   -0.4722 H   0  0  0  0  0  0  0  0  0  0  0  0
    1.3575    0.4594    0.8360 H   0  0  0  0  0  0  0  0  0  0  0  0
    0.4812    1.9431    0.4384 H   0  0  0  0  0  0  0  0  0  0  0  0
    0.1756    1.5881    3.0875 H   0  0  0  0  0  0  0  0  0  0  0  0
    0.4804   -0.6971   -2.6155 N   0  0  0  0  0  0  0  0  0  0  0  0
    1.0175   -0.6220   -3.9775 C   0  0  2  0  0  0  0  0  0  0  0  0
    0.5477   -1.8259   -4.8216 C   0  0  0  0  0  0  0  0  0  0  0  0
    0.1002   -2.8267   -4.2705 O   0  0  0  0  0  0  0  0  0  0  0  0
    2.5479   -0.5924   -3.9066 C   0  0  0  0  0  0  0  0  0  0  0  0
    0.0022   -1.5621   -2.3604 H   0  0  0  0  0  0  0  0  0  0  0  0
    0.6564    0.2906   -4.4632 H   0  0  0  0  0  0  0  0  0  0  0  0
    2.9246   -1.5004   -3.4247 H   0  0  0  0  0  0  0  0  0  0  0  0
    2.9774   -0.5260   -4.9107 H   0  0  0  0  0  0  0  0  0  0  0  0
    2.8871    0.2741   -3.3304 H   0  0  0  0  0  0  0  0  0  0  0  0
    0.6307   -1.7915   -6.2015 N   0  0  0  0  0  0  0  0  0  0  0  0
    0.1955   -2.8898   -7.0559 C   0  0  0  0  0  0  0  0  0  0  0  0
    0.9821   -0.9412   -6.6322 H   0  0  0  0  0  0  0  0  0  0  0  0
    0.7594   -3.8002   -6.8264 H   0  0  0  0  0  0  0  0  0  0  0  0
   -0.8714   -3.0895   -6.9098 H   0  0  0  0  0  0  0  0  0  0  0  0
    0.3591   -2.6388   -8.1083 H   0  0  0  0  0  0  0  0  0  0  0  0
  1  2  2  0  0  0  0
  1  3  1  0  0  0  0
  1  7  1  0  0  0  0
  3  4  1  0  0  0  0
  3  5  1  0  0  0  0
  3  6  1  0  0  0  0
  7  8  1  0  0  0  0
  7 12  1  0  0  0  0
  8  9  1  0  0  0  0
  8 11  1  0  0  0  0
  8 13  1  0  0  0  0
  9 10  2  0  0  0  0
  9 17  1  0  0  0  0
 11 14  1  0  0  0  0
 11 15  1  0  0  0  0
 11 16  1  0  0  0  0
 17 18  1  0  0  0  0
 17 23  1  0  0  0  0
 18 19  1  0  0  0  0
 18 21  1  0  0  0  0
 18 24  1  0  0  0  0
 19 20  2  0  0  0  0
 19 28  1  0  0  0  0
 21 22  1  0  0  0  0
 21 25  1  0  0  0  0
 21 26  1  0  0  0  0
 22 27  1  0  0  0  0
 28 29  1  0  0  0  0
 28 33  1  0  0  0  0
 29 30  1  0  0  0  0
 29 32  1  0  0  0  0
 29 34  1  0  0  0  0
 30 31  2  0  0  0  0
 30 38  1  0  0  0  0
 32 35  1  0  0  0  0
 32 36  1  0  0  0  0
 32 37  1  0  0  0  0
 38 39  1  0  0  0  0
 38 40  1  0  0  0  0
 39 41  1  0  0  0  0
 39 42  1  0  0  0  0
 39 43  1  0  0  0  0
M  END
$$$$

  -OEChem-05262216003D

 43 42  0     1  0  0  0  0  0999 V2000
   -3.4724   -4.8419    1.5235 C   0  0  0  0  0  0  0  0  0  0  0  0
   -2.6955   -5.3167    2.3373 O   0  0  0  0  0  0  0  0  0  0  0  0
   -4.9433   -5.2102    1.5682 C   0  0  0  0  0  0  0  0  0  0  0  0
   -5.2393   -5.6780    0.6262 H   0  0  0  0  0  0  0  0  0  0  0  0
   -5.1310   -5.9128    2.3848 H   0  0  0  0  0  0  0  0  0  0  0  0
   -5.5482   -4.3145    1.7280 H   0  0  0  0  0  0  0  0  0  0  0  0
   -3.0131   -3.9669    0.5625 N   0  0  0  0  0  0  0  0  0  0  0  0
   -1.6394   -3.4543    0.4936 C   0  0  2  0  0  0  0  0  0  0  0  0
   -1.5894   -2.0470   -0.1365 C   0  0  0  0  0  0  0  0  0  0  0  0
   -2.5527   -1.6089   -0.7547 O   0  0  0  0  0  0  0  0  0  0  0  0
   -0.7986   -4.4373   -0.3280 C   0  0  0  0  0  0  0  0  0  0  0  0
   -3.7043   -3.5140   -0.0348 H   0  0  0  0  0  0  0  0  0  0  0  0
   -1.2250   -3.3766    1.5047 H   0  0  0  0  0  0  0  0  0  0  0  0
   -1.1904   -4.5152   -1.3477 H   0  0  0  0  0  0  0  0  0  0  0  0
    0.2429   -4.1061   -0.3792 H   0  0  0  0  0  0  0  0  0  0  0  0
   -0.8208   -5.4313    0.1303 H   0  0  0  0  0  0  0  0  0  0  0  0
   -0.4346   -1.2895   -0.0825 N   0  0  0  0  0  0  0  0  0  0  0  0
   -0.4072    0.1494   -0.4094 C   0  0  2  0  0  0  0  0  0  0  0  0
    0.2294    0.3950   -1.7954 C   0  0  0  0  0  0  0  0  0  0  0  0
    0.8712    1.4109   -2.0346 O   0  0  0  0  0  0  0  0  0  0  0  0
    0.3819    0.8640    0.6993 C   0  0  0  0  0  0  0  0  0  0  0  0
   -0.5062    0.7283    2.3057 S   0  0  0  0  0  0  0  0  0  0  0  0
    0.2948   -1.6415    0.5309 H   0  0  0  0  0  0  0  0  0  0  0  0
   -1.4191    0.5687   -0.4349 H   0  0  0  0  0  0  0  0  0  0  0  0
    1.3878    0.4400    0.7832 H   0  0  0  0  0  0  0  0  0  0  0  0
    0.4884    1.9254    0.4495 H   0  0  0  0  0  0  0  0  0  0  0  0
    0.2700    1.5000    3.0989 H   0  0  0  0  0  0  0  0  0  0  0  0
    0.1141   -0.5691   -2.7779 N   0  0  0  0  0  0  0  0  0  0  0  0
    0.6289   -0.4562   -4.1474 C   0  0  2  0  0  0  0  0  0  0  0  0
   -0.0966   -1.4286   -5.1013 C   0  0  0  0  0  0  0  0  0  0  0  0
   -0.7089   -2.3914   -4.6522 O   0  0  0  0  0  0  0  0  0  0  0  0
    2.1330   -0.7541   -4.1432 C   0  0  0  0  0  0  0  0  0  0  0  0
   -0.5247   -1.3430   -2.5837 H   0  0  0  0  0  0  0  0  0  0  0  0
    0.4599    0.5615   -4.5146 H   0  0  0  0  0  0  0  0  0  0  0  0
    2.3199   -1.7665   -3.7708 H   0  0  0  0  0  0  0  0  0  0  0  0
    2.5430   -0.6733   -5.1543 H   0  0  0  0  0  0  0  0  0  0  0  0
    2.6634   -0.0437   -3.5016 H   0  0  0  0  0  0  0  0  0  0  0  0
   -0.0548   -1.2312   -6.4694 N   0  0  0  0  0  0  0  0  0  0  0  0
   -0.7187   -2.1109   -7.4240 C   0  0  0  0  0  0  0  0  0  0  0  0
    0.4515   -0.4212   -6.8148 H   0  0  0  0  0  0  0  0  0  0  0  0
   -0.3118   -3.1253   -7.3562 H   0  0  0  0  0  0  0  0  0  0  0  0
   -1.7952   -2.1490   -7.2260 H   0  0  0  0  0  0  0  0  0  0  0  0
   -0.5684   -1.7454   -8.4443 H   0  0  0  0  0  0  0  0  0  0  0  0
  1  2  2  0  0  0  0
  1  3  1  0  0  0  0
  1  7  1  0  0  0  0
  3  4  1  0  0  0  0
  3  5  1  0  0  0  0
  3  6  1  0  0  0  0
  7  8  1  0  0  0  0
  7 12  1  0  0  0  0
  8  9  1  0  0  0  0
  8 11  1  0  0  0  0
  8 13  1  0  0  0  0
  9 10  2  0  0  0  0
  9 17  1  0  0  0  0
 11 14  1  0  0  0  0
 11 15  1  0  0  0  0
 11 16  1  0  0  0  0
 17 18  1  0  0  0  0
 17 23  1  0  0  0  0
 18 19  1  0  0  0  0
 18 21  1  0  0  0  0
 18 24  1  0  0  0  0
 19 20  2  0  0  0  0
 19 28  1  0  0  0  0
 21 22  1  0  0  0  0
 21 25  1  0  0  0  0
 21 26  1  0  0  0  0
 22 27  1  0  0  0  0
 28 29  1  0  0  0  0
 28 33  1  0  0  0  0
 29 30  1  0  0  0  0
 29 32  1  0  0  0  0
 29 34  1  0  0  0  0
 30 31  2  0  0  0  0
 30 38  1  0  0  0  0
 32 35  1  0  0  0  0
 32 36  1  0  0  0  0
 32 37  1  0  0  0  0
 38 39  1  0  0  0  0
 38 40  1  0  0  0  0
 39 41  1  0  0  0  0
 39 42  1  0  0  0  0
 39 43  1  0  0  0  0
M  END
$$$$

  -OEChem-05262216003D

 43 42  0     1  0  0  0  0  0999 V2000
   -3.4301   -4.8635    1.4753 C   0  0  0  0  0  0  0  0  0  0  0  0
   -2.6618   -5.3306    2.3016 O   0  0  0  0  0  0  0  0  0  0  0  0
   -4.9021   -5.2289    1.5095 C   0  0  0  0  0  0  0  0  0  0  0  0
   -5.2021   -5.6606    0.5515 H   0  0  0  0  0  0  0  0  0  0  0  0
   -5.0908   -5.9605    2.3002 H   0  0  0  0  0  0  0  0  0  0  0  0
   -5.5026   -4.3366    1.7032 H   0  0  0  0  0  0  0  0  0  0  0  0
   -2.9618   -3.9915    0.5161 N   0  0  0  0  0  0  0  0  0  0  0  0
   -1.5955   -3.4560    0.4791 C   0  0  2  0  0  0  0  0  0  0  0  0
   -1.5570   -2.0486   -0.1513 C   0  0  0  0  0  0  0  0  0  0  0  0
   -2.5253   -1.6164   -0.7666 O   0  0  0  0  0  0  0  0  0  0  0  0
   -0.7183   -4.4274   -0.3180 C   0  0  0  0  0  0  0  0  0  0  0  0
   -3.6495   -3.5398   -0.0865 H   0  0  0  0  0  0  0  0  0  0  0  0
   -1.2076   -3.3683    1.5000 H   0  0  0  0  0  0  0  0  0  0  0  0
   -1.0855   -4.5188   -1.3456 H   0  0  0  0  0  0  0  0  0  0  0  0
    0.3177   -4.0776   -0.3475 H   0  0  0  0  0  0  0  0  0  0  0  0
   -0.7322   -5.4188    0.1461 H   0  0  0  0  0  0  0  0  0  0  0  0
   -0.4097   -1.2801   -0.1064 N   0  0  0  0  0  0  0  0  0  0  0  0
   -0.4133    0.1644   -0.4033 C   0  0  2  0  0  0  0  0  0  0  0  0
    0.1878    0.4304   -1.8002 C   0  0  0  0  0  0  0  0  0  0  0  0
    1.0235    1.3074   -1.9880 O   0  0  0  0  0  0  0  0  0  0  0  0
    0.3862    0.8745    0.7009 C   0  0  0  0  0  0  0  0  0  0  0  0
   -0.4641    0.6944    2.3230 S   0  0  0  0  0  0  0  0  0  0  0  0
    0.3305   -1.6290    0.4957 H   0  0  0  0  0  0  0  0  0  0  0  0
   -1.4311    0.5693   -0.3990 H   0  0  0  0  0  0  0  0  0  0  0  0
    1.4008    0.4668    0.7561 H   0  0  0  0  0  0  0  0  0  0  0  0
    0.4694    1.9414    0.4650 H   0  0  0  0  0  0  0  0  0  0  0  0
    0.3237    1.4552    3.1149 H   0  0  0  0  0  0  0  0  0  0  0  0
   -0.2004   -0.3650   -2.8612 N   0  0  0  0  0  0  0  0  0  0  0  0
    0.2777   -0.2285   -4.2425 C   0  0  2  0  0  0  0  0  0  0  0  0
   -0.6853   -0.8840   -5.2543 C   0  0  0  0  0  0  0  0  0  0  0  0
   -1.4954   -1.7263   -4.8856 O   0  0  0  0  0  0  0  0  0  0  0  0
    1.6649   -0.8717   -4.3544 C   0  0  0  0  0  0  0  0  0  0  0  0
   -0.9647   -1.0237   -2.6883 H   0  0  0  0  0  0  0  0  0  0  0  0
    0.3488    0.8344   -4.4953 H   0  0  0  0  0  0  0  0  0  0  0  0
    1.6159   -1.9316   -4.0854 H   0  0  0  0  0  0  0  0  0  0  0  0
    2.0459   -0.7891   -5.3768 H   0  0  0  0  0  0  0  0  0  0  0  0
    2.3731   -0.3745   -3.6845 H   0  0  0  0  0  0  0  0  0  0  0  0
   -0.6315   -0.5351   -6.5915 N   0  0  0  0  0  0  0  0  0  0  0  0
   -1.5118   -1.1051   -7.6041 C   0  0  0  0  0  0  0  0  0  0  0  0
    0.0357    0.1801   -6.8652 H   0  0  0  0  0  0  0  0  0  0  0  0
   -1.4078   -2.1949   -7.6337 H   0  0  0  0  0  0  0  0  0  0  0  0
   -2.5561   -0.8561   -7.3878 H   0  0  0  0  0  0  0  0  0  0  0  0
   -1.2586   -0.7082   -8.5919 H   0  0  0  0  0  0  0  0  0  0  0  0
  1  2  2  0  0  0  0
  1  3  1  0  0  0  0
  1  7  1  0  0  0  0
  3  4  1  0  0  0  0
  3  5  1  0  0  0  0
  3  6  1  0  0  0  0
  7  8  1  0  0  0  0
  7 12  1  0  0  0  0
  8  9  1  0  0  0  0
  8 11  1  0  0  0  0
  8 13  1  0  0  0  0
  9 10  2  0  0  0  0
  9 17  1  0  0  0  0
 11 14  1  0  0  0  0
 11 15  1  0  0  0  0
 11 16  1  0  0  0  0
 17 18  1  0  0  0  0
 17 23  1  0  0  0  0
 18 19  1  0  0  0  0
 18 21  1  0  0  0  0
 18 24  1  0  0  0  0
 19 20  2  0  0  0  0
 19 28  1  0  0  0  0
 21 22  1  0  0  0  0
 21 25  1  0  0  0  0
 21 26  1  0  0  0  0
 22 27  1  0  0  0  0
 28 29  1  0  0  0  0
 28 33  1  0  0  0  0
 29 30  1  0  0  0  0
 29 32  1  0  0  0  0
 29 34  1  0  0  0  0
 30 31  2  0  0  0  0
 30 38  1  0  0  0  0
 32 35  1  0  0  0  0
 32 36  1  0  0  0  0
 32 37  1  0  0  0  0
 38 39  1  0  0  0  0
 38 40  1  0  0  0  0
 39 41  1  0  0  0  0
 39 42  1  0  0  0  0
 39 43  1  0  0  0  0
M  END
$$$$

  -OEChem-05262216003D

 43 42  0     1  0  0  0  0  0999 V2000
   -3.3915   -4.8853    1.4395 C   0  0  0  0  0  0  0  0  0  0  0  0
   -2.6145   -5.3606    2.2529 O   0  0  0  0  0  0  0  0  0  0  0  0
   -4.8580   -5.2732    1.4688 C   0  0  0  0  0  0  0  0  0  0  0  0
   -5.1315   -5.7685    0.5339 H   0  0  0  0  0  0  0  0  0  0  0  0
   -5.0506   -5.9577    2.2998 H   0  0  0  0  0  0  0  0  0  0  0  0
   -5.4780   -4.3823    1.5960 H   0  0  0  0  0  0  0  0  0  0  0  0
   -2.9365   -3.9914    0.4939 N   0  0  0  0  0  0  0  0  0  0  0  0
   -1.5726   -3.4496    0.4536 C   0  0  2  0  0  0  0  0  0  0  0  0
   -1.5442   -2.0365   -0.1644 C   0  0  0  0  0  0  0  0  0  0  0  0
   -2.5154   -1.6078   -0.7788 O   0  0  0  0  0  0  0  0  0  0  0  0
   -0.6945   -4.4070   -0.3593 C   0  0  0  0  0  0  0  0  0  0  0  0
   -3.6316   -3.5333   -0.0957 H   0  0  0  0  0  0  0  0  0  0  0  0
   -1.1780   -3.3703    1.4725 H   0  0  0  0  0  0  0  0  0  0  0  0
   -1.0648   -4.4863   -1.3867 H   0  0  0  0  0  0  0  0  0  0  0  0
    0.3399   -4.0516   -0.3878 H   0  0  0  0  0  0  0  0  0  0  0  0
   -0.7023   -5.4045    0.0916 H   0  0  0  0  0  0  0  0  0  0  0  0
   -0.4021   -1.2605   -0.1135 N   0  0  0  0  0  0  0  0  0  0  0  0
   -0.4183    0.1827   -0.4084 C   0  0  2  0  0  0  0  0  0  0  0  0
    0.1861    0.4431   -1.8029 C   0  0  0  0  0  0  0  0  0  0  0  0
    1.1806    1.1433   -1.9584 O   0  0  0  0  0  0  0  0  0  0  0  0
    0.3721    0.9022    0.6962 C   0  0  0  0  0  0  0  0  0  0  0  0
   -0.4779    0.7161    2.3177 S   0  0  0  0  0  0  0  0  0  0  0  0
    0.3428   -1.6056    0.4852 H   0  0  0  0  0  0  0  0  0  0  0  0
   -1.4386    0.5814   -0.4071 H   0  0  0  0  0  0  0  0  0  0  0  0
    1.3904    0.5037    0.7551 H   0  0  0  0  0  0  0  0  0  0  0  0
    0.4470    1.9685    0.4559 H   0  0  0  0  0  0  0  0  0  0  0  0
    0.3054    1.4815    3.1097 H   0  0  0  0  0  0  0  0  0  0  0  0
   -0.4095   -0.1373   -2.9059 N   0  0  0  0  0  0  0  0  0  0  0  0
    0.0328    0.0433   -4.2943 C   0  0  2  0  0  0  0  0  0  0  0  0
   -1.1042   -0.2033   -5.3077 C   0  0  0  0  0  0  0  0  0  0  0  0
   -2.0945   -0.8495   -4.9881 O   0  0  0  0  0  0  0  0  0  0  0  0
    1.1965   -0.9160   -4.5680 C   0  0  0  0  0  0  0  0  0  0  0  0
   -1.2656   -0.6758   -2.7436 H   0  0  0  0  0  0  0  0  0  0  0  0
    0.3737    1.0746   -4.4320 H   0  0  0  0  0  0  0  0  0  0  0  0
    0.8804   -1.9531   -4.4160 H   0  0  0  0  0  0  0  0  0  0  0  0
    1.5495   -0.8067   -5.5979 H   0  0  0  0  0  0  0  0  0  0  0  0
    2.0328   -0.7042   -3.8945 H   0  0  0  0  0  0  0  0  0  0  0  0
   -1.0086    0.2957   -6.5941 N   0  0  0  0  0  0  0  0  0  0  0  0
   -2.0401    0.1029   -7.6060 C   0  0  0  0  0  0  0  0  0  0  0  0
   -0.1861    0.8442   -6.8272 H   0  0  0  0  0  0  0  0  0  0  0  0
   -2.1909   -0.9641   -7.8010 H   0  0  0  0  0  0  0  0  0  0  0  0
   -2.9886    0.5383   -7.2742 H   0  0  0  0  0  0  0  0  0  0  0  0
   -1.7464    0.5869   -8.5424 H   0  0  0  0  0  0  0  0  0  0  0  0
  1  2  2  0  0  0  0
  1  3  1  0  0  0  0
  1  7  1  0  0  0  0
  3  4  1  0  0  0  0
  3  5  1  0  0  0  0
  3  6  1  0  0  0  0
  7  8  1  0  0  0  0
  7 12  1  0  0  0  0
  8  9  1  0  0  0  0
  8 11  1  0  0  0  0
  8 13  1  0  0  0  0
  9 10  2  0  0  0  0
  9 17  1  0  0  0  0
 11 14  1  0  0  0  0
 11 15  1  0  0  0  0
 11 16  1  0  0  0  0
 17 18  1  0  0  0  0
 17 23  1  0  0  0  0
 18 19  1  0  0  0  0
 18 21  1  0  0  0  0
 18 24  1  0  0  0  0
 19 20  2  0  0  0  0
 19 28  1  0  0  0  0
 21 22  1  0  0  0  0
 21 25  1  0  0  0  0
 21 26  1  0  0  0  0
 22 27  1  0  0  0  0
 28 29  1  0  0  0  0
 28 33  1  0  0  0  0
 29 30  1  0  0  0  0
 29 32  1  0  0  0  0
 29 34  1  0  0  0  0
 30 31  2  0  0  0  0
 30 38  1  0  0  0  0
 32 35  1  0  0  0  0
 32 36  1  0  0  0  0
 32 37  1  0  0  0  0
 38 39  1  0  0  0  0
 38 40  1  0  0  0  0
 39 41  1  0  0  0  0
 39 42  1  0  0  0  0
 39 43  1  0  0  0  0
M  END
$$$$

  -OEChem-05262216003D

 43 42  0     1  0  0  0  0  0999 V2000
   -3.3617   -4.8987    1.4233 C   0  0  0  0  0  0  0  0  0  0  0  0
   -2.5781   -5.3659    2.2346 O   0  0  0  0  0  0  0  0  0  0  0  0
   -4.8268   -5.2904    1.4647 C   0  0  0  0  0  0  0  0  0  0  0  0
   -5.1127   -5.7655    0.5230 H   0  0  0  0  0  0  0  0  0  0  0  0
   -5.0061   -5.9936    2.2829 H   0  0  0  0  0  0  0  0  0  0  0  0
   -5.4458   -4.4035    1.6204 H   0  0  0  0  0  0  0  0  0  0  0  0
   -2.9152   -4.0096    0.4692 N   0  0  0  0  0  0  0  0  0  0  0  0
   -1.5550   -3.4588    0.4216 C   0  0  2  0  0  0  0  0  0  0  0  0
   -1.5383   -2.0439   -0.1933 C   0  0  0  0  0  0  0  0  0  0  0  0
   -2.5182   -1.6174   -0.7959 O   0  0  0  0  0  0  0  0  0  0  0  0
   -0.6776   -4.4120   -0.3964 C   0  0  0  0  0  0  0  0  0  0  0  0
   -3.6165   -3.5542   -0.1147 H   0  0  0  0  0  0  0  0  0  0  0  0
   -1.1549   -3.3780    1.4383 H   0  0  0  0  0  0  0  0  0  0  0  0
   -1.0530   -4.4910   -1.4217 H   0  0  0  0  0  0  0  0  0  0  0  0
    0.3556   -4.0538   -0.4293 H   0  0  0  0  0  0  0  0  0  0  0  0
   -0.6810   -5.4100    0.0534 H   0  0  0  0  0  0  0  0  0  0  0  0
   -0.4037   -1.2577   -0.1349 N   0  0  0  0  0  0  0  0  0  0  0  0
   -0.4326    0.1867   -0.4168 C   0  0  2  0  0  0  0  0  0  0  0  0
    0.1693    0.4690   -1.8066 C   0  0  0  0  0  0  0  0  0  0  0  0
    1.2851    0.9597   -1.9401 O   0  0  0  0  0  0  0  0  0  0  0  0
    0.3528    0.9041    0.6922 C   0  0  0  0  0  0  0  0  0  0  0  0
   -0.4941    0.6967    2.3126 S   0  0  0  0  0  0  0  0  0  0  0  0
    0.3499   -1.6042    0.4518 H   0  0  0  0  0  0  0  0  0  0  0  0
   -1.4564    0.5766   -0.4082 H   0  0  0  0  0  0  0  0  0  0  0  0
    1.3734    0.5107    0.7490 H   0  0  0  0  0  0  0  0  0  0  0  0
    0.4221    1.9721    0.4583 H   0  0  0  0  0  0  0  0  0  0  0  0
    0.2891    1.4550    3.1112 H   0  0  0  0  0  0  0  0  0  0  0  0
   -0.5760    0.1688   -2.9294 N   0  0  0  0  0  0  0  0  0  0  0  0
   -0.1443    0.4019   -4.3132 C   0  0  2  0  0  0  0  0  0  0  0  0
   -1.3353    0.5825   -5.2773 C   0  0  0  0  0  0  0  0  0  0  0  0
   -2.4576    0.2109   -4.9568 O   0  0  0  0  0  0  0  0  0  0  0  0
    0.7169   -0.7852   -4.7566 C   0  0  0  0  0  0  0  0  0  0  0  0
   -1.5057   -0.2328   -2.7810 H   0  0  0  0  0  0  0  0  0  0  0  0
    0.4518    1.3194   -4.3573 H   0  0  0  0  0  0  0  0  0  0  0  0
    0.1394   -1.7143   -4.7084 H   0  0  0  0  0  0  0  0  0  0  0  0
    1.0662   -0.6445   -5.7839 H   0  0  0  0  0  0  0  0  0  0  0  0
    1.5920   -0.8846   -4.1067 H   0  0  0  0  0  0  0  0  0  0  0  0
   -1.1451    1.1623   -6.5185 N   0  0  0  0  0  0  0  0  0  0  0  0
   -2.2250    1.3752   -7.4743 C   0  0  0  0  0  0  0  0  0  0  0  0
   -0.2092    1.4798   -6.7527 H   0  0  0  0  0  0  0  0  0  0  0  0
   -2.7009    0.4232   -7.7328 H   0  0  0  0  0  0  0  0  0  0  0  0
   -2.9820    2.0448   -7.0525 H   0  0  0  0  0  0  0  0  0  0  0  0
   -1.8359    1.8271   -8.3919 H   0  0  0  0  0  0  0  0  0  0  0  0
  1  2  2  0  0  0  0
  1  3  1  0  0  0  0
  1  7  1  0  0  0  0
  3  4  1  0  0  0  0
  3  5  1  0  0  0  0
  3  6  1  0  0  0  0
  7  8  1  0  0  0  0
  7 12  1  0  0  0  0
  8  9  1  0  0  0  0
  8 11  1  0  0  0  0
  8 13  1  0  0  0  0
  9 10  2  0  0  0  0
  9 17  1  0  0  0  0
 11 14  1  0  0  0  0
 11 15  1  0  0  0  0
 11 16  1  0  0  0  0
 17 18  1  0  0  0  0
 17 23  1  0  0  0  0
 18 19  1  0  0  0  0
 18 21  1  0  0  0  0
 18 24  1  0  0  0  0
 19 20  2  0  0  0  0
 19 28  1  0  0  0  0
 21 22  1  0  0  0  0
 21 25  1  0  0  0  0
 21 26  1  0  0  0  0
 22 27  1  0  0  0  0
 28 29  1  0  0  0  0
 28 33  1  0  0  0  0
 29 30  1  0  0  0  0
 29 32  1  0  0  0  0
 29 34  1  0  0  0  0
 30 31  2  0  0  0  0
 30 38  1  0  0  0  0
 32 35  1  0  0  0  0
 32 36  1  0  0  0  0
 32 37  1  0  0  0  0
 38 39  1  0  0  0  0
 38 40  1  0  0  0  0
 39 41  1  0  0  0  0
 39 42  1  0  0  0  0
 39 43  1  0  0  0  0
M  END
$$$$

  -OEChem-05262216003D

 43 42  0     1  0  0  0  0  0999 V2000
   -3.3305   -4.9602    1.3750 C   0  0  0  0  0  0  0  0  0  0  0  0
   -2.5090   -5.4850    2.1102 O   0  0  0  0  0  0  0  0  0  0  0  0
   -4.7948   -5.3460    1.4698 C   0  0  0  0  0  0  0  0  0  0  0  0
   -5.1314   -5.7700    0.5207 H   0  0  0  0  0  0  0  0  0  0  0  0
   -4.9380   -6.0896    2.2587 H   0  0  0  0  0  0  0  0  0  0  0  0
   -5.3990   -4.4656    1.7021 H   0  0  0  0  0  0  0  0  0  0  0  0
   -2.9281   -4.0114    0.4594 N   0  0  0  0  0  0  0  0  0  0  0  0
   -1.5692   -3.4608    0.3771 C   0  0  2  0  0  0  0  0  0  0  0  0
   -1.5773   -2.0169   -0.1680 C   0  0  0  0  0  0  0  0  0  0  0  0
   -2.5839   -1.5645   -0.7044 O   0  0  0  0  0  0  0  0  0  0  0  0
   -0.7309   -4.3715   -0.5261 C   0  0  0  0  0  0  0  0  0  0  0  0
   -3.6554   -3.5178   -0.0578 H   0  0  0  0  0  0  0  0  0  0  0  0
   -1.1233   -3.4312    1.3774 H   0  0  0  0  0  0  0  0  0  0  0  0
   -1.1575   -4.4069   -1.5336 H   0  0  0  0  0  0  0  0  0  0  0  0
    0.2978   -4.0057   -0.5953 H   0  0  0  0  0  0  0  0  0  0  0  0
   -0.7068   -5.3886   -0.1223 H   0  0  0  0  0  0  0  0  0  0  0  0
   -0.4414   -1.2316   -0.1113 N   0  0  0  0  0  0  0  0  0  0  0  0
   -0.4486    0.2109   -0.4028 C   0  0  2  0  0  0  0  0  0  0  0  0
    0.1668    0.4823   -1.7886 C   0  0  0  0  0  0  0  0  0  0  0  0
    1.3656    0.7033   -1.9221 O   0  0  0  0  0  0  0  0  0  0  0  0
    0.3418    0.9336    0.6982 C   0  0  0  0  0  0  0  0  0  0  0  0
   -0.5064    0.7597    2.3216 S   0  0  0  0  0  0  0  0  0  0  0  0
    0.3516   -1.6092    0.3995 H   0  0  0  0  0  0  0  0  0  0  0  0
   -1.4675    0.6130   -0.3994 H   0  0  0  0  0  0  0  0  0  0  0  0
    1.3574    0.5288    0.7630 H   0  0  0  0  0  0  0  0  0  0  0  0
    0.4240    1.9967    0.4481 H   0  0  0  0  0  0  0  0  0  0  0  0
    0.2980    1.5021    3.1140 H   0  0  0  0  0  0  0  0  0  0  0  0
   -0.6497    0.4932   -2.9016 N   0  0  0  0  0  0  0  0  0  0  0  0
   -0.2079    0.7886   -4.2700 C   0  0  2  0  0  0  0  0  0  0  0  0
   -1.3474    1.3761   -5.1297 C   0  0  0  0  0  0  0  0  0  0  0  0
   -2.5073    1.3343   -4.7364 O   0  0  0  0  0  0  0  0  0  0  0  0
    0.3241   -0.5054   -4.8955 C   0  0  0  0  0  0  0  0  0  0  0  0
   -1.6468    0.3210   -2.7558 H   0  0  0  0  0  0  0  0  0  0  0  0
    0.5950    1.5327   -4.2417 H   0  0  0  0  0  0  0  0  0  0  0  0
   -0.4656   -1.2625   -4.9358 H   0  0  0  0  0  0  0  0  0  0  0  0
    0.6843   -0.3222   -5.9122 H   0  0  0  0  0  0  0  0  0  0  0  0
    1.1554   -0.9011   -4.3032 H   0  0  0  0  0  0  0  0  0  0  0  0
   -1.0710    1.9657   -6.3497 N   0  0  0  0  0  0  0  0  0  0  0  0
   -2.0951    2.5643   -7.1975 C   0  0  0  0  0  0  0  0  0  0  0  0
   -0.1000    2.0078   -6.6444 H   0  0  0  0  0  0  0  0  0  0  0  0
   -2.8715    1.8303   -7.4384 H   0  0  0  0  0  0  0  0  0  0  0  0
   -2.5611    3.4162   -6.6912 H   0  0  0  0  0  0  0  0  0  0  0  0
   -1.6526    2.9176   -8.1338 H   0  0  0  0  0  0  0  0  0  0  0  0
  1  2  2  0  0  0  0
  1  3  1  0  0  0  0
  1  7  1  0  0  0  0
  3  4  1  0  0  0  0
  3  5  1  0  0  0  0
  3  6  1  0  0  0  0
  7  8  1  0  0  0  0
  7 12  1  0  0  0  0
  8  9  1  0  0  0  0
  8 11  1  0  0  0  0
  8 13  1  0  0  0  0
  9 10  2  0  0  0  0
  9 17  1  0  0  0  0
 11 14  1  0  0  0  0
 11 15  1  0  0  0  0
 11 16  1  0  0  0  0
 17 18  1  0  0  0  0
 17 23  1  0  0  0  0
 18 19  1  0  0  0  0
 18 21  1  0  0  0  0
 18 24  1  0  0  0  0
 19 20  2  0  0  0  0
 19 28  1  0  0  0  0
 21 22  1  0  0  0  0
 21 25  1  0  0  0  0
 21 26  1  0  0  0  0
 22 27  1  0  0  0  0
 28 29  1  0  0  0  0
 28 33  1  0  0  0  0
 29 30  1  0  0  0  0
 29 32  1  0  0  0  0
 29 34  1  0  0  0  0
 30 31  2  0  0  0  0
 30 38  1  0  0  0  0
 32 35  1  0  0  0  0
 32 36  1  0  0  0  0
 32 37  1  0  0  0  0
 38 39  1  0  0  0  0
 38 40  1  0  0  0  0
 39 41  1  0  0  0  0
 39 42  1  0  0  0  0
 39 43  1  0  0  0  0
M  END
$$$$

  -OEChem-05262216003D

 43 42  0     1  0  0  0  0  0999 V2000
   -3.3002   -5.0142    1.3284 C   0  0  0  0  0  0  0  0  0  0  0  0
   -2.4482   -5.5731    2.0012 O   0  0  0  0  0  0  0  0  0  0  0  0
   -4.7597   -5.4044    1.4681 C   0  0  0  0  0  0  0  0  0  0  0  0
   -5.1421   -5.7675    0.5112 H   0  0  0  0  0  0  0  0  0  0  0  0
   -4.8689   -6.1969    2.2137 H   0  0  0  0  0  0  0  0  0  0  0  0
   -5.3488   -4.5396    1.7834 H   0  0  0  0  0  0  0  0  0  0  0  0
   -2.9388   -4.0191    0.4456 N   0  0  0  0  0  0  0  0  0  0  0  0
   -1.5878   -3.4541    0.3392 C   0  0  2  0  0  0  0  0  0  0  0  0
   -1.6272   -1.9837   -0.1278 C   0  0  0  0  0  0  0  0  0  0  0  0
   -2.6615   -1.5081   -0.5856 O   0  0  0  0  0  0  0  0  0  0  0  0
   -0.7783   -4.3084   -0.6423 C   0  0  0  0  0  0  0  0  0  0  0  0
   -3.6889   -3.4973   -0.0071 H   0  0  0  0  0  0  0  0  0  0  0  0
   -1.1033   -3.4727    1.3216 H   0  0  0  0  0  0  0  0  0  0  0  0
   -1.2410   -4.2927   -1.6344 H   0  0  0  0  0  0  0  0  0  0  0  0
    0.2453   -3.9316   -0.7284 H   0  0  0  0  0  0  0  0  0  0  0  0
   -0.7338   -5.3455   -0.2946 H   0  0  0  0  0  0  0  0  0  0  0  0
   -0.4904   -1.2001   -0.0825 N   0  0  0  0  0  0  0  0  0  0  0  0
   -0.4773    0.2399   -0.3821 C   0  0  2  0  0  0  0  0  0  0  0  0
    0.1391    0.5011   -1.7684 C   0  0  0  0  0  0  0  0  0  0  0  0
    1.3520    0.4338   -1.9354 O   0  0  0  0  0  0  0  0  0  0  0  0
    0.3354    0.9604    0.7027 C   0  0  0  0  0  0  0  0  0  0  0  0
   -0.4954    0.8144    2.3377 S   0  0  0  0  0  0  0  0  0  0  0  0
    0.3456   -1.6143    0.3195 H   0  0  0  0  0  0  0  0  0  0  0  0
   -1.4911    0.6549   -0.3726 H   0  0  0  0  0  0  0  0  0  0  0  0
    1.3447    0.5390    0.7600 H   0  0  0  0  0  0  0  0  0  0  0  0
    0.4319    2.0194    0.4415 H   0  0  0  0  0  0  0  0  0  0  0  0
    0.3352    1.5418    3.1169 H   0  0  0  0  0  0  0  0  0  0  0  0
   -0.6718    0.8311   -2.8356 N   0  0  0  0  0  0  0  0  0  0  0  0
   -0.1960    1.1636   -4.1838 C   0  0  2  0  0  0  0  0  0  0  0  0
   -1.1690    2.1109   -4.9179 C   0  0  0  0  0  0  0  0  0  0  0  0
   -2.2850    2.3288   -4.4601 O   0  0  0  0  0  0  0  0  0  0  0  0
   -0.0192   -0.1415   -4.9672 C   0  0  0  0  0  0  0  0  0  0  0  0
   -1.6756    0.9065   -2.6634 H   0  0  0  0  0  0  0  0  0  0  0  0
    0.7687    1.6775   -4.1156 H   0  0  0  0  0  0  0  0  0  0  0  0
   -0.9753   -0.6681   -5.0531 H   0  0  0  0  0  0  0  0  0  0  0  0
    0.3595    0.0614   -5.9733 H   0  0  0  0  0  0  0  0  0  0  0  0
    0.6941   -0.7974   -4.4581 H   0  0  0  0  0  0  0  0  0  0  0  0
   -0.7872    2.7352   -6.0912 N   0  0  0  0  0  0  0  0  0  0  0  0
   -1.6440    3.6648   -6.8173 C   0  0  0  0  0  0  0  0  0  0  0  0
    0.1493    2.5528   -6.4396 H   0  0  0  0  0  0  0  0  0  0  0  0
   -2.5988    3.1906   -7.0682 H   0  0  0  0  0  0  0  0  0  0  0  0
   -1.8415    4.5557   -6.2119 H   0  0  0  0  0  0  0  0  0  0  0  0
   -1.1598    3.9781   -7.7473 H   0  0  0  0  0  0  0  0  0  0  0  0
  1  2  2  0  0  0  0
  1  3  1  0  0  0  0
  1  7  1  0  0  0  0
  3  4  1  0  0  0  0
  3  5  1  0  0  0  0
  3  6  1  0  0  0  0
  7  8  1  0  0  0  0
  7 12  1  0  0  0  0
  8  9  1  0  0  0  0
  8 11  1  0  0  0  0
  8 13  1  0  0  0  0
  9 10  2  0  0  0  0
  9 17  1  0  0  0  0
 11 14  1  0  0  0  0
 11 15  1  0  0  0  0
 11 16  1  0  0  0  0
 17 18  1  0  0  0  0
 17 23  1  0  0  0  0
 18 19  1  0  0  0  0
 18 21  1  0  0  0  0
 18 24  1  0  0  0  0
 19 20  2  0  0  0  0
 19 28  1  0  0  0  0
 21 22  1  0  0  0  0
 21 25  1  0  0  0  0
 21 26  1  0  0  0  0
 22 27  1  0  0  0  0
 28 29  1  0  0  0  0
 28 33  1  0  0  0  0
 29 30  1  0  0  0  0
 29 32  1  0  0  0  0
 29 34  1  0  0  0  0
 30 31  2  0  0  0  0
 30 38  1  0  0  0  0
 32 35  1  0  0  0  0
 32 36  1  0  0  0  0
 32 37  1  0  0  0  0
 38 39  1  0  0  0  0
 38 40  1  0  0  0  0
 39 41  1  0  0  0  0
 39 42  1  0  0  0  0
 39 43  1  0  0  0  0
M  END
$$$$

  -OEChem-05262216003D

 43 42  0     1  0  0  0  0  0999 V2000
   -3.2828   -5.0396    1.2426 C   0  0  0  0  0  0  0  0  0  0  0  0
   -2.4001   -5.6469    1.8280 O   0  0  0  0  0  0  0  0  0  0  0  0
   -4.7367   -5.4199    1.4500 C   0  0  0  0  0  0  0  0  0  0  0  0
   -5.1925   -5.6865    0.4932 H   0  0  0  0  0  0  0  0  0  0  0  0
   -4.8096   -6.2763    2.1263 H   0  0  0  0  0  0  0  0  0  0  0  0
   -5.2834   -4.5796    1.8852 H   0  0  0  0  0  0  0  0  0  0  0  0
   -2.9613   -4.0001    0.3964 N   0  0  0  0  0  0  0  0  0  0  0  0
   -1.6133   -3.4357    0.2525 C   0  0  2  0  0  0  0  0  0  0  0  0
   -1.6652   -1.9291   -0.0761 C   0  0  0  0  0  0  0  0  0  0  0  0
   -2.7214   -1.4119   -0.4261 O   0  0  0  0  0  0  0  0  0  0  0  0
   -0.8824   -4.2029   -0.8537 C   0  0  0  0  0  0  0  0  0  0  0  0
   -3.7310   -3.4413    0.0285 H   0  0  0  0  0  0  0  0  0  0  0  0
   -1.0635   -3.5459    1.1937 H   0  0  0  0  0  0  0  0  0  0  0  0
   -1.4113   -4.0968   -1.8064 H   0  0  0  0  0  0  0  0  0  0  0  0
    0.1368   -3.8245   -0.9765 H   0  0  0  0  0  0  0  0  0  0  0  0
   -0.8261   -5.2669   -0.6028 H   0  0  0  0  0  0  0  0  0  0  0  0
   -0.5190   -1.1596   -0.0241 N   0  0  0  0  0  0  0  0  0  0  0  0
   -0.4765    0.2819   -0.3150 C   0  0  2  0  0  0  0  0  0  0  0  0
    0.1508    0.5428   -1.6957 C   0  0  0  0  0  0  0  0  0  0  0  0
    1.3047    0.1952   -1.9223 O   0  0  0  0  0  0  0  0  0  0  0  0
    0.3473    0.9872    0.7706 C   0  0  0  0  0  0  0  0  0  0  0  0
   -0.4877    0.8535    2.4048 S   0  0  0  0  0  0  0  0  0  0  0  0
    0.3528   -1.6299    0.2025 H   0  0  0  0  0  0  0  0  0  0  0  0
   -1.4836    0.7115   -0.3074 H   0  0  0  0  0  0  0  0  0  0  0  0
    1.3487    0.5471    0.8277 H   0  0  0  0  0  0  0  0  0  0  0  0
    0.4627    2.0452    0.5127 H   0  0  0  0  0  0  0  0  0  0  0  0
    0.3670    1.5411    3.1934 H   0  0  0  0  0  0  0  0  0  0  0  0
   -0.5682    1.1866   -2.6833 N   0  0  0  0  0  0  0  0  0  0  0  0
   -0.0507    1.5365   -4.0119 C   0  0  2  0  0  0  0  0  0  0  0  0
   -0.8200    2.7270   -4.6242 C   0  0  0  0  0  0  0  0  0  0  0  0
   -1.8430    3.1406   -4.0899 O   0  0  0  0  0  0  0  0  0  0  0  0
   -0.1598    0.3046   -4.9174 C   0  0  0  0  0  0  0  0  0  0  0  0
   -1.5108    1.5064   -2.4558 H   0  0  0  0  0  0  0  0  0  0  0  0
    1.0002    1.8333   -3.9277 H   0  0  0  0  0  0  0  0  0  0  0  0
   -1.2058   -0.0022   -5.0192 H   0  0  0  0  0  0  0  0  0  0  0  0
    0.2390    0.5215   -5.9126 H   0  0  0  0  0  0  0  0  0  0  0  0
    0.4081   -0.5304   -4.4955 H   0  0  0  0  0  0  0  0  0  0  0  0
   -0.3597    3.3470   -5.7714 N   0  0  0  0  0  0  0  0  0  0  0  0
   -1.0377    4.4763   -6.3971 C   0  0  0  0  0  0  0  0  0  0  0  0
    0.4942    2.9906   -6.1901 H   0  0  0  0  0  0  0  0  0  0  0  0
   -2.0660    4.2086   -6.6622 H   0  0  0  0  0  0  0  0  0  0  0  0
   -1.0620    5.3336   -5.7163 H   0  0  0  0  0  0  0  0  0  0  0  0
   -0.5133    4.7739   -7.3100 H   0  0  0  0  0  0  0  0  0  0  0  0
  1  2  2  0  0  0  0
  1  3  1  0  0  0  0
  1  7  1  0  0  0  0
  3  4  1  0  0  0  0
  3  5  1  0  0  0  0
  3  6  1  0  0  0  0
  7  8  1  0  0  0  0
  7 12  1  0  0  0  0
  8  9  1  0  0  0  0
  8 11  1  0  0  0  0
  8 13  1  0  0  0  0
  9 10  2  0  0  0  0
  9 17  1  0  0  0  0
 11 14  1  0  0  0  0
 11 15  1  0  0  0  0
 11 16  1  0  0  0  0
 17 18  1  0  0  0  0
 17 23  1  0  0  0  0
 18 19  1  0  0  0  0
 18 21  1  0  0  0  0
 18 24  1  0  0  0  0
 19 20  2  0  0  0  0
 19 28  1  0  0  0  0
 21 22  1  0  0  0  0
 21 25  1  0  0  0  0
 21 26  1  0  0  0  0
 22 27  1  0  0  0  0
 28 29  1  0  0  0  0
 28 33  1  0  0  0  0
 29 30  1  0  0  0  0
 29 32  1  0  0  0  0
 29 34  1  0  0  0  0
 30 31  2  0  0  0  0
 30 38  1  0  0  0  0
 32 35  1  0  0  0  0
 32 36  1  0  0  0  0
 32 37  1  0  0  0  0
 38 39  1  0  0  0  0
 38 40  1  0  0  0  0
 39 41  1  0  0  0  0
 39 42  1  0  0  0  0
 39 43  1  0  0  0  0
M  END
$$$$

  -OEChem-05262216003D

 43 42  0     1  0  0  0  0  0999 V2000
   -3.2712   -5.0577    1.2023 C   0  0  0  0  0  0  0  0  0  0  0  0
   -2.3721   -5.6782    1.7476 O   0  0  0  0  0  0  0  0  0  0  0  0
   -4.7183   -5.4487    1.4372 C   0  0  0  0  0  0  0  0  0  0  0  0
   -5.2034   -5.6726    0.4841 H   0  0  0  0  0  0  0  0  0  0  0  0
   -4.7705   -6.3349    2.0758 H   0  0  0  0  0  0  0  0  0  0  0  0
   -5.2519   -4.6299    1.9262 H   0  0  0  0  0  0  0  0  0  0  0  0
   -2.9744   -3.9938    0.3776 N   0  0  0  0  0  0  0  0  0  0  0  0
   -1.6321   -3.4201    0.2182 C   0  0  2  0  0  0  0  0  0  0  0  0
   -1.6961   -1.9026   -0.0500 C   0  0  0  0  0  0  0  0  0  0  0  0
   -2.7621   -1.3751   -0.3524 O   0  0  0  0  0  0  0  0  0  0  0  0
   -0.9289   -4.1419   -0.9359 C   0  0  0  0  0  0  0  0  0  0  0  0
   -3.7543   -3.4235    0.0514 H   0  0  0  0  0  0  0  0  0  0  0  0
   -1.0572   -3.5632    1.1397 H   0  0  0  0  0  0  0  0  0  0  0  0
   -1.4777   -3.9920   -1.8712 H   0  0  0  0  0  0  0  0  0  0  0  0
    0.0897   -3.7633   -1.0650 H   0  0  0  0  0  0  0  0  0  0  0  0
   -0.8730   -5.2161   -0.7328 H   0  0  0  0  0  0  0  0  0  0  0  0
   -0.5488   -1.1360    0.0098 N   0  0  0  0  0  0  0  0  0  0  0  0
   -0.4982    0.3028   -0.2911 C   0  0  2  0  0  0  0  0  0  0  0  0
    0.1458    0.5563   -1.6650 C   0  0  0  0  0  0  0  0  0  0  0  0
    1.1941   -0.0066   -1.9621 O   0  0  0  0  0  0  0  0  0  0  0  0
    0.3268    1.0097    0.7917 C   0  0  0  0  0  0  0  0  0  0  0  0
   -0.5089    0.8936    2.4271 S   0  0  0  0  0  0  0  0  0  0  0  0
    0.3330   -1.6269    0.1305 H   0  0  0  0  0  0  0  0  0  0  0  0
   -1.5043    0.7354   -0.2954 H   0  0  0  0  0  0  0  0  0  0  0  0
    1.3238    0.5598    0.8523 H   0  0  0  0  0  0  0  0  0  0  0  0
    0.4518    2.0652    0.5278 H   0  0  0  0  0  0  0  0  0  0  0  0
    0.3549    1.5737    3.2122 H   0  0  0  0  0  0  0  0  0  0  0  0
   -0.4191    1.4500   -2.5531 N   0  0  0  0  0  0  0  0  0  0  0  0
    0.1638    1.8347   -3.8442 C   0  0  2  0  0  0  0  0  0  0  0  0
   -0.3154    3.2343   -4.2862 C   0  0  0  0  0  0  0  0  0  0  0  0
   -1.1935    3.8119   -3.6547 O   0  0  0  0  0  0  0  0  0  0  0  0
   -0.2209    0.7771   -4.8852 C   0  0  0  0  0  0  0  0  0  0  0  0
   -1.2517    1.9592   -2.2539 H   0  0  0  0  0  0  0  0  0  0  0  0
    1.2545    1.8758   -3.7556 H   0  0  0  0  0  0  0  0  0  0  0  0
   -1.3094    0.7209   -4.9885 H   0  0  0  0  0  0  0  0  0  0  0  0
    0.2105    1.0206   -5.8603 H   0  0  0  0  0  0  0  0  0  0  0  0
    0.1505   -0.2074   -4.5837 H   0  0  0  0  0  0  0  0  0  0  0  0
    0.2447    3.8555   -5.3874 N   0  0  0  0  0  0  0  0  0  0  0  0
   -0.1782    5.1658   -5.8680 C   0  0  0  0  0  0  0  0  0  0  0  0
    0.9735    3.3579   -5.8905 H   0  0  0  0  0  0  0  0  0  0  0  0
   -1.2517    5.1667   -6.0855 H   0  0  0  0  0  0  0  0  0  0  0  0
    0.0292    5.9353   -5.1170 H   0  0  0  0  0  0  0  0  0  0  0  0
    0.3593    5.4238   -6.7856 H   0  0  0  0  0  0  0  0  0  0  0  0
  1  2  2  0  0  0  0
  1  3  1  0  0  0  0
  1  7  1  0  0  0  0
  3  4  1  0  0  0  0
  3  5  1  0  0  0  0
  3  6  1  0  0  0  0
  7  8  1  0  0  0  0
  7 12  1  0  0  0  0
  8  9  1  0  0  0  0
  8 11  1  0  0  0  0
  8 13  1  0  0  0  0
  9 10  2  0  0  0  0
  9 17  1  0  0  0  0
 11 14  1  0  0  0  0
 11 15  1  0  0  0  0
 11 16  1  0  0  0  0
 17 18  1  0  0  0  0
 17 23  1  0  0  0  0
 18 19  1  0  0  0  0
 18 21  1  0  0  0  0
 18 24  1  0  0  0  0
 19 20  2  0  0  0  0
 19 28  1  0  0  0  0
 21 22  1  0  0  0  0
 21 25  1  0  0  0  0
 21 26  1  0  0  0  0
 22 27  1  0  0  0  0
 28 29  1  0  0  0  0
 28 33  1  0  0  0  0
 29 30  1  0  0  0  0
 29 32  1  0  0  0  0
 29 34  1  0  0  0  0
 30 31  2  0  0  0  0
 30 38  1  0  0  0  0
 32 35  1  0  0  0  0
 32 36  1  0  0  0  0
 32 37  1  0  0  0  0
 38 39  1  0  0  0  0
 38 40  1  0  0  0  0
 39 41  1  0  0  0  0
 39 42  1  0  0  0  0
 39 43  1  0  0  0  0
M  END
$$$$

  -OEChem-05262216003D

 43 42  0     1  0  0  0  0  0999 V2000
   -3.2827   -5.0539    1.1634 C   0  0  0  0  0  0  0  0  0  0  0  0
   -2.3799   -5.7022    1.6689 O   0  0  0  0  0  0  0  0  0  0  0  0
   -4.7296   -5.4234    1.4320 C   0  0  0  0  0  0  0  0  0  0  0  0
   -5.2391   -5.6479    0.4917 H   0  0  0  0  0  0  0  0  0  0  0  0
   -4.7802   -6.3036    2.0792 H   0  0  0  0  0  0  0  0  0  0  0  0
   -5.2402   -4.5929    1.9259 H   0  0  0  0  0  0  0  0  0  0  0  0
   -2.9916   -3.9747    0.3569 N   0  0  0  0  0  0  0  0  0  0  0  0
   -1.6465   -3.4125    0.1786 C   0  0  2  0  0  0  0  0  0  0  0  0
   -1.6991   -1.8862   -0.0424 C   0  0  0  0  0  0  0  0  0  0  0  0
   -2.7642   -1.3438   -0.3201 O   0  0  0  0  0  0  0  0  0  0  0  0
   -0.9849   -4.1073   -1.0157 C   0  0  0  0  0  0  0  0  0  0  0  0
   -3.7718   -3.3864    0.0655 H   0  0  0  0  0  0  0  0  0  0  0  0
   -1.0482   -3.5913    1.0786 H   0  0  0  0  0  0  0  0  0  0  0  0
   -1.5674   -3.9388   -1.9272 H   0  0  0  0  0  0  0  0  0  0  0  0
    0.0276   -3.7229   -1.1734 H   0  0  0  0  0  0  0  0  0  0  0  0
   -0.9199   -5.1855   -0.8378 H   0  0  0  0  0  0  0  0  0  0  0  0
   -0.5466   -1.1279    0.0376 N   0  0  0  0  0  0  0  0  0  0  0  0
   -0.4828    0.3103   -0.2719 C   0  0  2  0  0  0  0  0  0  0  0  0
    0.1901    0.5657   -1.6329 C   0  0  0  0  0  0  0  0  0  0  0  0
    1.0997   -0.1620   -2.0172 O   0  0  0  0  0  0  0  0  0  0  0  0
    0.3223    1.0188    0.8246 C   0  0  0  0  0  0  0  0  0  0  0  0
   -0.5493    0.9161    2.4416 S   0  0  0  0  0  0  0  0  0  0  0  0
    0.3321   -1.6347    0.1029 H   0  0  0  0  0  0  0  0  0  0  0  0
   -1.4870    0.7463   -0.3006 H   0  0  0  0  0  0  0  0  0  0  0  0
    1.3156    0.5654    0.9088 H   0  0  0  0  0  0  0  0  0  0  0  0
    0.4570    2.0727    0.5596 H   0  0  0  0  0  0  0  0  0  0  0  0
    0.3133    1.5715    3.2490 H   0  0  0  0  0  0  0  0  0  0  0  0
   -0.1648    1.6629   -2.3931 N   0  0  0  0  0  0  0  0  0  0  0  0
    0.4833    2.0671   -3.6472 C   0  0  2  0  0  0  0  0  0  0  0  0
    0.2801    3.5727   -3.9259 C   0  0  0  0  0  0  0  0  0  0  0  0
   -0.4462    4.2400   -3.1971 O   0  0  0  0  0  0  0  0  0  0  0  0
   -0.0961    1.2233   -4.7892 C   0  0  0  0  0  0  0  0  0  0  0  0
   -0.8600    2.3043   -2.0097 H   0  0  0  0  0  0  0  0  0  0  0  0
    1.5618    1.8899   -3.5758 H   0  0  0  0  0  0  0  0  0  0  0  0
   -1.1735    1.3946   -4.8817 H   0  0  0  0  0  0  0  0  0  0  0  0
    0.3810    1.4790   -5.7399 H   0  0  0  0  0  0  0  0  0  0  0  0
    0.0708    0.1583   -4.5991 H   0  0  0  0  0  0  0  0  0  0  0  0
    0.9209    4.1874   -4.9861 N   0  0  0  0  0  0  0  0  0  0  0  0
    0.7503    5.5980   -5.3149 C   0  0  0  0  0  0  0  0  0  0  0  0
    1.5090    3.6107   -5.5806 H   0  0  0  0  0  0  0  0  0  0  0  0
   -0.2997    5.8146   -5.5387 H   0  0  0  0  0  0  0  0  0  0  0  0
    1.0695    6.2288   -4.4786 H   0  0  0  0  0  0  0  0  0  0  0  0
    1.3515    5.8581   -6.1915 H   0  0  0  0  0  0  0  0  0  0  0  0
  1  2  2  0  0  0  0
  1  3  1  0  0  0  0
  1  7  1  0  0  0  0
  3  4  1  0  0  0  0
  3  5  1  0  0  0  0
  3  6  1  0  0  0  0
  7  8  1  0  0  0  0
  7 12  1  0  0  0  0
  8  9  1  0  0  0  0
  8 11  1  0  0  0  0
  8 13  1  0  0  0  0
  9 10  2  0  0  0  0
  9 17  1  0  0  0  0
 11 14  1  0  0  0  0
 11 15  1  0  0  0  0
 11 16  1  0  0  0  0
 17 18  1  0  0  0  0
 17 23  1  0  0  0  0
 18 19  1  0  0  0  0
 18 21  1  0  0  0  0
 18 24  1  0  0  0  0
 19 20  2  0  0  0  0
 19 28  1  0  0  0  0
 21 22  1  0  0  0  0
 21 25  1  0  0  0  0
 21 26  1  0  0  0  0
 22 27  1  0  0  0  0
 28 29  1  0  0  0  0
 28 33  1  0  0  0  0
 29 30  1  0  0  0  0
 29 32  1  0  0  0  0
 29 34  1  0  0  0  0
 30 31  2  0  0  0  0
 30 38  1  0  0  0  0
 32 35  1  0  0  0  0
 32 36  1  0  0  0  0
 32 37  1  0  0  0  0
 38 39  1  0  0  0  0
 38 40  1  0  0  0  0
 39 41  1  0  0  0  0
 39 42  1  0  0  0  0
 39 43  1  0  0  0  0
M  END
$$$$

  -OEChem-05262216003D

 43 42  0     1  0  0  0  0  0999 V2000
   -3.2723   -5.0590    1.1437 C   0  0  0  0  0  0  0  0  0  0  0  0
   -2.3638   -5.7173    1.6256 O   0  0  0  0  0  0  0  0  0  0  0  0
   -4.7165   -5.4339    1.4206 C   0  0  0  0  0  0  0  0  0  0  0  0
   -5.2354   -5.6394    0.4811 H   0  0  0  0  0  0  0  0  0  0  0  0
   -4.7609   -6.3268    2.0507 H   0  0  0  0  0  0  0  0  0  0  0  0
   -5.2223   -4.6135    1.9361 H   0  0  0  0  0  0  0  0  0  0  0  0
   -2.9904   -3.9654    0.3538 N   0  0  0  0  0  0  0  0  0  0  0  0
   -1.6488   -3.3970    0.1722 C   0  0  2  0  0  0  0  0  0  0  0  0
   -1.7089   -1.8657   -0.0094 C   0  0  0  0  0  0  0  0  0  0  0  0
   -2.7809   -1.3198   -0.2525 O   0  0  0  0  0  0  0  0  0  0  0  0
   -1.0030   -4.0607   -1.0482 C   0  0  0  0  0  0  0  0  0  0  0  0
   -3.7740   -3.3727    0.0807 H   0  0  0  0  0  0  0  0  0  0  0  0
   -1.0385   -3.5963    1.0597 H   0  0  0  0  0  0  0  0  0  0  0  0
   -1.5933   -3.8618   -1.9485 H   0  0  0  0  0  0  0  0  0  0  0  0
    0.0101   -3.6782   -1.2049 H   0  0  0  0  0  0  0  0  0  0  0  0
   -0.9434   -5.1440   -0.9028 H   0  0  0  0  0  0  0  0  0  0  0  0
   -0.5553   -1.1090    0.0685 N   0  0  0  0  0  0  0  0  0  0  0  0
   -0.4931    0.3241   -0.2684 C   0  0  2  0  0  0  0  0  0  0  0  0
    0.1908    0.5620   -1.6285 C   0  0  0  0  0  0  0  0  0  0  0  0
    0.9275   -0.2919   -2.1112 O   0  0  0  0  0  0  0  0  0  0  0  0
    0.2979    1.0515    0.8278 C   0  0  0  0  0  0  0  0  0  0  0  0
   -0.5922    0.9743    2.4360 S   0  0  0  0  0  0  0  0  0  0  0  0
    0.3202   -1.6255    0.0679 H   0  0  0  0  0  0  0  0  0  0  0  0
   -1.4976    0.7579   -0.3174 H   0  0  0  0  0  0  0  0  0  0  0  0
    1.2896    0.5986    0.9324 H   0  0  0  0  0  0  0  0  0  0  0  0
    0.4380    2.1016    0.5508 H   0  0  0  0  0  0  0  0  0  0  0  0
    0.2499    1.6620    3.2378 H   0  0  0  0  0  0  0  0  0  0  0  0
    0.0727    1.7839   -2.2621 N   0  0  0  0  0  0  0  0  0  0  0  0
    0.8021    2.1798   -3.4734 C   0  0  2  0  0  0  0  0  0  0  0  0
    0.9523    3.7147   -3.5593 C   0  0  0  0  0  0  0  0  0  0  0  0
    0.4199    4.4310   -2.7179 O   0  0  0  0  0  0  0  0  0  0  0  0
    0.0503    1.6363   -4.6936 C   0  0  0  0  0  0  0  0  0  0  0  0
   -0.4525    2.5183   -1.7862 H   0  0  0  0  0  0  0  0  0  0  0  0
    1.8105    1.7532   -3.4511 H   0  0  0  0  0  0  0  0  0  0  0  0
   -0.9594    2.0568   -4.7387 H   0  0  0  0  0  0  0  0  0  0  0  0
    0.5770    1.8916   -5.6177 H   0  0  0  0  0  0  0  0  0  0  0  0
   -0.0294    0.5460   -4.6365 H   0  0  0  0  0  0  0  0  0  0  0  0
    1.6996    4.2974   -4.5666 N   0  0  0  0  0  0  0  0  0  0  0  0
    1.8681    5.7392   -4.7057 C   0  0  0  0  0  0  0  0  0  0  0  0
    2.1292    3.6831   -5.2522 H   0  0  0  0  0  0  0  0  0  0  0  0
    0.8948    6.2322   -4.8029 H   0  0  0  0  0  0  0  0  0  0  0  0
    2.3856    6.1499   -3.8322 H   0  0  0  0  0  0  0  0  0  0  0  0
    2.4595    5.9674   -5.5977 H   0  0  0  0  0  0  0  0  0  0  0  0
  1  2  2  0  0  0  0
  1  3  1  0  0  0  0
  1  7  1  0  0  0  0
  3  4  1  0  0  0  0
  3  5  1  0  0  0  0
  3  6  1  0  0  0  0
  7  8  1  0  0  0  0
  7 12  1  0  0  0  0
  8  9  1  0  0  0  0
  8 11  1  0  0  0  0
  8 13  1  0  0  0  0
  9 10  2  0  0  0  0
  9 17  1  0  0  0  0
 11 14  1  0  0  0  0
 11 15  1  0  0  0  0
 11 16  1  0  0  0  0
 17 18  1  0  0  0  0
 17 23  1  0  0  0  0
 18 19  1  0  0  0  0
 18 21  1  0  0  0  0
 18 24  1  0  0  0  0
 19 20  2  0  0  0  0
 19 28  1  0  0  0  0
 21 22  1  0  0  0  0
 21 25  1  0  0  0  0
 21 26  1  0  0  0  0
 22 27  1  0  0  0  0
 28 29  1  0  0  0  0
 28 33  1  0  0  0  0
 29 30  1  0  0  0  0
 29 32  1  0  0  0  0
 29 34  1  0  0  0  0
 30 31  2  0  0  0  0
 30 38  1  0  0  0  0
 32 35  1  0  0  0  0
 32 36  1  0  0  0  0
 32 37  1  0  0  0  0
 38 39  1  0  0  0  0
 38 40  1  0  0  0  0
 39 41  1  0  0  0  0
 39 42  1  0  0  0  0
 39 43  1  0  0  0  0
M  END
$$$$

  -OEChem-05262216003D

 43 42  0     1  0  0  0  0  0999 V2000
   -3.2642   -5.0410    1.0955 C   0  0  0  0  0  0  0  0  0  0  0  0
   -2.3586   -5.7188    1.5554 O   0  0  0  0  0  0  0  0  0  0  0  0
   -4.7089   -5.3947    1.3947 C   0  0  0  0  0  0  0  0  0  0  0  0
   -5.2365   -5.6236    0.4656 H   0  0  0  0  0  0  0  0  0  0  0  0
   -4.7558   -6.2676    2.0518 H   0  0  0  0  0  0  0  0  0  0  0  0
   -5.2038   -4.5552    1.8892 H   0  0  0  0  0  0  0  0  0  0  0  0
   -2.9793   -3.9429    0.3129 N   0  0  0  0  0  0  0  0  0  0  0  0
   -1.6334   -3.3849    0.1276 C   0  0  2  0  0  0  0  0  0  0  0  0
   -1.6728   -1.8444    0.0422 C   0  0  0  0  0  0  0  0  0  0  0  0
   -2.7437   -1.2685   -0.1287 O   0  0  0  0  0  0  0  0  0  0  0  0
   -1.0379   -3.9793   -1.1522 C   0  0  0  0  0  0  0  0  0  0  0  0
   -3.7584   -3.3309    0.0713 H   0  0  0  0  0  0  0  0  0  0  0  0
   -0.9986   -3.6494    0.9803 H   0  0  0  0  0  0  0  0  0  0  0  0
   -1.6470   -3.7056   -2.0197 H   0  0  0  0  0  0  0  0  0  0  0  0
   -0.0206   -3.6098   -1.3130 H   0  0  0  0  0  0  0  0  0  0  0  0
   -1.0012   -5.0710   -1.0812 H   0  0  0  0  0  0  0  0  0  0  0  0
   -0.5073   -1.1058    0.1316 N   0  0  0  0  0  0  0  0  0  0  0  0
   -0.4561    0.3303   -0.1959 C   0  0  2  0  0  0  0  0  0  0  0  0
   -0.1280    0.5781   -1.6850 C   0  0  0  0  0  0  0  0  0  0  0  0
    0.2142   -0.3464   -2.4152 O   0  0  0  0  0  0  0  0  0  0  0  0
    0.6205    0.9836    0.6857 C   0  0  0  0  0  0  0  0  0  0  0  0
    0.1458    0.9032    2.4618 S   0  0  0  0  0  0  0  0  0  0  0  0
    0.3589   -1.6335    0.0841 H   0  0  0  0  0  0  0  0  0  0  0  0
   -1.4169    0.8095    0.0206 H   0  0  0  0  0  0  0  0  0  0  0  0
    1.5818    0.4817    0.5335 H   0  0  0  0  0  0  0  0  0  0  0  0
    0.7469    2.0348    0.4067 H   0  0  0  0  0  0  0  0  0  0  0  0
    1.1847    1.5408    3.0448 H   0  0  0  0  0  0  0  0  0  0  0  0
   -0.0425    1.8690   -2.1711 N   0  0  0  0  0  0  0  0  0  0  0  0
    0.4486    2.2424   -3.5034 C   0  0  2  0  0  0  0  0  0  0  0  0
    0.9864    3.6901   -3.5140 C   0  0  0  0  0  0  0  0  0  0  0  0
    0.8741    4.3927   -2.5146 O   0  0  0  0  0  0  0  0  0  0  0  0
   -0.6973    2.0808   -4.5086 C   0  0  0  0  0  0  0  0  0  0  0  0
   -0.2257    2.6348   -1.5227 H   0  0  0  0  0  0  0  0  0  0  0  0
    1.2761    1.5837   -3.7877 H   0  0  0  0  0  0  0  0  0  0  0  0
   -1.5349    2.7327   -4.2410 H   0  0  0  0  0  0  0  0  0  0  0  0
   -0.3643    2.3365   -5.5187 H   0  0  0  0  0  0  0  0  0  0  0  0
   -1.0526    1.0454   -4.5180 H   0  0  0  0  0  0  0  0  0  0  0  0
    1.6115    4.2050   -4.6350 N   0  0  0  0  0  0  0  0  0  0  0  0
    2.1265    5.5671   -4.7087 C   0  0  0  0  0  0  0  0  0  0  0  0
    1.6846    3.6061   -5.4523 H   0  0  0  0  0  0  0  0  0  0  0  0
    1.3176    6.2907   -4.5623 H   0  0  0  0  0  0  0  0  0  0  0  0
    2.8890    5.7301   -3.9398 H   0  0  0  0  0  0  0  0  0  0  0  0
    2.5797    5.7488   -5.6880 H   0  0  0  0  0  0  0  0  0  0  0  0
  1  2  2  0  0  0  0
  1  3  1  0  0  0  0
  1  7  1  0  0  0  0
  3  4  1  0  0  0  0
  3  5  1  0  0  0  0
  3  6  1  0  0  0  0
  7  8  1  0  0  0  0
  7 12  1  0  0  0  0
  8  9  1  0  0  0  0
  8 11  1  0  0  0  0
  8 13  1  0  0  0  0
  9 10  2  0  0  0  0
  9 17  1  0  0  0  0
 11 14  1  0  0  0  0
 11 15  1  0  0  0  0
 11 16  1  0  0  0  0
 17 18  1  0  0  0  0
 17 23  1  0  0  0  0
 18 19  1  0  0  0  0
 18 21  1  0  0  0  0
 18 24  1  0  0  0  0
 19 20  2  0  0  0  0
 19 28  1  0  0  0  0
 21 22  1  0  0  0  0
 21 25  1  0  0  0  0
 21 26  1  0  0  0  0
 22 27  1  0  0  0  0
 28 29  1  0  0  0  0
 28 33  1  0  0  0  0
 29 30  1  0  0  0  0
 29 32  1  0  0  0  0
 29 34  1  0  0  0  0
 30 31  2  0  0  0  0
 30 38  1  0  0  0  0
 32 35  1  0  0  0  0
 32 36  1  0  0  0  0
 32 37  1  0  0  0  0
 38 39  1  0  0  0  0
 38 40  1  0  0  0  0
 39 41  1  0  0  0  0
 39 42  1  0  0  0  0
 39 43  1  0  0  0  0
M  END
$$$$

  -OEChem-05262216003D

 43 42  0     1  0  0  0  0  0999 V2000
   -3.1694   -5.0994    1.0171 C   0  0  0  0  0  0  0  0  0  0  0  0
   -2.2240   -5.7883    1.3677 O   0  0  0  0  0  0  0  0  0  0  0  0
   -4.5886   -5.5471    1.3116 C   0  0  0  0  0  0  0  0  0  0  0  0
   -5.1524   -5.6363    0.3798 H   0  0  0  0  0  0  0  0  0  0  0  0
   -4.5806   -6.5188    1.8133 H   0  0  0  0  0  0  0  0  0  0  0  0
   -5.0826   -4.8196    1.9604 H   0  0  0  0  0  0  0  0  0  0  0  0
   -2.9505   -3.9084    0.3590 N   0  0  0  0  0  0  0  0  0  0  0  0
   -1.6278   -3.3057    0.1499 C   0  0  2  0  0  0  0  0  0  0  0  0
   -1.7017   -1.7647    0.1284 C   0  0  0  0  0  0  0  0  0  0  0  0
   -2.7890   -1.2023    0.0340 O   0  0  0  0  0  0  0  0  0  0  0  0
   -1.0602   -3.8316   -1.1727 C   0  0  0  0  0  0  0  0  0  0  0  0
   -3.7571   -3.3069    0.1941 H   0  0  0  0  0  0  0  0  0  0  0  0
   -0.9587   -3.5886    0.9696 H   0  0  0  0  0  0  0  0  0  0  0  0
   -1.7029   -3.5360   -2.0083 H   0  0  0  0  0  0  0  0  0  0  0  0
   -0.0571   -3.4318   -1.3495 H   0  0  0  0  0  0  0  0  0  0  0  0
   -0.9965   -4.9241   -1.1508 H   0  0  0  0  0  0  0  0  0  0  0  0
   -0.5414   -1.0156    0.1915 N   0  0  0  0  0  0  0  0  0  0  0  0
   -0.5082    0.4162   -0.1547 C   0  0  2  0  0  0  0  0  0  0  0  0
   -0.2030    0.6409   -1.6563 C   0  0  0  0  0  0  0  0  0  0  0  0
   -0.1272   -0.3087   -2.4291 O   0  0  0  0  0  0  0  0  0  0  0  0
    0.5639    1.0807    0.7267 C   0  0  0  0  0  0  0  0  0  0  0  0
    0.0842    1.0072    2.5017 S   0  0  0  0  0  0  0  0  0  0  0  0
    0.3222   -1.5402    0.0953 H   0  0  0  0  0  0  0  0  0  0  0  0
   -1.4717    0.8897    0.0623 H   0  0  0  0  0  0  0  0  0  0  0  0
    1.5279    0.5824    0.5806 H   0  0  0  0  0  0  0  0  0  0  0  0
    0.6862    2.1322    0.4490 H   0  0  0  0  0  0  0  0  0  0  0  0
    1.1205    1.6492    3.0846 H   0  0  0  0  0  0  0  0  0  0  0  0
    0.1711    1.8880   -2.1225 N   0  0  0  0  0  0  0  0  0  0  0  0
    0.7312    2.1599   -3.4527 C   0  0  2  0  0  0  0  0  0  0  0  0
    1.7047    3.3579   -3.4092 C   0  0  0  0  0  0  0  0  0  0  0  0
    1.8283    4.0084   -2.3761 O   0  0  0  0  0  0  0  0  0  0  0  0
   -0.4262    2.4267   -4.4205 C   0  0  0  0  0  0  0  0  0  0  0  0
    0.2403    2.6446   -1.4426 H   0  0  0  0  0  0  0  0  0  0  0  0
    1.3001    1.2914   -3.8013 H   0  0  0  0  0  0  0  0  0  0  0  0
   -0.9972    3.3045   -4.1021 H   0  0  0  0  0  0  0  0  0  0  0  0
   -0.0506    2.6029   -5.4326 H   0  0  0  0  0  0  0  0  0  0  0  0
   -1.1006    1.5650   -4.4507 H   0  0  0  0  0  0  0  0  0  0  0  0
    2.4621    3.6953   -4.5160 N   0  0  0  0  0  0  0  0  0  0  0  0
    3.3984    4.8134   -4.5348 C   0  0  0  0  0  0  0  0  0  0  0  0
    2.3426    3.1390   -5.3578 H   0  0  0  0  0  0  0  0  0  0  0  0
    2.8757    5.7549   -4.3353 H   0  0  0  0  0  0  0  0  0  0  0  0
    4.1768    4.6750   -3.7769 H   0  0  0  0  0  0  0  0  0  0  0  0
    3.8803    4.8874   -5.5145 H   0  0  0  0  0  0  0  0  0  0  0  0
  1  2  2  0  0  0  0
  1  3  1  0  0  0  0
  1  7  1  0  0  0  0
  3  4  1  0  0  0  0
  3  5  1  0  0  0  0
  3  6  1  0  0  0  0
  7  8  1  0  0  0  0
  7 12  1  0  0  0  0
  8  9  1  0  0  0  0
  8 11  1  0  0  0  0
  8 13  1  0  0  0  0
  9 10  2  0  0  0  0
  9 17  1  0  0  0  0
 11 14  1  0  0  0  0
 11 15  1  0  0  0  0
 11 16  1  0  0  0  0
 17 18  1  0  0  0  0
 17 23  1  0  0  0  0
 18 19  1  0  0  0  0
 18 21  1  0  0  0  0
 18 24  1  0  0  0  0
 19 20  2  0  0  0  0
 19 28  1  0  0  0  0
 21 22  1  0  0  0  0
 21 25  1  0  0  0  0
 21 26  1  0  0  0  0
 22 27  1  0  0  0  0
 28 29  1  0  0  0  0
 28 33  1  0  0  0  0
 29 30  1  0  0  0  0
 29 32  1  0  0  0  0
 29 34  1  0  0  0  0
 30 31  2  0  0  0  0
 30 38  1  0  0  0  0
 32 35  1  0  0  0  0
 32 36  1  0  0  0  0
 32 37  1  0  0  0  0
 38 39  1  0  0  0  0
 38 40  1  0  0  0  0
 39 41  1  0  0  0  0
 39 42  1  0  0  0  0
 39 43  1  0  0  0  0
M  END
$$$$

  -OEChem-05262216003D

 43 42  0     1  0  0  0  0  0999 V2000
   -3.1521   -5.0808    0.9955 C   0  0  0  0  0  0  0  0  0  0  0  0
   -2.2038   -5.7677    1.3426 O   0  0  0  0  0  0  0  0  0  0  0  0
   -4.5692   -5.5382    1.2860 C   0  0  0  0  0  0  0  0  0  0  0  0
   -5.1339   -5.6192    0.3539 H   0  0  0  0  0  0  0  0  0  0  0  0
   -4.5560   -6.5160    1.7755 H   0  0  0  0  0  0  0  0  0  0  0  0
   -5.0654   -4.8206    1.9440 H   0  0  0  0  0  0  0  0  0  0  0  0
   -2.9375   -3.8866    0.3417 N   0  0  0  0  0  0  0  0  0  0  0  0
   -1.6167   -3.2813    0.1300 C   0  0  2  0  0  0  0  0  0  0  0  0
   -1.6893   -1.7403    0.1223 C   0  0  0  0  0  0  0  0  0  0  0  0
   -2.7765   -1.1769    0.0360 O   0  0  0  0  0  0  0  0  0  0  0  0
   -1.0599   -3.7939   -1.2018 C   0  0  0  0  0  0  0  0  0  0  0  0
   -3.7454   -3.2858    0.1800 H   0  0  0  0  0  0  0  0  0  0  0  0
   -0.9427   -3.5721    0.9430 H   0  0  0  0  0  0  0  0  0  0  0  0
   -1.7135   -3.4953   -2.0281 H   0  0  0  0  0  0  0  0  0  0  0  0
   -0.0614   -3.3860   -1.3852 H   0  0  0  0  0  0  0  0  0  0  0  0
   -0.9891   -4.8861   -1.1885 H   0  0  0  0  0  0  0  0  0  0  0  0
   -0.5279   -0.9933    0.2013 N   0  0  0  0  0  0  0  0  0  0  0  0
   -0.4891    0.4411   -0.1357 C   0  0  2  0  0  0  0  0  0  0  0  0
   -0.1675    0.6686   -1.6360 C   0  0  0  0  0  0  0  0  0  0  0  0
   -0.3429   -0.2279   -2.4538 O   0  0  0  0  0  0  0  0  0  0  0  0
    0.5575    1.1010    0.7807 C   0  0  0  0  0  0  0  0  0  0  0  0
    0.0263    1.0121    2.5399 S   0  0  0  0  0  0  0  0  0  0  0  0
    0.3368   -1.5194    0.1283 H   0  0  0  0  0  0  0  0  0  0  0  0
   -1.4573    0.9126    0.0642 H   0  0  0  0  0  0  0  0  0  0  0  0
    1.5279    0.6086    0.6571 H   0  0  0  0  0  0  0  0  0  0  0  0
    0.6799    2.1566    0.5196 H   0  0  0  0  0  0  0  0  0  0  0  0
    1.0517    1.6378    3.1579 H   0  0  0  0  0  0  0  0  0  0  0  0
    0.5006    1.8021   -2.0650 N   0  0  0  0  0  0  0  0  0  0  0  0
    1.0890    1.9826   -3.3987 C   0  0  2  0  0  0  0  0  0  0  0  0
    2.3246    2.9063   -3.3343 C   0  0  0  0  0  0  0  0  0  0  0  0
    2.6180    3.4616   -2.2799 O   0  0  0  0  0  0  0  0  0  0  0  0
    0.0179    2.5613   -4.3290 C   0  0  0  0  0  0  0  0  0  0  0  0
    0.7791    2.4825   -1.3590 H   0  0  0  0  0  0  0  0  0  0  0  0
    1.4250    1.0170   -3.7915 H   0  0  0  0  0  0  0  0  0  0  0  0
   -0.3172    3.5378   -3.9654 H   0  0  0  0  0  0  0  0  0  0  0  0
    0.4109    2.6819   -5.3428 H   0  0  0  0  0  0  0  0  0  0  0  0
   -0.8466    1.8910   -4.3743 H   0  0  0  0  0  0  0  0  0  0  0  0
    3.1236    3.0975   -4.4465 N   0  0  0  0  0  0  0  0  0  0  0  0
    4.2997    3.9594   -4.4483 C   0  0  0  0  0  0  0  0  0  0  0  0
    2.8574    2.6258   -5.3062 H   0  0  0  0  0  0  0  0  0  0  0  0
    4.0184    4.9915   -4.2135 H   0  0  0  0  0  0  0  0  0  0  0  0
    5.0288    3.6153   -3.7069 H   0  0  0  0  0  0  0  0  0  0  0  0
    4.7767    3.9470   -5.4332 H   0  0  0  0  0  0  0  0  0  0  0  0
  1  2  2  0  0  0  0
  1  3  1  0  0  0  0
  1  7  1  0  0  0  0
  3  4  1  0  0  0  0
  3  5  1  0  0  0  0
  3  6  1  0  0  0  0
  7  8  1  0  0  0  0
  7 12  1  0  0  0  0
  8  9  1  0  0  0  0
  8 11  1  0  0  0  0
  8 13  1  0  0  0  0
  9 10  2  0  0  0  0
  9 17  1  0  0  0  0
 11 14  1  0  0  0  0
 11 15  1  0  0  0  0
 11 16  1  0  0  0  0
 17 18  1  0  0  0  0
 17 23  1  0  0  0  0
 18 19  1  0  0  0  0
 18 21  1  0  0  0  0
 18 24  1  0  0  0  0
 19 20  2  0  0  0  0
 19 28  1  0  0  0  0
 21 22  1  0  0  0  0
 21 25  1  0  0  0  0
 21 26  1  0  0  0  0
 22 27  1  0  0  0  0
 28 29  1  0  0  0  0
 28 33  1  0  0  0  0
 29 30  1  0  0  0  0
 29 32  1  0  0  0  0
 29 34  1  0  0  0  0
 30 31  2  0  0  0  0
 30 38  1  0  0  0  0
 32 35  1  0  0  0  0
 32 36  1  0  0  0  0
 32 37  1  0  0  0  0
 38 39  1  0  0  0  0
 38 40  1  0  0  0  0
 39 41  1  0  0  0  0
 39 42  1  0  0  0  0
 39 43  1  0  0  0  0
M  END
$$$$

  -OEChem-05262216003D

 43 42  0     1  0  0  0  0  0999 V2000
   -3.2059   -5.0418    1.0252 C   0  0  0  0  0  0  0  0  0  0  0  0
   -2.2779   -5.7401    1.4030 O   0  0  0  0  0  0  0  0  0  0  0  0
   -4.6364   -5.4451    1.3308 C   0  0  0  0  0  0  0  0  0  0  0  0
   -5.1769   -5.6357    0.4004 H   0  0  0  0  0  0  0  0  0  0  0  0
   -4.6500   -6.3539    1.9390 H   0  0  0  0  0  0  0  0  0  0  0  0
   -5.1410   -4.6461    1.8799 H   0  0  0  0  0  0  0  0  0  0  0  0
   -2.9559   -3.8813    0.3250 N   0  0  0  0  0  0  0  0  0  0  0  0
   -1.6198   -3.3090    0.1165 C   0  0  2  0  0  0  0  0  0  0  0  0
   -1.6681   -1.7679    0.0523 C   0  0  0  0  0  0  0  0  0  0  0  0
   -2.7460   -1.1947   -0.0736 O   0  0  0  0  0  0  0  0  0  0  0  0
   -1.0435   -3.8808   -1.1825 C   0  0  0  0  0  0  0  0  0  0  0  0
   -3.7473   -3.2664    0.1366 H   0  0  0  0  0  0  0  0  0  0  0  0
   -0.9678   -3.5812    0.9535 H   0  0  0  0  0  0  0  0  0  0  0  0
   -1.6711   -3.6001   -2.0347 H   0  0  0  0  0  0  0  0  0  0  0  0
   -0.0326   -3.5002   -1.3559 H   0  0  0  0  0  0  0  0  0  0  0  0
   -0.9965   -4.9731   -1.1280 H   0  0  0  0  0  0  0  0  0  0  0  0
   -0.5026   -1.0304    0.1639 N   0  0  0  0  0  0  0  0  0  0  0  0
   -0.4353    0.4041   -0.1689 C   0  0  2  0  0  0  0  0  0  0  0  0
   -0.0670    0.6317   -1.6582 C   0  0  0  0  0  0  0  0  0  0  0  0
   -0.4765   -0.1309   -2.5248 O   0  0  0  0  0  0  0  0  0  0  0  0
    0.5728    1.0611    0.7918 C   0  0  0  0  0  0  0  0  0  0  0  0
   -0.0367    0.9804    2.5260 S   0  0  0  0  0  0  0  0  0  0  0  0
    0.3610   -1.5627    0.1658 H   0  0  0  0  0  0  0  0  0  0  0  0
   -1.4074    0.8821   -0.0066 H   0  0  0  0  0  0  0  0  0  0  0  0
    1.5457    0.5643    0.7147 H   0  0  0  0  0  0  0  0  0  0  0  0
    0.7080    2.1158    0.5313 H   0  0  0  0  0  0  0  0  0  0  0  0
    0.9598    1.6069    3.1895 H   0  0  0  0  0  0  0  0  0  0  0  0
    0.8746    1.5745   -2.0334 N   0  0  0  0  0  0  0  0  0  0  0  0
    1.4471    1.7174   -3.3780 C   0  0  2  0  0  0  0  0  0  0  0  0
    2.8463    2.3685   -3.3129 C   0  0  0  0  0  0  0  0  0  0  0  0
    3.2772    2.7841   -2.2413 O   0  0  0  0  0  0  0  0  0  0  0  0
    0.4918    2.5613   -4.2297 C   0  0  0  0  0  0  0  0  0  0  0  0
    1.3320    2.1082   -1.2956 H   0  0  0  0  0  0  0  0  0  0  0  0
    1.5646    0.7298   -3.8367 H   0  0  0  0  0  0  0  0  0  0  0  0
    0.3705    3.5585   -3.7946 H   0  0  0  0  0  0  0  0  0  0  0  0
    0.8758    2.6686   -5.2484 H   0  0  0  0  0  0  0  0  0  0  0  0
   -0.4921    2.0840   -4.2842 H   0  0  0  0  0  0  0  0  0  0  0  0
    3.6316    2.4741   -4.4461 N   0  0  0  0  0  0  0  0  0  0  0  0
    4.9612    3.0730   -4.4482 C   0  0  0  0  0  0  0  0  0  0  0  0
    3.2551    2.1097   -5.3165 H   0  0  0  0  0  0  0  0  0  0  0  0
    4.9262    4.0894   -4.0416 H   0  0  0  0  0  0  0  0  0  0  0  0
    5.6517    2.4751   -3.8443 H   0  0  0  0  0  0  0  0  0  0  0  0
    5.3506    3.1258   -5.4694 H   0  0  0  0  0  0  0  0  0  0  0  0
  1  2  2  0  0  0  0
  1  3  1  0  0  0  0
  1  7  1  0  0  0  0
  3  4  1  0  0  0  0
  3  5  1  0  0  0  0
  3  6  1  0  0  0  0
  7  8  1  0  0  0  0
  7 12  1  0  0  0  0
  8  9  1  0  0  0  0
  8 11  1  0  0  0  0
  8 13  1  0  0  0  0
  9 10  2  0  0  0  0
  9 17  1  0  0  0  0
 11 14  1  0  0  0  0
 11 15  1  0  0  0  0
 11 16  1  0  0  0  0
 17 18  1  0  0  0  0
 17 23  1  0  0  0  0
 18 19  1  0  0  0  0
 18 21  1  0  0  0  0
 18 24  1  0  0  0  0
 19 20  2  0  0  0  0
 19 28  1  0  0  0  0
 21 22  1  0  0  0  0
 21 25  1  0  0  0  0
 21 26  1  0  0  0  0
 22 27  1  0  0  0  0
 28 29  1  0  0  0  0
 28 33  1  0  0  0  0
 29 30  1  0  0  0  0
 29 32  1  0  0  0  0
 29 34  1  0  0  0  0
 30 31  2  0  0  0  0
 30 38  1  0  0  0  0
 32 35  1  0  0  0  0
 32 36  1  0  0  0  0
 32 37  1  0  0  0  0
 38 39  1  0  0  0  0
 38 40  1  0  0  0  0
 39 41  1  0  0  0  0
 39 42  1  0  0  0  0
 39 43  1  0  0  0  0
M  END
$$$$

  -OEChem-05262216003D

 43 42  0     1  0  0  0  0  0999 V2000
   -3.2200   -5.0213    1.0506 C   0  0  0  0  0  0  0  0  0  0  0  0
   -2.3027   -5.7089    1.4715 O   0  0  0  0  0  0  0  0  0  0  0  0
   -4.6578   -5.4117    1.3364 C   0  0  0  0  0  0  0  0  0  0  0  0
   -5.1848   -5.6070    0.3993 H   0  0  0  0  0  0  0  0  0  0  0  0
   -4.6877   -6.3141    1.9533 H   0  0  0  0  0  0  0  0  0  0  0  0
   -5.1649   -4.6038    1.8694 H   0  0  0  0  0  0  0  0  0  0  0  0
   -2.9514   -3.8833    0.3214 N   0  0  0  0  0  0  0  0  0  0  0  0
   -1.6101   -3.3195    0.1259 C   0  0  2  0  0  0  0  0  0  0  0  0
   -1.6555   -1.7813    0.0059 C   0  0  0  0  0  0  0  0  0  0  0  0
   -2.7305   -1.2138   -0.1582 O   0  0  0  0  0  0  0  0  0  0  0  0
   -1.0046   -3.9383   -1.1376 C   0  0  0  0  0  0  0  0  0  0  0  0
   -3.7371   -3.2737    0.0945 H   0  0  0  0  0  0  0  0  0  0  0  0
   -0.9788   -3.5621    0.9875 H   0  0  0  0  0  0  0  0  0  0  0  0
   -1.6165   -3.6942   -2.0121 H   0  0  0  0  0  0  0  0  0  0  0  0
    0.0082   -3.5606   -1.3052 H   0  0  0  0  0  0  0  0  0  0  0  0
   -0.9540   -5.0274   -1.0405 H   0  0  0  0  0  0  0  0  0  0  0  0
   -0.4933   -1.0393    0.1254 N   0  0  0  0  0  0  0  0  0  0  0  0
   -0.4169    0.3962   -0.1999 C   0  0  2  0  0  0  0  0  0  0  0  0
   -0.0370    0.6315   -1.6838 C   0  0  0  0  0  0  0  0  0  0  0  0
   -0.6535    0.0735   -2.5814 O   0  0  0  0  0  0  0  0  0  0  0  0
    0.5808    1.0519    0.7716 C   0  0  0  0  0  0  0  0  0  0  0  0
   -0.0449    0.9720    2.4998 S   0  0  0  0  0  0  0  0  0  0  0  0
    0.3709   -1.5638    0.2094 H   0  0  0  0  0  0  0  0  0  0  0  0
   -1.3906    0.8739   -0.0448 H   0  0  0  0  0  0  0  0  0  0  0  0
    1.5537    0.5529    0.7071 H   0  0  0  0  0  0  0  0  0  0  0  0
    0.7192    2.1053    0.5060 H   0  0  0  0  0  0  0  0  0  0  0  0
    0.9409    1.6058    3.1723 H   0  0  0  0  0  0  0  0  0  0  0  0
    1.1050    1.3320   -2.0330 N   0  0  0  0  0  0  0  0  0  0  0  0
    1.6652    1.4208   -3.3875 C   0  0  2  0  0  0  0  0  0  0  0  0
    3.1863    1.6813   -3.3344 C   0  0  0  0  0  0  0  0  0  0  0  0
    3.7324    1.8899   -2.2551 O   0  0  0  0  0  0  0  0  0  0  0  0
    0.9453    2.5427   -4.1448 C   0  0  0  0  0  0  0  0  0  0  0  0
    1.7094    1.6570   -1.2796 H   0  0  0  0  0  0  0  0  0  0  0  0
    1.5124    0.4727   -3.9145 H   0  0  0  0  0  0  0  0  0  0  0  0
    1.0933    3.5031   -3.6405 H   0  0  0  0  0  0  0  0  0  0  0  0
    1.3254    2.6233   -5.1674 H   0  0  0  0  0  0  0  0  0  0  0  0
   -0.1291    2.3383   -4.1951 H   0  0  0  0  0  0  0  0  0  0  0  0
    3.9484    1.6638   -4.4879 N   0  0  0  0  0  0  0  0  0  0  0  0
    5.3875    1.8993   -4.5013 C   0  0  0  0  0  0  0  0  0  0  0  0
    3.4719    1.4756   -5.3653 H   0  0  0  0  0  0  0  0  0  0  0  0
    5.6245    2.8608   -4.0332 H   0  0  0  0  0  0  0  0  0  0  0  0
    5.9105    1.1045   -3.9591 H   0  0  0  0  0  0  0  0  0  0  0  0
    5.7582    1.9183   -5.5307 H   0  0  0  0  0  0  0  0  0  0  0  0
  1  2  2  0  0  0  0
  1  3  1  0  0  0  0
  1  7  1  0  0  0  0
  3  4  1  0  0  0  0
  3  5  1  0  0  0  0
  3  6  1  0  0  0  0
  7  8  1  0  0  0  0
  7 12  1  0  0  0  0
  8  9  1  0  0  0  0
  8 11  1  0  0  0  0
  8 13  1  0  0  0  0
  9 10  2  0  0  0  0
  9 17  1  0  0  0  0
 11 14  1  0  0  0  0
 11 15  1  0  0  0  0
 11 16  1  0  0  0  0
 17 18  1  0  0  0  0
 17 23  1  0  0  0  0
 18 19  1  0  0  0  0
 18 21  1  0  0  0  0
 18 24  1  0  0  0  0
 19 20  2  0  0  0  0
 19 28  1  0  0  0  0
 21 22  1  0  0  0  0
 21 25  1  0  0  0  0
 21 26  1  0  0  0  0
 22 27  1  0  0  0  0
 28 29  1  0  0  0  0
 28 33  1  0  0  0  0
 29 30  1  0  0  0  0
 29 32  1  0  0  0  0
 29 34  1  0  0  0  0
 30 31  2  0  0  0  0
 30 38  1  0  0  0  0
 32 35  1  0  0  0  0
 32 36  1  0  0  0  0
 32 37  1  0  0  0  0
 38 39  1  0  0  0  0
 38 40  1  0  0  0  0
 39 41  1  0  0  0  0
 39 42  1  0  0  0  0
 39 43  1  0  0  0  0
M  END
$$$$

  -OEChem-05262216003D

 43 42  0     1  0  0  0  0  0999 V2000
   -3.2518   -4.9893    1.1048 C   0  0  0  0  0  0  0  0  0  0  0  0
   -2.3518   -5.6504    1.5995 O   0  0  0  0  0  0  0  0  0  0  0  0
   -4.7001   -5.3637    1.3572 C   0  0  0  0  0  0  0  0  0  0  0  0
   -5.2001   -5.5805    0.4100 H   0  0  0  0  0  0  0  0  0  0  0  0
   -4.7542   -6.2498    1.9959 H   0  0  0  0  0  0  0  0  0  0  0  0
   -5.2171   -4.5388    1.8537 H   0  0  0  0  0  0  0  0  0  0  0  0
   -2.9542   -3.8944    0.3223 N   0  0  0  0  0  0  0  0  0  0  0  0
   -1.6049   -3.3447    0.1422 C   0  0  2  0  0  0  0  0  0  0  0  0
   -1.6396   -1.8168   -0.0716 C   0  0  0  0  0  0  0  0  0  0  0  0
   -2.7039   -1.2611   -0.3189 O   0  0  0  0  0  0  0  0  0  0  0  0
   -0.9589   -4.0394   -1.0600 C   0  0  0  0  0  0  0  0  0  0  0  0
   -3.7298   -3.2998    0.0300 H   0  0  0  0  0  0  0  0  0  0  0  0
   -1.0061   -3.5367    1.0390 H   0  0  0  0  0  0  0  0  0  0  0  0
   -1.5349   -3.8408   -1.9697 H   0  0  0  0  0  0  0  0  0  0  0  0
    0.0634   -3.6802   -1.2096 H   0  0  0  0  0  0  0  0  0  0  0  0
   -0.9240   -5.1216   -0.8989 H   0  0  0  0  0  0  0  0  0  0  0  0
   -0.4830   -1.0693    0.0629 N   0  0  0  0  0  0  0  0  0  0  0  0
   -0.3974    0.3685   -0.2471 C   0  0  2  0  0  0  0  0  0  0  0  0
   -0.0017    0.6212   -1.7217 C   0  0  0  0  0  0  0  0  0  0  0  0
   -0.7740    0.3598   -2.6326 O   0  0  0  0  0  0  0  0  0  0  0  0
    0.5903    1.0183    0.7365 C   0  0  0  0  0  0  0  0  0  0  0  0
   -0.0549    0.9274    2.4565 S   0  0  0  0  0  0  0  0  0  0  0  0
    0.3686   -1.5759    0.2818 H   0  0  0  0  0  0  0  0  0  0  0  0
   -1.3735    0.8441   -0.0984 H   0  0  0  0  0  0  0  0  0  0  0  0
    1.5636    0.5196    0.6842 H   0  0  0  0  0  0  0  0  0  0  0  0
    0.7325    2.0715    0.4710 H   0  0  0  0  0  0  0  0  0  0  0  0
    0.9116    1.5803    3.1391 H   0  0  0  0  0  0  0  0  0  0  0  0
    1.2742    1.0396   -2.0577 N   0  0  0  0  0  0  0  0  0  0  0  0
    1.8084    1.1035   -3.4237 C   0  0  2  0  0  0  0  0  0  0  0  0
    3.3443    0.9468   -3.4171 C   0  0  0  0  0  0  0  0  0  0  0  0
    3.9491    0.9078   -2.3496 O   0  0  0  0  0  0  0  0  0  0  0  0
    1.3978    2.4405   -4.0506 C   0  0  0  0  0  0  0  0  0  0  0  0
    1.9622    1.1026   -1.3086 H   0  0  0  0  0  0  0  0  0  0  0  0
    1.3967    0.2823   -4.0202 H   0  0  0  0  0  0  0  0  0  0  0  0
    1.8084    3.2756   -3.4743 H   0  0  0  0  0  0  0  0  0  0  0  0
    1.7628    2.5130   -5.0793 H   0  0  0  0  0  0  0  0  0  0  0  0
    0.3070    2.5324   -4.0680 H   0  0  0  0  0  0  0  0  0  0  0  0
    4.0490    0.8301   -4.6007 N   0  0  0  0  0  0  0  0  0  0  0  0
    5.4979    0.6768   -4.6589 C   0  0  0  0  0  0  0  0  0  0  0  0
    3.5212    0.8572   -5.4686 H   0  0  0  0  0  0  0  0  0  0  0  0
    5.9935    1.5134   -4.1551 H   0  0  0  0  0  0  0  0  0  0  0  0
    5.8042   -0.2569   -4.1758 H   0  0  0  0  0  0  0  0  0  0  0  0
    5.8340    0.6545   -5.7000 H   0  0  0  0  0  0  0  0  0  0  0  0
  1  2  2  0  0  0  0
  1  3  1  0  0  0  0
  1  7  1  0  0  0  0
  3  4  1  0  0  0  0
  3  5  1  0  0  0  0
  3  6  1  0  0  0  0
  7  8  1  0  0  0  0
  7 12  1  0  0  0  0
  8  9  1  0  0  0  0
  8 11  1  0  0  0  0
  8 13  1  0  0  0  0
  9 10  2  0  0  0  0
  9 17  1  0  0  0  0
 11 14  1  0  0  0  0
 11 15  1  0  0  0  0
 11 16  1  0  0  0  0
 17 18  1  0  0  0  0
 17 23  1  0  0  0  0
 18 19  1  0  0  0  0
 18 21  1  0  0  0  0
 18 24  1  0  0  0  0
 19 20  2  0  0  0  0
 19 28  1  0  0  0  0
 21 22  1  0  0  0  0
 21 25  1  0  0  0  0
 21 26  1  0  0  0  0
 22 27  1  0  0  0  0
 28 29  1  0  0  0  0
 28 33  1  0  0  0  0
 29 30  1  0  0  0  0
 29 32  1  0  0  0  0
 29 34  1  0  0  0  0
 30 31  2  0  0  0  0
 30 38  1  0  0  0  0
 32 35  1  0  0  0  0
 32 36  1  0  0  0  0
 32 37  1  0  0  0  0
 38 39  1  0  0  0  0
 38 40  1  0  0  0  0
 39 41  1  0  0  0  0
 39 42  1  0  0  0  0
 39 43  1  0  0  0  0
M  END
$$$$

  -OEChem-05262216003D

 43 42  0     1  0  0  0  0  0999 V2000
   -3.2910   -4.9457    1.1625 C   0  0  0  0  0  0  0  0  0  0  0  0
   -2.4418   -5.5268    1.8200 O   0  0  0  0  0  0  0  0  0  0  0  0
   -4.7549   -5.3171    1.3090 C   0  0  0  0  0  0  0  0  0  0  0  0
   -5.1582   -5.6314    0.3432 H   0  0  0  0  0  0  0  0  0  0  0  0
   -4.8668   -6.1387    2.0224 H   0  0  0  0  0  0  0  0  0  0  0  0
   -5.3234   -4.4567    1.6706 H   0  0  0  0  0  0  0  0  0  0  0  0
   -2.9215   -3.9424    0.2926 N   0  0  0  0  0  0  0  0  0  0  0  0
   -1.5663   -3.3859    0.1962 C   0  0  2  0  0  0  0  0  0  0  0  0
   -1.5934   -1.8925   -0.1925 C   0  0  0  0  0  0  0  0  0  0  0  0
   -2.6248   -1.3932   -0.6249 O   0  0  0  0  0  0  0  0  0  0  0  0
   -0.7828   -4.1954   -0.8415 C   0  0  0  0  0  0  0  0  0  0  0  0
   -3.6676   -3.4007   -0.1437 H   0  0  0  0  0  0  0  0  0  0  0  0
   -1.0670   -3.4619    1.1683 H   0  0  0  0  0  0  0  0  0  0  0  0
   -1.2709   -4.1366   -1.8198 H   0  0  0  0  0  0  0  0  0  0  0  0
    0.2378   -3.8136   -0.9377 H   0  0  0  0  0  0  0  0  0  0  0  0
   -0.7296   -5.2466   -0.5412 H   0  0  0  0  0  0  0  0  0  0  0  0
   -0.4657   -1.1098   -0.0215 N   0  0  0  0  0  0  0  0  0  0  0  0
   -0.4077    0.3326   -0.3167 C   0  0  2  0  0  0  0  0  0  0  0  0
    0.0218    0.6106   -1.7748 C   0  0  0  0  0  0  0  0  0  0  0  0
   -0.8074    0.7447   -2.6626 O   0  0  0  0  0  0  0  0  0  0  0  0
    0.5441    1.0031    0.6861 C   0  0  0  0  0  0  0  0  0  0  0  0
   -0.1331    0.8829    2.3916 S   0  0  0  0  0  0  0  0  0  0  0  0
    0.3214   -1.5418    0.4523 H   0  0  0  0  0  0  0  0  0  0  0  0
   -1.4003    0.7799   -0.1867 H   0  0  0  0  0  0  0  0  0  0  0  0
    1.5326    0.5340    0.6511 H   0  0  0  0  0  0  0  0  0  0  0  0
    0.6613    2.0606    0.4247 H   0  0  0  0  0  0  0  0  0  0  0  0
    0.7838    1.5848    3.0939 H   0  0  0  0  0  0  0  0  0  0  0  0
    1.3585    0.7596   -2.1007 N   0  0  0  0  0  0  0  0  0  0  0  0
    1.8734    0.8609   -3.4716 C   0  0  2  0  0  0  0  0  0  0  0  0
    3.2656    0.2043   -3.5837 C   0  0  0  0  0  0  0  0  0  0  0  0
    3.8607   -0.1436   -2.5680 O   0  0  0  0  0  0  0  0  0  0  0  0
    1.9362    2.3416   -3.8574 C   0  0  0  0  0  0  0  0  0  0  0  0
    2.0400    0.4895   -1.3931 H   0  0  0  0  0  0  0  0  0  0  0  0
    1.2053    0.3340   -4.1619 H   0  0  0  0  0  0  0  0  0  0  0  0
    2.6158    2.8821   -3.1910 H   0  0  0  0  0  0  0  0  0  0  0  0
    2.2903    2.4573   -4.8860 H   0  0  0  0  0  0  0  0  0  0  0  0
    0.9421    2.7942   -3.7835 H   0  0  0  0  0  0  0  0  0  0  0  0
    3.8447   -0.0159   -4.8194 N   0  0  0  0  0  0  0  0  0  0  0  0
    5.1505   -0.6414   -4.9920 C   0  0  0  0  0  0  0  0  0  0  0  0
    3.3192    0.2636   -5.6429 H   0  0  0  0  0  0  0  0  0  0  0  0
    5.9263   -0.0540   -4.4897 H   0  0  0  0  0  0  0  0  0  0  0  0
    5.1496   -1.6539   -4.5747 H   0  0  0  0  0  0  0  0  0  0  0  0
    5.4012   -0.7062   -6.0551 H   0  0  0  0  0  0  0  0  0  0  0  0
  1  2  2  0  0  0  0
  1  3  1  0  0  0  0
  1  7  1  0  0  0  0
  3  4  1  0  0  0  0
  3  5  1  0  0  0  0
  3  6  1  0  0  0  0
  7  8  1  0  0  0  0
  7 12  1  0  0  0  0
  8  9  1  0  0  0  0
  8 11  1  0  0  0  0
  8 13  1  0  0  0  0
  9 10  2  0  0  0  0
  9 17  1  0  0  0  0
 11 14  1  0  0  0  0
 11 15  1  0  0  0  0
 11 16  1  0  0  0  0
 17 18  1  0  0  0  0
 17 23  1  0  0  0  0
 18 19  1  0  0  0  0
 18 21  1  0  0  0  0
 18 24  1  0  0  0  0
 19 20  2  0  0  0  0
 19 28  1  0  0  0  0
 21 22  1  0  0  0  0
 21 25  1  0  0  0  0
 21 26  1  0  0  0  0
 22 27  1  0  0  0  0
 28 29  1  0  0  0  0
 28 33  1  0  0  0  0
 29 30  1  0  0  0  0
 29 32  1  0  0  0  0
 29 34  1  0  0  0  0
 30 31  2  0  0  0  0
 30 38  1  0  0  0  0
 32 35  1  0  0  0  0
 32 36  1  0  0  0  0
 32 37  1  0  0  0  0
 38 39  1  0  0  0  0
 38 40  1  0  0  0  0
 39 41  1  0  0  0  0
 39 42  1  0  0  0  0
 39 43  1  0  0  0  0
M  END
$$$$

  -OEChem-05262216003D

 43 42  0     1  0  0  0  0  0999 V2000
   -3.3634   -4.8839    1.2227 C   0  0  0  0  0  0  0  0  0  0  0  0
   -2.5806   -5.3931    2.0096 O   0  0  0  0  0  0  0  0  0  0  0  0
   -4.8380   -5.2361    1.2785 C   0  0  0  0  0  0  0  0  0  0  0  0
   -5.1586   -5.6536    0.3208 H   0  0  0  0  0  0  0  0  0  0  0  0
   -5.0200   -5.9745    2.0644 H   0  0  0  0  0  0  0  0  0  0  0  0
   -5.4268   -4.3411    1.4935 H   0  0  0  0  0  0  0  0  0  0  0  0
   -2.9107   -3.9754    0.2902 N   0  0  0  0  0  0  0  0  0  0  0  0
   -1.5491   -3.4267    0.2627 C   0  0  2  0  0  0  0  0  0  0  0  0
   -1.5380   -1.9717   -0.2509 C   0  0  0  0  0  0  0  0  0  0  0  0
   -2.5221   -1.5173   -0.8208 O   0  0  0  0  0  0  0  0  0  0  0  0
   -0.6839   -4.3185   -0.6333 C   0  0  0  0  0  0  0  0  0  0  0  0
   -3.6128   -3.4769   -0.2570 H   0  0  0  0  0  0  0  0  0  0  0  0
   -1.1337   -3.4198    1.2763 H   0  0  0  0  0  0  0  0  0  0  0  0
   -1.0760   -4.3279   -1.6554 H   0  0  0  0  0  0  0  0  0  0  0  0
    0.3476   -3.9543   -0.6591 H   0  0  0  0  0  0  0  0  0  0  0  0
   -0.6773   -5.3452   -0.2533 H   0  0  0  0  0  0  0  0  0  0  0  0
   -0.4253   -1.1732   -0.0605 N   0  0  0  0  0  0  0  0  0  0  0  0
   -0.4018    0.2697   -0.3574 C   0  0  2  0  0  0  0  0  0  0  0  0
    0.0376    0.5525   -1.8089 C   0  0  0  0  0  0  0  0  0  0  0  0
   -0.7456    1.0182   -2.6242 O   0  0  0  0  0  0  0  0  0  0  0  0
    0.5370    0.9653    0.6380 C   0  0  0  0  0  0  0  0  0  0  0  0
   -0.1352    0.8287    2.3449 S   0  0  0  0  0  0  0  0  0  0  0  0
    0.2836   -1.5419    0.5666 H   0  0  0  0  0  0  0  0  0  0  0  0
   -1.4047    0.6951   -0.2320 H   0  0  0  0  0  0  0  0  0  0  0  0
    1.5378    0.5236    0.5981 H   0  0  0  0  0  0  0  0  0  0  0  0
    0.6261    2.0245    0.3719 H   0  0  0  0  0  0  0  0  0  0  0  0
    0.7461    1.5788    3.0427 H   0  0  0  0  0  0  0  0  0  0  0  0
    1.3673    0.4247   -2.1675 N   0  0  0  0  0  0  0  0  0  0  0  0
    1.8606    0.5231   -3.5463 C   0  0  2  0  0  0  0  0  0  0  0  0
    3.0056   -0.4820   -3.7920 C   0  0  0  0  0  0  0  0  0  0  0  0
    3.4987   -1.0899   -2.8464 O   0  0  0  0  0  0  0  0  0  0  0  0
    2.3321    1.9597   -3.7886 C   0  0  0  0  0  0  0  0  0  0  0  0
    1.9592   -0.1026   -1.5271 H   0  0  0  0  0  0  0  0  0  0  0  0
    1.0568    0.2822   -4.2509 H   0  0  0  0  0  0  0  0  0  0  0  0
    3.1484    2.2158   -3.1056 H   0  0  0  0  0  0  0  0  0  0  0  0
    2.6855    2.0804   -4.8169 H   0  0  0  0  0  0  0  0  0  0  0  0
    1.5072    2.6606   -3.6241 H   0  0  0  0  0  0  0  0  0  0  0  0
    3.4787   -0.7162   -5.0696 N   0  0  0  0  0  0  0  0  0  0  0  0
    4.5569   -1.6528   -5.3627 C   0  0  0  0  0  0  0  0  0  0  0  0
    3.0449   -0.2079   -5.8351 H   0  0  0  0  0  0  0  0  0  0  0  0
    5.4829   -1.3357   -4.8714 H   0  0  0  0  0  0  0  0  0  0  0  0
    4.2985   -2.6579   -5.0128 H   0  0  0  0  0  0  0  0  0  0  0  0
    4.7360   -1.6991   -6.4411 H   0  0  0  0  0  0  0  0  0  0  0  0
  1  2  2  0  0  0  0
  1  3  1  0  0  0  0
  1  7  1  0  0  0  0
  3  4  1  0  0  0  0
  3  5  1  0  0  0  0
  3  6  1  0  0  0  0
  7  8  1  0  0  0  0
  7 12  1  0  0  0  0
  8  9  1  0  0  0  0
  8 11  1  0  0  0  0
  8 13  1  0  0  0  0
  9 10  2  0  0  0  0
  9 17  1  0  0  0  0
 11 14  1  0  0  0  0
 11 15  1  0  0  0  0
 11 16  1  0  0  0  0
 17 18  1  0  0  0  0
 17 23  1  0  0  0  0
 18 19  1  0  0  0  0
 18 21  1  0  0  0  0
 18 24  1  0  0  0  0
 19 20  2  0  0  0  0
 19 28  1  0  0  0  0
 21 22  1  0  0  0  0
 21 25  1  0  0  0  0
 21 26  1  0  0  0  0
 22 27  1  0  0  0  0
 28 29  1  0  0  0  0
 28 33  1  0  0  0  0
 29 30  1  0  0  0  0
 29 32  1  0  0  0  0
 29 34  1  0  0  0  0
 30 31  2  0  0  0  0
 30 38  1  0  0  0  0
 32 35  1  0  0  0  0
 32 36  1  0  0  0  0
 32 37  1  0  0  0  0
 38 39  1  0  0  0  0
 38 40  1  0  0  0  0
 39 41  1  0  0  0  0
 39 42  1  0  0  0  0
 39 43  1  0  0  0  0
M  END
$$$$

  -OEChem-05262216003D

 43 42  0     1  0  0  0  0  0999 V2000
   -3.3873   -4.8616    1.2781 C   0  0  0  0  0  0  0  0  0  0  0  0
   -2.6255   -5.3289    2.1101 O   0  0  0  0  0  0  0  0  0  0  0  0
   -4.8577   -5.2356    1.2976 C   0  0  0  0  0  0  0  0  0  0  0  0
   -5.1362   -5.7065    0.3517 H   0  0  0  0  0  0  0  0  0  0  0  0
   -5.0576   -5.9372    2.1125 H   0  0  0  0  0  0  0  0  0  0  0  0
   -5.4681   -4.3412    1.4453 H   0  0  0  0  0  0  0  0  0  0  0  0
   -2.9131   -3.9846    0.3257 N   0  0  0  0  0  0  0  0  0  0  0  0
   -1.5504   -3.4377    0.3090 C   0  0  2  0  0  0  0  0  0  0  0  0
   -1.5179   -2.0099   -0.2751 C   0  0  0  0  0  0  0  0  0  0  0  0
   -2.4688   -1.5892   -0.9225 O   0  0  0  0  0  0  0  0  0  0  0  0
   -0.6623   -4.3744   -0.5160 C   0  0  0  0  0  0  0  0  0  0  0  0
   -3.5978   -3.5276   -0.2762 H   0  0  0  0  0  0  0  0  0  0  0  0
   -1.1642   -3.3810    1.3324 H   0  0  0  0  0  0  0  0  0  0  0  0
   -1.0268   -4.4384   -1.5465 H   0  0  0  0  0  0  0  0  0  0  0  0
    0.3698   -4.0113   -0.5340 H   0  0  0  0  0  0  0  0  0  0  0  0
   -0.6661   -5.3796   -0.0821 H   0  0  0  0  0  0  0  0  0  0  0  0
   -0.4159   -1.1986   -0.0767 N   0  0  0  0  0  0  0  0  0  0  0  0
   -0.4143    0.2407   -0.3930 C   0  0  2  0  0  0  0  0  0  0  0  0
    0.0378    0.5088   -1.8410 C   0  0  0  0  0  0  0  0  0  0  0  0
   -0.6104    1.2422   -2.5745 O   0  0  0  0  0  0  0  0  0  0  0  0
    0.5202    0.9645    0.5842 C   0  0  0  0  0  0  0  0  0  0  0  0
   -0.1361    0.8440    2.2988 S   0  0  0  0  0  0  0  0  0  0  0  0
    0.2447   -1.5244    0.6236 H   0  0  0  0  0  0  0  0  0  0  0  0
   -1.4233    0.6547   -0.2782 H   0  0  0  0  0  0  0  0  0  0  0  0
    1.5282    0.5393    0.5398 H   0  0  0  0  0  0  0  0  0  0  0  0
    0.5892    2.0207    0.3009 H   0  0  0  0  0  0  0  0  0  0  0  0
    0.7242    1.6411    2.9712 H   0  0  0  0  0  0  0  0  0  0  0  0
    1.2946    0.1022   -2.2480 N   0  0  0  0  0  0  0  0  0  0  0  0
    1.7736    0.1845   -3.6326 C   0  0  2  0  0  0  0  0  0  0  0  0
    2.6003   -1.0655   -4.0014 C   0  0  0  0  0  0  0  0  0  0  0  0
    2.9511   -1.8487   -3.1237 O   0  0  0  0  0  0  0  0  0  0  0  0
    2.6133    1.4565   -3.7753 C   0  0  0  0  0  0  0  0  0  0  0  0
    1.7346   -0.6172   -1.6752 H   0  0  0  0  0  0  0  0  0  0  0  0
    0.9244    0.2315   -4.3232 H   0  0  0  0  0  0  0  0  0  0  0  0
    3.4774    1.4217   -3.1042 H   0  0  0  0  0  0  0  0  0  0  0  0
    2.9732    1.5672   -4.8025 H   0  0  0  0  0  0  0  0  0  0  0  0
    2.0113    2.3357   -3.5242 H   0  0  0  0  0  0  0  0  0  0  0  0
    2.9423   -1.3221   -5.3161 N   0  0  0  0  0  0  0  0  0  0  0  0
    3.7037   -2.4946   -5.7299 C   0  0  0  0  0  0  0  0  0  0  0  0
    2.6132   -0.6725   -6.0247 H   0  0  0  0  0  0  0  0  0  0  0  0
    4.6815   -2.5104   -5.2368 H   0  0  0  0  0  0  0  0  0  0  0  0
    3.1643   -3.4123   -5.4726 H   0  0  0  0  0  0  0  0  0  0  0  0
    3.8641   -2.4795   -6.8122 H   0  0  0  0  0  0  0  0  0  0  0  0
  1  2  2  0  0  0  0
  1  3  1  0  0  0  0
  1  7  1  0  0  0  0
  3  4  1  0  0  0  0
  3  5  1  0  0  0  0
  3  6  1  0  0  0  0
  7  8  1  0  0  0  0
  7 12  1  0  0  0  0
  8  9  1  0  0  0  0
  8 11  1  0  0  0  0
  8 13  1  0  0  0  0
  9 10  2  0  0  0  0
  9 17  1  0  0  0  0
 11 14  1  0  0  0  0
 11 15  1  0  0  0  0
 11 16  1  0  0  0  0
 17 18  1  0  0  0  0
 17 23  1  0  0  0  0
 18 19  1  0  0  0  0
 18 21  1  0  0  0  0
 18 24  1  0  0  0  0
 19 20  2  0  0  0  0
 19 28  1  0  0  0  0
 21 22  1  0  0  0  0
 21 25  1  0  0  0  0
 21 26  1  0  0  0  0
 22 27  1  0  0  0  0
 28 29  1  0  0  0  0
 28 33  1  0  0  0  0
 29 30  1  0  0  0  0
 29 32  1  0  0  0  0
 29 34  1  0  0  0  0
 30 31  2  0  0  0  0
 30 38  1  0  0  0  0
 32 35  1  0  0  0  0
 32 36  1  0  0  0  0
 32 37  1  0  0  0  0
 38 39  1  0  0  0  0
 38 40  1  0  0  0  0
 39 41  1  0  0  0  0
 39 42  1  0  0  0  0
 39 43  1  0  0  0  0
M  END
$$$$

  -OEChem-05262216003D

 43 42  0     1  0  0  0  0  0999 V2000
   -3.3645   -4.8579    1.2980 C   0  0  0  0  0  0  0  0  0  0  0  0
   -2.6041   -5.3069    2.1410 O   0  0  0  0  0  0  0  0  0  0  0  0
   -4.8327   -5.2388    1.3158 C   0  0  0  0  0  0  0  0  0  0  0  0
   -5.1067   -5.7114    0.3695 H   0  0  0  0  0  0  0  0  0  0  0  0
   -5.0303   -5.9411    2.1306 H   0  0  0  0  0  0  0  0  0  0  0  0
   -5.4476   -4.3473    1.4619 H   0  0  0  0  0  0  0  0  0  0  0  0
   -2.8910   -3.9952    0.3328 N   0  0  0  0  0  0  0  0  0  0  0  0
   -1.5300   -3.4446    0.3103 C   0  0  2  0  0  0  0  0  0  0  0  0
   -1.5068   -2.0150   -0.2679 C   0  0  0  0  0  0  0  0  0  0  0  0
   -2.4500   -1.6041   -0.9332 O   0  0  0  0  0  0  0  0  0  0  0  0
   -0.6455   -4.3735   -0.5270 C   0  0  0  0  0  0  0  0  0  0  0  0
   -3.5760   -3.5499   -0.2774 H   0  0  0  0  0  0  0  0  0  0  0  0
   -1.1355   -3.3923    1.3306 H   0  0  0  0  0  0  0  0  0  0  0  0
   -1.0171   -4.4316   -1.5552 H   0  0  0  0  0  0  0  0  0  0  0  0
    0.3853   -4.0072   -0.5508 H   0  0  0  0  0  0  0  0  0  0  0  0
   -0.6431   -5.3812   -0.0995 H   0  0  0  0  0  0  0  0  0  0  0  0
   -0.4115   -1.1958   -0.0674 N   0  0  0  0  0  0  0  0  0  0  0  0
   -0.4247    0.2422   -0.3920 C   0  0  2  0  0  0  0  0  0  0  0  0
    0.0300    0.4991   -1.8397 C   0  0  0  0  0  0  0  0  0  0  0  0
   -0.4522    1.4128   -2.4948 O   0  0  0  0  0  0  0  0  0  0  0  0
    0.5144    0.9759    0.5706 C   0  0  0  0  0  0  0  0  0  0  0  0
   -0.1239    0.8572    2.2918 S   0  0  0  0  0  0  0  0  0  0  0  0
    0.2398   -1.5064    0.6489 H   0  0  0  0  0  0  0  0  0  0  0  0
   -1.4358    0.6516   -0.2782 H   0  0  0  0  0  0  0  0  0  0  0  0
    1.5248    0.5578    0.5133 H   0  0  0  0  0  0  0  0  0  0  0  0
    0.5721    2.0315    0.2833 H   0  0  0  0  0  0  0  0  0  0  0  0
    0.7328    1.6705    2.9488 H   0  0  0  0  0  0  0  0  0  0  0  0
    1.1423   -0.1627   -2.3227 N   0  0  0  0  0  0  0  0  0  0  0  0
    1.5643   -0.1370   -3.7269 C   0  0  2  0  0  0  0  0  0  0  0  0
    2.0302   -1.5379   -4.1801 C   0  0  0  0  0  0  0  0  0  0  0  0
    2.2100   -2.4232   -3.3485 O   0  0  0  0  0  0  0  0  0  0  0  0
    2.6898    0.8903   -3.8712 C   0  0  0  0  0  0  0  0  0  0  0  0
    1.4063   -1.0001   -1.8042 H   0  0  0  0  0  0  0  0  0  0  0  0
    0.7248    0.1541   -4.3677 H   0  0  0  0  0  0  0  0  0  0  0  0
    3.5461    0.6106   -3.2494 H   0  0  0  0  0  0  0  0  0  0  0  0
    3.0203    0.9556   -4.9119 H   0  0  0  0  0  0  0  0  0  0  0  0
    2.3397    1.8791   -3.5581 H   0  0  0  0  0  0  0  0  0  0  0  0
    2.2377   -1.8132   -5.5190 N   0  0  0  0  0  0  0  0  0  0  0  0
    2.6483   -3.1223   -6.0133 C   0  0  0  0  0  0  0  0  0  0  0  0
    2.0444   -1.0731   -6.1877 H   0  0  0  0  0  0  0  0  0  0  0  0
    3.5930   -3.4287   -5.5515 H   0  0  0  0  0  0  0  0  0  0  0  0
    1.8855   -3.8746   -5.7870 H   0  0  0  0  0  0  0  0  0  0  0  0
    2.7909   -3.0895   -7.0978 H   0  0  0  0  0  0  0  0  0  0  0  0
  1  2  2  0  0  0  0
  1  3  1  0  0  0  0
  1  7  1  0  0  0  0
  3  4  1  0  0  0  0
  3  5  1  0  0  0  0
  3  6  1  0  0  0  0
  7  8  1  0  0  0  0
  7 12  1  0  0  0  0
  8  9  1  0  0  0  0
  8 11  1  0  0  0  0
  8 13  1  0  0  0  0
  9 10  2  0  0  0  0
  9 17  1  0  0  0  0
 11 14  1  0  0  0  0
 11 15  1  0  0  0  0
 11 16  1  0  0  0  0
 17 18  1  0  0  0  0
 17 23  1  0  0  0  0
 18 19  1  0  0  0  0
 18 21  1  0  0  0  0
 18 24  1  0  0  0  0
 19 20  2  0  0  0  0
 19 28  1  0  0  0  0
 21 22  1  0  0  0  0
 21 25  1  0  0  0  0
 21 26  1  0  0  0  0
 22 27  1  0  0  0  0
 28 29  1  0  0  0  0
 28 33  1  0  0  0  0
 29 30  1  0  0  0  0
 29 32  1  0  0  0  0
 29 34  1  0  0  0  0
 30 31  2  0  0  0  0
 30 38  1  0  0  0  0
 32 35  1  0  0  0  0
 32 36  1  0  0  0  0
 32 37  1  0  0  0  0
 38 39  1  0  0  0  0
 38 40  1  0  0  0  0
 39 41  1  0  0  0  0
 39 42  1  0  0  0  0
 39 43  1  0  0  0  0
M  END
$$$$

  -OEChem-05262216003D

 43 42  0     1  0  0  0  0  0999 V2000
   -3.3801   -4.8513    1.3278 C   0  0  0  0  0  0  0  0  0  0  0  0
   -2.6357   -5.2721    2.1994 O   0  0  0  0  0  0  0  0  0  0  0  0
   -4.8451   -5.2456    1.3207 C   0  0  0  0  0  0  0  0  0  0  0  0
   -5.0825   -5.7815    0.3986 H   0  0  0  0  0  0  0  0  0  0  0  0
   -5.0650   -5.8950    2.1727 H   0  0  0  0  0  0  0  0  0  0  0  0
   -5.4722   -4.3532    1.3873 H   0  0  0  0  0  0  0  0  0  0  0  0
   -2.8918   -4.0106    0.3506 N   0  0  0  0  0  0  0  0  0  0  0  0
   -1.5341   -3.4516    0.3400 C   0  0  2  0  0  0  0  0  0  0  0  0
   -1.5122   -2.0220   -0.2374 C   0  0  0  0  0  0  0  0  0  0  0  0
   -2.4499   -1.6122   -0.9116 O   0  0  0  0  0  0  0  0  0  0  0  0
   -0.6396   -4.3746   -0.4935 C   0  0  0  0  0  0  0  0  0  0  0  0
   -3.5672   -3.5883   -0.2858 H   0  0  0  0  0  0  0  0  0  0  0  0
   -1.1462   -3.3971    1.3629 H   0  0  0  0  0  0  0  0  0  0  0  0
   -1.0043   -4.4339   -1.5243 H   0  0  0  0  0  0  0  0  0  0  0  0
    0.3894   -4.0026   -0.5118 H   0  0  0  0  0  0  0  0  0  0  0  0
   -0.6344   -5.3827   -0.0670 H   0  0  0  0  0  0  0  0  0  0  0  0
   -0.4126   -1.2067   -0.0447 N   0  0  0  0  0  0  0  0  0  0  0  0
   -0.4215    0.2278   -0.3871 C   0  0  2  0  0  0  0  0  0  0  0  0
    0.0343    0.4704   -1.8375 C   0  0  0  0  0  0  0  0  0  0  0  0
   -0.2550    1.5082   -2.4178 O   0  0  0  0  0  0  0  0  0  0  0  0
    0.5292    0.9634    0.5622 C   0  0  0  0  0  0  0  0  0  0  0  0
   -0.0956    0.8672    2.2895 S   0  0  0  0  0  0  0  0  0  0  0  0
    0.2326   -1.5085    0.6810 H   0  0  0  0  0  0  0  0  0  0  0  0
   -1.4287    0.6457   -0.2743 H   0  0  0  0  0  0  0  0  0  0  0  0
    1.5350    0.5354    0.5000 H   0  0  0  0  0  0  0  0  0  0  0  0
    0.5941    2.0161    0.2645 H   0  0  0  0  0  0  0  0  0  0  0  0
    0.7780    1.6765    2.9290 H   0  0  0  0  0  0  0  0  0  0  0  0
    0.9325   -0.4027   -2.4191 N   0  0  0  0  0  0  0  0  0  0  0  0
    1.2747   -0.3994   -3.8446 C   0  0  2  0  0  0  0  0  0  0  0  0
    1.3955   -1.8434   -4.3777 C   0  0  0  0  0  0  0  0  0  0  0  0
    1.4504   -2.7852   -3.5915 O   0  0  0  0  0  0  0  0  0  0  0  0
    2.5899    0.3640   -4.0236 C   0  0  0  0  0  0  0  0  0  0  0  0
    1.0208   -1.3040   -1.9499 H   0  0  0  0  0  0  0  0  0  0  0  0
    0.4854    0.0983   -4.4182 H   0  0  0  0  0  0  0  0  0  0  0  0
    3.3961   -0.1256   -3.4679 H   0  0  0  0  0  0  0  0  0  0  0  0
    2.8696    0.4063   -5.0805 H   0  0  0  0  0  0  0  0  0  0  0  0
    2.4843    1.3890   -3.6542 H   0  0  0  0  0  0  0  0  0  0  0  0
    1.4309   -2.0921   -5.7373 N   0  0  0  0  0  0  0  0  0  0  0  0
    1.5167   -3.4334   -6.3030 C   0  0  0  0  0  0  0  0  0  0  0  0
    1.3443   -1.2975   -6.3646 H   0  0  0  0  0  0  0  0  0  0  0  0
    2.4297   -3.9342   -5.9642 H   0  0  0  0  0  0  0  0  0  0  0  0
    0.6523   -4.0338   -6.0003 H   0  0  0  0  0  0  0  0  0  0  0  0
    1.5367   -3.3832   -7.3960 H   0  0  0  0  0  0  0  0  0  0  0  0
  1  2  2  0  0  0  0
  1  3  1  0  0  0  0
  1  7  1  0  0  0  0
  3  4  1  0  0  0  0
  3  5  1  0  0  0  0
  3  6  1  0  0  0  0
  7  8  1  0  0  0  0
  7 12  1  0  0  0  0
  8  9  1  0  0  0  0
  8 11  1  0  0  0  0
  8 13  1  0  0  0  0
  9 10  2  0  0  0  0
  9 17  1  0  0  0  0
 11 14  1  0  0  0  0
 11 15  1  0  0  0  0
 11 16  1  0  0  0  0
 17 18  1  0  0  0  0
 17 23  1  0  0  0  0
 18 19  1  0  0  0  0
 18 21  1  0  0  0  0
 18 24  1  0  0  0  0
 19 20  2  0  0  0  0
 19 28  1  0  0  0  0
 21 22  1  0  0  0  0
 21 25  1  0  0  0  0
 21 26  1  0  0  0  0
 22 27  1  0  0  0  0
 28 29  1  0  0  0  0
 28 33  1  0  0  0  0
 29 30  1  0  0  0  0
 29 32  1  0  0  0  0
 29 34  1  0  0  0  0
 30 31  2  0  0  0  0
 30 38  1  0  0  0  0
 32 35  1  0  0  0  0
 32 36  1  0  0  0  0
 32 37  1  0  0  0  0
 38 39  1  0  0  0  0
 38 40  1  0  0  0  0
 39 41  1  0  0  0  0
 39 42  1  0  0  0  0
 39 43  1  0  0  0  0
M  END
$$$$

  -OEChem-05262216003D

 43 42  0     1  0  0  0  0  0999 V2000
   -3.4159   -4.8409    1.3829 C   0  0  0  0  0  0  0  0  0  0  0  0
   -2.6642   -5.2753    2.2415 O   0  0  0  0  0  0  0  0  0  0  0  0
   -4.8861   -5.2149    1.3970 C   0  0  0  0  0  0  0  0  0  0  0  0
   -5.1595   -5.6890    0.4514 H   0  0  0  0  0  0  0  0  0  0  0  0
   -5.0901   -5.9139    2.2129 H   0  0  0  0  0  0  0  0  0  0  0  0
   -5.4972   -4.3201    1.5380 H   0  0  0  0  0  0  0  0  0  0  0  0
   -2.9319   -4.0019    0.4021 N   0  0  0  0  0  0  0  0  0  0  0  0
   -1.5668   -3.4625    0.3706 C   0  0  2  0  0  0  0  0  0  0  0  0
   -1.5373   -2.0251   -0.1863 C   0  0  0  0  0  0  0  0  0  0  0  0
   -2.4836   -1.5915   -0.8332 O   0  0  0  0  0  0  0  0  0  0  0  0
   -0.7063   -4.3861   -0.4979 C   0  0  0  0  0  0  0  0  0  0  0  0
   -3.6115   -3.5677   -0.2217 H   0  0  0  0  0  0  0  0  0  0  0  0
   -1.1554   -3.4299    1.3852 H   0  0  0  0  0  0  0  0  0  0  0  0
   -1.0907   -4.4169   -1.5229 H   0  0  0  0  0  0  0  0  0  0  0  0
    0.3297   -4.0354   -0.5283 H   0  0  0  0  0  0  0  0  0  0  0  0
   -0.7139   -5.4026   -0.0922 H   0  0  0  0  0  0  0  0  0  0  0  0
   -0.4156   -1.2332   -0.0254 N   0  0  0  0  0  0  0  0  0  0  0  0
   -0.4060    0.2009   -0.3717 C   0  0  2  0  0  0  0  0  0  0  0  0
    0.0142    0.4350   -1.8363 C   0  0  0  0  0  0  0  0  0  0  0  0
   -0.0749    1.5457   -2.3427 O   0  0  0  0  0  0  0  0  0  0  0  0
    0.5845    0.9111    0.5576 C   0  0  0  0  0  0  0  0  0  0  0  0
   -0.0022    0.8236    2.2991 S   0  0  0  0  0  0  0  0  0  0  0  0
    0.2502   -1.5492    0.6751 H   0  0  0  0  0  0  0  0  0  0  0  0
   -1.4005    0.6397   -0.2315 H   0  0  0  0  0  0  0  0  0  0  0  0
    1.5791    0.4615    0.4700 H   0  0  0  0  0  0  0  0  0  0  0  0
    0.6666    1.9635    0.2636 H   0  0  0  0  0  0  0  0  0  0  0  0
    0.9059    1.6092    2.9195 H   0  0  0  0  0  0  0  0  0  0  0  0
    0.6150   -0.5867   -2.5450 N   0  0  0  0  0  0  0  0  0  0  0  0
    0.8638   -0.5663   -3.9889 C   0  0  2  0  0  0  0  0  0  0  0  0
    0.7305   -1.9868   -4.5811 C   0  0  0  0  0  0  0  0  0  0  0  0
    0.6754   -2.9607   -3.8352 O   0  0  0  0  0  0  0  0  0  0  0  0
    2.2659   -0.0013   -4.2346 C   0  0  0  0  0  0  0  0  0  0  0  0
    0.5338   -1.5123   -2.1237 H   0  0  0  0  0  0  0  0  0  0  0  0
    0.1228    0.0711   -4.4831 H   0  0  0  0  0  0  0  0  0  0  0  0
    3.0210   -0.6308   -3.7533 H   0  0  0  0  0  0  0  0  0  0  0  0
    2.4803    0.0442   -5.3063 H   0  0  0  0  0  0  0  0  0  0  0  0
    2.3437    1.0111   -3.8255 H   0  0  0  0  0  0  0  0  0  0  0  0
    0.6619   -2.1773   -5.9490 N   0  0  0  0  0  0  0  0  0  0  0  0
    0.5025   -3.4882   -6.5679 C   0  0  0  0  0  0  0  0  0  0  0  0
    0.6715   -1.3516   -6.5406 H   0  0  0  0  0  0  0  0  0  0  0  0
    1.3213   -4.1538   -6.2742 H   0  0  0  0  0  0  0  0  0  0  0  0
   -0.4468   -3.9426   -6.2649 H   0  0  0  0  0  0  0  0  0  0  0  0
    0.5095   -3.3949   -7.6582 H   0  0  0  0  0  0  0  0  0  0  0  0
  1  2  2  0  0  0  0
  1  3  1  0  0  0  0
  1  7  1  0  0  0  0
  3  4  1  0  0  0  0
  3  5  1  0  0  0  0
  3  6  1  0  0  0  0
  7  8  1  0  0  0  0
  7 12  1  0  0  0  0
  8  9  1  0  0  0  0
  8 11  1  0  0  0  0
  8 13  1  0  0  0  0
  9 10  2  0  0  0  0
  9 17  1  0  0  0  0
 11 14  1  0  0  0  0
 11 15  1  0  0  0  0
 11 16  1  0  0  0  0
 17 18  1  0  0  0  0
 17 23  1  0  0  0  0
 18 19  1  0  0  0  0
 18 21  1  0  0  0  0
 18 24  1  0  0  0  0
 19 20  2  0  0  0  0
 19 28  1  0  0  0  0
 21 22  1  0  0  0  0
 21 25  1  0  0  0  0
 21 26  1  0  0  0  0
 22 27  1  0  0  0  0
 28 29  1  0  0  0  0
 28 33  1  0  0  0  0
 29 30  1  0  0  0  0
 29 32  1  0  0  0  0
 29 34  1  0  0  0  0
 30 31  2  0  0  0  0
 30 38  1  0  0  0  0
 32 35  1  0  0  0  0
 32 36  1  0  0  0  0
 32 37  1  0  0  0  0
 38 39  1  0  0  0  0
 38 40  1  0  0  0  0
 39 41  1  0  0  0  0
 39 42  1  0  0  0  0
 39 43  1  0  0  0  0
M  END
$$$$

  -OEChem-05262216003D

 43 42  0     1  0  0  0  0  0999 V2000
   -3.4339   -4.8485    1.4521 C   0  0  0  0  0  0  0  0  0  0  0  0
   -2.6706   -5.3022    2.2902 O   0  0  0  0  0  0  0  0  0  0  0  0
   -4.9078   -5.2059    1.4896 C   0  0  0  0  0  0  0  0  0  0  0  0
   -5.2100   -5.6447    0.5357 H   0  0  0  0  0  0  0  0  0  0  0  0
   -5.0997   -5.9293    2.2868 H   0  0  0  0  0  0  0  0  0  0  0  0
   -5.5039   -4.3093    1.6756 H   0  0  0  0  0  0  0  0  0  0  0  0
   -2.9595   -4.0011    0.4740 N   0  0  0  0  0  0  0  0  0  0  0  0
   -1.5901   -3.4746    0.4234 C   0  0  2  0  0  0  0  0  0  0  0  0
   -1.5581   -2.0383   -0.1364 C   0  0  0  0  0  0  0  0  0  0  0  0
   -2.5154   -1.5941   -0.7596 O   0  0  0  0  0  0  0  0  0  0  0  0
   -0.7489   -4.4062   -0.4556 C   0  0  0  0  0  0  0  0  0  0  0  0
   -3.6449   -3.5572   -0.1364 H   0  0  0  0  0  0  0  0  0  0  0  0
   -1.1647   -3.4439    1.4323 H   0  0  0  0  0  0  0  0  0  0  0  0
   -1.1497   -4.4380   -1.4745 H   0  0  0  0  0  0  0  0  0  0  0  0
    0.2884   -4.0614   -0.5022 H   0  0  0  0  0  0  0  0  0  0  0  0
   -0.7558   -5.4214   -0.0463 H   0  0  0  0  0  0  0  0  0  0  0  0
   -0.4209   -1.2605   -0.0207 N   0  0  0  0  0  0  0  0  0  0  0  0
   -0.4045    0.1731   -0.3719 C   0  0  2  0  0  0  0  0  0  0  0  0
   -0.0364    0.4065   -1.8529 C   0  0  0  0  0  0  0  0  0  0  0  0
    0.0934    1.5406   -2.2959 O   0  0  0  0  0  0  0  0  0  0  0  0
    0.6247    0.8666    0.5302 C   0  0  0  0  0  0  0  0  0  0  0  0
    0.0880    0.7865    2.2881 S   0  0  0  0  0  0  0  0  0  0  0  0
    0.2724   -1.5862    0.6478 H   0  0  0  0  0  0  0  0  0  0  0  0
   -1.3877    0.6244   -0.1974 H   0  0  0  0  0  0  0  0  0  0  0  0
    1.6079    0.3995    0.4125 H   0  0  0  0  0  0  0  0  0  0  0  0
    0.7184    1.9183    0.2375 H   0  0  0  0  0  0  0  0  0  0  0  0
    1.0286    1.5540    2.8821 H   0  0  0  0  0  0  0  0  0  0  0  0
    0.2291   -0.6723   -2.6728 N   0  0  0  0  0  0  0  0  0  0  0  0
    0.4316   -0.6056   -4.1223 C   0  0  2  0  0  0  0  0  0  0  0  0
    0.0295   -1.9389   -4.7896 C   0  0  0  0  0  0  0  0  0  0  0  0
   -0.1311   -2.9465   -4.1068 O   0  0  0  0  0  0  0  0  0  0  0  0
    1.9042   -0.2881   -4.4022 C   0  0  0  0  0  0  0  0  0  0  0  0
   -0.0313   -1.5844   -2.2970 H   0  0  0  0  0  0  0  0  0  0  0  0
   -0.1991    0.1838   -4.5447 H   0  0  0  0  0  0  0  0  0  0  0  0
    2.5493   -1.0661   -3.9815 H   0  0  0  0  0  0  0  0  0  0  0  0
    2.0867   -0.2280   -5.4793 H   0  0  0  0  0  0  0  0  0  0  0  0
    2.1780    0.6719   -3.9536 H   0  0  0  0  0  0  0  0  0  0  0  0
   -0.1565   -2.0116   -6.1580 N   0  0  0  0  0  0  0  0  0  0  0  0
   -0.5649   -3.2304   -6.8462 C   0  0  0  0  0  0  0  0  0  0  0  0
   -0.0513   -1.1550   -6.6938 H   0  0  0  0  0  0  0  0  0  0  0  0
    0.1407   -4.0425   -6.6411 H   0  0  0  0  0  0  0  0  0  0  0  0
   -1.5626   -3.5396   -6.5177 H   0  0  0  0  0  0  0  0  0  0  0  0
   -0.5921   -3.0636   -7.9273 H   0  0  0  0  0  0  0  0  0  0  0  0
  1  2  2  0  0  0  0
  1  3  1  0  0  0  0
  1  7  1  0  0  0  0
  3  4  1  0  0  0  0
  3  5  1  0  0  0  0
  3  6  1  0  0  0  0
  7  8  1  0  0  0  0
  7 12  1  0  0  0  0
  8  9  1  0  0  0  0
  8 11  1  0  0  0  0
  8 13  1  0  0  0  0
  9 10  2  0  0  0  0
  9 17  1  0  0  0  0
 11 14  1  0  0  0  0
 11 15  1  0  0  0  0
 11 16  1  0  0  0  0
 17 18  1  0  0  0  0
 17 23  1  0  0  0  0
 18 19  1  0  0  0  0
 18 21  1  0  0  0  0
 18 24  1  0  0  0  0
 19 20  2  0  0  0  0
 19 28  1  0  0  0  0
 21 22  1  0  0  0  0
 21 25  1  0  0  0  0
 21 26  1  0  0  0  0
 22 27  1  0  0  0  0
 28 29  1  0  0  0  0
 28 33  1  0  0  0  0
 29 30  1  0  0  0  0
 29 32  1  0  0  0  0
 29 34  1  0  0  0  0
 30 31  2  0  0  0  0
 30 38  1  0  0  0  0
 32 35  1  0  0  0  0
 32 36  1  0  0  0  0
 32 37  1  0  0  0  0
 38 39  1  0  0  0  0
 38 40  1  0  0  0  0
 39 41  1  0  0  0  0
 39 42  1  0  0  0  0
 39 43  1  0  0  0  0
M  END
$$$$

  -OEChem-05262216003D

 43 42  0     1  0  0  0  0  0999 V2000
   -3.4121   -4.8730    1.4936 C   0  0  0  0  0  0  0  0  0  0  0  0
   -2.6151   -5.3590    2.2807 O   0  0  0  0  0  0  0  0  0  0  0  0
   -4.8804   -5.2474    1.5668 C   0  0  0  0  0  0  0  0  0  0  0  0
   -5.2016   -5.6835    0.6180 H   0  0  0  0  0  0  0  0  0  0  0  0
   -5.0436   -5.9786    2.3634 H   0  0  0  0  0  0  0  0  0  0  0  0
   -5.4822   -4.3592    1.7744 H   0  0  0  0  0  0  0  0  0  0  0  0
   -2.9789   -3.9780    0.5389 N   0  0  0  0  0  0  0  0  0  0  0  0
   -1.6070   -3.4639    0.4419 C   0  0  2  0  0  0  0  0  0  0  0  0
   -1.5767   -2.0226   -0.1053 C   0  0  0  0  0  0  0  0  0  0  0  0
   -2.5472   -1.5605   -0.6939 O   0  0  0  0  0  0  0  0  0  0  0  0
   -0.8105   -4.3956   -0.4774 C   0  0  0  0  0  0  0  0  0  0  0  0
   -3.6852   -3.5239   -0.0395 H   0  0  0  0  0  0  0  0  0  0  0  0
   -1.1454   -3.4491    1.4353 H   0  0  0  0  0  0  0  0  0  0  0  0
   -1.2516   -4.4125   -1.4797 H   0  0  0  0  0  0  0  0  0  0  0  0
    0.2279   -4.0612   -0.5616 H   0  0  0  0  0  0  0  0  0  0  0  0
   -0.8133   -5.4150   -0.0783 H   0  0  0  0  0  0  0  0  0  0  0  0
   -0.4257   -1.2606   -0.0340 N   0  0  0  0  0  0  0  0  0  0  0  0
   -0.4016    0.1770   -0.3675 C   0  0  2  0  0  0  0  0  0  0  0  0
   -0.0969    0.4195   -1.8640 C   0  0  0  0  0  0  0  0  0  0  0  0
    0.2845    1.5134   -2.2622 O   0  0  0  0  0  0  0  0  0  0  0  0
    0.6684    0.8393    0.5132 C   0  0  0  0  0  0  0  0  0  0  0  0
    0.1855    0.7380    2.2860 S   0  0  0  0  0  0  0  0  0  0  0  0
    0.3038   -1.6113    0.5807 H   0  0  0  0  0  0  0  0  0  0  0  0
   -1.3706    0.6386   -0.1479 H   0  0  0  0  0  0  0  0  0  0  0  0
    1.6402    0.3608    0.3549 H   0  0  0  0  0  0  0  0  0  0  0  0
    0.7693    1.8954    0.2392 H   0  0  0  0  0  0  0  0  0  0  0  0
    1.1695    1.4617    2.8645 H   0  0  0  0  0  0  0  0  0  0  0  0
   -0.1932   -0.6242   -2.7636 N   0  0  0  0  0  0  0  0  0  0  0  0
   -0.0064   -0.5247   -4.2142 C   0  0  2  0  0  0  0  0  0  0  0  0
   -0.6821   -1.7078   -4.9398 C   0  0  0  0  0  0  0  0  0  0  0  0
   -0.9713   -2.7281   -4.3224 O   0  0  0  0  0  0  0  0  0  0  0  0
    1.4939   -0.5067   -4.5295 C   0  0  0  0  0  0  0  0  0  0  0  0
   -0.6589   -1.4656   -2.4197 H   0  0  0  0  0  0  0  0  0  0  0  0
   -0.4678    0.4000   -4.5757 H   0  0  0  0  0  0  0  0  0  0  0  0
    1.9715   -1.4199   -4.1603 H   0  0  0  0  0  0  0  0  0  0  0  0
    1.6585   -0.4390   -5.6089 H   0  0  0  0  0  0  0  0  0  0  0  0
    1.9753    0.3543   -4.0559 H   0  0  0  0  0  0  0  0  0  0  0  0
   -0.9585   -1.6342   -6.2928 N   0  0  0  0  0  0  0  0  0  0  0  0
   -1.6008   -2.7110   -7.0370 C   0  0  0  0  0  0  0  0  0  0  0  0
   -0.7283   -0.7704   -6.7754 H   0  0  0  0  0  0  0  0  0  0  0  0
   -1.0044   -3.6276   -6.9771 H   0  0  0  0  0  0  0  0  0  0  0  0
   -2.5987   -2.9129   -6.6337 H   0  0  0  0  0  0  0  0  0  0  0  0
   -1.7030   -2.4349   -8.0910 H   0  0  0  0  0  0  0  0  0  0  0  0
  1  2  2  0  0  0  0
  1  3  1  0  0  0  0
  1  7  1  0  0  0  0
  3  4  1  0  0  0  0
  3  5  1  0  0  0  0
  3  6  1  0  0  0  0
  7  8  1  0  0  0  0
  7 12  1  0  0  0  0
  8  9  1  0  0  0  0
  8 11  1  0  0  0  0
  8 13  1  0  0  0  0
  9 10  2  0  0  0  0
  9 17  1  0  0  0  0
 11 14  1  0  0  0  0
 11 15  1  0  0  0  0
 11 16  1  0  0  0  0
 17 18  1  0  0  0  0
 17 23  1  0  0  0  0
 18 19  1  0  0  0  0
 18 21  1  0  0  0  0
 18 24  1  0  0  0  0
 19 20  2  0  0  0  0
 19 28  1  0  0  0  0
 21 22  1  0  0  0  0
 21 25  1  0  0  0  0
 21 26  1  0  0  0  0
 22 27  1  0  0  0  0
 28 29  1  0  0  0  0
 28 33  1  0  0  0  0
 29 30  1  0  0  0  0
 29 32  1  0  0  0  0
 29 34  1  0  0  0  0
 30 31  2  0  0  0  0
 30 38  1  0  0  0  0
 32 35  1  0  0  0  0
 32 36  1  0  0  0  0
 32 37  1  0  0  0  0
 38 39  1  0  0  0  0
 38 40  1  0  0  0  0
 39 41  1  0  0  0  0
 39 42  1  0  0  0  0
 39 43  1  0  0  0  0
M  END
$$$$

  -OEChem-05262216003D

 43 42  0     1  0  0  0  0  0999 V2000
   -3.3870   -4.8787    1.5030 C   0  0  0  0  0  0  0  0  0  0  0  0
   -2.6145   -5.3243    2.3370 O   0  0  0  0  0  0  0  0  0  0  0  0
   -4.8521   -5.2702    1.5337 C   0  0  0  0  0  0  0  0  0  0  0  0
   -5.1381   -5.7217    0.5806 H   0  0  0  0  0  0  0  0  0  0  0  0
   -5.0326   -5.9929    2.3345 H   0  0  0  0  0  0  0  0  0  0  0  0
   -5.4704   -4.3869    1.7105 H   0  0  0  0  0  0  0  0  0  0  0  0
   -2.9284   -4.0128    0.5337 N   0  0  0  0  0  0  0  0  0  0  0  0
   -1.5644   -3.4727    0.4806 C   0  0  2  0  0  0  0  0  0  0  0  0
   -1.5390   -2.0543   -0.1237 C   0  0  0  0  0  0  0  0  0  0  0  0
   -2.5147   -1.6100   -0.7183 O   0  0  0  0  0  0  0  0  0  0  0  0
   -0.7032   -4.4257   -0.3544 C   0  0  0  0  0  0  0  0  0  0  0  0
   -3.6194   -3.5828   -0.0808 H   0  0  0  0  0  0  0  0  0  0  0  0
   -1.1539   -3.4035    1.4940 H   0  0  0  0  0  0  0  0  0  0  0  0
   -1.0905   -4.4947   -1.3764 H   0  0  0  0  0  0  0  0  0  0  0  0
    0.3321   -4.0746   -0.3973 H   0  0  0  0  0  0  0  0  0  0  0  0
   -0.7083   -5.4265    0.0890 H   0  0  0  0  0  0  0  0  0  0  0  0
   -0.3955   -1.2807   -0.0757 N   0  0  0  0  0  0  0  0  0  0  0  0
   -0.4050    0.1628   -0.3791 C   0  0  2  0  0  0  0  0  0  0  0  0
   -0.1580    0.4369   -1.8813 C   0  0  0  0  0  0  0  0  0  0  0  0
    0.4385    1.4397   -2.2563 O   0  0  0  0  0  0  0  0  0  0  0  0
    0.6752    0.8199    0.4938 C   0  0  0  0  0  0  0  0  0  0  0  0
    0.2313    0.6672    2.2733 S   0  0  0  0  0  0  0  0  0  0  0  0
    0.3407   -1.6201    0.5375 H   0  0  0  0  0  0  0  0  0  0  0  0
   -1.3748    0.6032   -0.1211 H   0  0  0  0  0  0  0  0  0  0  0  0
    1.6497    0.3589    0.3022 H   0  0  0  0  0  0  0  0  0  0  0  0
    0.7557    1.8836    0.2444 H   0  0  0  0  0  0  0  0  0  0  0  0
    1.2111    1.3996    2.8482 H   0  0  0  0  0  0  0  0  0  0  0  0
   -0.5657   -0.4876   -2.8234 N   0  0  0  0  0  0  0  0  0  0  0  0
   -0.4148   -0.3467   -4.2761 C   0  0  2  0  0  0  0  0  0  0  0  0
   -1.3860   -1.2717   -5.0399 C   0  0  0  0  0  0  0  0  0  0  0  0
   -1.8806   -2.2471   -4.4858 O   0  0  0  0  0  0  0  0  0  0  0  0
    1.0304   -0.6814   -4.6637 C   0  0  0  0  0  0  0  0  0  0  0  0
   -1.1992   -1.2194   -2.4880 H   0  0  0  0  0  0  0  0  0  0  0  0
   -0.6398    0.6857   -4.5635 H   0  0  0  0  0  0  0  0  0  0  0  0
    1.2722   -1.7105   -4.3794 H   0  0  0  0  0  0  0  0  0  0  0  0
    1.1721   -0.5753   -5.7434 H   0  0  0  0  0  0  0  0  0  0  0  0
    1.7295   -0.0079   -4.1589 H   0  0  0  0  0  0  0  0  0  0  0  0
   -1.6948   -1.0195   -6.3641 N   0  0  0  0  0  0  0  0  0  0  0  0
   -2.6165   -1.8402   -7.1400 C   0  0  0  0  0  0  0  0  0  0  0  0
   -1.2887   -0.1935   -6.7934 H   0  0  0  0  0  0  0  0  0  0  0  0
   -2.2814   -2.8827   -7.1569 H   0  0  0  0  0  0  0  0  0  0  0  0
   -3.6212   -1.7998   -6.7065 H   0  0  0  0  0  0  0  0  0  0  0  0
   -2.6689   -1.4787   -8.1714 H   0  0  0  0  0  0  0  0  0  0  0  0
  1  2  2  0  0  0  0
  1  3  1  0  0  0  0
  1  7  1  0  0  0  0
  3  4  1  0  0  0  0
  3  5  1  0  0  0  0
  3  6  1  0  0  0  0
  7  8  1  0  0  0  0
  7 12  1  0  0  0  0
  8  9  1  0  0  0  0
  8 11  1  0  0  0  0
  8 13  1  0  0  0  0
  9 10  2  0  0  0  0
  9 17  1  0  0  0  0
 11 14  1  0  0  0  0
 11 15  1  0  0  0  0
 11 16  1  0  0  0  0
 17 18  1  0  0  0  0
 17 23  1  0  0  0  0
 18 19  1  0  0  0  0
 18 21  1  0  0  0  0
 18 24  1  0  0  0  0
 19 20  2  0  0  0  0
 19 28  1  0  0  0  0
 21 22  1  0  0  0  0
 21 25  1  0  0  0  0
 21 26  1  0  0  0  0
 22 27  1  0  0  0  0
 28 29  1  0  0  0  0
 28 33  1  0  0  0  0
 29 30  1  0  0  0  0
 29 32  1  0  0  0  0
 29 34  1  0  0  0  0
 30 31  2  0  0  0  0
 30 38  1  0  0  0  0
 32 35  1  0  0  0  0
 32 36  1  0  0  0  0
 32 37  1  0  0  0  0
 38 39  1  0  0  0  0
 38 40  1  0  0  0  0
 39 41  1  0  0  0  0
 39 42  1  0  0  0  0
 39 43  1  0  0  0  0
M  END
$$$$

  -OEChem-05262216003D

 43 42  0     1  0  0  0  0  0999 V2000
   -3.3499   -4.9227    1.4251 C   0  0  0  0  0  0  0  0  0  0  0  0
   -2.5644   -5.4105    2.2227 O   0  0  0  0  0  0  0  0  0  0  0  0
   -4.8124   -5.3244    1.4517 C   0  0  0  0  0  0  0  0  0  0  0  0
   -5.0975   -5.7565    0.4894 H   0  0  0  0  0  0  0  0  0  0  0  0
   -4.9859   -6.0659    2.2366 H   0  0  0  0  0  0  0  0  0  0  0  0
   -5.4362   -4.4493    1.6495 H   0  0  0  0  0  0  0  0  0  0  0  0
   -2.9084   -4.0010    0.5002 N   0  0  0  0  0  0  0  0  0  0  0  0
   -1.5463   -3.4551    0.4560 C   0  0  2  0  0  0  0  0  0  0  0  0
   -1.5292   -2.0236   -0.1193 C   0  0  0  0  0  0  0  0  0  0  0  0
   -2.5202   -1.5643   -0.6770 O   0  0  0  0  0  0  0  0  0  0  0  0
   -0.6821   -4.3896   -0.3974 C   0  0  0  0  0  0  0  0  0  0  0  0
   -3.6097   -3.5414   -0.0808 H   0  0  0  0  0  0  0  0  0  0  0  0
   -1.1362   -3.4064    1.4706 H   0  0  0  0  0  0  0  0  0  0  0  0
   -1.0695   -4.4415   -1.4203 H   0  0  0  0  0  0  0  0  0  0  0  0
    0.3517   -4.0338   -0.4331 H   0  0  0  0  0  0  0  0  0  0  0  0
   -0.6827   -5.3994    0.0257 H   0  0  0  0  0  0  0  0  0  0  0  0
   -0.3840   -1.2507   -0.0851 N   0  0  0  0  0  0  0  0  0  0  0  0
   -0.4001    0.1960   -0.3694 C   0  0  2  0  0  0  0  0  0  0  0  0
   -0.1842    0.4773   -1.8752 C   0  0  0  0  0  0  0  0  0  0  0  0
    0.6047    1.3327   -2.2618 O   0  0  0  0  0  0  0  0  0  0  0  0
    0.6956    0.8489    0.4883 C   0  0  0  0  0  0  0  0  0  0  0  0
    0.2943    0.6804    2.2763 S   0  0  0  0  0  0  0  0  0  0  0  0
    0.3709   -1.6014    0.4980 H   0  0  0  0  0  0  0  0  0  0  0  0
   -1.3637    0.6339   -0.0873 H   0  0  0  0  0  0  0  0  0  0  0  0
    1.6678    0.3942    0.2712 H   0  0  0  0  0  0  0  0  0  0  0  0
    0.7657    1.9149    0.2446 H   0  0  0  0  0  0  0  0  0  0  0  0
    1.2969    1.3959    2.8341 H   0  0  0  0  0  0  0  0  0  0  0  0
   -0.8719   -0.2674   -2.8142 N   0  0  0  0  0  0  0  0  0  0  0  0
   -0.7539   -0.1169   -4.2696 C   0  0  2  0  0  0  0  0  0  0  0  0
   -1.9635   -0.7140   -5.0180 C   0  0  0  0  0  0  0  0  0  0  0  0
   -2.6504   -1.5867   -4.5008 O   0  0  0  0  0  0  0  0  0  0  0  0
    0.5325   -0.8080   -4.7364 C   0  0  0  0  0  0  0  0  0  0  0  0
   -1.5935   -0.9029   -2.4558 H   0  0  0  0  0  0  0  0  0  0  0  0
   -0.7061    0.9484   -4.5174 H   0  0  0  0  0  0  0  0  0  0  0  0
    0.5118   -1.8698   -4.4708 H   0  0  0  0  0  0  0  0  0  0  0  0
    0.6425   -0.7224   -5.8215 H   0  0  0  0  0  0  0  0  0  0  0  0
    1.4071   -0.3484   -4.2662 H   0  0  0  0  0  0  0  0  0  0  0  0
   -2.2657   -0.2868   -6.2981 N   0  0  0  0  0  0  0  0  0  0  0  0
   -3.3840   -0.8095   -7.0731 C   0  0  0  0  0  0  0  0  0  0  0  0
   -1.6910    0.4496   -6.6970 H   0  0  0  0  0  0  0  0  0  0  0  0
   -3.2833   -1.8915   -7.2101 H   0  0  0  0  0  0  0  0  0  0  0  0
   -4.3315   -0.6052   -6.5633 H   0  0  0  0  0  0  0  0  0  0  0  0
   -3.4128   -0.3383   -8.0603 H   0  0  0  0  0  0  0  0  0  0  0  0
  1  2  2  0  0  0  0
  1  3  1  0  0  0  0
  1  7  1  0  0  0  0
  3  4  1  0  0  0  0
  3  5  1  0  0  0  0
  3  6  1  0  0  0  0
  7  8  1  0  0  0  0
  7 12  1  0  0  0  0
  8  9  1  0  0  0  0
  8 11  1  0  0  0  0
  8 13  1  0  0  0  0
  9 10  2  0  0  0  0
  9 17  1  0  0  0  0
 11 14  1  0  0  0  0
 11 15  1  0  0  0  0
 11 16  1  0  0  0  0
 17 18  1  0  0  0  0
 17 23  1  0  0  0  0
 18 19  1  0  0  0  0
 18 21  1  0  0  0  0
 18 24  1  0  0  0  0
 19 20  2  0  0  0  0
 19 28  1  0  0  0  0
 21 22  1  0  0  0  0
 21 25  1  0  0  0  0
 21 26  1  0  0  0  0
 22 27  1  0  0  0  0
 28 29  1  0  0  0  0
 28 33  1  0  0  0  0
 29 30  1  0  0  0  0
 29 32  1  0  0  0  0
 29 34  1  0  0  0  0
 30 31  2  0  0  0  0
 30 38  1  0  0  0  0
 32 35  1  0  0  0  0
 32 36  1  0  0  0  0
 32 37  1  0  0  0  0
 38 39  1  0  0  0  0
 38 40  1  0  0  0  0
 39 41  1  0  0  0  0
 39 42  1  0  0  0  0
 39 43  1  0  0  0  0
M  END
$$$$

  -OEChem-05262216003D

 43 42  0     1  0  0  0  0  0999 V2000
   -3.3056   -4.9516    1.3816 C   0  0  0  0  0  0  0  0  0  0  0  0
   -2.5063   -5.4573    2.1540 O   0  0  0  0  0  0  0  0  0  0  0  0
   -4.7691   -5.3476    1.4284 C   0  0  0  0  0  0  0  0  0  0  0  0
   -5.0763   -5.7544    0.4619 H   0  0  0  0  0  0  0  0  0  0  0  0
   -4.9295   -6.1075    2.1981 H   0  0  0  0  0  0  0  0  0  0  0  0
   -5.3845   -4.4752    1.6610 H   0  0  0  0  0  0  0  0  0  0  0  0
   -2.8790   -4.0148    0.4650 N   0  0  0  0  0  0  0  0  0  0  0  0
   -1.5204   -3.4605    0.4142 C   0  0  2  0  0  0  0  0  0  0  0  0
   -1.5178   -2.0226   -0.1454 C   0  0  0  0  0  0  0  0  0  0  0  0
   -2.5192   -1.5629   -0.6849 O   0  0  0  0  0  0  0  0  0  0  0  0
   -0.6568   -4.3785   -0.4573 C   0  0  0  0  0  0  0  0  0  0  0  0
   -3.5920   -3.5379   -0.0869 H   0  0  0  0  0  0  0  0  0  0  0  0
   -1.1018   -3.4200    1.4258 H   0  0  0  0  0  0  0  0  0  0  0  0
   -1.0551   -4.4236   -1.4762 H   0  0  0  0  0  0  0  0  0  0  0  0
    0.3735   -4.0129   -0.5005 H   0  0  0  0  0  0  0  0  0  0  0  0
   -0.6440   -5.3921   -0.0438 H   0  0  0  0  0  0  0  0  0  0  0  0
   -0.3791   -1.2408   -0.1014 N   0  0  0  0  0  0  0  0  0  0  0  0
   -0.4098    0.2082   -0.3656 C   0  0  2  0  0  0  0  0  0  0  0  0
   -0.1980    0.5037   -1.8672 C   0  0  0  0  0  0  0  0  0  0  0  0
    0.7460    1.1786   -2.2641 O   0  0  0  0  0  0  0  0  0  0  0  0
    0.6761    0.8659    0.5002 C   0  0  0  0  0  0  0  0  0  0  0  0
    0.2730    0.6715    2.2851 S   0  0  0  0  0  0  0  0  0  0  0  0
    0.3834   -1.5947    0.4699 H   0  0  0  0  0  0  0  0  0  0  0  0
   -1.3779    0.6331   -0.0777 H   0  0  0  0  0  0  0  0  0  0  0  0
    1.6545    0.4248    0.2821 H   0  0  0  0  0  0  0  0  0  0  0  0
    0.7341    1.9343    0.2647 H   0  0  0  0  0  0  0  0  0  0  0  0
    1.2737    1.3815    2.8519 H   0  0  0  0  0  0  0  0  0  0  0  0
   -1.0896   -0.0073   -2.7902 N   0  0  0  0  0  0  0  0  0  0  0  0
   -1.0082    0.1912   -4.2428 C   0  0  2  0  0  0  0  0  0  0  0  0
   -2.3736    0.0255   -4.9435 C   0  0  0  0  0  0  0  0  0  0  0  0
   -3.2953   -0.5610   -4.3897 O   0  0  0  0  0  0  0  0  0  0  0  0
   -0.0016   -0.8134   -4.8139 C   0  0  0  0  0  0  0  0  0  0  0  0
   -1.8837   -0.5428   -2.4201 H   0  0  0  0  0  0  0  0  0  0  0  0
   -0.6594    1.2090   -4.4467 H   0  0  0  0  0  0  0  0  0  0  0  0
   -0.3271   -1.8380   -4.6075 H   0  0  0  0  0  0  0  0  0  0  0  0
    0.0936   -0.6888   -5.8967 H   0  0  0  0  0  0  0  0  0  0  0  0
    0.9843   -0.6634   -4.3632 H   0  0  0  0  0  0  0  0  0  0  0  0
   -2.5648    0.5257   -6.2190 N   0  0  0  0  0  0  0  0  0  0  0  0
   -3.8242    0.4088   -6.9439 C   0  0  0  0  0  0  0  0  0  0  0  0
   -1.7915    1.0223   -6.6512 H   0  0  0  0  0  0  0  0  0  0  0  0
   -4.1093   -0.6432   -7.0503 H   0  0  0  0  0  0  0  0  0  0  0  0
   -4.6219    0.9384   -6.4124 H   0  0  0  0  0  0  0  0  0  0  0  0
   -3.7273    0.8420   -7.9441 H   0  0  0  0  0  0  0  0  0  0  0  0
  1  2  2  0  0  0  0
  1  3  1  0  0  0  0
  1  7  1  0  0  0  0
  3  4  1  0  0  0  0
  3  5  1  0  0  0  0
  3  6  1  0  0  0  0
  7  8  1  0  0  0  0
  7 12  1  0  0  0  0
  8  9  1  0  0  0  0
  8 11  1  0  0  0  0
  8 13  1  0  0  0  0
  9 10  2  0  0  0  0
  9 17  1  0  0  0  0
 11 14  1  0  0  0  0
 11 15  1  0  0  0  0
 11 16  1  0  0  0  0
 17 18  1  0  0  0  0
 17 23  1  0  0  0  0
 18 19  1  0  0  0  0
 18 21  1  0  0  0  0
 18 24  1  0  0  0  0
 19 20  2  0  0  0  0
 19 28  1  0  0  0  0
 21 22  1  0  0  0  0
 21 25  1  0  0  0  0
 21 26  1  0  0  0  0
 22 27  1  0  0  0  0
 28 29  1  0  0  0  0
 28 33  1  0  0  0  0
 29 30  1  0  0  0  0
 29 32  1  0  0  0  0
 29 34  1  0  0  0  0
 30 31  2  0  0  0  0
 30 38  1  0  0  0  0
 32 35  1  0  0  0  0
 32 36  1  0  0  0  0
 32 37  1  0  0  0  0
 38 39  1  0  0  0  0
 38 40  1  0  0  0  0
 39 41  1  0  0  0  0
 39 42  1  0  0  0  0
 39 43  1  0  0  0  0
M  END
$$$$

  -OEChem-05262216003D

 43 42  0     1  0  0  0  0  0999 V2000
   -3.2863   -4.9595    1.3230 C   0  0  0  0  0  0  0  0  0  0  0  0
   -2.4650   -5.5016    2.0457 O   0  0  0  0  0  0  0  0  0  0  0  0
   -4.7519   -5.3409    1.4127 C   0  0  0  0  0  0  0  0  0  0  0  0
   -5.0910   -5.7475    0.4567 H   0  0  0  0  0  0  0  0  0  0  0  0
   -4.8988   -6.0967    2.1895 H   0  0  0  0  0  0  0  0  0  0  0  0
   -5.3514   -4.4613    1.6598 H   0  0  0  0  0  0  0  0  0  0  0  0
   -2.8835   -3.9930    0.4264 N   0  0  0  0  0  0  0  0  0  0  0  0
   -1.5198   -3.4555    0.3405 C   0  0  2  0  0  0  0  0  0  0  0  0
   -1.5151   -2.0047   -0.1842 C   0  0  0  0  0  0  0  0  0  0  0  0
   -2.5156   -1.5320   -0.7155 O   0  0  0  0  0  0  0  0  0  0  0  0
   -0.6984   -4.3603   -0.5838 C   0  0  0  0  0  0  0  0  0  0  0  0
   -3.6104   -3.4907   -0.0829 H   0  0  0  0  0  0  0  0  0  0  0  0
   -1.0655   -3.4455    1.3372 H   0  0  0  0  0  0  0  0  0  0  0  0
   -1.1345   -4.3779   -1.5878 H   0  0  0  0  0  0  0  0  0  0  0  0
    0.3328   -4.0020   -0.6576 H   0  0  0  0  0  0  0  0  0  0  0  0
   -0.6792   -5.3833   -0.1946 H   0  0  0  0  0  0  0  0  0  0  0  0
   -0.3765   -1.2249   -0.1128 N   0  0  0  0  0  0  0  0  0  0  0  0
   -0.4099    0.2264   -0.3526 C   0  0  2  0  0  0  0  0  0  0  0  0
   -0.1824    0.5377   -1.8465 C   0  0  0  0  0  0  0  0  0  0  0  0
    0.8727    1.0116   -2.2546 O   0  0  0  0  0  0  0  0  0  0  0  0
    0.6684    0.8747    0.5280 C   0  0  0  0  0  0  0  0  0  0  0  0
    0.2559    0.6508    2.3075 S   0  0  0  0  0  0  0  0  0  0  0  0
    0.3846   -1.5890    0.4539 H   0  0  0  0  0  0  0  0  0  0  0  0
   -1.3797    0.6471   -0.0649 H   0  0  0  0  0  0  0  0  0  0  0  0
    1.6489    0.4377    0.3101 H   0  0  0  0  0  0  0  0  0  0  0  0
    0.7255    1.9458    0.3054 H   0  0  0  0  0  0  0  0  0  0  0  0
    1.2543    1.3477    2.8947 H   0  0  0  0  0  0  0  0  0  0  0  0
   -1.2097    0.3071   -2.7393 N   0  0  0  0  0  0  0  0  0  0  0  0
   -1.1479    0.5582   -4.1844 C   0  0  2  0  0  0  0  0  0  0  0  0
   -2.5427    0.7879   -4.8054 C   0  0  0  0  0  0  0  0  0  0  0  0
   -3.5602    0.4918   -4.1908 O   0  0  0  0  0  0  0  0  0  0  0  0
   -0.4609   -0.6367   -4.8541 C   0  0  0  0  0  0  0  0  0  0  0  0
   -2.0613   -0.1233   -2.3629 H   0  0  0  0  0  0  0  0  0  0  0  0
   -0.5592    1.4631   -4.3678 H   0  0  0  0  0  0  0  0  0  0  0  0
   -1.0355   -1.5525   -4.6810 H   0  0  0  0  0  0  0  0  0  0  0  0
   -0.3757   -0.4767   -5.9330 H   0  0  0  0  0  0  0  0  0  0  0  0
    0.5458   -0.7744   -4.4475 H   0  0  0  0  0  0  0  0  0  0  0  0
   -2.6584    1.3338   -6.0712 N   0  0  0  0  0  0  0  0  0  0  0  0
   -3.9403    1.6008   -6.7127 C   0  0  0  0  0  0  0  0  0  0  0  0
   -1.8024    1.5904   -6.5538 H   0  0  0  0  0  0  0  0  0  0  0  0
   -4.5220    0.6777   -6.8076 H   0  0  0  0  0  0  0  0  0  0  0  0
   -4.5180    2.3225   -6.1256 H   0  0  0  0  0  0  0  0  0  0  0  0
   -3.7841    2.0143   -7.7138 H   0  0  0  0  0  0  0  0  0  0  0  0
  1  2  2  0  0  0  0
  1  3  1  0  0  0  0
  1  7  1  0  0  0  0
  3  4  1  0  0  0  0
  3  5  1  0  0  0  0
  3  6  1  0  0  0  0
  7  8  1  0  0  0  0
  7 12  1  0  0  0  0
  8  9  1  0  0  0  0
  8 11  1  0  0  0  0
  8 13  1  0  0  0  0
  9 10  2  0  0  0  0
  9 17  1  0  0  0  0
 11 14  1  0  0  0  0
 11 15  1  0  0  0  0
 11 16  1  0  0  0  0
 17 18  1  0  0  0  0
 17 23  1  0  0  0  0
 18 19  1  0  0  0  0
 18 21  1  0  0  0  0
 18 24  1  0  0  0  0
 19 20  2  0  0  0  0
 19 28  1  0  0  0  0
 21 22  1  0  0  0  0
 21 25  1  0  0  0  0
 21 26  1  0  0  0  0
 22 27  1  0  0  0  0
 28 29  1  0  0  0  0
 28 33  1  0  0  0  0
 29 30  1  0  0  0  0
 29 32  1  0  0  0  0
 29 34  1  0  0  0  0
 30 31  2  0  0  0  0
 30 38  1  0  0  0  0
 32 35  1  0  0  0  0
 32 36  1  0  0  0  0
 32 37  1  0  0  0  0
 38 39  1  0  0  0  0
 38 40  1  0  0  0  0
 39 41  1  0  0  0  0
 39 42  1  0  0  0  0
 39 43  1  0  0  0  0
M  END
$$$$

  -OEChem-05262216003D

 43 42  0     1  0  0  0  0  0999 V2000
   -3.2898   -4.9597    1.2913 C   0  0  0  0  0  0  0  0  0  0  0  0
   -2.4665   -5.5061    2.0084 O   0  0  0  0  0  0  0  0  0  0  0  0
   -4.7572   -5.3317    1.3920 C   0  0  0  0  0  0  0  0  0  0  0  0
   -5.1089   -5.7200    0.4331 H   0  0  0  0  0  0  0  0  0  0  0  0
   -4.9000   -6.0997    2.1574 H   0  0  0  0  0  0  0  0  0  0  0  0
   -5.3487   -4.4528    1.6605 H   0  0  0  0  0  0  0  0  0  0  0  0
   -2.8872   -3.9994    0.3882 N   0  0  0  0  0  0  0  0  0  0  0  0
   -1.5239   -3.4612    0.3023 C   0  0  2  0  0  0  0  0  0  0  0  0
   -1.5242   -2.0022   -0.1979 C   0  0  0  0  0  0  0  0  0  0  0  0
   -2.5311   -1.5186   -0.7077 O   0  0  0  0  0  0  0  0  0  0  0  0
   -0.7079   -4.3509   -0.6414 C   0  0  0  0  0  0  0  0  0  0  0  0
   -3.6158   -3.4876   -0.1090 H   0  0  0  0  0  0  0  0  0  0  0  0
   -1.0630   -3.4664    1.2962 H   0  0  0  0  0  0  0  0  0  0  0  0
   -1.1528   -4.3565   -1.6417 H   0  0  0  0  0  0  0  0  0  0  0  0
    0.3216   -3.9886   -0.7198 H   0  0  0  0  0  0  0  0  0  0  0  0
   -0.6823   -5.3789   -0.2660 H   0  0  0  0  0  0  0  0  0  0  0  0
   -0.3862   -1.2237   -0.1137 N   0  0  0  0  0  0  0  0  0  0  0  0
   -0.4163    0.2271   -0.3469 C   0  0  2  0  0  0  0  0  0  0  0  0
   -0.1758    0.5453   -1.8363 C   0  0  0  0  0  0  0  0  0  0  0  0
    0.9477    0.7844   -2.2663 O   0  0  0  0  0  0  0  0  0  0  0  0
    0.6599    0.8743    0.5362 C   0  0  0  0  0  0  0  0  0  0  0  0
    0.2451    0.6471    2.3148 S   0  0  0  0  0  0  0  0  0  0  0  0
    0.3892   -1.6027    0.4229 H   0  0  0  0  0  0  0  0  0  0  0  0
   -1.3856    0.6485   -0.0589 H   0  0  0  0  0  0  0  0  0  0  0  0
    1.6405    0.4366    0.3208 H   0  0  0  0  0  0  0  0  0  0  0  0
    0.7185    1.9454    0.3136 H   0  0  0  0  0  0  0  0  0  0  0  0
    1.2482    1.3346    2.9044 H   0  0  0  0  0  0  0  0  0  0  0  0
   -1.2581    0.6244   -2.6893 N   0  0  0  0  0  0  0  0  0  0  0  0
   -1.1867    0.9431   -4.1207 C   0  0  2  0  0  0  0  0  0  0  0  0
   -2.5004    1.5583   -4.6509 C   0  0  0  0  0  0  0  0  0  0  0  0
   -3.5260    1.5140   -3.9818 O   0  0  0  0  0  0  0  0  0  0  0  0
   -0.8530   -0.3428   -4.8843 C   0  0  0  0  0  0  0  0  0  0  0  0
   -2.1702    0.3620   -2.3068 H   0  0  0  0  0  0  0  0  0  0  0  0
   -0.3935    1.6789   -4.2888 H   0  0  0  0  0  0  0  0  0  0  0  0
   -1.6353   -1.0927   -4.7282 H   0  0  0  0  0  0  0  0  0  0  0  0
   -0.7691   -0.1442   -5.9569 H   0  0  0  0  0  0  0  0  0  0  0  0
    0.0993   -0.7549   -4.5362 H   0  0  0  0  0  0  0  0  0  0  0  0
   -2.5326    2.1756   -5.8888 N   0  0  0  0  0  0  0  0  0  0  0  0
   -3.7274    2.8067   -6.4375 C   0  0  0  0  0  0  0  0  0  0  0  0
   -1.6648    2.2234   -6.4142 H   0  0  0  0  0  0  0  0  0  0  0  0
   -4.5556    2.0913   -6.4790 H   0  0  0  0  0  0  0  0  0  0  0  0
   -4.0283    3.6583   -5.8183 H   0  0  0  0  0  0  0  0  0  0  0  0
   -3.5337    3.1669   -7.4525 H   0  0  0  0  0  0  0  0  0  0  0  0
  1  2  2  0  0  0  0
  1  3  1  0  0  0  0
  1  7  1  0  0  0  0
  3  4  1  0  0  0  0
  3  5  1  0  0  0  0
  3  6  1  0  0  0  0
  7  8  1  0  0  0  0
  7 12  1  0  0  0  0
  8  9  1  0  0  0  0
  8 11  1  0  0  0  0
  8 13  1  0  0  0  0
  9 10  2  0  0  0  0
  9 17  1  0  0  0  0
 11 14  1  0  0  0  0
 11 15  1  0  0  0  0
 11 16  1  0  0  0  0
 17 18  1  0  0  0  0
 17 23  1  0  0  0  0
 18 19  1  0  0  0  0
 18 21  1  0  0  0  0
 18 24  1  0  0  0  0
 19 20  2  0  0  0  0
 19 28  1  0  0  0  0
 21 22  1  0  0  0  0
 21 25  1  0  0  0  0
 21 26  1  0  0  0  0
 22 27  1  0  0  0  0
 28 29  1  0  0  0  0
 28 33  1  0  0  0  0
 29 30  1  0  0  0  0
 29 32  1  0  0  0  0
 29 34  1  0  0  0  0
 30 31  2  0  0  0  0
 30 38  1  0  0  0  0
 32 35  1  0  0  0  0
 32 36  1  0  0  0  0
 32 37  1  0  0  0  0
 38 39  1  0  0  0  0
 38 40  1  0  0  0  0
 39 41  1  0  0  0  0
 39 42  1  0  0  0  0
 39 43  1  0  0  0  0
M  END
$$$$

  -OEChem-05262216003D

 43 42  0     1  0  0  0  0  0999 V2000
   -3.2831   -4.9985    1.2429 C   0  0  0  0  0  0  0  0  0  0  0  0
   -2.4316   -5.5847    1.8925 O   0  0  0  0  0  0  0  0  0  0  0  0
   -4.7470   -5.3660    1.3951 C   0  0  0  0  0  0  0  0  0  0  0  0
   -5.1502   -5.6982    0.4354 H   0  0  0  0  0  0  0  0  0  0  0  0
   -4.8592   -6.1739    2.1235 H   0  0  0  0  0  0  0  0  0  0  0  0
   -5.3153   -4.4991    1.7407 H   0  0  0  0  0  0  0  0  0  0  0  0
   -2.9161   -3.9946    0.3725 N   0  0  0  0  0  0  0  0  0  0  0  0
   -1.5561   -3.4522    0.2592 C   0  0  2  0  0  0  0  0  0  0  0  0
   -1.5745   -1.9640   -0.1458 C   0  0  0  0  0  0  0  0  0  0  0  0
   -2.6040   -1.4488   -0.5723 O   0  0  0  0  0  0  0  0  0  0  0  0
   -0.7869   -4.2775   -0.7772 C   0  0  0  0  0  0  0  0  0  0  0  0
   -3.6636   -3.4498   -0.0570 H   0  0  0  0  0  0  0  0  0  0  0  0
   -1.0485   -3.5217    1.2277 H   0  0  0  0  0  0  0  0  0  0  0  0
   -1.2761   -4.2156   -1.7546 H   0  0  0  0  0  0  0  0  0  0  0  0
    0.2392   -3.9108   -0.8775 H   0  0  0  0  0  0  0  0  0  0  0  0
   -0.7480   -5.3281   -0.4724 H   0  0  0  0  0  0  0  0  0  0  0  0
   -0.4290   -1.1963   -0.0699 N   0  0  0  0  0  0  0  0  0  0  0  0
   -0.4257    0.2529   -0.3120 C   0  0  2  0  0  0  0  0  0  0  0  0
   -0.1768    0.5597   -1.8014 C   0  0  0  0  0  0  0  0  0  0  0  0
    0.9533    0.5016   -2.2740 O   0  0  0  0  0  0  0  0  0  0  0  0
    0.6701    0.8869    0.5555 C   0  0  0  0  0  0  0  0  0  0  0  0
    0.2701    0.6890    2.3404 S   0  0  0  0  0  0  0  0  0  0  0  0
    0.3919   -1.6176    0.3553 H   0  0  0  0  0  0  0  0  0  0  0  0
   -1.3848    0.6959   -0.0224 H   0  0  0  0  0  0  0  0  0  0  0  0
    1.6390    0.4250    0.3367 H   0  0  0  0  0  0  0  0  0  0  0  0
    0.7498    1.9536    0.3204 H   0  0  0  0  0  0  0  0  0  0  0  0
    1.2956    1.3587    2.9115 H   0  0  0  0  0  0  0  0  0  0  0  0
   -1.2231    0.9685   -2.6036 N   0  0  0  0  0  0  0  0  0  0  0  0
   -1.1108    1.3217   -4.0238 C   0  0  2  0  0  0  0  0  0  0  0  0
   -2.2404    2.2743   -4.4717 C   0  0  0  0  0  0  0  0  0  0  0  0
   -3.2121    2.4687   -3.7503 O   0  0  0  0  0  0  0  0  0  0  0  0
   -1.1393    0.0296   -4.8480 C   0  0  0  0  0  0  0  0  0  0  0  0
   -2.1570    0.9807   -2.1901 H   0  0  0  0  0  0  0  0  0  0  0  0
   -0.1611    1.8389   -4.1955 H   0  0  0  0  0  0  0  0  0  0  0  0
   -2.0828   -0.5031   -4.6901 H   0  0  0  0  0  0  0  0  0  0  0  0
   -1.0364    0.2501   -5.9146 H   0  0  0  0  0  0  0  0  0  0  0  0
   -0.3153   -0.6282   -4.5536 H   0  0  0  0  0  0  0  0  0  0  0  0
   -2.1643    2.9292   -5.6875 N   0  0  0  0  0  0  0  0  0  0  0  0
   -3.1893    3.8500   -6.1650 C   0  0  0  0  0  0  0  0  0  0  0  0
   -1.3415    2.7669   -6.2605 H   0  0  0  0  0  0  0  0  0  0  0  0
   -4.1632    3.3508   -6.2105 H   0  0  0  0  0  0  0  0  0  0  0  0
   -3.2677    4.7144   -5.4971 H   0  0  0  0  0  0  0  0  0  0  0  0
   -2.9396    4.2081   -7.1684 H   0  0  0  0  0  0  0  0  0  0  0  0
  1  2  2  0  0  0  0
  1  3  1  0  0  0  0
  1  7  1  0  0  0  0
  3  4  1  0  0  0  0
  3  5  1  0  0  0  0
  3  6  1  0  0  0  0
  7  8  1  0  0  0  0
  7 12  1  0  0  0  0
  8  9  1  0  0  0  0
  8 11  1  0  0  0  0
  8 13  1  0  0  0  0
  9 10  2  0  0  0  0
  9 17  1  0  0  0  0
 11 14  1  0  0  0  0
 11 15  1  0  0  0  0
 11 16  1  0  0  0  0
 17 18  1  0  0  0  0
 17 23  1  0  0  0  0
 18 19  1  0  0  0  0
 18 21  1  0  0  0  0
 18 24  1  0  0  0  0
 19 20  2  0  0  0  0
 19 28  1  0  0  0  0
 21 22  1  0  0  0  0
 21 25  1  0  0  0  0
 21 26  1  0  0  0  0
 22 27  1  0  0  0  0
 28 29  1  0  0  0  0
 28 33  1  0  0  0  0
 29 30  1  0  0  0  0
 29 32  1  0  0  0  0
 29 34  1  0  0  0  0
 30 31  2  0  0  0  0
 30 38  1  0  0  0  0
 32 35  1  0  0  0  0
 32 36  1  0  0  0  0
 32 37  1  0  0  0  0
 38 39  1  0  0  0  0
 38 40  1  0  0  0  0
 39 41  1  0  0  0  0
 39 42  1  0  0  0  0
 39 43  1  0  0  0  0
M  END
$$$$

  -OEChem-05262216003D

 43 42  0     1  0  0  0  0  0999 V2000
   -3.2714   -5.0195    1.1822 C   0  0  0  0  0  0  0  0  0  0  0  0
   -2.3883   -5.6582    1.7325 O   0  0  0  0  0  0  0  0  0  0  0  0
   -4.7282   -5.3678    1.4238 C   0  0  0  0  0  0  0  0  0  0  0  0
   -5.2203   -5.5943    0.4748 H   0  0  0  0  0  0  0  0  0  0  0  0
   -4.8035   -6.2415    2.0773 H   0  0  0  0  0  0  0  0  0  0  0  0
   -5.2383   -4.5268    1.8997 H   0  0  0  0  0  0  0  0  0  0  0  0
   -2.9465   -3.9709    0.3482 N   0  0  0  0  0  0  0  0  0  0  0  0
   -1.5880   -3.4407    0.1734 C   0  0  2  0  0  0  0  0  0  0  0  0
   -1.6092   -1.9272   -0.1234 C   0  0  0  0  0  0  0  0  0  0  0  0
   -2.6485   -1.3817   -0.4820 O   0  0  0  0  0  0  0  0  0  0  0  0
   -0.9126   -4.2011   -0.9722 C   0  0  0  0  0  0  0  0  0  0  0  0
   -3.7114   -3.3918    0.0026 H   0  0  0  0  0  0  0  0  0  0  0  0
   -1.0131   -3.5860    1.0945 H   0  0  0  0  0  0  0  0  0  0  0  0
   -1.4697   -4.0618   -1.9043 H   0  0  0  0  0  0  0  0  0  0  0  0
    0.1106   -3.8432   -1.1213 H   0  0  0  0  0  0  0  0  0  0  0  0
   -0.8734   -5.2715   -0.7460 H   0  0  0  0  0  0  0  0  0  0  0  0
   -0.4583   -1.1707   -0.0228 N   0  0  0  0  0  0  0  0  0  0  0  0
   -0.4246    0.2809   -0.2513 C   0  0  2  0  0  0  0  0  0  0  0  0
   -0.1435    0.6051   -1.7305 C   0  0  0  0  0  0  0  0  0  0  0  0
    0.9192    0.2742   -2.2454 O   0  0  0  0  0  0  0  0  0  0  0  0
    0.6709    0.8933    0.6303 C   0  0  0  0  0  0  0  0  0  0  0  0
    0.2517    0.6930    2.4108 S   0  0  0  0  0  0  0  0  0  0  0  0
    0.3928   -1.6377    0.2760 H   0  0  0  0  0  0  0  0  0  0  0  0
   -1.3810    0.7340    0.0304 H   0  0  0  0  0  0  0  0  0  0  0  0
    1.6344    0.4174    0.4178 H   0  0  0  0  0  0  0  0  0  0  0  0
    0.7694    1.9600    0.4026 H   0  0  0  0  0  0  0  0  0  0  0  0
    1.2920    1.3258    2.9962 H   0  0  0  0  0  0  0  0  0  0  0  0
   -1.0575    1.3268   -2.4725 N   0  0  0  0  0  0  0  0  0  0  0  0
   -0.8975    1.6972   -3.8841 C   0  0  2  0  0  0  0  0  0  0  0  0
   -1.7829    2.9041   -4.2639 C   0  0  0  0  0  0  0  0  0  0  0  0
   -2.6275    3.3247   -3.4810 O   0  0  0  0  0  0  0  0  0  0  0  0
   -1.2542    0.4820   -4.7486 C   0  0  0  0  0  0  0  0  0  0  0  0
   -1.9320    1.5944   -2.0196 H   0  0  0  0  0  0  0  0  0  0  0  0
    0.1432    1.9823   -4.0708 H   0  0  0  0  0  0  0  0  0  0  0  0
   -2.2909    0.1782   -4.5702 H   0  0  0  0  0  0  0  0  0  0  0  0
   -1.1368    0.7154   -5.8109 H   0  0  0  0  0  0  0  0  0  0  0  0
   -0.5992   -0.3615   -4.5098 H   0  0  0  0  0  0  0  0  0  0  0  0
   -1.6309    3.5258   -5.4899 N   0  0  0  0  0  0  0  0  0  0  0  0
   -2.4481    4.6529   -5.9229 C   0  0  0  0  0  0  0  0  0  0  0  0
   -0.9315    3.1516   -6.1243 H   0  0  0  0  0  0  0  0  0  0  0  0
   -3.5057    4.3700   -5.9548 H   0  0  0  0  0  0  0  0  0  0  0  0
   -2.3298    5.4979   -5.2366 H   0  0  0  0  0  0  0  0  0  0  0  0
   -2.1466    4.9761   -6.9239 H   0  0  0  0  0  0  0  0  0  0  0  0
  1  2  2  0  0  0  0
  1  3  1  0  0  0  0
  1  7  1  0  0  0  0
  3  4  1  0  0  0  0
  3  5  1  0  0  0  0
  3  6  1  0  0  0  0
  7  8  1  0  0  0  0
  7 12  1  0  0  0  0
  8  9  1  0  0  0  0
  8 11  1  0  0  0  0
  8 13  1  0  0  0  0
  9 10  2  0  0  0  0
  9 17  1  0  0  0  0
 11 14  1  0  0  0  0
 11 15  1  0  0  0  0
 11 16  1  0  0  0  0
 17 18  1  0  0  0  0
 17 23  1  0  0  0  0
 18 19  1  0  0  0  0
 18 21  1  0  0  0  0
 18 24  1  0  0  0  0
 19 20  2  0  0  0  0
 19 28  1  0  0  0  0
 21 22  1  0  0  0  0
 21 25  1  0  0  0  0
 21 26  1  0  0  0  0
 22 27  1  0  0  0  0
 28 29  1  0  0  0  0
 28 33  1  0  0  0  0
 29 30  1  0  0  0  0
 29 32  1  0  0  0  0
 29 34  1  0  0  0  0
 30 31  2  0  0  0  0
 30 38  1  0  0  0  0
 32 35  1  0  0  0  0
 32 36  1  0  0  0  0
 32 37  1  0  0  0  0
 38 39  1  0  0  0  0
 38 40  1  0  0  0  0
 39 41  1  0  0  0  0
 39 42  1  0  0  0  0
 39 43  1  0  0  0  0
M  END
$$$$

  -OEChem-05262216003D

 43 42  0     1  0  0  0  0  0999 V2000
   -3.2686   -5.0463    1.1519 C   0  0  0  0  0  0  0  0  0  0  0  0
   -2.3751   -5.7016    1.6644 O   0  0  0  0  0  0  0  0  0  0  0  0
   -4.7201   -5.4005    1.4149 C   0  0  0  0  0  0  0  0  0  0  0  0
   -5.2314   -5.6035    0.4709 H   0  0  0  0  0  0  0  0  0  0  0  0
   -4.7828   -6.2902    2.0479 H   0  0  0  0  0  0  0  0  0  0  0  0
   -5.2201   -4.5714    1.9216 H   0  0  0  0  0  0  0  0  0  0  0  0
   -2.9618   -3.9749    0.3408 N   0  0  0  0  0  0  0  0  0  0  0  0
   -1.6095   -3.4318    0.1611 C   0  0  2  0  0  0  0  0  0  0  0  0
   -1.6446   -1.9058   -0.0645 C   0  0  0  0  0  0  0  0  0  0  0  0
   -2.7001   -1.3484   -0.3502 O   0  0  0  0  0  0  0  0  0  0  0  0
   -0.9576   -4.1390   -1.0310 C   0  0  0  0  0  0  0  0  0  0  0  0
   -3.7340   -3.3819    0.0375 H   0  0  0  0  0  0  0  0  0  0  0  0
   -1.0137   -3.6146    1.0622 H   0  0  0  0  0  0  0  0  0  0  0  0
   -1.5343   -3.9596   -1.9438 H   0  0  0  0  0  0  0  0  0  0  0  0
    0.0620   -3.7737   -1.1858 H   0  0  0  0  0  0  0  0  0  0  0  0
   -0.9131   -5.2181   -0.8530 H   0  0  0  0  0  0  0  0  0  0  0  0
   -0.4913   -1.1520    0.0307 N   0  0  0  0  0  0  0  0  0  0  0  0
   -0.4445    0.2952   -0.2287 C   0  0  2  0  0  0  0  0  0  0  0  0
   -0.1458    0.5942   -1.7092 C   0  0  0  0  0  0  0  0  0  0  0  0
    0.7872    0.0332   -2.2739 O   0  0  0  0  0  0  0  0  0  0  0  0
    0.6477    0.9218    0.6459 C   0  0  0  0  0  0  0  0  0  0  0  0
    0.2161    0.7668    2.4278 S   0  0  0  0  0  0  0  0  0  0  0  0
    0.3846   -1.6488    0.1639 H   0  0  0  0  0  0  0  0  0  0  0  0
   -1.4017    0.7582    0.0330 H   0  0  0  0  0  0  0  0  0  0  0  0
    1.6085    0.4334    0.4514 H   0  0  0  0  0  0  0  0  0  0  0  0
    0.7559    1.9822    0.3945 H   0  0  0  0  0  0  0  0  0  0  0  0
    1.2614    1.3975    3.0064 H   0  0  0  0  0  0  0  0  0  0  0  0
   -0.8701    1.5520   -2.3911 N   0  0  0  0  0  0  0  0  0  0  0  0
   -0.6312    1.9615   -3.7805 C   0  0  2  0  0  0  0  0  0  0  0  0
   -1.1839    3.3765   -4.0583 C   0  0  0  0  0  0  0  0  0  0  0  0
   -1.8447    3.9602   -3.2060 O   0  0  0  0  0  0  0  0  0  0  0  0
   -1.2890    0.9355   -4.7106 C   0  0  0  0  0  0  0  0  0  0  0  0
   -1.6020    2.0493   -1.8830 H   0  0  0  0  0  0  0  0  0  0  0  0
    0.4465    1.9867   -3.9737 H   0  0  0  0  0  0  0  0  0  0  0  0
   -2.3686    0.8962   -4.5329 H   0  0  0  0  0  0  0  0  0  0  0  0
   -1.1168    1.1978   -5.7587 H   0  0  0  0  0  0  0  0  0  0  0  0
   -0.8715   -0.0609   -4.5346 H   0  0  0  0  0  0  0  0  0  0  0  0
   -0.9318    4.0054   -5.2639 N   0  0  0  0  0  0  0  0  0  0  0  0
   -1.4377    5.3320   -5.5960 C   0  0  0  0  0  0  0  0  0  0  0  0
   -0.3883    3.4981   -5.9560 H   0  0  0  0  0  0  0  0  0  0  0  0
   -2.5319    5.3477   -5.5519 H   0  0  0  0  0  0  0  0  0  0  0  0
   -1.0463    6.0775   -4.8959 H   0  0  0  0  0  0  0  0  0  0  0  0
   -1.1296    5.6124   -6.6078 H   0  0  0  0  0  0  0  0  0  0  0  0
  1  2  2  0  0  0  0
  1  3  1  0  0  0  0
  1  7  1  0  0  0  0
  3  4  1  0  0  0  0
  3  5  1  0  0  0  0
  3  6  1  0  0  0  0
  7  8  1  0  0  0  0
  7 12  1  0  0  0  0
  8  9  1  0  0  0  0
  8 11  1  0  0  0  0
  8 13  1  0  0  0  0
  9 10  2  0  0  0  0
  9 17  1  0  0  0  0
 11 14  1  0  0  0  0
 11 15  1  0  0  0  0
 11 16  1  0  0  0  0
 17 18  1  0  0  0  0
 17 23  1  0  0  0  0
 18 19  1  0  0  0  0
 18 21  1  0  0  0  0
 18 24  1  0  0  0  0
 19 20  2  0  0  0  0
 19 28  1  0  0  0  0
 21 22  1  0  0  0  0
 21 25  1  0  0  0  0
 21 26  1  0  0  0  0
 22 27  1  0  0  0  0
 28 29  1  0  0  0  0
 28 33  1  0  0  0  0
 29 30  1  0  0  0  0
 29 32  1  0  0  0  0
 29 34  1  0  0  0  0
 30 31  2  0  0  0  0
 30 38  1  0  0  0  0
 32 35  1  0  0  0  0
 32 36  1  0  0  0  0
 32 37  1  0  0  0  0
 38 39  1  0  0  0  0
 38 40  1  0  0  0  0
 39 41  1  0  0  0  0
 39 42  1  0  0  0  0
 39 43  1  0  0  0  0
M  END
$$$$

  -OEChem-05262216003D

 43 42  0     1  0  0  0  0  0999 V2000
   -3.2701   -5.0553    1.1243 C   0  0  0  0  0  0  0  0  0  0  0  0
   -2.3695   -5.7256    1.6046 O   0  0  0  0  0  0  0  0  0  0  0  0
   -4.7184   -5.4108    1.4034 C   0  0  0  0  0  0  0  0  0  0  0  0
   -5.2362   -5.6289    0.4663 H   0  0  0  0  0  0  0  0  0  0  0  0
   -4.7733   -6.2911    2.0498 H   0  0  0  0  0  0  0  0  0  0  0  0
   -5.2177   -4.5763    1.9017 H   0  0  0  0  0  0  0  0  0  0  0  0
   -2.9750   -3.9641    0.3355 N   0  0  0  0  0  0  0  0  0  0  0  0
   -1.6257   -3.4144    0.1508 C   0  0  2  0  0  0  0  0  0  0  0  0
   -1.6642   -1.8807   -0.0129 C   0  0  0  0  0  0  0  0  0  0  0  0
   -2.7268   -1.3139   -0.2507 O   0  0  0  0  0  0  0  0  0  0  0  0
   -0.9995   -4.0731   -1.0823 C   0  0  0  0  0  0  0  0  0  0  0  0
   -3.7512   -3.3605    0.0654 H   0  0  0  0  0  0  0  0  0  0  0  0
   -1.0112   -3.6337    1.0309 H   0  0  0  0  0  0  0  0  0  0  0  0
   -1.5926   -3.8535   -1.9759 H   0  0  0  0  0  0  0  0  0  0  0  0
    0.0187   -3.7052   -1.2411 H   0  0  0  0  0  0  0  0  0  0  0  0
   -0.9566   -5.1590   -0.9507 H   0  0  0  0  0  0  0  0  0  0  0  0
   -0.5052   -1.1346    0.0774 N   0  0  0  0  0  0  0  0  0  0  0  0
   -0.4515    0.3069   -0.2145 C   0  0  2  0  0  0  0  0  0  0  0  0
   -0.1391    0.5808   -1.6974 C   0  0  0  0  0  0  0  0  0  0  0  0
    0.6249   -0.1541   -2.3145 O   0  0  0  0  0  0  0  0  0  0  0  0
    0.6370    0.9507    0.6522 C   0  0  0  0  0  0  0  0  0  0  0  0
    0.1965    0.8403    2.4349 S   0  0  0  0  0  0  0  0  0  0  0  0
    0.3708   -1.6473    0.1147 H   0  0  0  0  0  0  0  0  0  0  0  0
   -1.4098    0.7785    0.0286 H   0  0  0  0  0  0  0  0  0  0  0  0
    1.5969    0.4543    0.4743 H   0  0  0  0  0  0  0  0  0  0  0  0
    0.7501    2.0051    0.3779 H   0  0  0  0  0  0  0  0  0  0  0  0
    1.2431    1.4765    3.0056 H   0  0  0  0  0  0  0  0  0  0  0  0
   -0.6258    1.7178   -2.3119 N   0  0  0  0  0  0  0  0  0  0  0  0
   -0.3043    2.1427   -3.6795 C   0  0  2  0  0  0  0  0  0  0  0  0
   -0.5061    3.6632   -3.8565 C   0  0  0  0  0  0  0  0  0  0  0  0
   -0.9989    4.3287   -2.9517 O   0  0  0  0  0  0  0  0  0  0  0  0
   -1.1924    1.3620   -4.6554 C   0  0  0  0  0  0  0  0  0  0  0  0
   -1.1846    2.3617   -1.7511 H   0  0  0  0  0  0  0  0  0  0  0  0
    0.7473    1.9240   -3.8932 H   0  0  0  0  0  0  0  0  0  0  0  0
   -2.2496    1.5660   -4.4572 H   0  0  0  0  0  0  0  0  0  0  0  0
   -0.9701    1.6429   -5.6889 H   0  0  0  0  0  0  0  0  0  0  0  0
   -1.0206    0.2862   -4.5496 H   0  0  0  0  0  0  0  0  0  0  0  0
   -0.1201    4.2935   -5.0252 N   0  0  0  0  0  0  0  0  0  0  0  0
   -0.2941    5.7223   -5.2588 C   0  0  0  0  0  0  0  0  0  0  0  0
    0.2817    3.7193   -5.7605 H   0  0  0  0  0  0  0  0  0  0  0  0
   -1.3536    5.9940   -5.2021 H   0  0  0  0  0  0  0  0  0  0  0  0
    0.2591    6.3031   -4.5132 H   0  0  0  0  0  0  0  0  0  0  0  0
    0.0789    5.9913   -6.2517 H   0  0  0  0  0  0  0  0  0  0  0  0
  1  2  2  0  0  0  0
  1  3  1  0  0  0  0
  1  7  1  0  0  0  0
  3  4  1  0  0  0  0
  3  5  1  0  0  0  0
  3  6  1  0  0  0  0
  7  8  1  0  0  0  0
  7 12  1  0  0  0  0
  8  9  1  0  0  0  0
  8 11  1  0  0  0  0
  8 13  1  0  0  0  0
  9 10  2  0  0  0  0
  9 17  1  0  0  0  0
 11 14  1  0  0  0  0
 11 15  1  0  0  0  0
 11 16  1  0  0  0  0
 17 18  1  0  0  0  0
 17 23  1  0  0  0  0
 18 19  1  0  0  0  0
 18 21  1  0  0  0  0
 18 24  1  0  0  0  0
 19 20  2  0  0  0  0
 19 28  1  0  0  0  0
 21 22  1  0  0  0  0
 21 25  1  0  0  0  0
 21 26  1  0  0  0  0
 22 27  1  0  0  0  0
 28 29  1  0  0  0  0
 28 33  1  0  0  0  0
 29 30  1  0  0  0  0
 29 32  1  0  0  0  0
 29 34  1  0  0  0  0
 30 31  2  0  0  0  0
 30 38  1  0  0  0  0
 32 35  1  0  0  0  0
 32 36  1  0  0  0  0
 32 37  1  0  0  0  0
 38 39  1  0  0  0  0
 38 40  1  0  0  0  0
 39 41  1  0  0  0  0
 39 42  1  0  0  0  0
 39 43  1  0  0  0  0
M  END
$$$$

  -OEChem-05262216003D

 43 42  0     1  0  0  0  0  0999 V2000
   -3.2145   -5.1144    1.0753 C   0  0  0  0  0  0  0  0  0  0  0  0
   -2.2845   -5.7951    1.4781 O   0  0  0  0  0  0  0  0  0  0  0  0
   -4.6445   -5.5436    1.3441 C   0  0  0  0  0  0  0  0  0  0  0  0
   -5.1789   -5.6726    0.3999 H   0  0  0  0  0  0  0  0  0  0  0  0
   -4.6576   -6.4918    1.8890 H   0  0  0  0  0  0  0  0  0  0  0  0
   -5.1546   -4.7856    1.9431 H   0  0  0  0  0  0  0  0  0  0  0  0
   -2.9683   -3.9503    0.3797 N   0  0  0  0  0  0  0  0  0  0  0  0
   -1.6357   -3.3641    0.1859 C   0  0  2  0  0  0  0  0  0  0  0  0
   -1.7025   -1.8261    0.0830 C   0  0  0  0  0  0  0  0  0  0  0  0
   -2.7829   -1.2655   -0.0766 O   0  0  0  0  0  0  0  0  0  0  0  0
   -1.0240   -3.9605   -1.0863 C   0  0  0  0  0  0  0  0  0  0  0  0
   -3.7656   -3.3503    0.1703 H   0  0  0  0  0  0  0  0  0  0  0  0
   -0.9979   -3.6055    1.0434 H   0  0  0  0  0  0  0  0  0  0  0  0
   -1.6456   -3.7250   -1.9562 H   0  0  0  0  0  0  0  0  0  0  0  0
   -0.0203   -3.5596   -1.2582 H   0  0  0  0  0  0  0  0  0  0  0  0
   -0.9486   -5.0487   -0.9954 H   0  0  0  0  0  0  0  0  0  0  0  0
   -0.5444   -1.0746    0.1408 N   0  0  0  0  0  0  0  0  0  0  0  0
   -0.5061    0.3592   -0.1913 C   0  0  2  0  0  0  0  0  0  0  0  0
   -0.2128    0.5963   -1.6866 C   0  0  0  0  0  0  0  0  0  0  0  0
    0.3310   -0.2731   -2.3602 O   0  0  0  0  0  0  0  0  0  0  0  0
    0.5871    1.0292    0.6522 C   0  0  0  0  0  0  0  0  0  0  0  0
    0.1610    0.9594    2.4409 S   0  0  0  0  0  0  0  0  0  0  0  0
    0.3259   -1.5937    0.0724 H   0  0  0  0  0  0  0  0  0  0  0  0
   -1.4651    0.8318    0.0463 H   0  0  0  0  0  0  0  0  0  0  0  0
    1.5481    0.5332    0.4800 H   0  0  0  0  0  0  0  0  0  0  0  0
    0.6950    2.0778    0.3548 H   0  0  0  0  0  0  0  0  0  0  0  0
    1.2139    1.6051    2.9885 H   0  0  0  0  0  0  0  0  0  0  0  0
   -0.4406    1.8360   -2.2519 N   0  0  0  0  0  0  0  0  0  0  0  0
   -0.0210    2.2324   -3.6022 C   0  0  2  0  0  0  0  0  0  0  0  0
    0.2640    3.7475   -3.6814 C   0  0  0  0  0  0  0  0  0  0  0  0
    0.0355    4.4668   -2.7145 O   0  0  0  0  0  0  0  0  0  0  0  0
   -1.1227    1.8294   -4.5880 C   0  0  0  0  0  0  0  0  0  0  0  0
   -0.7753    2.5814   -1.6410 H   0  0  0  0  0  0  0  0  0  0  0  0
    0.9070    1.7149   -3.8677 H   0  0  0  0  0  0  0  0  0  0  0  0
   -2.0580    2.3455   -4.3489 H   0  0  0  0  0  0  0  0  0  0  0  0
   -0.8369    2.0825   -5.6131 H   0  0  0  0  0  0  0  0  0  0  0  0
   -1.2982    0.7500   -4.5382 H   0  0  0  0  0  0  0  0  0  0  0  0
    0.8032    4.3030   -4.8271 N   0  0  0  0  0  0  0  0  0  0  0  0
    1.1083    5.7222   -4.9627 C   0  0  0  0  0  0  0  0  0  0  0  0
    0.9881    3.6827   -5.6101 H   0  0  0  0  0  0  0  0  0  0  0  0
    0.2087    6.3255   -4.8005 H   0  0  0  0  0  0  0  0  0  0  0  0
    1.8699    6.0219   -4.2350 H   0  0  0  0  0  0  0  0  0  0  0  0
    1.4880    5.9329   -5.9670 H   0  0  0  0  0  0  0  0  0  0  0  0
  1  2  2  0  0  0  0
  1  3  1  0  0  0  0
  1  7  1  0  0  0  0
  3  4  1  0  0  0  0
  3  5  1  0  0  0  0
  3  6  1  0  0  0  0
  7  8  1  0  0  0  0
  7 12  1  0  0  0  0
  8  9  1  0  0  0  0
  8 11  1  0  0  0  0
  8 13  1  0  0  0  0
  9 10  2  0  0  0  0
  9 17  1  0  0  0  0
 11 14  1  0  0  0  0
 11 15  1  0  0  0  0
 11 16  1  0  0  0  0
 17 18  1  0  0  0  0
 17 23  1  0  0  0  0
 18 19  1  0  0  0  0
 18 21  1  0  0  0  0
 18 24  1  0  0  0  0
 19 20  2  0  0  0  0
 19 28  1  0  0  0  0
 21 22  1  0  0  0  0
 21 25  1  0  0  0  0
 21 26  1  0  0  0  0
 22 27  1  0  0  0  0
 28 29  1  0  0  0  0
 28 33  1  0  0  0  0
 29 30  1  0  0  0  0
 29 32  1  0  0  0  0
 29 34  1  0  0  0  0
 30 31  2  0  0  0  0
 30 38  1  0  0  0  0
 32 35  1  0  0  0  0
 32 36  1  0  0  0  0
 32 37  1  0  0  0  0
 38 39  1  0  0  0  0
 38 40  1  0  0  0  0
 39 41  1  0  0  0  0
 39 42  1  0  0  0  0
 39 43  1  0  0  0  0
M  END
$$$$

  -OEChem-05262216003D

 43 42  0     1  0  0  0  0  0999 V2000
   -3.1999   -5.1047    1.0010 C   0  0  0  0  0  0  0  0  0  0  0  0
   -2.2653   -5.8225    1.3209 O   0  0  0  0  0  0  0  0  0  0  0  0
   -4.6241   -5.5253    1.3124 C   0  0  0  0  0  0  0  0  0  0  0  0
   -5.1970   -5.6157    0.3864 H   0  0  0  0  0  0  0  0  0  0  0  0
   -4.6279   -6.4917    1.8242 H   0  0  0  0  0  0  0  0  0  0  0  0
   -5.1011   -4.7827    1.9569 H   0  0  0  0  0  0  0  0  0  0  0  0
   -2.9639   -3.9082    0.3588 N   0  0  0  0  0  0  0  0  0  0  0  0
   -1.6315   -3.3334    0.1330 C   0  0  2  0  0  0  0  0  0  0  0  0
   -1.6702   -1.7911    0.1490 C   0  0  0  0  0  0  0  0  0  0  0  0
   -2.7451   -1.2001    0.0926 O   0  0  0  0  0  0  0  0  0  0  0  0
   -1.1089   -3.8395   -1.2156 C   0  0  0  0  0  0  0  0  0  0  0  0
   -3.7586   -3.2850    0.2189 H   0  0  0  0  0  0  0  0  0  0  0  0
   -0.9505   -3.6515    0.9300 H   0  0  0  0  0  0  0  0  0  0  0  0
   -1.7653   -3.5111   -2.0281 H   0  0  0  0  0  0  0  0  0  0  0  0
   -0.1024   -3.4560   -1.4075 H   0  0  0  0  0  0  0  0  0  0  0  0
   -1.0678   -4.9333   -1.2207 H   0  0  0  0  0  0  0  0  0  0  0  0
   -0.4977   -1.0615    0.2163 N   0  0  0  0  0  0  0  0  0  0  0  0
   -0.4606    0.3737   -0.1121 C   0  0  2  0  0  0  0  0  0  0  0  0
   -0.5386    0.6409   -1.6341 C   0  0  0  0  0  0  0  0  0  0  0  0
   -0.4381   -0.2779   -2.4411 O   0  0  0  0  0  0  0  0  0  0  0  0
    0.8440    0.9566    0.4531 C   0  0  0  0  0  0  0  0  0  0  0  0
    0.8473    0.8704    2.2909 S   0  0  0  0  0  0  0  0  0  0  0  0
    0.3609   -1.5927    0.1131 H   0  0  0  0  0  0  0  0  0  0  0  0
   -1.3056    0.8851    0.3614 H   0  0  0  0  0  0  0  0  0  0  0  0
    1.7022    0.4070    0.0524 H   0  0  0  0  0  0  0  0  0  0  0  0
    0.9504    2.0042    0.1532 H   0  0  0  0  0  0  0  0  0  0  0  0
    2.0284    1.4580    2.5832 H   0  0  0  0  0  0  0  0  0  0  0  0
   -0.5188    1.9381   -2.1123 N   0  0  0  0  0  0  0  0  0  0  0  0
   -0.3537    2.3170   -3.5213 C   0  0  2  0  0  0  0  0  0  0  0  0
    0.3194    3.7005   -3.6527 C   0  0  0  0  0  0  0  0  0  0  0  0
    0.5441    4.3713   -2.6503 O   0  0  0  0  0  0  0  0  0  0  0  0
   -1.7339    2.3151   -4.1867 C   0  0  0  0  0  0  0  0  0  0  0  0
   -0.4687    2.6946   -1.4303 H   0  0  0  0  0  0  0  0  0  0  0  0
    0.2923    1.5914   -4.0269 H   0  0  0  0  0  0  0  0  0  0  0  0
   -2.3915    3.0459   -3.7051 H   0  0  0  0  0  0  0  0  0  0  0  0
   -1.6513    2.5660   -5.2483 H   0  0  0  0  0  0  0  0  0  0  0  0
   -2.1938    1.3250   -4.1029 H   0  0  0  0  0  0  0  0  0  0  0  0
    0.6949    4.1879   -4.8911 N   0  0  0  0  0  0  0  0  0  0  0  0
    1.3351    5.4844   -5.0807 C   0  0  0  0  0  0  0  0  0  0  0  0
    0.4983    3.6116   -5.7044 H   0  0  0  0  0  0  0  0  0  0  0  0
    0.7007    6.2870   -4.6895 H   0  0  0  0  0  0  0  0  0  0  0  0
    2.2995    5.5148   -4.5630 H   0  0  0  0  0  0  0  0  0  0  0  0
    1.5080    5.6694   -6.1454 H   0  0  0  0  0  0  0  0  0  0  0  0
  1  2  2  0  0  0  0
  1  3  1  0  0  0  0
  1  7  1  0  0  0  0
  3  4  1  0  0  0  0
  3  5  1  0  0  0  0
  3  6  1  0  0  0  0
  7  8  1  0  0  0  0
  7 12  1  0  0  0  0
  8  9  1  0  0  0  0
  8 11  1  0  0  0  0
  8 13  1  0  0  0  0
  9 10  2  0  0  0  0
  9 17  1  0  0  0  0
 11 14  1  0  0  0  0
 11 15  1  0  0  0  0
 11 16  1  0  0  0  0
 17 18  1  0  0  0  0
 17 23  1  0  0  0  0
 18 19  1  0  0  0  0
 18 21  1  0  0  0  0
 18 24  1  0  0  0  0
 19 20  2  0  0  0  0
 19 28  1  0  0  0  0
 21 22  1  0  0  0  0
 21 25  1  0  0  0  0
 21 26  1  0  0  0  0
 22 27  1  0  0  0  0
 28 29  1  0  0  0  0
 28 33  1  0  0  0  0
 29 30  1  0  0  0  0
 29 32  1  0  0  0  0
 29 34  1  0  0  0  0
 30 31  2  0  0  0  0
 30 38  1  0  0  0  0
 32 35  1  0  0  0  0
 32 36  1  0  0  0  0
 32 37  1  0  0  0  0
 38 39  1  0  0  0  0
 38 40  1  0  0  0  0
 39 41  1  0  0  0  0
 39 42  1  0  0  0  0
 39 43  1  0  0  0  0
M  END
$$$$

  -OEChem-05262216003D

 43 42  0     1  0  0  0  0  0999 V2000
   -3.1620   -5.1072    0.9531 C   0  0  0  0  0  0  0  0  0  0  0  0
   -2.2148   -5.8339    1.2103 O   0  0  0  0  0  0  0  0  0  0  0  0
   -4.5753   -5.5557    1.2722 C   0  0  0  0  0  0  0  0  0  0  0  0
   -5.1708   -5.5887    0.3567 H   0  0  0  0  0  0  0  0  0  0  0  0
   -4.5622   -6.5528    1.7208 H   0  0  0  0  0  0  0  0  0  0  0  0
   -5.0383   -4.8591    1.9751 H   0  0  0  0  0  0  0  0  0  0  0  0
   -2.9510   -3.8761    0.3708 N   0  0  0  0  0  0  0  0  0  0  0  0
   -1.6291   -3.2882    0.1224 C   0  0  2  0  0  0  0  0  0  0  0  0
   -1.6697   -1.7473    0.1849 C   0  0  0  0  0  0  0  0  0  0  0  0
   -2.7466   -1.1572    0.1780 O   0  0  0  0  0  0  0  0  0  0  0  0
   -1.1483   -3.7508   -1.2567 C   0  0  0  0  0  0  0  0  0  0  0  0
   -3.7534   -3.2545    0.2734 H   0  0  0  0  0  0  0  0  0  0  0  0
   -0.9237   -3.6288    0.8879 H   0  0  0  0  0  0  0  0  0  0  0  0
   -1.8345   -3.4032   -2.0359 H   0  0  0  0  0  0  0  0  0  0  0  0
   -0.1517   -3.3539   -1.4718 H   0  0  0  0  0  0  0  0  0  0  0  0
   -1.1001   -4.8436   -1.2955 H   0  0  0  0  0  0  0  0  0  0  0  0
   -0.4951   -1.0194    0.2479 N   0  0  0  0  0  0  0  0  0  0  0  0
   -0.4601    0.4148   -0.0877 C   0  0  2  0  0  0  0  0  0  0  0  0
   -0.5402    0.6746   -1.6148 C   0  0  0  0  0  0  0  0  0  0  0  0
   -0.6860   -0.2505   -2.4071 O   0  0  0  0  0  0  0  0  0  0  0  0
    0.8414    0.9934    0.4951 C   0  0  0  0  0  0  0  0  0  0  0  0
    0.8226    0.9087    2.3329 S   0  0  0  0  0  0  0  0  0  0  0  0
    0.3595   -1.5529    0.1280 H   0  0  0  0  0  0  0  0  0  0  0  0
   -1.3072    0.9286    0.3793 H   0  0  0  0  0  0  0  0  0  0  0  0
    1.7037    0.4433    0.1041 H   0  0  0  0  0  0  0  0  0  0  0  0
    0.9556    2.0423    0.2039 H   0  0  0  0  0  0  0  0  0  0  0  0
    2.0064    1.4848    2.6362 H   0  0  0  0  0  0  0  0  0  0  0  0
   -0.2179    1.9163   -2.1320 N   0  0  0  0  0  0  0  0  0  0  0  0
    0.0039    2.2129   -3.5530 C   0  0  2  0  0  0  0  0  0  0  0  0
    1.0113    3.3706   -3.7255 C   0  0  0  0  0  0  0  0  0  0  0  0
    1.4131    3.9836   -2.7412 O   0  0  0  0  0  0  0  0  0  0  0  0
   -1.3463    2.5582   -4.1902 C   0  0  0  0  0  0  0  0  0  0  0  0
    0.0440    2.6490   -1.4735 H   0  0  0  0  0  0  0  0  0  0  0  0
    0.4268    1.3361   -4.0551 H   0  0  0  0  0  0  0  0  0  0  0  0
   -1.7799    3.4427   -3.7128 H   0  0  0  0  0  0  0  0  0  0  0  0
   -1.2292    2.7599   -5.2590 H   0  0  0  0  0  0  0  0  0  0  0  0
   -2.0443    1.7227   -4.0736 H   0  0  0  0  0  0  0  0  0  0  0  0
    1.4882    3.7135   -4.9774 N   0  0  0  0  0  0  0  0  0  0  0  0
    2.4397    4.7956   -5.2016 C   0  0  0  0  0  0  0  0  0  0  0  0
    1.1382    3.1916   -5.7758 H   0  0  0  0  0  0  0  0  0  0  0  0
    2.0144    5.7520   -4.8798 H   0  0  0  0  0  0  0  0  0  0  0  0
    3.3644    4.6153   -4.6432 H   0  0  0  0  0  0  0  0  0  0  0  0
    2.6878    4.8678   -6.2648 H   0  0  0  0  0  0  0  0  0  0  0  0
  1  2  2  0  0  0  0
  1  3  1  0  0  0  0
  1  7  1  0  0  0  0
  3  4  1  0  0  0  0
  3  5  1  0  0  0  0
  3  6  1  0  0  0  0
  7  8  1  0  0  0  0
  7 12  1  0  0  0  0
  8  9  1  0  0  0  0
  8 11  1  0  0  0  0
  8 13  1  0  0  0  0
  9 10  2  0  0  0  0
  9 17  1  0  0  0  0
 11 14  1  0  0  0  0
 11 15  1  0  0  0  0
 11 16  1  0  0  0  0
 17 18  1  0  0  0  0
 17 23  1  0  0  0  0
 18 19  1  0  0  0  0
 18 21  1  0  0  0  0
 18 24  1  0  0  0  0
 19 20  2  0  0  0  0
 19 28  1  0  0  0  0
 21 22  1  0  0  0  0
 21 25  1  0  0  0  0
 21 26  1  0  0  0  0
 22 27  1  0  0  0  0
 28 29  1  0  0  0  0
 28 33  1  0  0  0  0
 29 30  1  0  0  0  0
 29 32  1  0  0  0  0
 29 34  1  0  0  0  0
 30 31  2  0  0  0  0
 30 38  1  0  0  0  0
 32 35  1  0  0  0  0
 32 36  1  0  0  0  0
 32 37  1  0  0  0  0
 38 39  1  0  0  0  0
 38 40  1  0  0  0  0
 39 41  1  0  0  0  0
 39 42  1  0  0  0  0
 39 43  1  0  0  0  0
M  END
$$$$

  -OEChem-05262216003D

 43 42  0     1  0  0  0  0  0999 V2000
   -3.1605   -5.0771    0.9384 C   0  0  0  0  0  0  0  0  0  0  0  0
   -2.2158   -5.8019    1.2097 O   0  0  0  0  0  0  0  0  0  0  0  0
   -4.5758   -5.5167    1.2635 C   0  0  0  0  0  0  0  0  0  0  0  0
   -5.1728   -5.5532    0.3491 H   0  0  0  0  0  0  0  0  0  0  0  0
   -4.5671   -6.5109    1.7192 H   0  0  0  0  0  0  0  0  0  0  0  0
   -5.0352   -4.8130    1.9620 H   0  0  0  0  0  0  0  0  0  0  0  0
   -2.9456   -3.8577    0.3337 N   0  0  0  0  0  0  0  0  0  0  0  0
   -1.6218   -3.2709    0.0915 C   0  0  2  0  0  0  0  0  0  0  0  0
   -1.6587   -1.7308    0.1711 C   0  0  0  0  0  0  0  0  0  0  0  0
   -2.7347   -1.1396    0.1822 O   0  0  0  0  0  0  0  0  0  0  0  0
   -1.1425   -3.7187   -1.2926 C   0  0  0  0  0  0  0  0  0  0  0  0
   -3.7457   -3.2334    0.2347 H   0  0  0  0  0  0  0  0  0  0  0  0
   -0.9165   -3.6210    0.8529 H   0  0  0  0  0  0  0  0  0  0  0  0
   -1.8282   -3.3614   -2.0681 H   0  0  0  0  0  0  0  0  0  0  0  0
   -0.1454   -3.3210   -1.5033 H   0  0  0  0  0  0  0  0  0  0  0  0
   -1.0961   -4.8110   -1.3423 H   0  0  0  0  0  0  0  0  0  0  0  0
   -0.4819   -1.0072    0.2531 N   0  0  0  0  0  0  0  0  0  0  0  0
   -0.4316    0.4283   -0.0776 C   0  0  2  0  0  0  0  0  0  0  0  0
   -0.4854    0.6910   -1.6084 C   0  0  0  0  0  0  0  0  0  0  0  0
   -0.8891   -0.1681   -2.3843 O   0  0  0  0  0  0  0  0  0  0  0  0
    0.8503    1.0005    0.5561 C   0  0  0  0  0  0  0  0  0  0  0  0
    0.7622    0.9090    2.3914 S   0  0  0  0  0  0  0  0  0  0  0  0
    0.3715   -1.5455    0.1489 H   0  0  0  0  0  0  0  0  0  0  0  0
   -1.2897    0.9431    0.3682 H   0  0  0  0  0  0  0  0  0  0  0  0
    1.7260    0.4516    0.1942 H   0  0  0  0  0  0  0  0  0  0  0  0
    0.9750    2.0516    0.2792 H   0  0  0  0  0  0  0  0  0  0  0  0
    1.9442    1.4617    2.7417 H   0  0  0  0  0  0  0  0  0  0  0  0
    0.1315    1.7987   -2.1631 N   0  0  0  0  0  0  0  0  0  0  0  0
    0.3768    2.0040   -3.5962 C   0  0  2  0  0  0  0  0  0  0  0  0
    1.6135    2.9005   -3.8211 C   0  0  0  0  0  0  0  0  0  0  0  0
    2.1892    3.4014   -2.8599 O   0  0  0  0  0  0  0  0  0  0  0  0
   -0.8758    2.6286   -4.2208 C   0  0  0  0  0  0  0  0  0  0  0  0
    0.6066    2.4422   -1.5319 H   0  0  0  0  0  0  0  0  0  0  0  0
    0.5803    1.0422   -4.0788 H   0  0  0  0  0  0  0  0  0  0  0  0
   -1.0874    3.6009   -3.7644 H   0  0  0  0  0  0  0  0  0  0  0  0
   -0.7418    2.7690   -5.2974 H   0  0  0  0  0  0  0  0  0  0  0  0
   -1.7418    1.9766   -4.0667 H   0  0  0  0  0  0  0  0  0  0  0  0
    2.0994    3.1272   -5.0956 N   0  0  0  0  0  0  0  0  0  0  0  0
    3.2701    3.9515   -5.3722 C   0  0  0  0  0  0  0  0  0  0  0  0
    1.6061    2.6963   -5.8723 H   0  0  0  0  0  0  0  0  0  0  0  0
    3.1246    4.9673   -4.9897 H   0  0  0  0  0  0  0  0  0  0  0  0
    4.1604    3.5219   -4.9009 H   0  0  0  0  0  0  0  0  0  0  0  0
    3.4444    4.0115   -6.4509 H   0  0  0  0  0  0  0  0  0  0  0  0
  1  2  2  0  0  0  0
  1  3  1  0  0  0  0
  1  7  1  0  0  0  0
  3  4  1  0  0  0  0
  3  5  1  0  0  0  0
  3  6  1  0  0  0  0
  7  8  1  0  0  0  0
  7 12  1  0  0  0  0
  8  9  1  0  0  0  0
  8 11  1  0  0  0  0
  8 13  1  0  0  0  0
  9 10  2  0  0  0  0
  9 17  1  0  0  0  0
 11 14  1  0  0  0  0
 11 15  1  0  0  0  0
 11 16  1  0  0  0  0
 17 18  1  0  0  0  0
 17 23  1  0  0  0  0
 18 19  1  0  0  0  0
 18 21  1  0  0  0  0
 18 24  1  0  0  0  0
 19 20  2  0  0  0  0
 19 28  1  0  0  0  0
 21 22  1  0  0  0  0
 21 25  1  0  0  0  0
 21 26  1  0  0  0  0
 22 27  1  0  0  0  0
 28 29  1  0  0  0  0
 28 33  1  0  0  0  0
 29 30  1  0  0  0  0
 29 32  1  0  0  0  0
 29 34  1  0  0  0  0
 30 31  2  0  0  0  0
 30 38  1  0  0  0  0
 32 35  1  0  0  0  0
 32 36  1  0  0  0  0
 32 37  1  0  0  0  0
 38 39  1  0  0  0  0
 38 40  1  0  0  0  0
 39 41  1  0  0  0  0
 39 42  1  0  0  0  0
 39 43  1  0  0  0  0
M  END
$$$$

  -OEChem-05262216003D

 43 42  0     1  0  0  0  0  0999 V2000
   -3.1340   -5.0720    0.9036 C   0  0  0  0  0  0  0  0  0  0  0  0
   -2.1860   -5.7935    1.1726 O   0  0  0  0  0  0  0  0  0  0  0  0
   -4.5469   -5.5168    1.2320 C   0  0  0  0  0  0  0  0  0  0  0  0
   -5.1532   -5.5370    0.3233 H   0  0  0  0  0  0  0  0  0  0  0  0
   -4.5349   -6.5191    1.6693 H   0  0  0  0  0  0  0  0  0  0  0  0
   -4.9978   -4.8249    1.9475 H   0  0  0  0  0  0  0  0  0  0  0  0
   -2.9223   -3.8477    0.3072 N   0  0  0  0  0  0  0  0  0  0  0  0
   -1.6006   -3.2526    0.0745 C   0  0  2  0  0  0  0  0  0  0  0  0
   -1.6472   -1.7134    0.1634 C   0  0  0  0  0  0  0  0  0  0  0  0
   -2.7269   -1.1307    0.1927 O   0  0  0  0  0  0  0  0  0  0  0  0
   -1.1133   -3.6915   -1.3099 C   0  0  0  0  0  0  0  0  0  0  0  0
   -3.7242   -3.2252    0.2102 H   0  0  0  0  0  0  0  0  0  0  0  0
   -0.8966   -3.6031    0.8369 H   0  0  0  0  0  0  0  0  0  0  0  0
   -1.7971   -3.3323   -2.0862 H   0  0  0  0  0  0  0  0  0  0  0  0
   -0.1165   -3.2900   -1.5142 H   0  0  0  0  0  0  0  0  0  0  0  0
   -1.0637   -4.7835   -1.3658 H   0  0  0  0  0  0  0  0  0  0  0  0
   -0.4741   -0.9844    0.2507 N   0  0  0  0  0  0  0  0  0  0  0  0
   -0.4191    0.4509   -0.0796 C   0  0  2  0  0  0  0  0  0  0  0  0
   -0.4613    0.7099   -1.6123 C   0  0  0  0  0  0  0  0  0  0  0  0
   -1.1091   -0.0112   -2.3610 O   0  0  0  0  0  0  0  0  0  0  0  0
    0.8474    1.0320    0.5768 C   0  0  0  0  0  0  0  0  0  0  0  0
    0.7278    0.9464    2.4105 S   0  0  0  0  0  0  0  0  0  0  0  0
    0.3836   -1.5206    0.1771 H   0  0  0  0  0  0  0  0  0  0  0  0
   -1.2862    0.9635    0.3520 H   0  0  0  0  0  0  0  0  0  0  0  0
    1.7346    0.4899    0.2324 H   0  0  0  0  0  0  0  0  0  0  0  0
    0.9644    2.0843    0.2996 H   0  0  0  0  0  0  0  0  0  0  0  0
    1.8951    1.5172    2.7823 H   0  0  0  0  0  0  0  0  0  0  0  0
    0.3970    1.6177   -2.2088 N   0  0  0  0  0  0  0  0  0  0  0  0
    0.6337    1.7413   -3.6531 C   0  0  2  0  0  0  0  0  0  0  0  0
    2.0601    2.2637   -3.9293 C   0  0  0  0  0  0  0  0  0  0  0  0
    2.7750    2.6098   -2.9934 O   0  0  0  0  0  0  0  0  0  0  0  0
   -0.4203    2.6864   -4.2386 C   0  0  0  0  0  0  0  0  0  0  0  0
    1.0638    2.1007   -1.6087 H   0  0  0  0  0  0  0  0  0  0  0  0
    0.5458    0.7600   -4.1319 H   0  0  0  0  0  0  0  0  0  0  0  0
   -0.3422    3.6778   -3.7808 H   0  0  0  0  0  0  0  0  0  0  0  0
   -0.2891    2.7890   -5.3197 H   0  0  0  0  0  0  0  0  0  0  0  0
   -1.4252    2.2946   -4.0512 H   0  0  0  0  0  0  0  0  0  0  0  0
    2.5545    2.3271   -5.2189 N   0  0  0  0  0  0  0  0  0  0  0  0
    3.8907    2.8146   -5.5397 C   0  0  0  0  0  0  0  0  0  0  0  0
    1.9409    2.0375   -5.9752 H   0  0  0  0  0  0  0  0  0  0  0  0
    4.0040    3.8573   -5.2244 H   0  0  0  0  0  0  0  0  0  0  0  0
    4.6510    2.2091   -5.0350 H   0  0  0  0  0  0  0  0  0  0  0  0
    4.0657    2.7590   -6.6184 H   0  0  0  0  0  0  0  0  0  0  0  0
  1  2  2  0  0  0  0
  1  3  1  0  0  0  0
  1  7  1  0  0  0  0
  3  4  1  0  0  0  0
  3  5  1  0  0  0  0
  3  6  1  0  0  0  0
  7  8  1  0  0  0  0
  7 12  1  0  0  0  0
  8  9  1  0  0  0  0
  8 11  1  0  0  0  0
  8 13  1  0  0  0  0
  9 10  2  0  0  0  0
  9 17  1  0  0  0  0
 11 14  1  0  0  0  0
 11 15  1  0  0  0  0
 11 16  1  0  0  0  0
 17 18  1  0  0  0  0
 17 23  1  0  0  0  0
 18 19  1  0  0  0  0
 18 21  1  0  0  0  0
 18 24  1  0  0  0  0
 19 20  2  0  0  0  0
 19 28  1  0  0  0  0
 21 22  1  0  0  0  0
 21 25  1  0  0  0  0
 21 26  1  0  0  0  0
 22 27  1  0  0  0  0
 28 29  1  0  0  0  0
 28 33  1  0  0  0  0
 29 30  1  0  0  0  0
 29 32  1  0  0  0  0
 29 34  1  0  0  0  0
 30 31  2  0  0  0  0
 30 38  1  0  0  0  0
 32 35  1  0  0  0  0
 32 36  1  0  0  0  0
 32 37  1  0  0  0  0
 38 39  1  0  0  0  0
 38 40  1  0  0  0  0
 39 41  1  0  0  0  0
 39 42  1  0  0  0  0
 39 43  1  0  0  0  0
M  END
$$$$

  -OEChem-05262216003D

 43 42  0     1  0  0  0  0  0999 V2000
   -3.1093   -5.0752    0.8763 C   0  0  0  0  0  0  0  0  0  0  0  0
   -2.1627   -5.7952    1.1539 O   0  0  0  0  0  0  0  0  0  0  0  0
   -4.5248   -5.5217    1.1905 C   0  0  0  0  0  0  0  0  0  0  0  0
   -5.1213   -5.5420    0.2750 H   0  0  0  0  0  0  0  0  0  0  0  0
   -4.5158   -6.5241    1.6275 H   0  0  0  0  0  0  0  0  0  0  0  0
   -4.9842   -4.8309    1.9019 H   0  0  0  0  0  0  0  0  0  0  0  0
   -2.8933   -3.8509    0.2819 N   0  0  0  0  0  0  0  0  0  0  0  0
   -1.5703   -3.2510    0.0710 C   0  0  2  0  0  0  0  0  0  0  0  0
   -1.6334   -1.7103    0.1226 C   0  0  0  0  0  0  0  0  0  0  0  0
   -2.7198   -1.1412    0.1272 O   0  0  0  0  0  0  0  0  0  0  0  0
   -1.0396   -3.7153   -1.2888 C   0  0  0  0  0  0  0  0  0  0  0  0
   -3.6948   -3.2280    0.1815 H   0  0  0  0  0  0  0  0  0  0  0  0
   -0.8865   -3.5787    0.8614 H   0  0  0  0  0  0  0  0  0  0  0  0
   -1.7020   -3.3748   -2.0915 H   0  0  0  0  0  0  0  0  0  0  0  0
   -0.0384   -3.3138   -1.4702 H   0  0  0  0  0  0  0  0  0  0  0  0
   -0.9835   -4.8079   -1.3215 H   0  0  0  0  0  0  0  0  0  0  0  0
   -0.4702   -0.9673    0.2233 N   0  0  0  0  0  0  0  0  0  0  0  0
   -0.4133    0.4687   -0.1035 C   0  0  2  0  0  0  0  0  0  0  0  0
   -0.4338    0.7337   -1.6336 C   0  0  0  0  0  0  0  0  0  0  0  0
   -1.2894    0.2380   -2.3537 O   0  0  0  0  0  0  0  0  0  0  0  0
    0.8312    1.0645    0.5786 C   0  0  0  0  0  0  0  0  0  0  0  0
    0.6696    0.9820    2.4094 S   0  0  0  0  0  0  0  0  0  0  0  0
    0.3965   -1.4945    0.2071 H   0  0  0  0  0  0  0  0  0  0  0  0
   -1.2931    0.9728    0.3123 H   0  0  0  0  0  0  0  0  0  0  0  0
    1.7315    0.5282    0.2603 H   0  0  0  0  0  0  0  0  0  0  0  0
    0.9420    2.1160    0.2931 H   0  0  0  0  0  0  0  0  0  0  0  0
    1.8184    1.5704    2.8092 H   0  0  0  0  0  0  0  0  0  0  0  0
    0.6104    1.3955   -2.2575 N   0  0  0  0  0  0  0  0  0  0  0  0
    0.8177    1.4671   -3.7096 C   0  0  2  0  0  0  0  0  0  0  0  0
    2.3228    1.5449   -4.0444 C   0  0  0  0  0  0  0  0  0  0  0  0
    3.1419    1.6880   -3.1413 O   0  0  0  0  0  0  0  0  0  0  0  0
    0.0730    2.6934   -4.2462 C   0  0  0  0  0  0  0  0  0  0  0  0
    1.4126    1.6521   -1.6842 H   0  0  0  0  0  0  0  0  0  0  0  0
    0.4224    0.5656   -4.1898 H   0  0  0  0  0  0  0  0  0  0  0  0
    0.4591    3.6080   -3.7851 H   0  0  0  0  0  0  0  0  0  0  0  0
    0.1915    2.7722   -5.3309 H   0  0  0  0  0  0  0  0  0  0  0  0
   -0.9958    2.6150   -4.0222 H   0  0  0  0  0  0  0  0  0  0  0  0
    2.7640    1.4367   -5.3503 N   0  0  0  0  0  0  0  0  0  0  0  0
    4.1707    1.5079   -5.7282 C   0  0  0  0  0  0  0  0  0  0  0  0
    2.0641    1.3173   -6.0774 H   0  0  0  0  0  0  0  0  0  0  0  0
    4.5892    2.4850   -5.4646 H   0  0  0  0  0  0  0  0  0  0  0  0
    4.7460    0.7285   -5.2171 H   0  0  0  0  0  0  0  0  0  0  0  0
    4.2807    1.3650   -6.8076 H   0  0  0  0  0  0  0  0  0  0  0  0
  1  2  2  0  0  0  0
  1  3  1  0  0  0  0
  1  7  1  0  0  0  0
  3  4  1  0  0  0  0
  3  5  1  0  0  0  0
  3  6  1  0  0  0  0
  7  8  1  0  0  0  0
  7 12  1  0  0  0  0
  8  9  1  0  0  0  0
  8 11  1  0  0  0  0
  8 13  1  0  0  0  0
  9 10  2  0  0  0  0
  9 17  1  0  0  0  0
 11 14  1  0  0  0  0
 11 15  1  0  0  0  0
 11 16  1  0  0  0  0
 17 18  1  0  0  0  0
 17 23  1  0  0  0  0
 18 19  1  0  0  0  0
 18 21  1  0  0  0  0
 18 24  1  0  0  0  0
 19 20  2  0  0  0  0
 19 28  1  0  0  0  0
 21 22  1  0  0  0  0
 21 25  1  0  0  0  0
 21 26  1  0  0  0  0
 22 27  1  0  0  0  0
 28 29  1  0  0  0  0
 28 33  1  0  0  0  0
 29 30  1  0  0  0  0
 29 32  1  0  0  0  0
 29 34  1  0  0  0  0
 30 31  2  0  0  0  0
 30 38  1  0  0  0  0
 32 35  1  0  0  0  0
 32 36  1  0  0  0  0
 32 37  1  0  0  0  0
 38 39  1  0  0  0  0
 38 40  1  0  0  0  0
 39 41  1  0  0  0  0
 39 42  1  0  0  0  0
 39 43  1  0  0  0  0
M  END
$$$$

  -OEChem-05262216003D

 43 42  0     1  0  0  0  0  0999 V2000
   -3.2021   -5.0286    1.0387 C   0  0  0  0  0  0  0  0  0  0  0  0
   -2.2918   -5.6931    1.5095 O   0  0  0  0  0  0  0  0  0  0  0  0
   -4.6446   -5.4282    1.2854 C   0  0  0  0  0  0  0  0  0  0  0  0
   -5.1512   -5.6013    0.3328 H   0  0  0  0  0  0  0  0  0  0  0  0
   -4.6856   -6.3459    1.8789 H   0  0  0  0  0  0  0  0  0  0  0  0
   -5.1646   -4.6346    1.8278 H   0  0  0  0  0  0  0  0  0  0  0  0
   -2.9208   -3.9089    0.2859 N   0  0  0  0  0  0  0  0  0  0  0  0
   -1.5796   -3.3341    0.1261 C   0  0  2  0  0  0  0  0  0  0  0  0
   -1.6385   -1.8023   -0.0527 C   0  0  0  0  0  0  0  0  0  0  0  0
   -2.7157   -1.2505   -0.2410 O   0  0  0  0  0  0  0  0  0  0  0  0
   -0.9116   -3.9926   -1.0846 C   0  0  0  0  0  0  0  0  0  0  0  0
   -3.7046   -3.3125    0.0192 H   0  0  0  0  0  0  0  0  0  0  0  0
   -0.9840   -3.5352    1.0229 H   0  0  0  0  0  0  0  0  0  0  0  0
   -1.4888   -3.7945   -1.9937 H   0  0  0  0  0  0  0  0  0  0  0  0
    0.1020   -3.6058   -1.2235 H   0  0  0  0  0  0  0  0  0  0  0  0
   -0.8500   -5.0760   -0.9405 H   0  0  0  0  0  0  0  0  0  0  0  0
   -0.4906   -1.0425    0.0817 N   0  0  0  0  0  0  0  0  0  0  0  0
   -0.4088    0.3953   -0.2284 C   0  0  2  0  0  0  0  0  0  0  0  0
   -0.3763    0.6873   -1.7507 C   0  0  0  0  0  0  0  0  0  0  0  0
   -1.3739    0.5745   -2.4473 O   0  0  0  0  0  0  0  0  0  0  0  0
    0.8204    0.9729    0.4927 C   0  0  0  0  0  0  0  0  0  0  0  0
    0.6050    0.8749    2.3164 S   0  0  0  0  0  0  0  0  0  0  0  0
    0.3640   -1.5401    0.3097 H   0  0  0  0  0  0  0  0  0  0  0  0
   -1.2982    0.9001    0.1660 H   0  0  0  0  0  0  0  0  0  0  0  0
    1.7256    0.4313    0.1985 H   0  0  0  0  0  0  0  0  0  0  0  0
    0.9474    2.0243    0.2132 H   0  0  0  0  0  0  0  0  0  0  0  0
    1.7302    1.4836    2.7518 H   0  0  0  0  0  0  0  0  0  0  0  0
    0.8022    1.0596   -2.3746 N   0  0  0  0  0  0  0  0  0  0  0  0
    0.9820    1.1934   -3.8254 C   0  0  2  0  0  0  0  0  0  0  0  0
    2.4370    0.8692   -4.2278 C   0  0  0  0  0  0  0  0  0  0  0  0
    3.2869    0.6973   -3.3587 O   0  0  0  0  0  0  0  0  0  0  0  0
    0.6082    2.6237   -4.2276 C   0  0  0  0  0  0  0  0  0  0  0  0
    1.6593    1.0057   -1.8264 H   0  0  0  0  0  0  0  0  0  0  0  0
    0.3304    0.4860   -4.3497 H   0  0  0  0  0  0  0  0  0  0  0  0
    1.2540    3.3456   -3.7176 H   0  0  0  0  0  0  0  0  0  0  0  0
    0.7143    2.7620   -5.3075 H   0  0  0  0  0  0  0  0  0  0  0  0
   -0.4313    2.8339   -3.9555 H   0  0  0  0  0  0  0  0  0  0  0  0
    2.7952    0.7529   -5.5580 N   0  0  0  0  0  0  0  0  0  0  0  0
    4.1502    0.4417   -5.9980 C   0  0  0  0  0  0  0  0  0  0  0  0
    2.0697    0.8898   -6.2561 H   0  0  0  0  0  0  0  0  0  0  0  0
    4.8538    1.1990   -5.6365 H   0  0  0  0  0  0  0  0  0  0  0  0
    4.4614   -0.5378   -5.6196 H   0  0  0  0  0  0  0  0  0  0  0  0
    4.1981    0.4208   -7.0909 H   0  0  0  0  0  0  0  0  0  0  0  0
  1  2  2  0  0  0  0
  1  3  1  0  0  0  0
  1  7  1  0  0  0  0
  3  4  1  0  0  0  0
  3  5  1  0  0  0  0
  3  6  1  0  0  0  0
  7  8  1  0  0  0  0
  7 12  1  0  0  0  0
  8  9  1  0  0  0  0
  8 11  1  0  0  0  0
  8 13  1  0  0  0  0
  9 10  2  0  0  0  0
  9 17  1  0  0  0  0
 11 14  1  0  0  0  0
 11 15  1  0  0  0  0
 11 16  1  0  0  0  0
 17 18  1  0  0  0  0
 17 23  1  0  0  0  0
 18 19  1  0  0  0  0
 18 21  1  0  0  0  0
 18 24  1  0  0  0  0
 19 20  2  0  0  0  0
 19 28  1  0  0  0  0
 21 22  1  0  0  0  0
 21 25  1  0  0  0  0
 21 26  1  0  0  0  0
 22 27  1  0  0  0  0
 28 29  1  0  0  0  0
 28 33  1  0  0  0  0
 29 30  1  0  0  0  0
 29 32  1  0  0  0  0
 29 34  1  0  0  0  0
 30 31  2  0  0  0  0
 30 38  1  0  0  0  0
 32 35  1  0  0  0  0
 32 36  1  0  0  0  0
 32 37  1  0  0  0  0
 38 39  1  0  0  0  0
 38 40  1  0  0  0  0
 39 41  1  0  0  0  0
 39 42  1  0  0  0  0
 39 43  1  0  0  0  0
M  END
$$$$

  -OEChem-05262216003D

 43 42  0     1  0  0  0  0  0999 V2000
   -3.2974   -4.9505    1.1769 C   0  0  0  0  0  0  0  0  0  0  0  0
   -2.4645   -5.5029    1.8785 O   0  0  0  0  0  0  0  0  0  0  0  0
   -4.7626   -5.3260    1.2939 C   0  0  0  0  0  0  0  0  0  0  0  0
   -5.1309   -5.6966    0.3342 H   0  0  0  0  0  0  0  0  0  0  0  0
   -4.8923   -6.1083    2.0472 H   0  0  0  0  0  0  0  0  0  0  0  0
   -5.3488   -4.4520    1.5886 H   0  0  0  0  0  0  0  0  0  0  0  0
   -2.9082   -3.9746    0.2845 N   0  0  0  0  0  0  0  0  0  0  0  0
   -1.5520   -3.4171    0.2062 C   0  0  2  0  0  0  0  0  0  0  0  0
   -1.5731   -1.9382   -0.2342 C   0  0  0  0  0  0  0  0  0  0  0  0
   -2.5902   -1.4619   -0.7200 O   0  0  0  0  0  0  0  0  0  0  0  0
   -0.7386   -4.2589   -0.7817 C   0  0  0  0  0  0  0  0  0  0  0  0
   -3.6438   -3.4534   -0.1933 H   0  0  0  0  0  0  0  0  0  0  0  0
   -1.0791   -3.4588    1.1934 H   0  0  0  0  0  0  0  0  0  0  0  0
   -1.1874   -4.2159   -1.7794 H   0  0  0  0  0  0  0  0  0  0  0  0
    0.2897   -3.8909   -0.8457 H   0  0  0  0  0  0  0  0  0  0  0  0
   -0.7108   -5.3039   -0.4568 H   0  0  0  0  0  0  0  0  0  0  0  0
   -0.4596   -1.1404   -0.0450 N   0  0  0  0  0  0  0  0  0  0  0  0
   -0.4162    0.3034   -0.3340 C   0  0  2  0  0  0  0  0  0  0  0  0
   -0.3367    0.6207   -1.8464 C   0  0  0  0  0  0  0  0  0  0  0  0
   -1.3339    0.9368   -2.4789 O   0  0  0  0  0  0  0  0  0  0  0  0
    0.7734    0.9093    0.4248 C   0  0  0  0  0  0  0  0  0  0  0  0
    0.5047    0.7737    2.2394 S   0  0  0  0  0  0  0  0  0  0  0  0
    0.2769   -1.5296    0.5369 H   0  0  0  0  0  0  0  0  0  0  0  0
   -1.3338    0.7732    0.0392 H   0  0  0  0  0  0  0  0  0  0  0  0
    1.7037    0.4012    0.1503 H   0  0  0  0  0  0  0  0  0  0  0  0
    0.8743    1.9672    0.1579 H   0  0  0  0  0  0  0  0  0  0  0  0
    1.5753    1.4463    2.7179 H   0  0  0  0  0  0  0  0  0  0  0  0
    0.8910    0.7368   -2.4750 N   0  0  0  0  0  0  0  0  0  0  0  0
    1.0659    0.9447   -3.9178 C   0  0  2  0  0  0  0  0  0  0  0  0
    2.3188    0.2043   -4.4317 C   0  0  0  0  0  0  0  0  0  0  0  0
    3.1227   -0.2651   -3.6315 O   0  0  0  0  0  0  0  0  0  0  0  0
    1.1761    2.4495   -4.1807 C   0  0  0  0  0  0  0  0  0  0  0  0
    1.6943    0.3439   -1.9866 H   0  0  0  0  0  0  0  0  0  0  0  0
    0.2026    0.5442   -4.4606 H   0  0  0  0  0  0  0  0  0  0  0  0
    2.0446    2.8667   -3.6611 H   0  0  0  0  0  0  0  0  0  0  0  0
    1.2819    2.6465   -5.2516 H   0  0  0  0  0  0  0  0  0  0  0  0
    0.2770    2.9622   -3.8239 H   0  0  0  0  0  0  0  0  0  0  0  0
    2.5398    0.0477   -5.7875 N   0  0  0  0  0  0  0  0  0  0  0  0
    3.6949   -0.6541   -6.3344 C   0  0  0  0  0  0  0  0  0  0  0  0
    1.8471    0.4287   -6.4259 H   0  0  0  0  0  0  0  0  0  0  0  0
    4.6224   -0.1500   -6.0429 H   0  0  0  0  0  0  0  0  0  0  0  0
    3.7250   -1.6864   -5.9699 H   0  0  0  0  0  0  0  0  0  0  0  0
    3.6425   -0.6762   -7.4273 H   0  0  0  0  0  0  0  0  0  0  0  0
  1  2  2  0  0  0  0
  1  3  1  0  0  0  0
  1  7  1  0  0  0  0
  3  4  1  0  0  0  0
  3  5  1  0  0  0  0
  3  6  1  0  0  0  0
  7  8  1  0  0  0  0
  7 12  1  0  0  0  0
  8  9  1  0  0  0  0
  8 11  1  0  0  0  0
  8 13  1  0  0  0  0
  9 10  2  0  0  0  0
  9 17  1  0  0  0  0
 11 14  1  0  0  0  0
 11 15  1  0  0  0  0
 11 16  1  0  0  0  0
 17 18  1  0  0  0  0
 17 23  1  0  0  0  0
 18 19  1  0  0  0  0
 18 21  1  0  0  0  0
 18 24  1  0  0  0  0
 19 20  2  0  0  0  0
 19 28  1  0  0  0  0
 21 22  1  0  0  0  0
 21 25  1  0  0  0  0
 21 26  1  0  0  0  0
 22 27  1  0  0  0  0
 28 29  1  0  0  0  0
 28 33  1  0  0  0  0
 29 30  1  0  0  0  0
 29 32  1  0  0  0  0
 29 34  1  0  0  0  0
 30 31  2  0  0  0  0
 30 38  1  0  0  0  0
 32 35  1  0  0  0  0
 32 36  1  0  0  0  0
 32 37  1  0  0  0  0
 38 39  1  0  0  0  0
 38 40  1  0  0  0  0
 39 41  1  0  0  0  0
 39 42  1  0  0  0  0
 39 43  1  0  0  0  0
M  END
$$$$

  -OEChem-05262216003D

 43 42  0     1  0  0  0  0  0999 V2000
   -3.3353   -4.9108    1.2300 C   0  0  0  0  0  0  0  0  0  0  0  0
   -2.5474   -5.4052    2.0211 O   0  0  0  0  0  0  0  0  0  0  0  0
   -4.8045   -5.2849    1.2841 C   0  0  0  0  0  0  0  0  0  0  0  0
   -5.1075   -5.7445    0.3404 H   0  0  0  0  0  0  0  0  0  0  0  0
   -4.9825   -5.9958    2.0958 H   0  0  0  0  0  0  0  0  0  0  0  0
   -5.4110   -4.3928    1.4580 H   0  0  0  0  0  0  0  0  0  0  0  0
   -2.8916   -4.0010    0.2943 N   0  0  0  0  0  0  0  0  0  0  0  0
   -1.5331   -3.4445    0.2599 C   0  0  2  0  0  0  0  0  0  0  0  0
   -1.5276   -1.9974   -0.2768 C   0  0  0  0  0  0  0  0  0  0  0  0
   -2.5047   -1.5613   -0.8712 O   0  0  0  0  0  0  0  0  0  0  0  0
   -0.6620   -4.3479   -0.6184 C   0  0  0  0  0  0  0  0  0  0  0  0
   -3.5960   -3.5217   -0.2666 H   0  0  0  0  0  0  0  0  0  0  0  0
   -1.1192   -3.4191    1.2738 H   0  0  0  0  0  0  0  0  0  0  0  0
   -1.0558   -4.3827   -1.6392 H   0  0  0  0  0  0  0  0  0  0  0  0
    0.3664   -3.9762   -0.6540 H   0  0  0  0  0  0  0  0  0  0  0  0
   -0.6461   -5.3659   -0.2162 H   0  0  0  0  0  0  0  0  0  0  0  0
   -0.4303   -1.1812   -0.0737 N   0  0  0  0  0  0  0  0  0  0  0  0
   -0.4245    0.2620   -0.3671 C   0  0  2  0  0  0  0  0  0  0  0  0
   -0.3402    0.5671   -1.8783 C   0  0  0  0  0  0  0  0  0  0  0  0
   -1.2416    1.1687   -2.4454 O   0  0  0  0  0  0  0  0  0  0  0  0
    0.7511    0.9087    0.3771 C   0  0  0  0  0  0  0  0  0  0  0  0
    0.4964    0.7752    2.1941 S   0  0  0  0  0  0  0  0  0  0  0  0
    0.2578   -1.5247    0.5910 H   0  0  0  0  0  0  0  0  0  0  0  0
   -1.3548    0.7108    0.0007 H   0  0  0  0  0  0  0  0  0  0  0  0
    1.6951    0.4299    0.0972 H   0  0  0  0  0  0  0  0  0  0  0  0
    0.8161    1.9674    0.1017 H   0  0  0  0  0  0  0  0  0  0  0  0
    1.5427    1.4920    2.6623 H   0  0  0  0  0  0  0  0  0  0  0  0
    0.8598    0.4024   -2.5464 N   0  0  0  0  0  0  0  0  0  0  0  0
    1.0275    0.5895   -3.9926 C   0  0  2  0  0  0  0  0  0  0  0  0
    1.9904   -0.4654   -4.5767 C   0  0  0  0  0  0  0  0  0  0  0  0
    2.6661   -1.1609   -3.8240 O   0  0  0  0  0  0  0  0  0  0  0  0
    1.5581    2.0049   -4.2358 C   0  0  0  0  0  0  0  0  0  0  0  0
    1.5384   -0.2149   -2.1022 H   0  0  0  0  0  0  0  0  0  0  0  0
    0.0642    0.4710   -4.5007 H   0  0  0  0  0  0  0  0  0  0  0  0
    2.5286    2.1393   -3.7478 H   0  0  0  0  0  0  0  0  0  0  0  0
    1.6771    2.1923   -5.3070 H   0  0  0  0  0  0  0  0  0  0  0  0
    0.8590    2.7444   -3.8324 H   0  0  0  0  0  0  0  0  0  0  0  0
    2.0961   -0.6440   -5.9435 N   0  0  0  0  0  0  0  0  0  0  0  0
    2.9800   -1.6287   -6.5558 C   0  0  0  0  0  0  0  0  0  0  0  0
    1.5061   -0.0720   -6.5412 H   0  0  0  0  0  0  0  0  0  0  0  0
    4.0228   -1.4251   -6.2904 H   0  0  0  0  0  0  0  0  0  0  0  0
    2.7215   -2.6382   -6.2192 H   0  0  0  0  0  0  0  0  0  0  0  0
    2.8887   -1.5942   -7.6457 H   0  0  0  0  0  0  0  0  0  0  0  0
  1  2  2  0  0  0  0
  1  3  1  0  0  0  0
  1  7  1  0  0  0  0
  3  4  1  0  0  0  0
  3  5  1  0  0  0  0
  3  6  1  0  0  0  0
  7  8  1  0  0  0  0
  7 12  1  0  0  0  0
  8  9  1  0  0  0  0
  8 11  1  0  0  0  0
  8 13  1  0  0  0  0
  9 10  2  0  0  0  0
  9 17  1  0  0  0  0
 11 14  1  0  0  0  0
 11 15  1  0  0  0  0
 11 16  1  0  0  0  0
 17 18  1  0  0  0  0
 17 23  1  0  0  0  0
 18 19  1  0  0  0  0
 18 21  1  0  0  0  0
 18 24  1  0  0  0  0
 19 20  2  0  0  0  0
 19 28  1  0  0  0  0
 21 22  1  0  0  0  0
 21 25  1  0  0  0  0
 21 26  1  0  0  0  0
 22 27  1  0  0  0  0
 28 29  1  0  0  0  0
 28 33  1  0  0  0  0
 29 30  1  0  0  0  0
 29 32  1  0  0  0  0
 29 34  1  0  0  0  0
 30 31  2  0  0  0  0
 30 38  1  0  0  0  0
 32 35  1  0  0  0  0
 32 36  1  0  0  0  0
 32 37  1  0  0  0  0
 38 39  1  0  0  0  0
 38 40  1  0  0  0  0
 39 41  1  0  0  0  0
 39 42  1  0  0  0  0
 39 43  1  0  0  0  0
M  END
$$$$

  -OEChem-05262216003D

 43 42  0     1  0  0  0  0  0999 V2000
   -3.3179   -4.9034    1.2486 C   0  0  0  0  0  0  0  0  0  0  0  0
   -2.5344   -5.3779    2.0562 O   0  0  0  0  0  0  0  0  0  0  0  0
   -4.7838   -5.2918    1.2893 C   0  0  0  0  0  0  0  0  0  0  0  0
   -5.0640   -5.7847    0.3554 H   0  0  0  0  0  0  0  0  0  0  0  0
   -4.9698   -5.9779    2.1202 H   0  0  0  0  0  0  0  0  0  0  0  0
   -5.4020   -4.4010    1.4235 H   0  0  0  0  0  0  0  0  0  0  0  0
   -2.8725   -4.0053    0.3022 N   0  0  0  0  0  0  0  0  0  0  0  0
   -1.5156   -3.4457    0.2642 C   0  0  2  0  0  0  0  0  0  0  0  0
   -1.5131   -2.0015   -0.2778 C   0  0  0  0  0  0  0  0  0  0  0  0
   -2.4772   -1.5762   -0.9017 O   0  0  0  0  0  0  0  0  0  0  0  0
   -0.6452   -4.3475   -0.6160 C   0  0  0  0  0  0  0  0  0  0  0  0
   -3.5746   -3.5449   -0.2767 H   0  0  0  0  0  0  0  0  0  0  0  0
   -1.0992   -3.4170    1.2770 H   0  0  0  0  0  0  0  0  0  0  0  0
   -1.0466   -4.3898   -1.6337 H   0  0  0  0  0  0  0  0  0  0  0  0
    0.3803   -3.9684   -0.6617 H   0  0  0  0  0  0  0  0  0  0  0  0
   -0.6192   -5.3632   -0.2083 H   0  0  0  0  0  0  0  0  0  0  0  0
   -0.4227   -1.1781   -0.0680 N   0  0  0  0  0  0  0  0  0  0  0  0
   -0.4343    0.2641   -0.3656 C   0  0  2  0  0  0  0  0  0  0  0  0
   -0.3468    0.5563   -1.8763 C   0  0  0  0  0  0  0  0  0  0  0  0
   -1.0990    1.3678   -2.3987 O   0  0  0  0  0  0  0  0  0  0  0  0
    0.7449    0.9245    0.3575 C   0  0  0  0  0  0  0  0  0  0  0  0
    0.5199    0.7956    2.1784 S   0  0  0  0  0  0  0  0  0  0  0  0
    0.2494   -1.5045    0.6217 H   0  0  0  0  0  0  0  0  0  0  0  0
   -1.3670    0.7081    0.0019 H   0  0  0  0  0  0  0  0  0  0  0  0
    1.6884    0.4533    0.0626 H   0  0  0  0  0  0  0  0  0  0  0  0
    0.7955    1.9822    0.0761 H   0  0  0  0  0  0  0  0  0  0  0  0
    1.5640    1.5286    2.6253 H   0  0  0  0  0  0  0  0  0  0  0  0
    0.7500    0.1108   -2.5898 N   0  0  0  0  0  0  0  0  0  0  0  0
    0.8776    0.2287   -4.0466 C   0  0  2  0  0  0  0  0  0  0  0  0
    1.5007   -1.0488   -4.6479 C   0  0  0  0  0  0  0  0  0  0  0  0
    2.0213   -1.8827   -3.9127 O   0  0  0  0  0  0  0  0  0  0  0  0
    1.7407    1.4547   -4.3561 C   0  0  0  0  0  0  0  0  0  0  0  0
    1.2678   -0.6586   -2.1660 H   0  0  0  0  0  0  0  0  0  0  0  0
   -0.1107    0.3573   -4.5017 H   0  0  0  0  0  0  0  0  0  0  0  0
    2.7395    1.3389   -3.9233 H   0  0  0  0  0  0  0  0  0  0  0  0
    1.8425    1.5904   -5.4370 H   0  0  0  0  0  0  0  0  0  0  0  0
    1.2810    2.3557   -3.9368 H   0  0  0  0  0  0  0  0  0  0  0  0
    1.4735   -1.2687   -6.0123 N   0  0  0  0  0  0  0  0  0  0  0  0
    2.0355   -2.4568   -6.6431 C   0  0  0  0  0  0  0  0  0  0  0  0
    1.0132   -0.5732   -6.5927 H   0  0  0  0  0  0  0  0  0  0  0  0
    3.1091   -2.5276   -6.4392 H   0  0  0  0  0  0  0  0  0  0  0  0
    1.5444   -3.3602   -6.2663 H   0  0  0  0  0  0  0  0  0  0  0  0
    1.8925   -2.4125   -7.7269 H   0  0  0  0  0  0  0  0  0  0  0  0
  1  2  2  0  0  0  0
  1  3  1  0  0  0  0
  1  7  1  0  0  0  0
  3  4  1  0  0  0  0
  3  5  1  0  0  0  0
  3  6  1  0  0  0  0
  7  8  1  0  0  0  0
  7 12  1  0  0  0  0
  8  9  1  0  0  0  0
  8 11  1  0  0  0  0
  8 13  1  0  0  0  0
  9 10  2  0  0  0  0
  9 17  1  0  0  0  0
 11 14  1  0  0  0  0
 11 15  1  0  0  0  0
 11 16  1  0  0  0  0
 17 18  1  0  0  0  0
 17 23  1  0  0  0  0
 18 19  1  0  0  0  0
 18 21  1  0  0  0  0
 18 24  1  0  0  0  0
 19 20  2  0  0  0  0
 19 28  1  0  0  0  0
 21 22  1  0  0  0  0
 21 25  1  0  0  0  0
 21 26  1  0  0  0  0
 22 27  1  0  0  0  0
 28 29  1  0  0  0  0
 28 33  1  0  0  0  0
 29 30  1  0  0  0  0
 29 32  1  0  0  0  0
 29 34  1  0  0  0  0
 30 31  2  0  0  0  0
 30 38  1  0  0  0  0
 32 35  1  0  0  0  0
 32 36  1  0  0  0  0
 32 37  1  0  0  0  0
 38 39  1  0  0  0  0
 38 40  1  0  0  0  0
 39 41  1  0  0  0  0
 39 42  1  0  0  0  0
 39 43  1  0  0  0  0
M  END
$$$$

  -OEChem-05262216003D

 43 42  0     1  0  0  0  0  0999 V2000
   -3.2642   -4.9010    1.2149 C   0  0  0  0  0  0  0  0  0  0  0  0
   -2.4959   -5.3355    2.0586 O   0  0  0  0  0  0  0  0  0  0  0  0
   -4.7288   -5.2954    1.2436 C   0  0  0  0  0  0  0  0  0  0  0  0
   -4.9902   -5.8245    0.3240 H   0  0  0  0  0  0  0  0  0  0  0  0
   -4.9259   -5.9512    2.0963 H   0  0  0  0  0  0  0  0  0  0  0  0
   -5.3542   -4.4038    1.3336 H   0  0  0  0  0  0  0  0  0  0  0  0
   -2.8059   -4.0392    0.2414 N   0  0  0  0  0  0  0  0  0  0  0  0
   -1.4585   -3.4560    0.2205 C   0  0  2  0  0  0  0  0  0  0  0  0
   -1.4780   -2.0032   -0.2959 C   0  0  0  0  0  0  0  0  0  0  0  0
   -2.4369   -1.5876   -0.9351 O   0  0  0  0  0  0  0  0  0  0  0  0
   -0.5697   -4.3277   -0.6716 C   0  0  0  0  0  0  0  0  0  0  0  0
   -3.5020   -3.6036   -0.3631 H   0  0  0  0  0  0  0  0  0  0  0  0
   -1.0453   -3.4371    1.2346 H   0  0  0  0  0  0  0  0  0  0  0  0
   -0.9564   -4.3478   -1.6958 H   0  0  0  0  0  0  0  0  0  0  0  0
    0.4526   -3.9384   -0.6950 H   0  0  0  0  0  0  0  0  0  0  0  0
   -0.5397   -5.3532   -0.2898 H   0  0  0  0  0  0  0  0  0  0  0  0
   -0.4075   -1.1605   -0.0610 N   0  0  0  0  0  0  0  0  0  0  0  0
   -0.4497    0.2830   -0.3533 C   0  0  2  0  0  0  0  0  0  0  0  0
   -0.3433    0.5704   -1.8625 C   0  0  0  0  0  0  0  0  0  0  0  0
   -0.9244    1.5264   -2.3586 O   0  0  0  0  0  0  0  0  0  0  0  0
    0.7125    0.9662    0.3734 C   0  0  0  0  0  0  0  0  0  0  0  0
    0.4868    0.8249    2.1937 S   0  0  0  0  0  0  0  0  0  0  0  0
    0.2553   -1.4732    0.6443 H   0  0  0  0  0  0  0  0  0  0  0  0
   -1.3955    0.7081    0.0028 H   0  0  0  0  0  0  0  0  0  0  0  0
    1.6659    0.5181    0.0748 H   0  0  0  0  0  0  0  0  0  0  0  0
    0.7395    2.0262    0.0969 H   0  0  0  0  0  0  0  0  0  0  0  0
    1.5190    1.5717    2.6462 H   0  0  0  0  0  0  0  0  0  0  0  0
    0.6017   -0.1079   -2.6077 N   0  0  0  0  0  0  0  0  0  0  0  0
    0.6520   -0.0751   -4.0728 C   0  0  2  0  0  0  0  0  0  0  0  0
    0.8403   -1.4960   -4.6461 C   0  0  0  0  0  0  0  0  0  0  0  0
    1.1582   -2.4213   -3.9040 O   0  0  0  0  0  0  0  0  0  0  0  0
    1.8036    0.8435   -4.4892 C   0  0  0  0  0  0  0  0  0  0  0  0
    0.9390   -0.9713   -2.1824 H   0  0  0  0  0  0  0  0  0  0  0  0
   -0.2879    0.3173   -4.4758 H   0  0  0  0  0  0  0  0  0  0  0  0
    2.7557    0.4603   -4.1083 H   0  0  0  0  0  0  0  0  0  0  0  0
    1.8665    0.9135   -5.5792 H   0  0  0  0  0  0  0  0  0  0  0  0
    1.6470    1.8499   -4.0875 H   0  0  0  0  0  0  0  0  0  0  0  0
    0.6522   -1.7400   -5.9940 N   0  0  0  0  0  0  0  0  0  0  0  0
    0.7956   -3.0598   -6.5964 C   0  0  0  0  0  0  0  0  0  0  0  0
    0.3489   -0.9638   -6.5754 H   0  0  0  0  0  0  0  0  0  0  0  0
    1.8016   -3.4550   -6.4194 H   0  0  0  0  0  0  0  0  0  0  0  0
    0.0635   -3.7559   -6.1734 H   0  0  0  0  0  0  0  0  0  0  0  0
    0.6346   -3.0017   -7.6773 H   0  0  0  0  0  0  0  0  0  0  0  0
  1  2  2  0  0  0  0
  1  3  1  0  0  0  0
  1  7  1  0  0  0  0
  3  4  1  0  0  0  0
  3  5  1  0  0  0  0
  3  6  1  0  0  0  0
  7  8  1  0  0  0  0
  7 12  1  0  0  0  0
  8  9  1  0  0  0  0
  8 11  1  0  0  0  0
  8 13  1  0  0  0  0
  9 10  2  0  0  0  0
  9 17  1  0  0  0  0
 11 14  1  0  0  0  0
 11 15  1  0  0  0  0
 11 16  1  0  0  0  0
 17 18  1  0  0  0  0
 17 23  1  0  0  0  0
 18 19  1  0  0  0  0
 18 21  1  0  0  0  0
 18 24  1  0  0  0  0
 19 20  2  0  0  0  0
 19 28  1  0  0  0  0
 21 22  1  0  0  0  0
 21 25  1  0  0  0  0
 21 26  1  0  0  0  0
 22 27  1  0  0  0  0
 28 29  1  0  0  0  0
 28 33  1  0  0  0  0
 29 30  1  0  0  0  0
 29 32  1  0  0  0  0
 29 34  1  0  0  0  0
 30 31  2  0  0  0  0
 30 38  1  0  0  0  0
 32 35  1  0  0  0  0
 32 36  1  0  0  0  0
 32 37  1  0  0  0  0
 38 39  1  0  0  0  0
 38 40  1  0  0  0  0
 39 41  1  0  0  0  0
 39 42  1  0  0  0  0
 39 43  1  0  0  0  0
M  END
$$$$

  -OEChem-05262216003D

 43 42  0     1  0  0  0  0  0999 V2000
   -3.2924   -4.8867    1.2587 C   0  0  0  0  0  0  0  0  0  0  0  0
   -2.5145   -5.3276    2.0903 O   0  0  0  0  0  0  0  0  0  0  0  0
   -4.7579   -5.2759    1.3049 C   0  0  0  0  0  0  0  0  0  0  0  0
   -5.0327   -5.7999    0.3865 H   0  0  0  0  0  0  0  0  0  0  0  0
   -4.9463   -5.9355    2.1567 H   0  0  0  0  0  0  0  0  0  0  0  0
   -5.3793   -4.3827    1.4071 H   0  0  0  0  0  0  0  0  0  0  0  0
   -2.8423   -4.0280    0.2785 N   0  0  0  0  0  0  0  0  0  0  0  0
   -1.4869   -3.4655    0.2275 C   0  0  2  0  0  0  0  0  0  0  0  0
   -1.4982   -2.0011   -0.2549 C   0  0  0  0  0  0  0  0  0  0  0  0
   -2.4598   -1.5597   -0.8730 O   0  0  0  0  0  0  0  0  0  0  0  0
   -0.6446   -4.3286   -0.7164 C   0  0  0  0  0  0  0  0  0  0  0  0
   -3.5432   -3.5901   -0.3183 H   0  0  0  0  0  0  0  0  0  0  0  0
   -1.0388   -3.4783    1.2268 H   0  0  0  0  0  0  0  0  0  0  0  0
   -1.0648   -4.3129   -1.7276 H   0  0  0  0  0  0  0  0  0  0  0  0
    0.3836   -3.9578   -0.7636 H   0  0  0  0  0  0  0  0  0  0  0  0
   -0.6219   -5.3645   -0.3637 H   0  0  0  0  0  0  0  0  0  0  0  0
   -0.4068   -1.1805   -0.0368 N   0  0  0  0  0  0  0  0  0  0  0  0
   -0.4237    0.2626   -0.3387 C   0  0  2  0  0  0  0  0  0  0  0  0
   -0.3289    0.5411   -1.8509 C   0  0  0  0  0  0  0  0  0  0  0  0
   -0.7027    1.6102   -2.3150 O   0  0  0  0  0  0  0  0  0  0  0  0
    0.7678    0.9190    0.3647 C   0  0  0  0  0  0  0  0  0  0  0  0
    0.5747    0.7929    2.1899 S   0  0  0  0  0  0  0  0  0  0  0  0
    0.2659   -1.5065    0.6531 H   0  0  0  0  0  0  0  0  0  0  0  0
   -1.3534    0.7131    0.0276 H   0  0  0  0  0  0  0  0  0  0  0  0
    1.7036    0.4457    0.0497 H   0  0  0  0  0  0  0  0  0  0  0  0
    0.8161    1.9768    0.0830 H   0  0  0  0  0  0  0  0  0  0  0  0
    1.6266    1.5276    2.6151 H   0  0  0  0  0  0  0  0  0  0  0  0
    0.3509   -0.3496   -2.6579 N   0  0  0  0  0  0  0  0  0  0  0  0
    0.2887   -0.3350   -4.1217 C   0  0  2  0  0  0  0  0  0  0  0  0
    0.2090   -1.7746   -4.6750 C   0  0  0  0  0  0  0  0  0  0  0  0
    0.4390   -2.7306   -3.9390 O   0  0  0  0  0  0  0  0  0  0  0  0
    1.5300    0.3878   -4.6503 C   0  0  0  0  0  0  0  0  0  0  0  0
    0.5128   -1.2651   -2.2386 H   0  0  0  0  0  0  0  0  0  0  0  0
   -0.6102    0.1963   -4.4532 H   0  0  0  0  0  0  0  0  0  0  0  0
    2.4390   -0.1369   -4.3396 H   0  0  0  0  0  0  0  0  0  0  0  0
    1.5105    0.4370   -5.7430 H   0  0  0  0  0  0  0  0  0  0  0  0
    1.5664    1.4098   -4.2599 H   0  0  0  0  0  0  0  0  0  0  0  0
   -0.1232   -2.0021   -5.9978 N   0  0  0  0  0  0  0  0  0  0  0  0
   -0.2291   -3.3351   -6.5786 C   0  0  0  0  0  0  0  0  0  0  0  0
   -0.3407   -1.1946   -6.5748 H   0  0  0  0  0  0  0  0  0  0  0  0
    0.7290   -3.8609   -6.5070 H   0  0  0  0  0  0  0  0  0  0  0  0
   -0.9927   -3.9212   -6.0565 H   0  0  0  0  0  0  0  0  0  0  0  0
   -0.5082   -3.2673   -7.6346 H   0  0  0  0  0  0  0  0  0  0  0  0
  1  2  2  0  0  0  0
  1  3  1  0  0  0  0
  1  7  1  0  0  0  0
  3  4  1  0  0  0  0
  3  5  1  0  0  0  0
  3  6  1  0  0  0  0
  7  8  1  0  0  0  0
  7 12  1  0  0  0  0
  8  9  1  0  0  0  0
  8 11  1  0  0  0  0
  8 13  1  0  0  0  0
  9 10  2  0  0  0  0
  9 17  1  0  0  0  0
 11 14  1  0  0  0  0
 11 15  1  0  0  0  0
 11 16  1  0  0  0  0
 17 18  1  0  0  0  0
 17 23  1  0  0  0  0
 18 19  1  0  0  0  0
 18 21  1  0  0  0  0
 18 24  1  0  0  0  0
 19 20  2  0  0  0  0
 19 28  1  0  0  0  0
 21 22  1  0  0  0  0
 21 25  1  0  0  0  0
 21 26  1  0  0  0  0
 22 27  1  0  0  0  0
 28 29  1  0  0  0  0
 28 33  1  0  0  0  0
 29 30  1  0  0  0  0
 29 32  1  0  0  0  0
 29 34  1  0  0  0  0
 30 31  2  0  0  0  0
 30 38  1  0  0  0  0
 32 35  1  0  0  0  0
 32 36  1  0  0  0  0
 32 37  1  0  0  0  0
 38 39  1  0  0  0  0
 38 40  1  0  0  0  0
 39 41  1  0  0  0  0
 39 42  1  0  0  0  0
 39 43  1  0  0  0  0
M  END
$$$$

  -OEChem-05262216003D

 43 42  0     1  0  0  0  0  0999 V2000
   -3.3473   -4.8754    1.3769 C   0  0  0  0  0  0  0  0  0  0  0  0
   -2.5668   -5.3190    2.2046 O   0  0  0  0  0  0  0  0  0  0  0  0
   -4.8157   -5.2525    1.4360 C   0  0  0  0  0  0  0  0  0  0  0  0
   -5.1225   -5.7081    0.4914 H   0  0  0  0  0  0  0  0  0  0  0  0
   -4.9892   -5.9682    2.2446 H   0  0  0  0  0  0  0  0  0  0  0  0
   -5.4223   -4.3618    1.6176 H   0  0  0  0  0  0  0  0  0  0  0  0
   -2.8981   -4.0231    0.3908 N   0  0  0  0  0  0  0  0  0  0  0  0
   -1.5348   -3.4827    0.3172 C   0  0  2  0  0  0  0  0  0  0  0  0
   -1.5275   -2.0264   -0.1891 C   0  0  0  0  0  0  0  0  0  0  0  0
   -2.4937   -1.5745   -0.7923 O   0  0  0  0  0  0  0  0  0  0  0  0
   -0.7168   -4.3742   -0.6221 C   0  0  0  0  0  0  0  0  0  0  0  0
   -3.5986   -3.5868   -0.2078 H   0  0  0  0  0  0  0  0  0  0  0  0
   -1.0759   -3.4874    1.3119 H   0  0  0  0  0  0  0  0  0  0  0  0
   -1.1497   -4.3710   -1.6283 H   0  0  0  0  0  0  0  0  0  0  0  0
    0.3162   -4.0195   -0.6887 H   0  0  0  0  0  0  0  0  0  0  0  0
   -0.7043   -5.4041   -0.2513 H   0  0  0  0  0  0  0  0  0  0  0  0
   -0.4133   -1.2248   -0.0188 N   0  0  0  0  0  0  0  0  0  0  0  0
   -0.4096    0.2135   -0.3484 C   0  0  2  0  0  0  0  0  0  0  0  0
   -0.3531    0.4833   -1.8669 C   0  0  0  0  0  0  0  0  0  0  0  0
   -0.5091    1.6163   -2.3040 O   0  0  0  0  0  0  0  0  0  0  0  0
    0.8176    0.8451    0.3175 C   0  0  0  0  0  0  0  0  0  0  0  0
    0.6641    0.7474    2.1484 S   0  0  0  0  0  0  0  0  0  0  0  0
    0.2756   -1.5519    0.6546 H   0  0  0  0  0  0  0  0  0  0  0  0
   -1.3161    0.6905    0.0407 H   0  0  0  0  0  0  0  0  0  0  0  0
    1.7311    0.3403   -0.0142 H   0  0  0  0  0  0  0  0  0  0  0  0
    0.8918    1.8977    0.0223 H   0  0  0  0  0  0  0  0  0  0  0  0
    1.7421    1.4628    2.5399 H   0  0  0  0  0  0  0  0  0  0  0  0
   -0.0036   -0.5344   -2.7320 N   0  0  0  0  0  0  0  0  0  0  0  0
   -0.1343   -0.4701   -4.1895 C   0  0  2  0  0  0  0  0  0  0  0  0
   -0.4529   -1.8674   -4.7640 C   0  0  0  0  0  0  0  0  0  0  0  0
   -0.3136   -2.8677   -4.0652 O   0  0  0  0  0  0  0  0  0  0  0  0
    1.1715    0.0739   -4.7773 C   0  0  0  0  0  0  0  0  0  0  0  0
   -0.0256   -1.4710   -2.3291 H   0  0  0  0  0  0  0  0  0  0  0  0
   -0.9612    0.1966   -4.4568 H   0  0  0  0  0  0  0  0  0  0  0  0
    2.0085   -0.5840   -4.5222 H   0  0  0  0  0  0  0  0  0  0  0  0
    1.1034    0.1454   -5.8669 H   0  0  0  0  0  0  0  0  0  0  0  0
    1.3792    1.0723   -4.3793 H   0  0  0  0  0  0  0  0  0  0  0  0
   -0.8995   -2.0077   -6.0650 N   0  0  0  0  0  0  0  0  0  0  0  0
   -1.2403   -3.2952   -6.6576 C   0  0  0  0  0  0  0  0  0  0  0  0
   -1.0398   -1.1612   -6.6088 H   0  0  0  0  0  0  0  0  0  0  0  0
   -0.3775   -3.9690   -6.6318 H   0  0  0  0  0  0  0  0  0  0  0  0
   -2.0677   -3.7609   -6.1121 H   0  0  0  0  0  0  0  0  0  0  0  0
   -1.5437   -3.1637   -7.7006 H   0  0  0  0  0  0  0  0  0  0  0  0
  1  2  2  0  0  0  0
  1  3  1  0  0  0  0
  1  7  1  0  0  0  0
  3  4  1  0  0  0  0
  3  5  1  0  0  0  0
  3  6  1  0  0  0  0
  7  8  1  0  0  0  0
  7 12  1  0  0  0  0
  8  9  1  0  0  0  0
  8 11  1  0  0  0  0
  8 13  1  0  0  0  0
  9 10  2  0  0  0  0
  9 17  1  0  0  0  0
 11 14  1  0  0  0  0
 11 15  1  0  0  0  0
 11 16  1  0  0  0  0
 17 18  1  0  0  0  0
 17 23  1  0  0  0  0
 18 19  1  0  0  0  0
 18 21  1  0  0  0  0
 18 24  1  0  0  0  0
 19 20  2  0  0  0  0
 19 28  1  0  0  0  0
 21 22  1  0  0  0  0
 21 25  1  0  0  0  0
 21 26  1  0  0  0  0
 22 27  1  0  0  0  0
 28 29  1  0  0  0  0
 28 33  1  0  0  0  0
 29 30  1  0  0  0  0
 29 32  1  0  0  0  0
 29 34  1  0  0  0  0
 30 31  2  0  0  0  0
 30 38  1  0  0  0  0
 32 35  1  0  0  0  0
 32 36  1  0  0  0  0
 32 37  1  0  0  0  0
 38 39  1  0  0  0  0
 38 40  1  0  0  0  0
 39 41  1  0  0  0  0
 39 42  1  0  0  0  0
 39 43  1  0  0  0  0
M  END
$$$$

  -OEChem-05262216003D

 43 42  0     1  0  0  0  0  0999 V2000
   -3.3467   -4.8976    1.4724 C   0  0  0  0  0  0  0  0  0  0  0  0
   -2.5568   -5.3431    2.2897 O   0  0  0  0  0  0  0  0  0  0  0  0
   -4.8141   -5.2754    1.5467 C   0  0  0  0  0  0  0  0  0  0  0  0
   -5.1250   -5.7482    0.6120 H   0  0  0  0  0  0  0  0  0  0  0  0
   -4.9817   -5.9765    2.3690 H   0  0  0  0  0  0  0  0  0  0  0  0
   -5.4218   -4.3830    1.7153 H   0  0  0  0  0  0  0  0  0  0  0  0
   -2.9079   -4.0421    0.4847 N   0  0  0  0  0  0  0  0  0  0  0  0
   -1.5481   -3.4945    0.4031 C   0  0  2  0  0  0  0  0  0  0  0  0
   -1.5547   -2.0370   -0.1001 C   0  0  0  0  0  0  0  0  0  0  0  0
   -2.5422   -1.5789   -0.6625 O   0  0  0  0  0  0  0  0  0  0  0  0
   -0.7347   -4.3807   -0.5456 C   0  0  0  0  0  0  0  0  0  0  0  0
   -3.6147   -3.6065   -0.1069 H   0  0  0  0  0  0  0  0  0  0  0  0
   -1.0821   -3.4984    1.3945 H   0  0  0  0  0  0  0  0  0  0  0  0
   -1.1747   -4.3734   -1.5486 H   0  0  0  0  0  0  0  0  0  0  0  0
    0.2973   -4.0250   -0.6178 H   0  0  0  0  0  0  0  0  0  0  0  0
   -0.7188   -5.4123   -0.1800 H   0  0  0  0  0  0  0  0  0  0  0  0
   -0.4259   -1.2444    0.0002 N   0  0  0  0  0  0  0  0  0  0  0  0
   -0.4169    0.1896   -0.3505 C   0  0  2  0  0  0  0  0  0  0  0  0
   -0.4314    0.4498   -1.8755 C   0  0  0  0  0  0  0  0  0  0  0  0
   -0.3330    1.5898   -2.3125 O   0  0  0  0  0  0  0  0  0  0  0  0
    0.8473    0.8049    0.2637 C   0  0  0  0  0  0  0  0  0  0  0  0
    0.7628    0.7299    2.1004 S   0  0  0  0  0  0  0  0  0  0  0  0
    0.3062   -1.5792    0.6220 H   0  0  0  0  0  0  0  0  0  0  0  0
   -1.2979    0.6825    0.0750 H   0  0  0  0  0  0  0  0  0  0  0  0
    1.7384    0.2820   -0.0986 H   0  0  0  0  0  0  0  0  0  0  0  0
    0.9301    1.8540   -0.0408 H   0  0  0  0  0  0  0  0  0  0  0  0
    1.8644    1.4356    2.4411 H   0  0  0  0  0  0  0  0  0  0  0  0
   -0.4507   -0.6082   -2.7628 N   0  0  0  0  0  0  0  0  0  0  0  0
   -0.5840   -0.4928   -4.2172 C   0  0  2  0  0  0  0  0  0  0  0  0
   -1.2023   -1.7759   -4.8132 C   0  0  0  0  0  0  0  0  0  0  0  0
   -1.2296   -2.8128   -4.1566 O   0  0  0  0  0  0  0  0  0  0  0  0
    0.8004   -0.2397   -4.8230 C   0  0  0  0  0  0  0  0  0  0  0  0
   -0.7112   -1.5092   -2.3609 H   0  0  0  0  0  0  0  0  0  0  0  0
   -1.2484    0.3435   -4.4588 H   0  0  0  0  0  0  0  0  0  0  0  0
    1.4775   -1.0659   -4.5836 H   0  0  0  0  0  0  0  0  0  0  0  0
    0.7328   -0.1474   -5.9111 H   0  0  0  0  0  0  0  0  0  0  0  0
    1.2270    0.6867   -4.4259 H   0  0  0  0  0  0  0  0  0  0  0  0
   -1.7241   -1.7728   -6.0938 N   0  0  0  0  0  0  0  0  0  0  0  0
   -2.3369   -2.9432   -6.7108 C   0  0  0  0  0  0  0  0  0  0  0  0
   -1.7074   -0.8965   -6.6075 H   0  0  0  0  0  0  0  0  0  0  0  0
   -1.6167   -3.7661   -6.7715 H   0  0  0  0  0  0  0  0  0  0  0  0
   -3.2024   -3.2747   -6.1272 H   0  0  0  0  0  0  0  0  0  0  0  0
   -2.6741   -2.7041   -7.7242 H   0  0  0  0  0  0  0  0  0  0  0  0
  1  2  2  0  0  0  0
  1  3  1  0  0  0  0
  1  7  1  0  0  0  0
  3  4  1  0  0  0  0
  3  5  1  0  0  0  0
  3  6  1  0  0  0  0
  7  8  1  0  0  0  0
  7 12  1  0  0  0  0
  8  9  1  0  0  0  0
  8 11  1  0  0  0  0
  8 13  1  0  0  0  0
  9 10  2  0  0  0  0
  9 17  1  0  0  0  0
 11 14  1  0  0  0  0
 11 15  1  0  0  0  0
 11 16  1  0  0  0  0
 17 18  1  0  0  0  0
 17 23  1  0  0  0  0
 18 19  1  0  0  0  0
 18 21  1  0  0  0  0
 18 24  1  0  0  0  0
 19 20  2  0  0  0  0
 19 28  1  0  0  0  0
 21 22  1  0  0  0  0
 21 25  1  0  0  0  0
 21 26  1  0  0  0  0
 22 27  1  0  0  0  0
 28 29  1  0  0  0  0
 28 33  1  0  0  0  0
 29 30  1  0  0  0  0
 29 32  1  0  0  0  0
 29 34  1  0  0  0  0
 30 31  2  0  0  0  0
 30 38  1  0  0  0  0
 32 35  1  0  0  0  0
 32 36  1  0  0  0  0
 32 37  1  0  0  0  0
 38 39  1  0  0  0  0
 38 40  1  0  0  0  0
 39 41  1  0  0  0  0
 39 42  1  0  0  0  0
 39 43  1  0  0  0  0
M  END
$$$$

  -OEChem-05262216003D

 43 42  0     1  0  0  0  0  0999 V2000
   -3.3113   -4.9463    1.4945 C   0  0  0  0  0  0  0  0  0  0  0  0
   -2.5026   -5.4082    2.2842 O   0  0  0  0  0  0  0  0  0  0  0  0
   -4.7685   -5.3624    1.5647 C   0  0  0  0  0  0  0  0  0  0  0  0
   -5.0755   -5.8067    0.6148 H   0  0  0  0  0  0  0  0  0  0  0  0
   -4.9126   -6.0986    2.3605 H   0  0  0  0  0  0  0  0  0  0  0  0
   -5.3956   -4.4918    1.7720 H   0  0  0  0  0  0  0  0  0  0  0  0
   -2.9023   -4.0397    0.5402 N   0  0  0  0  0  0  0  0  0  0  0  0
   -1.5491   -3.4766    0.4544 C   0  0  2  0  0  0  0  0  0  0  0  0
   -1.5698   -2.0179   -0.0450 C   0  0  0  0  0  0  0  0  0  0  0  0
   -2.5778   -1.5509   -0.5620 O   0  0  0  0  0  0  0  0  0  0  0  0
   -0.7296   -4.3536   -0.4975 C   0  0  0  0  0  0  0  0  0  0  0  0
   -3.6228   -3.6008   -0.0327 H   0  0  0  0  0  0  0  0  0  0  0  0
   -1.0812   -3.4773    1.4447 H   0  0  0  0  0  0  0  0  0  0  0  0
   -1.1726   -4.3486   -1.4994 H   0  0  0  0  0  0  0  0  0  0  0  0
    0.2991   -3.9888   -0.5704 H   0  0  0  0  0  0  0  0  0  0  0  0
   -0.7034   -5.3854   -0.1331 H   0  0  0  0  0  0  0  0  0  0  0  0
   -0.4320   -1.2340    0.0000 N   0  0  0  0  0  0  0  0  0  0  0  0
   -0.4115    0.1990   -0.3557 C   0  0  2  0  0  0  0  0  0  0  0  0
   -0.4854    0.4615   -1.8824 C   0  0  0  0  0  0  0  0  0  0  0  0
   -0.1309    1.5375   -2.3498 O   0  0  0  0  0  0  0  0  0  0  0  0
    0.8824    0.7872    0.2272 C   0  0  0  0  0  0  0  0  0  0  0  0
    0.8438    0.7121    2.0658 S   0  0  0  0  0  0  0  0  0  0  0  0
    0.3340   -1.5850    0.5694 H   0  0  0  0  0  0  0  0  0  0  0  0
   -1.2684    0.7056    0.1014 H   0  0  0  0  0  0  0  0  0  0  0  0
    1.7528    0.2473   -0.1596 H   0  0  0  0  0  0  0  0  0  0  0  0
    0.9808    1.8356   -0.0750 H   0  0  0  0  0  0  0  0  0  0  0  0
    1.9755    1.3833    2.3758 H   0  0  0  0  0  0  0  0  0  0  0  0
   -0.8679   -0.5426   -2.7506 N   0  0  0  0  0  0  0  0  0  0  0  0
   -1.0169   -0.4048   -4.2027 C   0  0  2  0  0  0  0  0  0  0  0  0
   -1.9414   -1.5011   -4.7744 C   0  0  0  0  0  0  0  0  0  0  0  0
   -2.1494   -2.5317   -4.1422 O   0  0  0  0  0  0  0  0  0  0  0  0
    0.3661   -0.4942   -4.8578 C   0  0  0  0  0  0  0  0  0  0  0  0
   -1.3552   -1.3306   -2.3165 H   0  0  0  0  0  0  0  0  0  0  0  0
   -1.4671    0.5669   -4.4305 H   0  0  0  0  0  0  0  0  0  0  0  0
    0.8336   -1.4575   -4.6299 H   0  0  0  0  0  0  0  0  0  0  0  0
    0.2832   -0.3946   -5.9442 H   0  0  0  0  0  0  0  0  0  0  0  0
    1.0173    0.3043   -4.4892 H   0  0  0  0  0  0  0  0  0  0  0  0
   -2.5339   -1.3388   -6.0133 N   0  0  0  0  0  0  0  0  0  0  0  0
   -3.4232   -2.3280   -6.6101 C   0  0  0  0  0  0  0  0  0  0  0  0
   -2.3645   -0.4669   -6.5060 H   0  0  0  0  0  0  0  0  0  0  0  0
   -2.9123   -3.2912   -6.7144 H   0  0  0  0  0  0  0  0  0  0  0  0
   -4.3133   -2.4670   -5.9875 H   0  0  0  0  0  0  0  0  0  0  0  0
   -3.7429   -1.9986   -7.6034 H   0  0  0  0  0  0  0  0  0  0  0  0
  1  2  2  0  0  0  0
  1  3  1  0  0  0  0
  1  7  1  0  0  0  0
  3  4  1  0  0  0  0
  3  5  1  0  0  0  0
  3  6  1  0  0  0  0
  7  8  1  0  0  0  0
  7 12  1  0  0  0  0
  8  9  1  0  0  0  0
  8 11  1  0  0  0  0
  8 13  1  0  0  0  0
  9 10  2  0  0  0  0
  9 17  1  0  0  0  0
 11 14  1  0  0  0  0
 11 15  1  0  0  0  0
 11 16  1  0  0  0  0
 17 18  1  0  0  0  0
 17 23  1  0  0  0  0
 18 19  1  0  0  0  0
 18 21  1  0  0  0  0
 18 24  1  0  0  0  0
 19 20  2  0  0  0  0
 19 28  1  0  0  0  0
 21 22  1  0  0  0  0
 21 25  1  0  0  0  0
 21 26  1  0  0  0  0
 22 27  1  0  0  0  0
 28 29  1  0  0  0  0
 28 33  1  0  0  0  0
 29 30  1  0  0  0  0
 29 32  1  0  0  0  0
 29 34  1  0  0  0  0
 30 31  2  0  0  0  0
 30 38  1  0  0  0  0
 32 35  1  0  0  0  0
 32 36  1  0  0  0  0
 32 37  1  0  0  0  0
 38 39  1  0  0  0  0
 38 40  1  0  0  0  0
 39 41  1  0  0  0  0
 39 42  1  0  0  0  0
 39 43  1  0  0  0  0
M  END
$$$$

  -OEChem-05262216003D

 43 42  0     1  0  0  0  0  0999 V2000
   -3.2727   -5.0075    1.4222 C   0  0  0  0  0  0  0  0  0  0  0  0
   -2.4349   -5.5415    2.1320 O   0  0  0  0  0  0  0  0  0  0  0  0
   -4.7248   -5.4402    1.4956 C   0  0  0  0  0  0  0  0  0  0  0  0
   -5.0484   -5.8231    0.5245 H   0  0  0  0  0  0  0  0  0  0  0  0
   -4.8461   -6.2278    2.2445 H   0  0  0  0  0  0  0  0  0  0  0  0
   -5.3538   -4.5908    1.7727 H   0  0  0  0  0  0  0  0  0  0  0  0
   -2.8989   -4.0080    0.5501 N   0  0  0  0  0  0  0  0  0  0  0  0
   -1.5464   -3.4449    0.4555 C   0  0  2  0  0  0  0  0  0  0  0  0
   -1.5764   -1.9693    0.0068 C   0  0  0  0  0  0  0  0  0  0  0  0
   -2.6126   -1.4679   -0.4146 O   0  0  0  0  0  0  0  0  0  0  0  0
   -0.7470   -4.2893   -0.5426 C   0  0  0  0  0  0  0  0  0  0  0  0
   -3.6380   -3.5243    0.0402 H   0  0  0  0  0  0  0  0  0  0  0  0
   -1.0608   -3.4806    1.4369 H   0  0  0  0  0  0  0  0  0  0  0  0
   -1.2116   -4.2499   -1.5336 H   0  0  0  0  0  0  0  0  0  0  0  0
    0.2803   -3.9224   -0.6241 H   0  0  0  0  0  0  0  0  0  0  0  0
   -0.7138   -5.3331   -0.2147 H   0  0  0  0  0  0  0  0  0  0  0  0
   -0.4286   -1.1991    0.0102 N   0  0  0  0  0  0  0  0  0  0  0  0
   -0.3925    0.2324   -0.3481 C   0  0  2  0  0  0  0  0  0  0  0  0
   -0.5107    0.4899   -1.8745 C   0  0  0  0  0  0  0  0  0  0  0  0
    0.0621    1.4386   -2.3985 O   0  0  0  0  0  0  0  0  0  0  0  0
    0.9208    0.8017    0.2124 C   0  0  0  0  0  0  0  0  0  0  0  0
    0.9103    0.7288    2.0514 S   0  0  0  0  0  0  0  0  0  0  0  0
    0.3758   -1.5841    0.4981 H   0  0  0  0  0  0  0  0  0  0  0  0
   -1.2294    0.7524    0.1303 H   0  0  0  0  0  0  0  0  0  0  0  0
    1.7763    0.2481   -0.1883 H   0  0  0  0  0  0  0  0  0  0  0  0
    1.0308    1.8486   -0.0908 H   0  0  0  0  0  0  0  0  0  0  0  0
    2.0711    1.3569    2.3422 H   0  0  0  0  0  0  0  0  0  0  0  0
   -1.2165   -0.3776   -2.6862 N   0  0  0  0  0  0  0  0  0  0  0  0
   -1.4014   -0.2367   -4.1353 C   0  0  2  0  0  0  0  0  0  0  0  0
   -2.5968   -1.0737   -4.6392 C   0  0  0  0  0  0  0  0  0  0  0  0
   -2.9849   -2.0487   -4.0053 O   0  0  0  0  0  0  0  0  0  0  0  0
   -0.1220   -0.6870   -4.8509 C   0  0  0  0  0  0  0  0  0  0  0  0
   -1.8261   -1.0447   -2.2010 H   0  0  0  0  0  0  0  0  0  0  0  0
   -1.6025    0.8134   -4.3714 H   0  0  0  0  0  0  0  0  0  0  0  0
    0.0975   -1.7331   -4.6147 H   0  0  0  0  0  0  0  0  0  0  0  0
   -0.2349   -0.5909   -5.9348 H   0  0  0  0  0  0  0  0  0  0  0  0
    0.7296   -0.0743   -4.5400 H   0  0  0  0  0  0  0  0  0  0  0  0
   -3.2255   -0.7499   -5.8279 N   0  0  0  0  0  0  0  0  0  0  0  0
   -4.3516   -1.5028   -6.3674 C   0  0  0  0  0  0  0  0  0  0  0  0
   -2.8896    0.0647   -6.3329 H   0  0  0  0  0  0  0  0  0  0  0  0
   -4.0549   -2.5352   -6.5801 H   0  0  0  0  0  0  0  0  0  0  0  0
   -5.1824   -1.5150   -5.6538 H   0  0  0  0  0  0  0  0  0  0  0  0
   -4.7023   -1.0452   -7.2975 H   0  0  0  0  0  0  0  0  0  0  0  0
  1  2  2  0  0  0  0
  1  3  1  0  0  0  0
  1  7  1  0  0  0  0
  3  4  1  0  0  0  0
  3  5  1  0  0  0  0
  3  6  1  0  0  0  0
  7  8  1  0  0  0  0
  7 12  1  0  0  0  0
  8  9  1  0  0  0  0
  8 11  1  0  0  0  0
  8 13  1  0  0  0  0
  9 10  2  0  0  0  0
  9 17  1  0  0  0  0
 11 14  1  0  0  0  0
 11 15  1  0  0  0  0
 11 16  1  0  0  0  0
 17 18  1  0  0  0  0
 17 23  1  0  0  0  0
 18 19  1  0  0  0  0
 18 21  1  0  0  0  0
 18 24  1  0  0  0  0
 19 20  2  0  0  0  0
 19 28  1  0  0  0  0
 21 22  1  0  0  0  0
 21 25  1  0  0  0  0
 21 26  1  0  0  0  0
 22 27  1  0  0  0  0
 28 29  1  0  0  0  0
 28 33  1  0  0  0  0
 29 30  1  0  0  0  0
 29 32  1  0  0  0  0
 29 34  1  0  0  0  0
 30 31  2  0  0  0  0
 30 38  1  0  0  0  0
 32 35  1  0  0  0  0
 32 36  1  0  0  0  0
 32 37  1  0  0  0  0
 38 39  1  0  0  0  0
 38 40  1  0  0  0  0
 39 41  1  0  0  0  0
 39 42  1  0  0  0  0
 39 43  1  0  0  0  0
M  END
$$$$

  -OEChem-05262216003D

 43 42  0     1  0  0  0  0  0999 V2000
   -3.2291   -5.0592    1.3698 C   0  0  0  0  0  0  0  0  0  0  0  0
   -2.3834   -5.6098    2.0574 O   0  0  0  0  0  0  0  0  0  0  0  0
   -4.6817   -5.4886    1.4556 C   0  0  0  0  0  0  0  0  0  0  0  0
   -5.0395   -5.7934    0.4691 H   0  0  0  0  0  0  0  0  0  0  0  0
   -4.7861   -6.3316    2.1444 H   0  0  0  0  0  0  0  0  0  0  0  0
   -5.2946   -4.6595    1.8172 H   0  0  0  0  0  0  0  0  0  0  0  0
   -2.8655   -4.0384    0.5180 N   0  0  0  0  0  0  0  0  0  0  0  0
   -1.5213   -3.4510    0.4498 C   0  0  2  0  0  0  0  0  0  0  0  0
   -1.5722   -1.9733    0.0082 C   0  0  0  0  0  0  0  0  0  0  0  0
   -2.6300   -1.4699   -0.3530 O   0  0  0  0  0  0  0  0  0  0  0  0
   -0.6818   -4.2780   -0.5304 C   0  0  0  0  0  0  0  0  0  0  0  0
   -3.6145   -3.5303    0.0468 H   0  0  0  0  0  0  0  0  0  0  0  0
   -1.0558   -3.4803    1.4410 H   0  0  0  0  0  0  0  0  0  0  0  0
   -1.1285   -4.2556   -1.5299 H   0  0  0  0  0  0  0  0  0  0  0  0
    0.3370   -3.8851   -0.5946 H   0  0  0  0  0  0  0  0  0  0  0  0
   -0.6262   -5.3192   -0.1969 H   0  0  0  0  0  0  0  0  0  0  0  0
   -0.4305   -1.1940   -0.0070 N   0  0  0  0  0  0  0  0  0  0  0  0
   -0.4098    0.2411   -0.3484 C   0  0  2  0  0  0  0  0  0  0  0  0
   -0.5648    0.5122   -1.8692 C   0  0  0  0  0  0  0  0  0  0  0  0
    0.1776    1.2978   -2.4484 O   0  0  0  0  0  0  0  0  0  0  0  0
    0.9080    0.8176    0.1954 C   0  0  0  0  0  0  0  0  0  0  0  0
    0.9357    0.7285    2.0332 S   0  0  0  0  0  0  0  0  0  0  0  0
    0.3959   -1.5868    0.4357 H   0  0  0  0  0  0  0  0  0  0  0  0
   -1.2410    0.7488    0.1528 H   0  0  0  0  0  0  0  0  0  0  0  0
    1.7610    0.2760   -0.2268 H   0  0  0  0  0  0  0  0  0  0  0  0
    1.0011    1.8680   -0.1018 H   0  0  0  0  0  0  0  0  0  0  0  0
    2.0969    1.3660    2.3027 H   0  0  0  0  0  0  0  0  0  0  0  0
   -1.5164   -0.1536   -2.6179 N   0  0  0  0  0  0  0  0  0  0  0  0
   -1.7223   -0.0037   -4.0640 C   0  0  2  0  0  0  0  0  0  0  0  0
   -3.1307   -0.4565   -4.5038 C   0  0  0  0  0  0  0  0  0  0  0  0
   -3.7487   -1.2925   -3.8555 O   0  0  0  0  0  0  0  0  0  0  0  0
   -0.6622   -0.8303   -4.8006 C   0  0  0  0  0  0  0  0  0  0  0  0
   -2.1833   -0.7364   -2.0978 H   0  0  0  0  0  0  0  0  0  0  0  0
   -1.6140    1.0514   -4.3353 H   0  0  0  0  0  0  0  0  0  0  0  0
   -0.7412   -1.8856   -4.5204 H   0  0  0  0  0  0  0  0  0  0  0  0
   -0.7937   -0.7458   -5.8834 H   0  0  0  0  0  0  0  0  0  0  0  0
    0.3424   -0.4772   -4.5490 H   0  0  0  0  0  0  0  0  0  0  0  0
   -3.6970    0.0527   -5.6588 N   0  0  0  0  0  0  0  0  0  0  0  0
   -5.0171   -0.3358   -6.1413 C   0  0  0  0  0  0  0  0  0  0  0  0
   -3.1715    0.7540   -6.1723 H   0  0  0  0  0  0  0  0  0  0  0  0
   -5.0531   -1.4131   -6.3354 H   0  0  0  0  0  0  0  0  0  0  0  0
   -5.7846   -0.0856   -5.4011 H   0  0  0  0  0  0  0  0  0  0  0  0
   -5.2498    0.1902   -7.0724 H   0  0  0  0  0  0  0  0  0  0  0  0
  1  2  2  0  0  0  0
  1  3  1  0  0  0  0
  1  7  1  0  0  0  0
  3  4  1  0  0  0  0
  3  5  1  0  0  0  0
  3  6  1  0  0  0  0
  7  8  1  0  0  0  0
  7 12  1  0  0  0  0
  8  9  1  0  0  0  0
  8 11  1  0  0  0  0
  8 13  1  0  0  0  0
  9 10  2  0  0  0  0
  9 17  1  0  0  0  0
 11 14  1  0  0  0  0
 11 15  1  0  0  0  0
 11 16  1  0  0  0  0
 17 18  1  0  0  0  0
 17 23  1  0  0  0  0
 18 19  1  0  0  0  0
 18 21  1  0  0  0  0
 18 24  1  0  0  0  0
 19 20  2  0  0  0  0
 19 28  1  0  0  0  0
 21 22  1  0  0  0  0
 21 25  1  0  0  0  0
 21 26  1  0  0  0  0
 22 27  1  0  0  0  0
 28 29  1  0  0  0  0
 28 33  1  0  0  0  0
 29 30  1  0  0  0  0
 29 32  1  0  0  0  0
 29 34  1  0  0  0  0
 30 31  2  0  0  0  0
 30 38  1  0  0  0  0
 32 35  1  0  0  0  0
 32 36  1  0  0  0  0
 32 37  1  0  0  0  0
 38 39  1  0  0  0  0
 38 40  1  0  0  0  0
 39 41  1  0  0  0  0
 39 42  1  0  0  0  0
 39 43  1  0  0  0  0
M  END
$$$$

  -OEChem-05262216003D

 43 42  0     1  0  0  0  0  0999 V2000
   -3.1896   -5.0873    1.3097 C   0  0  0  0  0  0  0  0  0  0  0  0
   -2.3102   -5.6860    1.9089 O   0  0  0  0  0  0  0  0  0  0  0  0
   -4.6384   -5.5138    1.4535 C   0  0  0  0  0  0  0  0  0  0  0  0
   -5.0585   -5.7455    0.4717 H   0  0  0  0  0  0  0  0  0  0  0  0
   -4.7086   -6.4035    2.0854 H   0  0  0  0  0  0  0  0  0  0  0  0
   -5.2209   -4.7100    1.9103 H   0  0  0  0  0  0  0  0  0  0  0  0
   -2.8652   -4.0200    0.5000 N   0  0  0  0  0  0  0  0  0  0  0  0
   -1.5177   -3.4496    0.3752 C   0  0  2  0  0  0  0  0  0  0  0  0
   -1.5700   -1.9581   -0.0165 C   0  0  0  0  0  0  0  0  0  0  0  0
   -2.6341   -1.4396   -0.3367 O   0  0  0  0  0  0  0  0  0  0  0  0
   -0.7460   -4.2527   -0.6781 C   0  0  0  0  0  0  0  0  0  0  0  0
   -3.6337   -3.4764    0.1066 H   0  0  0  0  0  0  0  0  0  0  0  0
   -0.9994   -3.5178    1.3380 H   0  0  0  0  0  0  0  0  0  0  0  0
   -1.2483   -4.1892   -1.6487 H   0  0  0  0  0  0  0  0  0  0  0  0
    0.2730   -3.8698   -0.7868 H   0  0  0  0  0  0  0  0  0  0  0  0
   -0.6863   -5.3059   -0.3853 H   0  0  0  0  0  0  0  0  0  0  0  0
   -0.4257   -1.1827   -0.0200 N   0  0  0  0  0  0  0  0  0  0  0  0
   -0.4072    0.2605   -0.3181 C   0  0  2  0  0  0  0  0  0  0  0  0
   -0.5793    0.5627   -1.8291 C   0  0  0  0  0  0  0  0  0  0  0  0
    0.2923    1.1518   -2.4598 O   0  0  0  0  0  0  0  0  0  0  0  0
    0.9138    0.8258    0.2272 C   0  0  0  0  0  0  0  0  0  0  0  0
    0.9571    0.6840    2.0617 S   0  0  0  0  0  0  0  0  0  0  0  0
    0.4121   -1.5955    0.3812 H   0  0  0  0  0  0  0  0  0  0  0  0
   -1.2321    0.7554    0.2053 H   0  0  0  0  0  0  0  0  0  0  0  0
    1.7639    0.2967   -0.2165 H   0  0  0  0  0  0  0  0  0  0  0  0
    1.0012    1.8833   -0.0461 H   0  0  0  0  0  0  0  0  0  0  0  0
    2.1264    1.3015    2.3409 H   0  0  0  0  0  0  0  0  0  0  0  0
   -1.7141    0.1560   -2.5039 N   0  0  0  0  0  0  0  0  0  0  0  0
   -1.9624    0.3437   -3.9392 C   0  0  2  0  0  0  0  0  0  0  0  0
   -3.4649    0.3059   -4.2929 C   0  0  0  0  0  0  0  0  0  0  0  0
   -4.2792   -0.1915   -3.5249 O   0  0  0  0  0  0  0  0  0  0  0  0
   -1.2163   -0.7517   -4.7094 C   0  0  0  0  0  0  0  0  0  0  0  0
   -2.4274   -0.3370   -1.9525 H   0  0  0  0  0  0  0  0  0  0  0  0
   -1.5810    1.3237   -4.2439 H   0  0  0  0  0  0  0  0  0  0  0  0
   -1.5826   -1.7405   -4.4151 H   0  0  0  0  0  0  0  0  0  0  0  0
   -1.3633   -0.6312   -5.7867 H   0  0  0  0  0  0  0  0  0  0  0  0
   -0.1426   -0.7018   -4.5026 H   0  0  0  0  0  0  0  0  0  0  0  0
   -3.9076    0.8176   -5.4996 N   0  0  0  0  0  0  0  0  0  0  0  0
   -5.3079    0.8105   -5.9062 C   0  0  0  0  0  0  0  0  0  0  0  0
   -3.2161    1.2297   -6.1188 H   0  0  0  0  0  0  0  0  0  0  0  0
   -5.6909   -0.2148   -5.9453 H   0  0  0  0  0  0  0  0  0  0  0  0
   -5.9147    1.3855   -5.1988 H   0  0  0  0  0  0  0  0  0  0  0  0
   -5.4167    1.2580   -6.8990 H   0  0  0  0  0  0  0  0  0  0  0  0
  1  2  2  0  0  0  0
  1  3  1  0  0  0  0
  1  7  1  0  0  0  0
  3  4  1  0  0  0  0
  3  5  1  0  0  0  0
  3  6  1  0  0  0  0
  7  8  1  0  0  0  0
  7 12  1  0  0  0  0
  8  9  1  0  0  0  0
  8 11  1  0  0  0  0
  8 13  1  0  0  0  0
  9 10  2  0  0  0  0
  9 17  1  0  0  0  0
 11 14  1  0  0  0  0
 11 15  1  0  0  0  0
 11 16  1  0  0  0  0
 17 18  1  0  0  0  0
 17 23  1  0  0  0  0
 18 19  1  0  0  0  0
 18 21  1  0  0  0  0
 18 24  1  0  0  0  0
 19 20  2  0  0  0  0
 19 28  1  0  0  0  0
 21 22  1  0  0  0  0
 21 25  1  0  0  0  0
 21 26  1  0  0  0  0
 22 27  1  0  0  0  0
 28 29  1  0  0  0  0
 28 33  1  0  0  0  0
 29 30  1  0  0  0  0
 29 32  1  0  0  0  0
 29 34  1  0  0  0  0
 30 31  2  0  0  0  0
 30 38  1  0  0  0  0
 32 35  1  0  0  0  0
 32 36  1  0  0  0  0
 32 37  1  0  0  0  0
 38 39  1  0  0  0  0
 38 40  1  0  0  0  0
 39 41  1  0  0  0  0
 39 42  1  0  0  0  0
 39 43  1  0  0  0  0
M  END
$$$$

  -OEChem-05262216003D

 43 42  0     1  0  0  0  0  0999 V2000
   -3.2070   -5.0498    1.2465 C   0  0  0  0  0  0  0  0  0  0  0  0
   -2.3246   -5.6654    1.8236 O   0  0  0  0  0  0  0  0  0  0  0  0
   -4.6619   -5.4270    1.4528 C   0  0  0  0  0  0  0  0  0  0  0  0
   -5.1193   -5.6883    0.4954 H   0  0  0  0  0  0  0  0  0  0  0  0
   -4.7369   -6.2862    2.1253 H   0  0  0  0  0  0  0  0  0  0  0  0
   -5.2065   -4.5875    1.8919 H   0  0  0  0  0  0  0  0  0  0  0  0
   -2.8819   -4.0023    0.4113 N   0  0  0  0  0  0  0  0  0  0  0  0
   -1.5270   -3.4572    0.2529 C   0  0  2  0  0  0  0  0  0  0  0  0
   -1.5598   -1.9549   -0.0967 C   0  0  0  0  0  0  0  0  0  0  0  0
   -2.6146   -1.4208   -0.4245 O   0  0  0  0  0  0  0  0  0  0  0  0
   -0.8101   -4.2479   -0.8466 C   0  0  0  0  0  0  0  0  0  0  0  0
   -3.6497   -3.4393    0.0451 H   0  0  0  0  0  0  0  0  0  0  0  0
   -0.9759   -3.5624    1.1937 H   0  0  0  0  0  0  0  0  0  0  0  0
   -1.3428   -4.1503   -1.7982 H   0  0  0  0  0  0  0  0  0  0  0  0
    0.2125   -3.8824   -0.9800 H   0  0  0  0  0  0  0  0  0  0  0  0
   -0.7632   -5.3089   -0.5807 H   0  0  0  0  0  0  0  0  0  0  0  0
   -0.4116   -1.1862   -0.0503 N   0  0  0  0  0  0  0  0  0  0  0  0
   -0.3983    0.2676   -0.2833 C   0  0  2  0  0  0  0  0  0  0  0  0
   -0.5581    0.6168   -1.7824 C   0  0  0  0  0  0  0  0  0  0  0  0
    0.3892    1.0252   -2.4461 O   0  0  0  0  0  0  0  0  0  0  0  0
    0.9184    0.8222    0.2805 C   0  0  0  0  0  0  0  0  0  0  0  0
    0.9750    0.6082    2.1073 S   0  0  0  0  0  0  0  0  0  0  0  0
    0.4187   -1.6137    0.3510 H   0  0  0  0  0  0  0  0  0  0  0  0
   -1.2267    0.7395    0.2563 H   0  0  0  0  0  0  0  0  0  0  0  0
    1.7712    0.3173   -0.1859 H   0  0  0  0  0  0  0  0  0  0  0  0
    0.9942    1.8891    0.0440 H   0  0  0  0  0  0  0  0  0  0  0  0
    2.1480    1.2122    2.4015 H   0  0  0  0  0  0  0  0  0  0  0  0
   -1.7929    0.5005   -2.3884 N   0  0  0  0  0  0  0  0  0  0  0  0
   -2.0649    0.7439   -3.8105 C   0  0  2  0  0  0  0  0  0  0  0  0
   -3.5544    1.0456   -4.0832 C   0  0  0  0  0  0  0  0  0  0  0  0
   -4.4139    0.7712   -3.2544 O   0  0  0  0  0  0  0  0  0  0  0  0
   -1.6246   -0.4895   -4.6076 C   0  0  0  0  0  0  0  0  0  0  0  0
   -2.5353    0.0641   -1.8294 H   0  0  0  0  0  0  0  0  0  0  0  0
   -1.4898    1.6142   -4.1433 H   0  0  0  0  0  0  0  0  0  0  0  0
   -2.1888   -1.3714   -4.2874 H   0  0  0  0  0  0  0  0  0  0  0  0
   -1.7940   -0.3361   -5.6775 H   0  0  0  0  0  0  0  0  0  0  0  0
   -0.5586   -0.6835   -4.4539 H   0  0  0  0  0  0  0  0  0  0  0  0
   -3.9400    1.6158   -5.2830 N   0  0  0  0  0  0  0  0  0  0  0  0
   -5.3290    1.9025   -5.6208 C   0  0  0  0  0  0  0  0  0  0  0  0
   -3.2124    1.8344   -5.9568 H   0  0  0  0  0  0  0  0  0  0  0  0
   -5.9214    0.9816   -5.6177 H   0  0  0  0  0  0  0  0  0  0  0  0
   -5.7623    2.6018   -4.8981 H   0  0  0  0  0  0  0  0  0  0  0  0
   -5.3925    2.3510   -6.6167 H   0  0  0  0  0  0  0  0  0  0  0  0
  1  2  2  0  0  0  0
  1  3  1  0  0  0  0
  1  7  1  0  0  0  0
  3  4  1  0  0  0  0
  3  5  1  0  0  0  0
  3  6  1  0  0  0  0
  7  8  1  0  0  0  0
  7 12  1  0  0  0  0
  8  9  1  0  0  0  0
  8 11  1  0  0  0  0
  8 13  1  0  0  0  0
  9 10  2  0  0  0  0
  9 17  1  0  0  0  0
 11 14  1  0  0  0  0
 11 15  1  0  0  0  0
 11 16  1  0  0  0  0
 17 18  1  0  0  0  0
 17 23  1  0  0  0  0
 18 19  1  0  0  0  0
 18 21  1  0  0  0  0
 18 24  1  0  0  0  0
 19 20  2  0  0  0  0
 19 28  1  0  0  0  0
 21 22  1  0  0  0  0
 21 25  1  0  0  0  0
 21 26  1  0  0  0  0
 22 27  1  0  0  0  0
 28 29  1  0  0  0  0
 28 33  1  0  0  0  0
 29 30  1  0  0  0  0
 29 32  1  0  0  0  0
 29 34  1  0  0  0  0
 30 31  2  0  0  0  0
 30 38  1  0  0  0  0
 32 35  1  0  0  0  0
 32 36  1  0  0  0  0
 32 37  1  0  0  0  0
 38 39  1  0  0  0  0
 38 40  1  0  0  0  0
 39 41  1  0  0  0  0
 39 42  1  0  0  0  0
 39 43  1  0  0  0  0
M  END
$$$$

  -OEChem-05262216003D

 43 42  0     1  0  0  0  0  0999 V2000
   -3.2306   -5.0193    1.2165 C   0  0  0  0  0  0  0  0  0  0  0  0
   -2.3591   -5.6305    1.8145 O   0  0  0  0  0  0  0  0  0  0  0  0
   -4.6901   -5.3832    1.4131 C   0  0  0  0  0  0  0  0  0  0  0  0
   -5.1344   -5.6724    0.4576 H   0  0  0  0  0  0  0  0  0  0  0  0
   -4.7784   -6.2205    2.1108 H   0  0  0  0  0  0  0  0  0  0  0  0
   -5.2369   -4.5281    1.8181 H   0  0  0  0  0  0  0  0  0  0  0  0
   -2.8899   -3.9900    0.3651 N   0  0  0  0  0  0  0  0  0  0  0  0
   -1.5301   -3.4572    0.2090 C   0  0  2  0  0  0  0  0  0  0  0  0
   -1.5500   -1.9563   -0.1476 C   0  0  0  0  0  0  0  0  0  0  0  0
   -2.5931   -1.4183   -0.5082 O   0  0  0  0  0  0  0  0  0  0  0  0
   -0.8180   -4.2583   -0.8853 C   0  0  0  0  0  0  0  0  0  0  0  0
   -3.6500   -3.4292   -0.0193 H   0  0  0  0  0  0  0  0  0  0  0  0
   -0.9818   -3.5638    1.1515 H   0  0  0  0  0  0  0  0  0  0  0  0
   -1.3489   -4.1602   -1.8376 H   0  0  0  0  0  0  0  0  0  0  0  0
    0.2074   -3.9010   -1.0191 H   0  0  0  0  0  0  0  0  0  0  0  0
   -0.7805   -5.3184   -0.6151 H   0  0  0  0  0  0  0  0  0  0  0  0
   -0.4013   -1.1918   -0.0694 N   0  0  0  0  0  0  0  0  0  0  0  0
   -0.3948    0.2637   -0.2782 C   0  0  2  0  0  0  0  0  0  0  0  0
   -0.5364    0.6279   -1.7732 C   0  0  0  0  0  0  0  0  0  0  0  0
    0.4501    0.8283   -2.4743 O   0  0  0  0  0  0  0  0  0  0  0  0
    0.9151    0.8188    0.2994 C   0  0  0  0  0  0  0  0  0  0  0  0
    0.9622    0.5756    2.1226 S   0  0  0  0  0  0  0  0  0  0  0  0
    0.4150   -1.6177    0.3611 H   0  0  0  0  0  0  0  0  0  0  0  0
   -1.2291    0.7250    0.2616 H   0  0  0  0  0  0  0  0  0  0  0  0
    1.7740    0.3250   -0.1679 H   0  0  0  0  0  0  0  0  0  0  0  0
    0.9869    1.8891    0.0778 H   0  0  0  0  0  0  0  0  0  0  0  0
    2.1351    1.1725    2.4309 H   0  0  0  0  0  0  0  0  0  0  0  0
   -1.7932    0.8089   -2.3143 N   0  0  0  0  0  0  0  0  0  0  0  0
   -2.0661    1.1283   -3.7207 C   0  0  2  0  0  0  0  0  0  0  0  0
   -3.4512    1.7816   -3.9186 C   0  0  0  0  0  0  0  0  0  0  0  0
   -4.3031    1.7260   -3.0396 O   0  0  0  0  0  0  0  0  0  0  0  0
   -1.9711   -0.1666   -4.5355 C   0  0  0  0  0  0  0  0  0  0  0  0
   -2.5826    0.4991   -1.7404 H   0  0  0  0  0  0  0  0  0  0  0  0
   -1.3157    1.8398   -4.0808 H   0  0  0  0  0  0  0  0  0  0  0  0
   -2.7106   -0.8928   -4.1828 H   0  0  0  0  0  0  0  0  0  0  0  0
   -2.1535    0.0310   -5.5959 H   0  0  0  0  0  0  0  0  0  0  0  0
   -0.9748   -0.6084   -4.4353 H   0  0  0  0  0  0  0  0  0  0  0  0
   -3.7495    2.4347   -5.1011 N   0  0  0  0  0  0  0  0  0  0  0  0
   -5.0335    3.0756   -5.3591 C   0  0  0  0  0  0  0  0  0  0  0  0
   -3.0236    2.4811   -5.8098 H   0  0  0  0  0  0  0  0  0  0  0  0
   -5.8506    2.3532   -5.2590 H   0  0  0  0  0  0  0  0  0  0  0  0
   -5.2002    3.8959   -4.6529 H   0  0  0  0  0  0  0  0  0  0  0  0
   -5.0569    3.4819   -6.3749 H   0  0  0  0  0  0  0  0  0  0  0  0
  1  2  2  0  0  0  0
  1  3  1  0  0  0  0
  1  7  1  0  0  0  0
  3  4  1  0  0  0  0
  3  5  1  0  0  0  0
  3  6  1  0  0  0  0
  7  8  1  0  0  0  0
  7 12  1  0  0  0  0
  8  9  1  0  0  0  0
  8 11  1  0  0  0  0
  8 13  1  0  0  0  0
  9 10  2  0  0  0  0
  9 17  1  0  0  0  0
 11 14  1  0  0  0  0
 11 15  1  0  0  0  0
 11 16  1  0  0  0  0
 17 18  1  0  0  0  0
 17 23  1  0  0  0  0
 18 19  1  0  0  0  0
 18 21  1  0  0  0  0
 18 24  1  0  0  0  0
 19 20  2  0  0  0  0
 19 28  1  0  0  0  0
 21 22  1  0  0  0  0
 21 25  1  0  0  0  0
 21 26  1  0  0  0  0
 22 27  1  0  0  0  0
 28 29  1  0  0  0  0
 28 33  1  0  0  0  0
 29 30  1  0  0  0  0
 29 32  1  0  0  0  0
 29 34  1  0  0  0  0
 30 31  2  0  0  0  0
 30 38  1  0  0  0  0
 32 35  1  0  0  0  0
 32 36  1  0  0  0  0
 32 37  1  0  0  0  0
 38 39  1  0  0  0  0
 38 40  1  0  0  0  0
 39 41  1  0  0  0  0
 39 42  1  0  0  0  0
 39 43  1  0  0  0  0
M  END
$$$$

  -OEChem-05262216003D

 43 42  0     1  0  0  0  0  0999 V2000
   -3.2618   -4.9906    1.1645 C   0  0  0  0  0  0  0  0  0  0  0  0
   -2.3905   -5.6261    1.7368 O   0  0  0  0  0  0  0  0  0  0  0  0
   -4.7245   -5.3213    1.3966 C   0  0  0  0  0  0  0  0  0  0  0  0
   -5.2006   -5.5923    0.4510 H   0  0  0  0  0  0  0  0  0  0  0  0
   -4.8156   -6.1620    2.0901 H   0  0  0  0  0  0  0  0  0  0  0  0
   -5.2404   -4.4569    1.8224 H   0  0  0  0  0  0  0  0  0  0  0  0
   -2.9179   -3.9613    0.3141 N   0  0  0  0  0  0  0  0  0  0  0  0
   -1.5525   -3.4474    0.1438 C   0  0  2  0  0  0  0  0  0  0  0  0
   -1.5543   -1.9337   -0.1537 C   0  0  0  0  0  0  0  0  0  0  0  0
   -2.5923   -1.3691   -0.4881 O   0  0  0  0  0  0  0  0  0  0  0  0
   -0.8840   -4.2168   -0.9995 C   0  0  0  0  0  0  0  0  0  0  0  0
   -3.6742   -3.3792   -0.0453 H   0  0  0  0  0  0  0  0  0  0  0  0
   -0.9814   -3.5998    1.0662 H   0  0  0  0  0  0  0  0  0  0  0  0
   -1.4350   -4.0679   -1.9337 H   0  0  0  0  0  0  0  0  0  0  0  0
    0.1453   -3.8749   -1.1436 H   0  0  0  0  0  0  0  0  0  0  0  0
   -0.8625   -5.2878   -0.7738 H   0  0  0  0  0  0  0  0  0  0  0  0
   -0.3962   -1.1867   -0.0520 N   0  0  0  0  0  0  0  0  0  0  0  0
   -0.3723    0.2700   -0.2434 C   0  0  2  0  0  0  0  0  0  0  0  0
   -0.4927    0.6462   -1.7349 C   0  0  0  0  0  0  0  0  0  0  0  0
    0.4818    0.5878   -2.4775 O   0  0  0  0  0  0  0  0  0  0  0  0
    0.9372    0.8155    0.3408 C   0  0  0  0  0  0  0  0  0  0  0  0
    0.9790    0.5584    2.1622 S   0  0  0  0  0  0  0  0  0  0  0  0
    0.4330   -1.6426    0.3186 H   0  0  0  0  0  0  0  0  0  0  0  0
   -1.2064    0.7315    0.2953 H   0  0  0  0  0  0  0  0  0  0  0  0
    1.7949    0.3208   -0.1276 H   0  0  0  0  0  0  0  0  0  0  0  0
    1.0137    1.8868    0.1261 H   0  0  0  0  0  0  0  0  0  0  0  0
    2.1477    1.1574    2.4814 H   0  0  0  0  0  0  0  0  0  0  0  0
   -1.6834    1.1445   -2.2241 N   0  0  0  0  0  0  0  0  0  0  0  0
   -1.9311    1.5071   -3.6246 C   0  0  2  0  0  0  0  0  0  0  0  0
   -3.1343    2.4635   -3.7705 C   0  0  0  0  0  0  0  0  0  0  0  0
   -3.9169    2.6285   -2.8414 O   0  0  0  0  0  0  0  0  0  0  0  0
   -2.1794    0.2216   -4.4226 C   0  0  0  0  0  0  0  0  0  0  0  0
   -2.4967    1.0861   -1.6088 H   0  0  0  0  0  0  0  0  0  0  0  0
   -1.0517    2.0209   -4.0268 H   0  0  0  0  0  0  0  0  0  0  0  0
   -3.0508   -0.3098   -4.0263 H   0  0  0  0  0  0  0  0  0  0  0  0
   -2.3599    0.4509   -5.4769 H   0  0  0  0  0  0  0  0  0  0  0  0
   -1.3109   -0.4412   -4.3604 H   0  0  0  0  0  0  0  0  0  0  0  0
   -3.3453    3.1432   -4.9566 N   0  0  0  0  0  0  0  0  0  0  0  0
   -4.4710    4.0443   -5.1713 C   0  0  0  0  0  0  0  0  0  0  0  0
   -2.6841    2.9903   -5.7123 H   0  0  0  0  0  0  0  0  0  0  0  0
   -5.4184    3.5057   -5.0633 H   0  0  0  0  0  0  0  0  0  0  0  0
   -4.4484    4.8646   -4.4462 H   0  0  0  0  0  0  0  0  0  0  0  0
   -4.4283    4.4713   -6.1779 H   0  0  0  0  0  0  0  0  0  0  0  0
  1  2  2  0  0  0  0
  1  3  1  0  0  0  0
  1  7  1  0  0  0  0
  3  4  1  0  0  0  0
  3  5  1  0  0  0  0
  3  6  1  0  0  0  0
  7  8  1  0  0  0  0
  7 12  1  0  0  0  0
  8  9  1  0  0  0  0
  8 11  1  0  0  0  0
  8 13  1  0  0  0  0
  9 10  2  0  0  0  0
  9 17  1  0  0  0  0
 11 14  1  0  0  0  0
 11 15  1  0  0  0  0
 11 16  1  0  0  0  0
 17 18  1  0  0  0  0
 17 23  1  0  0  0  0
 18 19  1  0  0  0  0
 18 21  1  0  0  0  0
 18 24  1  0  0  0  0
 19 20  2  0  0  0  0
 19 28  1  0  0  0  0
 21 22  1  0  0  0  0
 21 25  1  0  0  0  0
 21 26  1  0  0  0  0
 22 27  1  0  0  0  0
 28 29  1  0  0  0  0
 28 33  1  0  0  0  0
 29 30  1  0  0  0  0
 29 32  1  0  0  0  0
 29 34  1  0  0  0  0
 30 31  2  0  0  0  0
 30 38  1  0  0  0  0
 32 35  1  0  0  0  0
 32 36  1  0  0  0  0
 32 37  1  0  0  0  0
 38 39  1  0  0  0  0
 38 40  1  0  0  0  0
 39 41  1  0  0  0  0
 39 42  1  0  0  0  0
 39 43  1  0  0  0  0
M  END
$$$$

  -OEChem-05262216003D

 43 42  0     1  0  0  0  0  0999 V2000
   -3.2632   -4.9949    1.1461 C   0  0  0  0  0  0  0  0  0  0  0  0
   -2.3826   -5.6340    1.7001 O   0  0  0  0  0  0  0  0  0  0  0  0
   -4.7214   -5.3216    1.4084 C   0  0  0  0  0  0  0  0  0  0  0  0
   -5.2310   -5.5375    0.4663 H   0  0  0  0  0  0  0  0  0  0  0  0
   -4.8009   -6.1963    2.0602 H   0  0  0  0  0  0  0  0  0  0  0  0
   -5.2112   -4.4742    1.8944 H   0  0  0  0  0  0  0  0  0  0  0  0
   -2.9352   -3.9642    0.2913 N   0  0  0  0  0  0  0  0  0  0  0  0
   -1.5740   -3.4444    0.1075 C   0  0  2  0  0  0  0  0  0  0  0  0
   -1.5813   -1.9233   -0.1467 C   0  0  0  0  0  0  0  0  0  0  0  0
   -2.6220   -1.3489   -0.4536 O   0  0  0  0  0  0  0  0  0  0  0  0
   -0.9274   -4.1840   -1.0674 C   0  0  0  0  0  0  0  0  0  0  0  0
   -3.6974   -3.3773   -0.0469 H   0  0  0  0  0  0  0  0  0  0  0  0
   -0.9840   -3.6196    1.0138 H   0  0  0  0  0  0  0  0  0  0  0  0
   -1.5000   -4.0195   -1.9858 H   0  0  0  0  0  0  0  0  0  0  0  0
    0.0959   -3.8313   -1.2271 H   0  0  0  0  0  0  0  0  0  0  0  0
   -0.8936   -5.2595   -0.8656 H   0  0  0  0  0  0  0  0  0  0  0  0
   -0.4238   -1.1806   -0.0240 N   0  0  0  0  0  0  0  0  0  0  0  0
   -0.3842    0.2760   -0.2120 C   0  0  2  0  0  0  0  0  0  0  0  0
   -0.4738    0.6583   -1.7033 C   0  0  0  0  0  0  0  0  0  0  0  0
    0.4195    0.3340   -2.4789 O   0  0  0  0  0  0  0  0  0  0  0  0
    0.9246    0.8100    0.3823 C   0  0  0  0  0  0  0  0  0  0  0  0
    0.9513    0.5504    2.2039 S   0  0  0  0  0  0  0  0  0  0  0  0
    0.4233   -1.6601    0.2663 H   0  0  0  0  0  0  0  0  0  0  0  0
   -1.2219    0.7421    0.3175 H   0  0  0  0  0  0  0  0  0  0  0  0
    1.7807    0.3077   -0.0810 H   0  0  0  0  0  0  0  0  0  0  0  0
    1.0124    1.8809    0.1702 H   0  0  0  0  0  0  0  0  0  0  0  0
    2.1404    1.1040    2.5302 H   0  0  0  0  0  0  0  0  0  0  0  0
   -1.5125    1.4445   -2.1623 N   0  0  0  0  0  0  0  0  0  0  0  0
   -1.7077    1.8499   -3.5596 C   0  0  2  0  0  0  0  0  0  0  0  0
   -2.6286    3.0840   -3.6786 C   0  0  0  0  0  0  0  0  0  0  0  0
   -3.2607    3.4840   -2.7072 O   0  0  0  0  0  0  0  0  0  0  0  0
   -2.3033    0.6649   -4.3297 C   0  0  0  0  0  0  0  0  0  0  0  0
   -2.2612    1.6685   -1.5065 H   0  0  0  0  0  0  0  0  0  0  0  0
   -0.7406    2.1183   -3.9974 H   0  0  0  0  0  0  0  0  0  0  0  0
   -3.2693    0.3790   -3.9007 H   0  0  0  0  0  0  0  0  0  0  0  0
   -2.4507    0.9233   -5.3823 H   0  0  0  0  0  0  0  0  0  0  0  0
   -1.6330   -0.1991   -4.2807 H   0  0  0  0  0  0  0  0  0  0  0  0
   -2.7486    3.7549   -4.8825 N   0  0  0  0  0  0  0  0  0  0  0  0
   -3.6143    4.9132   -5.0712 C   0  0  0  0  0  0  0  0  0  0  0  0
   -2.2232    3.3978   -5.6752 H   0  0  0  0  0  0  0  0  0  0  0  0
   -4.6581    4.6486   -4.8716 H   0  0  0  0  0  0  0  0  0  0  0  0
   -3.3217    5.7249   -4.3966 H   0  0  0  0  0  0  0  0  0  0  0  0
   -3.5410    5.2765   -6.1008 H   0  0  0  0  0  0  0  0  0  0  0  0
  1  2  2  0  0  0  0
  1  3  1  0  0  0  0
  1  7  1  0  0  0  0
  3  4  1  0  0  0  0
  3  5  1  0  0  0  0
  3  6  1  0  0  0  0
  7  8  1  0  0  0  0
  7 12  1  0  0  0  0
  8  9  1  0  0  0  0
  8 11  1  0  0  0  0
  8 13  1  0  0  0  0
  9 10  2  0  0  0  0
  9 17  1  0  0  0  0
 11 14  1  0  0  0  0
 11 15  1  0  0  0  0
 11 16  1  0  0  0  0
 17 18  1  0  0  0  0
 17 23  1  0  0  0  0
 18 19  1  0  0  0  0
 18 21  1  0  0  0  0
 18 24  1  0  0  0  0
 19 20  2  0  0  0  0
 19 28  1  0  0  0  0
 21 22  1  0  0  0  0
 21 25  1  0  0  0  0
 21 26  1  0  0  0  0
 22 27  1  0  0  0  0
 28 29  1  0  0  0  0
 28 33  1  0  0  0  0
 29 30  1  0  0  0  0
 29 32  1  0  0  0  0
 29 34  1  0  0  0  0
 30 31  2  0  0  0  0
 30 38  1  0  0  0  0
 32 35  1  0  0  0  0
 32 36  1  0  0  0  0
 32 37  1  0  0  0  0
 38 39  1  0  0  0  0
 38 40  1  0  0  0  0
 39 41  1  0  0  0  0
 39 42  1  0  0  0  0
 39 43  1  0  0  0  0
M  END
$$$$

  -OEChem-05262216003D

 43 42  0     1  0  0  0  0  0999 V2000
   -3.2732   -5.0219    1.1168 C   0  0  0  0  0  0  0  0  0  0  0  0
   -2.3838   -5.6845    1.6270 O   0  0  0  0  0  0  0  0  0  0  0  0
   -4.7266   -5.3535    1.3984 C   0  0  0  0  0  0  0  0  0  0  0  0
   -5.2466   -5.5768    0.4639 H   0  0  0  0  0  0  0  0  0  0  0  0
   -4.7938   -6.2250    2.0557 H   0  0  0  0  0  0  0  0  0  0  0  0
   -5.2150   -4.5062    1.8858 H   0  0  0  0  0  0  0  0  0  0  0  0
   -2.9596   -3.9603    0.2954 N   0  0  0  0  0  0  0  0  0  0  0  0
   -1.6020   -3.4308    0.1116 C   0  0  2  0  0  0  0  0  0  0  0  0
   -1.6147   -1.8987   -0.0631 C   0  0  0  0  0  0  0  0  0  0  0  0
   -2.6660   -1.3098   -0.2986 O   0  0  0  0  0  0  0  0  0  0  0  0
   -0.9791   -4.1068   -1.1134 C   0  0  0  0  0  0  0  0  0  0  0  0
   -3.7265   -3.3539    0.0063 H   0  0  0  0  0  0  0  0  0  0  0  0
   -0.9931   -3.6513    0.9951 H   0  0  0  0  0  0  0  0  0  0  0  0
   -1.5691   -3.8930   -2.0106 H   0  0  0  0  0  0  0  0  0  0  0  0
    0.0418   -3.7474   -1.2742 H   0  0  0  0  0  0  0  0  0  0  0  0
   -0.9431   -5.1913   -0.9694 H   0  0  0  0  0  0  0  0  0  0  0  0
   -0.4497   -1.1655    0.0464 N   0  0  0  0  0  0  0  0  0  0  0  0
   -0.3961    0.2845   -0.1867 C   0  0  2  0  0  0  0  0  0  0  0  0
   -0.4707    0.6273   -1.6877 C   0  0  0  0  0  0  0  0  0  0  0  0
    0.2817    0.0747   -2.4834 O   0  0  0  0  0  0  0  0  0  0  0  0
    0.9133    0.8319    0.3925 C   0  0  0  0  0  0  0  0  0  0  0  0
    0.9369    0.6347    2.2218 S   0  0  0  0  0  0  0  0  0  0  0  0
    0.4200   -1.6726    0.1800 H   0  0  0  0  0  0  0  0  0  0  0  0
   -1.2344    0.7704    0.3238 H   0  0  0  0  0  0  0  0  0  0  0  0
    1.7678    0.3108   -0.0526 H   0  0  0  0  0  0  0  0  0  0  0  0
    1.0058    1.8953    0.1466 H   0  0  0  0  0  0  0  0  0  0  0  0
    2.1237    1.2012    2.5328 H   0  0  0  0  0  0  0  0  0  0  0  0
   -1.2952    1.6413   -2.1340 N   0  0  0  0  0  0  0  0  0  0  0  0
   -1.4040    2.0916   -3.5269 C   0  0  2  0  0  0  0  0  0  0  0  0
   -1.9764    3.5235   -3.6167 C   0  0  0  0  0  0  0  0  0  0  0  0
   -2.4246    4.0735   -2.6165 O   0  0  0  0  0  0  0  0  0  0  0  0
   -2.2981    1.1064   -4.2898 C   0  0  0  0  0  0  0  0  0  0  0  0
   -1.8915    2.1077   -1.4503 H   0  0  0  0  0  0  0  0  0  0  0  0
   -0.4087    2.1061   -3.9835 H   0  0  0  0  0  0  0  0  0  0  0  0
   -3.2987    1.0771   -3.8466 H   0  0  0  0  0  0  0  0  0  0  0  0
   -2.3891    1.4004   -5.3394 H   0  0  0  0  0  0  0  0  0  0  0  0
   -1.8739    0.0980   -4.2534 H   0  0  0  0  0  0  0  0  0  0  0  0
   -1.9827    4.2055   -4.8199 N   0  0  0  0  0  0  0  0  0  0  0  0
   -2.5319    5.5475   -4.9763 C   0  0  0  0  0  0  0  0  0  0  0  0
   -1.6177    3.7241   -5.6364 H   0  0  0  0  0  0  0  0  0  0  0  0
   -3.5997    5.5555   -4.7335 H   0  0  0  0  0  0  0  0  0  0  0  0
   -2.0156    6.2533   -4.3171 H   0  0  0  0  0  0  0  0  0  0  0  0
   -2.4102    5.8884   -6.0087 H   0  0  0  0  0  0  0  0  0  0  0  0
  1  2  2  0  0  0  0
  1  3  1  0  0  0  0
  1  7  1  0  0  0  0
  3  4  1  0  0  0  0
  3  5  1  0  0  0  0
  3  6  1  0  0  0  0
  7  8  1  0  0  0  0
  7 12  1  0  0  0  0
  8  9  1  0  0  0  0
  8 11  1  0  0  0  0
  8 13  1  0  0  0  0
  9 10  2  0  0  0  0
  9 17  1  0  0  0  0
 11 14  1  0  0  0  0
 11 15  1  0  0  0  0
 11 16  1  0  0  0  0
 17 18  1  0  0  0  0
 17 23  1  0  0  0  0
 18 19  1  0  0  0  0
 18 21  1  0  0  0  0
 18 24  1  0  0  0  0
 19 20  2  0  0  0  0
 19 28  1  0  0  0  0
 21 22  1  0  0  0  0
 21 25  1  0  0  0  0
 21 26  1  0  0  0  0
 22 27  1  0  0  0  0
 28 29  1  0  0  0  0
 28 33  1  0  0  0  0
 29 30  1  0  0  0  0
 29 32  1  0  0  0  0
 29 34  1  0  0  0  0
 30 31  2  0  0  0  0
 30 38  1  0  0  0  0
 32 35  1  0  0  0  0
 32 36  1  0  0  0  0
 32 37  1  0  0  0  0
 38 39  1  0  0  0  0
 38 40  1  0  0  0  0
 39 41  1  0  0  0  0
 39 42  1  0  0  0  0
 39 43  1  0  0  0  0
M  END
$$$$

  -OEChem-05262216003D

 43 42  0     1  0  0  0  0  0999 V2000
   -3.2360   -5.0972    1.0470 C   0  0  0  0  0  0  0  0  0  0  0  0
   -2.3186   -5.7966    1.4470 O   0  0  0  0  0  0  0  0  0  0  0  0
   -4.6732   -5.4905    1.3322 C   0  0  0  0  0  0  0  0  0  0  0  0
   -5.2102   -5.6461    0.3935 H   0  0  0  0  0  0  0  0  0  0  0  0
   -4.7020   -6.4167    1.9130 H   0  0  0  0  0  0  0  0  0  0  0  0
   -5.1702   -4.7018    1.9023 H   0  0  0  0  0  0  0  0  0  0  0  0
   -2.9684   -3.9431    0.3424 N   0  0  0  0  0  0  0  0  0  0  0  0
   -1.6244   -3.3848    0.1465 C   0  0  2  0  0  0  0  0  0  0  0  0
   -1.6572   -1.8445    0.0657 C   0  0  0  0  0  0  0  0  0  0  0  0
   -2.7227   -1.2536   -0.0856 O   0  0  0  0  0  0  0  0  0  0  0  0
   -1.0367   -3.9777   -1.1381 C   0  0  0  0  0  0  0  0  0  0  0  0
   -3.7538   -3.3274    0.1334 H   0  0  0  0  0  0  0  0  0  0  0  0
   -0.9855   -3.6524    0.9950 H   0  0  0  0  0  0  0  0  0  0  0  0
   -1.6637   -3.7223   -1.9984 H   0  0  0  0  0  0  0  0  0  0  0  0
   -0.0286   -3.5915   -1.3159 H   0  0  0  0  0  0  0  0  0  0  0  0
   -0.9788   -5.0680   -1.0600 H   0  0  0  0  0  0  0  0  0  0  0  0
   -0.4886   -1.1125    0.1451 N   0  0  0  0  0  0  0  0  0  0  0  0
   -0.4374    0.3290   -0.1414 C   0  0  2  0  0  0  0  0  0  0  0  0
   -0.5184    0.6227   -1.6531 C   0  0  0  0  0  0  0  0  0  0  0  0
    0.0230   -0.1269   -2.4595 O   0  0  0  0  0  0  0  0  0  0  0  0
    0.8775    0.8952    0.4067 C   0  0  0  0  0  0  0  0  0  0  0  0
    0.9206    0.7658    2.2413 S   0  0  0  0  0  0  0  0  0  0  0  0
    0.3824   -1.6341    0.1418 H   0  0  0  0  0  0  0  0  0  0  0  0
   -1.2728    0.8342    0.3552 H   0  0  0  0  0  0  0  0  0  0  0  0
    1.7262    0.3558   -0.0272 H   0  0  0  0  0  0  0  0  0  0  0  0
    0.9715    1.9486    0.1227 H   0  0  0  0  0  0  0  0  0  0  0  0
    2.1197    1.3239    2.5175 H   0  0  0  0  0  0  0  0  0  0  0  0
   -1.0894    1.7964   -2.1051 N   0  0  0  0  0  0  0  0  0  0  0  0
   -1.1106    2.2395   -3.5045 C   0  0  2  0  0  0  0  0  0  0  0  0
   -1.2132    3.7768   -3.6076 C   0  0  0  0  0  0  0  0  0  0  0  0
   -1.3944    4.4512   -2.5993 O   0  0  0  0  0  0  0  0  0  0  0  0
   -2.2960    1.5671   -4.2066 C   0  0  0  0  0  0  0  0  0  0  0  0
   -1.4497    2.4508   -1.4104 H   0  0  0  0  0  0  0  0  0  0  0  0
   -0.1805    1.9401   -3.9992 H   0  0  0  0  0  0  0  0  0  0  0  0
   -3.2387    1.8653   -3.7364 H   0  0  0  0  0  0  0  0  0  0  0  0
   -2.3284    1.8477   -5.2634 H   0  0  0  0  0  0  0  0  0  0  0  0
   -2.2068    0.4778   -4.1443 H   0  0  0  0  0  0  0  0  0  0  0  0
   -1.0833    4.4114   -4.8294 N   0  0  0  0  0  0  0  0  0  0  0  0
   -1.1721    5.8578   -4.9928 C   0  0  0  0  0  0  0  0  0  0  0  0
   -0.9334    3.8306   -5.6492 H   0  0  0  0  0  0  0  0  0  0  0  0
   -2.1306    6.2289   -4.6142 H   0  0  0  0  0  0  0  0  0  0  0  0
   -0.3622    6.3553   -4.4488 H   0  0  0  0  0  0  0  0  0  0  0  0
   -1.0934    6.1250   -6.0510 H   0  0  0  0  0  0  0  0  0  0  0  0
  1  2  2  0  0  0  0
  1  3  1  0  0  0  0
  1  7  1  0  0  0  0
  3  4  1  0  0  0  0
  3  5  1  0  0  0  0
  3  6  1  0  0  0  0
  7  8  1  0  0  0  0
  7 12  1  0  0  0  0
  8  9  1  0  0  0  0
  8 11  1  0  0  0  0
  8 13  1  0  0  0  0
  9 10  2  0  0  0  0
  9 17  1  0  0  0  0
 11 14  1  0  0  0  0
 11 15  1  0  0  0  0
 11 16  1  0  0  0  0
 17 18  1  0  0  0  0
 17 23  1  0  0  0  0
 18 19  1  0  0  0  0
 18 21  1  0  0  0  0
 18 24  1  0  0  0  0
 19 20  2  0  0  0  0
 19 28  1  0  0  0  0
 21 22  1  0  0  0  0
 21 25  1  0  0  0  0
 21 26  1  0  0  0  0
 22 27  1  0  0  0  0
 28 29  1  0  0  0  0
 28 33  1  0  0  0  0
 29 30  1  0  0  0  0
 29 32  1  0  0  0  0
 29 34  1  0  0  0  0
 30 31  2  0  0  0  0
 30 38  1  0  0  0  0
 32 35  1  0  0  0  0
 32 36  1  0  0  0  0
 32 37  1  0  0  0  0
 38 39  1  0  0  0  0
 38 40  1  0  0  0  0
 39 41  1  0  0  0  0
 39 42  1  0  0  0  0
 39 43  1  0  0  0  0
M  END
$$$$

  -OEChem-05262216003D

 43 42  0     1  0  0  0  0  0999 V2000
   -3.2067   -5.1154    1.0147 C   0  0  0  0  0  0  0  0  0  0  0  0
   -2.2742   -5.8234    1.3609 O   0  0  0  0  0  0  0  0  0  0  0  0
   -4.6335   -5.5415    1.3041 C   0  0  0  0  0  0  0  0  0  0  0  0
   -5.1892   -5.6437    0.3688 H   0  0  0  0  0  0  0  0  0  0  0  0
   -4.6408   -6.5027    1.8256 H   0  0  0  0  0  0  0  0  0  0  0  0
   -5.1258   -4.7958    1.9329 H   0  0  0  0  0  0  0  0  0  0  0  0
   -2.9653   -3.9264    0.3608 N   0  0  0  0  0  0  0  0  0  0  0  0
   -1.6310   -3.3525    0.1476 C   0  0  2  0  0  0  0  0  0  0  0  0
   -1.6717   -1.8104    0.1344 C   0  0  0  0  0  0  0  0  0  0  0  0
   -2.7449   -1.2205    0.0438 O   0  0  0  0  0  0  0  0  0  0  0  0
   -1.0852   -3.8840   -1.1817 C   0  0  0  0  0  0  0  0  0  0  0  0
   -3.7599   -3.3093    0.1960 H   0  0  0  0  0  0  0  0  0  0  0  0
   -0.9636   -3.6557    0.9617 H   0  0  0  0  0  0  0  0  0  0  0  0
   -1.7368   -3.5842   -2.0090 H   0  0  0  0  0  0  0  0  0  0  0  0
   -0.0814   -3.4920   -1.3715 H   0  0  0  0  0  0  0  0  0  0  0  0
   -1.0291   -4.9770   -1.1593 H   0  0  0  0  0  0  0  0  0  0  0  0
   -0.5008   -1.0794    0.2004 N   0  0  0  0  0  0  0  0  0  0  0  0
   -0.4617    0.3577   -0.1140 C   0  0  2  0  0  0  0  0  0  0  0  0
   -0.5484    0.6298   -1.6311 C   0  0  0  0  0  0  0  0  0  0  0  0
   -0.2228   -0.2338   -2.4397 O   0  0  0  0  0  0  0  0  0  0  0  0
    0.8497    0.9426    0.4264 C   0  0  0  0  0  0  0  0  0  0  0  0
    0.8931    0.8488    2.2631 S   0  0  0  0  0  0  0  0  0  0  0  0
    0.3617   -1.6073    0.1110 H   0  0  0  0  0  0  0  0  0  0  0  0
   -1.3010    0.8655    0.3735 H   0  0  0  0  0  0  0  0  0  0  0  0
    1.7012    0.3978    0.0050 H   0  0  0  0  0  0  0  0  0  0  0  0
    0.9416    1.9909    0.1233 H   0  0  0  0  0  0  0  0  0  0  0  0
    2.0828    1.4312    2.5294 H   0  0  0  0  0  0  0  0  0  0  0  0
   -0.8377    1.9000   -2.0923 N   0  0  0  0  0  0  0  0  0  0  0  0
   -0.7608    2.3231   -3.4961 C   0  0  2  0  0  0  0  0  0  0  0  0
   -0.4364    3.8278   -3.6140 C   0  0  0  0  0  0  0  0  0  0  0  0
   -0.3950    4.5285   -2.6081 O   0  0  0  0  0  0  0  0  0  0  0  0
   -2.0969    1.9969   -4.1711 C   0  0  0  0  0  0  0  0  0  0  0  0
   -0.9844    2.6353   -1.4009 H   0  0  0  0  0  0  0  0  0  0  0  0
    0.0420    1.7776   -4.0033 H   0  0  0  0  0  0  0  0  0  0  0  0
   -2.9135    2.5405   -3.6850 H   0  0  0  0  0  0  0  0  0  0  0  0
   -2.0734    2.2743   -5.2291 H   0  0  0  0  0  0  0  0  0  0  0  0
   -2.3038    0.9240   -4.1026 H   0  0  0  0  0  0  0  0  0  0  0  0
   -0.1652    4.3943   -4.8459 N   0  0  0  0  0  0  0  0  0  0  0  0
    0.1523    5.8058   -5.0257 C   0  0  0  0  0  0  0  0  0  0  0  0
   -0.2063    3.7904   -5.6618 H   0  0  0  0  0  0  0  0  0  0  0  0
   -0.6723    6.4329   -4.6705 H   0  0  0  0  0  0  0  0  0  0  0  0
    1.0588    6.0685   -4.4700 H   0  0  0  0  0  0  0  0  0  0  0  0
    0.3205    6.0237   -6.0848 H   0  0  0  0  0  0  0  0  0  0  0  0
  1  2  2  0  0  0  0
  1  3  1  0  0  0  0
  1  7  1  0  0  0  0
  3  4  1  0  0  0  0
  3  5  1  0  0  0  0
  3  6  1  0  0  0  0
  7  8  1  0  0  0  0
  7 12  1  0  0  0  0
  8  9  1  0  0  0  0
  8 11  1  0  0  0  0
  8 13  1  0  0  0  0
  9 10  2  0  0  0  0
  9 17  1  0  0  0  0
 11 14  1  0  0  0  0
 11 15  1  0  0  0  0
 11 16  1  0  0  0  0
 17 18  1  0  0  0  0
 17 23  1  0  0  0  0
 18 19  1  0  0  0  0
 18 21  1  0  0  0  0
 18 24  1  0  0  0  0
 19 20  2  0  0  0  0
 19 28  1  0  0  0  0
 21 22  1  0  0  0  0
 21 25  1  0  0  0  0
 21 26  1  0  0  0  0
 22 27  1  0  0  0  0
 28 29  1  0  0  0  0
 28 33  1  0  0  0  0
 29 30  1  0  0  0  0
 29 32  1  0  0  0  0
 29 34  1  0  0  0  0
 30 31  2  0  0  0  0
 30 38  1  0  0  0  0
 32 35  1  0  0  0  0
 32 36  1  0  0  0  0
 32 37  1  0  0  0  0
 38 39  1  0  0  0  0
 38 40  1  0  0  0  0
 39 41  1  0  0  0  0
 39 42  1  0  0  0  0
 39 43  1  0  0  0  0
M  END
$$$$

  -OEChem-05262216003D

 43 42  0     1  0  0  0  0  0999 V2000
   -3.1753   -5.1290    0.9515 C   0  0  0  0  0  0  0  0  0  0  0  0
   -2.2291   -5.8676    1.1760 O   0  0  0  0  0  0  0  0  0  0  0  0
   -4.5840   -5.5687    1.3031 C   0  0  0  0  0  0  0  0  0  0  0  0
   -5.2093   -5.5666    0.4071 H   0  0  0  0  0  0  0  0  0  0  0  0
   -4.5701   -6.5791    1.7209 H   0  0  0  0  0  0  0  0  0  0  0  0
   -5.0143   -4.8879    2.0415 H   0  0  0  0  0  0  0  0  0  0  0  0
   -2.9655   -3.8928    0.3795 N   0  0  0  0  0  0  0  0  0  0  0  0
   -1.6428   -3.3129    0.1147 C   0  0  2  0  0  0  0  0  0  0  0  0
   -1.6644   -1.7745    0.2245 C   0  0  0  0  0  0  0  0  0  0  0  0
   -2.7328   -1.1719    0.2871 O   0  0  0  0  0  0  0  0  0  0  0  0
   -1.2015   -3.7388   -1.2891 C   0  0  0  0  0  0  0  0  0  0  0  0
   -3.7628   -3.2605    0.3144 H   0  0  0  0  0  0  0  0  0  0  0  0
   -0.9219   -3.6843    0.8510 H   0  0  0  0  0  0  0  0  0  0  0  0
   -1.8970   -3.3525   -2.0416 H   0  0  0  0  0  0  0  0  0  0  0  0
   -0.2020   -3.3540   -1.5122 H   0  0  0  0  0  0  0  0  0  0  0  0
   -1.1759   -4.8306   -1.3643 H   0  0  0  0  0  0  0  0  0  0  0  0
   -0.4838   -1.0553    0.2744 N   0  0  0  0  0  0  0  0  0  0  0  0
   -0.4439    0.3802   -0.0537 C   0  0  2  0  0  0  0  0  0  0  0  0
   -0.9037    0.7001   -1.4993 C   0  0  0  0  0  0  0  0  0  0  0  0
   -1.0184   -0.1892   -2.3373 O   0  0  0  0  0  0  0  0  0  0  0  0
    1.0018    0.8652    0.1415 C   0  0  0  0  0  0  0  0  0  0  0  0
    1.4911    0.7450    1.9107 S   0  0  0  0  0  0  0  0  0  0  0  0
    0.3674   -1.5914    0.1420 H   0  0  0  0  0  0  0  0  0  0  0  0
   -1.1008    0.9246    0.6331 H   0  0  0  0  0  0  0  0  0  0  0  0
    1.6819    0.2698   -0.4767 H   0  0  0  0  0  0  0  0  0  0  0  0
    1.0956    1.9093   -0.1744 H   0  0  0  0  0  0  0  0  0  0  0  0
    2.7455    1.2469    1.8743 H   0  0  0  0  0  0  0  0  0  0  0  0
   -0.9208    2.0100   -1.9425 N   0  0  0  0  0  0  0  0  0  0  0  0
   -1.0669    2.4281   -3.3430 C   0  0  2  0  0  0  0  0  0  0  0  0
   -0.3606    3.7770   -3.5992 C   0  0  0  0  0  0  0  0  0  0  0  0
    0.1320    4.3993   -2.6635 O   0  0  0  0  0  0  0  0  0  0  0  0
   -2.5619    2.5208   -3.6657 C   0  0  0  0  0  0  0  0  0  0  0  0
   -0.6675    2.7386   -1.2755 H   0  0  0  0  0  0  0  0  0  0  0  0
   -0.6016    1.6878   -4.0026 H   0  0  0  0  0  0  0  0  0  0  0  0
   -3.0455    3.2672   -3.0275 H   0  0  0  0  0  0  0  0  0  0  0  0
   -2.7155    2.8027   -4.7114 H   0  0  0  0  0  0  0  0  0  0  0  0
   -3.0454    1.5531   -3.4973 H   0  0  0  0  0  0  0  0  0  0  0  0
   -0.2531    4.2853   -4.8808 N   0  0  0  0  0  0  0  0  0  0  0  0
    0.3984    5.5535   -5.1877 C   0  0  0  0  0  0  0  0  0  0  0  0
   -0.6692    3.7497   -5.6372 H   0  0  0  0  0  0  0  0  0  0  0  0
   -0.0991    6.3766   -4.6637 H   0  0  0  0  0  0  0  0  0  0  0  0
    1.4506    5.5280   -4.8849 H   0  0  0  0  0  0  0  0  0  0  0  0
    0.3537    5.7517   -6.2630 H   0  0  0  0  0  0  0  0  0  0  0  0
  1  2  2  0  0  0  0
  1  3  1  0  0  0  0
  1  7  1  0  0  0  0
  3  4  1  0  0  0  0
  3  5  1  0  0  0  0
  3  6  1  0  0  0  0
  7  8  1  0  0  0  0
  7 12  1  0  0  0  0
  8  9  1  0  0  0  0
  8 11  1  0  0  0  0
  8 13  1  0  0  0  0
  9 10  2  0  0  0  0
  9 17  1  0  0  0  0
 11 14  1  0  0  0  0
 11 15  1  0  0  0  0
 11 16  1  0  0  0  0
 17 18  1  0  0  0  0
 17 23  1  0  0  0  0
 18 19  1  0  0  0  0
 18 21  1  0  0  0  0
 18 24  1  0  0  0  0
 19 20  2  0  0  0  0
 19 28  1  0  0  0  0
 21 22  1  0  0  0  0
 21 25  1  0  0  0  0
 21 26  1  0  0  0  0
 22 27  1  0  0  0  0
 28 29  1  0  0  0  0
 28 33  1  0  0  0  0
 29 30  1  0  0  0  0
 29 32  1  0  0  0  0
 29 34  1  0  0  0  0
 30 31  2  0  0  0  0
 30 38  1  0  0  0  0
 32 35  1  0  0  0  0
 32 36  1  0  0  0  0
 32 37  1  0  0  0  0
 38 39  1  0  0  0  0
 38 40  1  0  0  0  0
 39 41  1  0  0  0  0
 39 42  1  0  0  0  0
 39 43  1  0  0  0  0
M  END
$$$$

  -OEChem-05262216003D

 43 42  0     1  0  0  0  0  0999 V2000
   -3.1716   -5.1109    0.9313 C   0  0  0  0  0  0  0  0  0  0  0  0
   -2.2275   -5.8602    1.1276 O   0  0  0  0  0  0  0  0  0  0  0  0
   -4.5775   -5.5437    1.3026 C   0  0  0  0  0  0  0  0  0  0  0  0
   -5.2162   -5.5367    0.4159 H   0  0  0  0  0  0  0  0  0  0  0  0
   -4.5638   -6.5548    1.7190 H   0  0  0  0  0  0  0  0  0  0  0  0
   -4.9929   -4.8612    2.0481 H   0  0  0  0  0  0  0  0  0  0  0  0
   -2.9630   -3.8679    0.3742 N   0  0  0  0  0  0  0  0  0  0  0  0
   -1.6416   -3.2899    0.1001 C   0  0  2  0  0  0  0  0  0  0  0  0
   -1.6587   -1.7529    0.2300 C   0  0  0  0  0  0  0  0  0  0  0  0
   -2.7241   -1.1512    0.3351 O   0  0  0  0  0  0  0  0  0  0  0  0
   -1.2206   -3.6974   -1.3153 C   0  0  0  0  0  0  0  0  0  0  0  0
   -3.7565   -3.2284    0.3364 H   0  0  0  0  0  0  0  0  0  0  0  0
   -0.9123   -3.6732    0.8217 H   0  0  0  0  0  0  0  0  0  0  0  0
   -1.9261   -3.2987   -2.0518 H   0  0  0  0  0  0  0  0  0  0  0  0
   -0.2235   -3.3120   -1.5479 H   0  0  0  0  0  0  0  0  0  0  0  0
   -1.1987   -4.7881   -1.4060 H   0  0  0  0  0  0  0  0  0  0  0  0
   -0.4763   -1.0359    0.2767 N   0  0  0  0  0  0  0  0  0  0  0  0
   -0.4292    0.3988   -0.0588 C   0  0  2  0  0  0  0  0  0  0  0  0
   -0.8832    0.7280   -1.5093 C   0  0  0  0  0  0  0  0  0  0  0  0
   -1.2316   -0.1556   -2.2857 O   0  0  0  0  0  0  0  0  0  0  0  0
    1.0209    0.8653    0.1649 C   0  0  0  0  0  0  0  0  0  0  0  0
    1.4755    0.7439    1.9432 S   0  0  0  0  0  0  0  0  0  0  0  0
    0.3719   -1.5763    0.1440 H   0  0  0  0  0  0  0  0  0  0  0  0
   -1.0885    0.9484    0.6214 H   0  0  0  0  0  0  0  0  0  0  0  0
    1.7047    0.2613   -0.4406 H   0  0  0  0  0  0  0  0  0  0  0  0
    1.1384    1.9089   -0.1431 H   0  0  0  0  0  0  0  0  0  0  0  0
    2.7332    1.2377    1.9291 H   0  0  0  0  0  0  0  0  0  0  0  0
   -0.6063    1.9682   -2.0573 N   0  0  0  0  0  0  0  0  0  0  0  0
   -0.6991    2.3096   -3.4829 C   0  0  2  0  0  0  0  0  0  0  0  0
    0.2768    3.4499   -3.8452 C   0  0  0  0  0  0  0  0  0  0  0  0
    0.9202    4.0098   -2.9629 O   0  0  0  0  0  0  0  0  0  0  0  0
   -2.1463    2.7084   -3.7918 C   0  0  0  0  0  0  0  0  0  0  0  0
   -0.1660    2.6633   -1.4557 H   0  0  0  0  0  0  0  0  0  0  0  0
   -0.4255    1.4414   -4.0921 H   0  0  0  0  0  0  0  0  0  0  0  0
   -2.4378    3.5823   -3.2003 H   0  0  0  0  0  0  0  0  0  0  0  0
   -2.2629    2.9498   -4.8523 H   0  0  0  0  0  0  0  0  0  0  0  0
   -2.8255    1.8840   -3.5516 H   0  0  0  0  0  0  0  0  0  0  0  0
    0.4533    3.8363   -5.1612 N   0  0  0  0  0  0  0  0  0  0  0  0
    1.3558    4.9067   -5.5685 C   0  0  0  0  0  0  0  0  0  0  0  0
   -0.0914    3.3549   -5.8710 H   0  0  0  0  0  0  0  0  0  0  0  0
    1.0578    5.8557   -5.1100 H   0  0  0  0  0  0  0  0  0  0  0  0
    2.3833    4.6771   -5.2672 H   0  0  0  0  0  0  0  0  0  0  0  0
    1.3339    5.0266   -6.6561 H   0  0  0  0  0  0  0  0  0  0  0  0
  1  2  2  0  0  0  0
  1  3  1  0  0  0  0
  1  7  1  0  0  0  0
  3  4  1  0  0  0  0
  3  5  1  0  0  0  0
  3  6  1  0  0  0  0
  7  8  1  0  0  0  0
  7 12  1  0  0  0  0
  8  9  1  0  0  0  0
  8 11  1  0  0  0  0
  8 13  1  0  0  0  0
  9 10  2  0  0  0  0
  9 17  1  0  0  0  0
 11 14  1  0  0  0  0
 11 15  1  0  0  0  0
 11 16  1  0  0  0  0
 17 18  1  0  0  0  0
 17 23  1  0  0  0  0
 18 19  1  0  0  0  0
 18 21  1  0  0  0  0
 18 24  1  0  0  0  0
 19 20  2  0  0  0  0
 19 28  1  0  0  0  0
 21 22  1  0  0  0  0
 21 25  1  0  0  0  0
 21 26  1  0  0  0  0
 22 27  1  0  0  0  0
 28 29  1  0  0  0  0
 28 33  1  0  0  0  0
 29 30  1  0  0  0  0
 29 32  1  0  0  0  0
 29 34  1  0  0  0  0
 30 31  2  0  0  0  0
 30 38  1  0  0  0  0
 32 35  1  0  0  0  0
 32 36  1  0  0  0  0
 32 37  1  0  0  0  0
 38 39  1  0  0  0  0
 38 40  1  0  0  0  0
 39 41  1  0  0  0  0
 39 42  1  0  0  0  0
 39 43  1  0  0  0  0
M  END
$$$$

  -OEChem-05262216003D

 43 42  0     1  0  0  0  0  0999 V2000
   -3.1389   -5.1060    0.8640 C   0  0  0  0  0  0  0  0  0  0  0  0
   -2.1896   -5.8632    0.9953 O   0  0  0  0  0  0  0  0  0  0  0  0
   -4.5329   -5.5540    1.2621 C   0  0  0  0  0  0  0  0  0  0  0  0
   -5.2070   -5.4804    0.4051 H   0  0  0  0  0  0  0  0  0  0  0  0
   -4.5112   -6.5920    1.6058 H   0  0  0  0  0  0  0  0  0  0  0  0
   -4.9120   -4.9229    2.0697 H   0  0  0  0  0  0  0  0  0  0  0  0
   -2.9461   -3.8392    0.3575 N   0  0  0  0  0  0  0  0  0  0  0  0
   -1.6340   -3.2494    0.0651 C   0  0  2  0  0  0  0  0  0  0  0  0
   -1.6475   -1.7185    0.2538 C   0  0  0  0  0  0  0  0  0  0  0  0
   -2.7085   -1.1241    0.4225 O   0  0  0  0  0  0  0  0  0  0  0  0
   -1.2577   -3.6017   -1.3775 C   0  0  0  0  0  0  0  0  0  0  0  0
   -3.7390   -3.1981    0.3741 H   0  0  0  0  0  0  0  0  0  0  0  0
   -0.8831   -3.6589    0.7493 H   0  0  0  0  0  0  0  0  0  0  0  0
   -1.9863   -3.1766   -2.0760 H   0  0  0  0  0  0  0  0  0  0  0  0
   -0.2687   -3.2056   -1.6259 H   0  0  0  0  0  0  0  0  0  0  0  0
   -1.2382   -4.6879   -1.5108 H   0  0  0  0  0  0  0  0  0  0  0  0
   -0.4640   -1.0026    0.3007 N   0  0  0  0  0  0  0  0  0  0  0  0
   -0.4093    0.4315   -0.0416 C   0  0  2  0  0  0  0  0  0  0  0  0
   -0.8541    0.7635   -1.4990 C   0  0  0  0  0  0  0  0  0  0  0  0
   -1.4592   -0.0475   -2.1907 O   0  0  0  0  0  0  0  0  0  0  0  0
    1.0346    0.8991    0.2258 C   0  0  0  0  0  0  0  0  0  0  0  0
    1.4331    0.7860    2.0180 S   0  0  0  0  0  0  0  0  0  0  0  0
    0.3794   -1.5472    0.1553 H   0  0  0  0  0  0  0  0  0  0  0  0
   -1.0816    0.9816    0.6261 H   0  0  0  0  0  0  0  0  0  0  0  0
    1.7397    0.2983   -0.3582 H   0  0  0  0  0  0  0  0  0  0  0  0
    1.1589    1.9441   -0.0725 H   0  0  0  0  0  0  0  0  0  0  0  0
    2.6914    1.2790    2.0419 H   0  0  0  0  0  0  0  0  0  0  0  0
   -0.3194    1.8533   -2.1653 N   0  0  0  0  0  0  0  0  0  0  0  0
   -0.4029    2.0960   -3.6117 C   0  0  2  0  0  0  0  0  0  0  0  0
    0.8043    2.9247   -4.1011 C   0  0  0  0  0  0  0  0  0  0  0  0
    1.6102    3.3694   -3.2893 O   0  0  0  0  0  0  0  0  0  0  0  0
   -1.7209    2.8191   -3.9083 C   0  0  0  0  0  0  0  0  0  0  0  0
    0.3236    2.4526   -1.6501 H   0  0  0  0  0  0  0  0  0  0  0  0
   -0.3834    1.1431   -4.1514 H   0  0  0  0  0  0  0  0  0  0  0  0
   -1.7558    3.7816   -3.3880 H   0  0  0  0  0  0  0  0  0  0  0  0
   -1.8301    2.9988   -4.9818 H   0  0  0  0  0  0  0  0  0  0  0  0
   -2.5688    2.2124   -3.5743 H   0  0  0  0  0  0  0  0  0  0  0  0
    1.0045    3.1540   -5.4498 N   0  0  0  0  0  0  0  0  0  0  0  0
    2.1271    3.9236   -5.9731 C   0  0  0  0  0  0  0  0  0  0  0  0
    0.3234    2.7717   -6.0997 H   0  0  0  0  0  0  0  0  0  0  0  0
    2.1099    4.9443   -5.5769 H   0  0  0  0  0  0  0  0  0  0  0  0
    3.0769    3.4543   -5.6958 H   0  0  0  0  0  0  0  0  0  0  0  0
    2.0744    3.9761   -7.0648 H   0  0  0  0  0  0  0  0  0  0  0  0
  1  2  2  0  0  0  0
  1  3  1  0  0  0  0
  1  7  1  0  0  0  0
  3  4  1  0  0  0  0
  3  5  1  0  0  0  0
  3  6  1  0  0  0  0
  7  8  1  0  0  0  0
  7 12  1  0  0  0  0
  8  9  1  0  0  0  0
  8 11  1  0  0  0  0
  8 13  1  0  0  0  0
  9 10  2  0  0  0  0
  9 17  1  0  0  0  0
 11 14  1  0  0  0  0
 11 15  1  0  0  0  0
 11 16  1  0  0  0  0
 17 18  1  0  0  0  0
 17 23  1  0  0  0  0
 18 19  1  0  0  0  0
 18 21  1  0  0  0  0
 18 24  1  0  0  0  0
 19 20  2  0  0  0  0
 19 28  1  0  0  0  0
 21 22  1  0  0  0  0
 21 25  1  0  0  0  0
 21 26  1  0  0  0  0
 22 27  1  0  0  0  0
 28 29  1  0  0  0  0
 28 33  1  0  0  0  0
 29 30  1  0  0  0  0
 29 32  1  0  0  0  0
 29 34  1  0  0  0  0
 30 31  2  0  0  0  0
 30 38  1  0  0  0  0
 32 35  1  0  0  0  0
 32 36  1  0  0  0  0
 32 37  1  0  0  0  0
 38 39  1  0  0  0  0
 38 40  1  0  0  0  0
 39 41  1  0  0  0  0
 39 42  1  0  0  0  0
 39 43  1  0  0  0  0
M  END
$$$$

  -OEChem-05262216003D

 43 42  0     1  0  0  0  0  0999 V2000
   -3.1375   -5.0890    0.8543 C   0  0  0  0  0  0  0  0  0  0  0  0
   -2.1889   -5.8424    1.0102 O   0  0  0  0  0  0  0  0  0  0  0  0
   -4.5341   -5.5308    1.2487 C   0  0  0  0  0  0  0  0  0  0  0  0
   -5.1919   -5.5099    0.3763 H   0  0  0  0  0  0  0  0  0  0  0  0
   -4.5088   -6.5489    1.6473 H   0  0  0  0  0  0  0  0  0  0  0  0
   -4.9352   -4.8622    2.0143 H   0  0  0  0  0  0  0  0  0  0  0  0
   -2.9411   -3.8330    0.3227 N   0  0  0  0  0  0  0  0  0  0  0  0
   -1.6250   -3.2446    0.0482 C   0  0  2  0  0  0  0  0  0  0  0  0
   -1.6455   -1.7116    0.2188 C   0  0  0  0  0  0  0  0  0  0  0  0
   -2.7082   -1.1247    0.3971 O   0  0  0  0  0  0  0  0  0  0  0  0
   -1.2181   -3.6144   -1.3816 C   0  0  0  0  0  0  0  0  0  0  0  0
   -3.7316   -3.1883    0.3329 H   0  0  0  0  0  0  0  0  0  0  0  0
   -0.8875   -3.6434    0.7530 H   0  0  0  0  0  0  0  0  0  0  0  0
   -1.9330   -3.1991   -2.0997 H   0  0  0  0  0  0  0  0  0  0  0  0
   -0.2243   -3.2212   -1.6143 H   0  0  0  0  0  0  0  0  0  0  0  0
   -1.1947   -4.7023   -1.5006 H   0  0  0  0  0  0  0  0  0  0  0  0
   -0.4636   -0.9943    0.2799 N   0  0  0  0  0  0  0  0  0  0  0  0
   -0.3859    0.4375   -0.0694 C   0  0  2  0  0  0  0  0  0  0  0  0
   -0.7959    0.7726   -1.5368 C   0  0  0  0  0  0  0  0  0  0  0  0
   -1.6549    0.1389   -2.1357 O   0  0  0  0  0  0  0  0  0  0  0  0
    1.0463    0.9043    0.2564 C   0  0  0  0  0  0  0  0  0  0  0  0
    1.3614    0.8021    2.0661 S   0  0  0  0  0  0  0  0  0  0  0  0
    0.3829   -1.5434    0.1745 H   0  0  0  0  0  0  0  0  0  0  0  0
   -1.0774    0.9920    0.5744 H   0  0  0  0  0  0  0  0  0  0  0  0
    1.7770    0.2981   -0.2897 H   0  0  0  0  0  0  0  0  0  0  0  0
    1.1817    1.9483   -0.0431 H   0  0  0  0  0  0  0  0  0  0  0  0
    2.6244    1.2759    2.1458 H   0  0  0  0  0  0  0  0  0  0  0  0
   -0.0350    1.6397   -2.3031 N   0  0  0  0  0  0  0  0  0  0  0  0
   -0.1525    1.8236   -3.7557 C   0  0  2  0  0  0  0  0  0  0  0  0
    1.1906    2.2937   -4.3543 C   0  0  0  0  0  0  0  0  0  0  0  0
    2.1294    2.5620   -3.6102 O   0  0  0  0  0  0  0  0  0  0  0  0
   -1.2624    2.8436   -4.0339 C   0  0  0  0  0  0  0  0  0  0  0  0
    0.7927    2.0481   -1.8719 H   0  0  0  0  0  0  0  0  0  0  0  0
   -0.4081    0.8710   -4.2319 H   0  0  0  0  0  0  0  0  0  0  0  0
   -1.0211    3.8071   -3.5740 H   0  0  0  0  0  0  0  0  0  0  0  0
   -1.3895    2.9930   -5.1102 H   0  0  0  0  0  0  0  0  0  0  0  0
   -2.2138    2.4905   -3.6232 H   0  0  0  0  0  0  0  0  0  0  0  0
    1.3594    2.3979   -5.7226 N   0  0  0  0  0  0  0  0  0  0  0  0
    2.6004    2.8456   -6.3432 C   0  0  0  0  0  0  0  0  0  0  0  0
    0.5673    2.1662   -6.3154 H   0  0  0  0  0  0  0  0  0  0  0  0
    2.8517    3.8580   -6.0097 H   0  0  0  0  0  0  0  0  0  0  0  0
    3.4245    2.1737   -6.0814 H   0  0  0  0  0  0  0  0  0  0  0  0
    2.4971    2.8571   -7.4325 H   0  0  0  0  0  0  0  0  0  0  0  0
  1  2  2  0  0  0  0
  1  3  1  0  0  0  0
  1  7  1  0  0  0  0
  3  4  1  0  0  0  0
  3  5  1  0  0  0  0
  3  6  1  0  0  0  0
  7  8  1  0  0  0  0
  7 12  1  0  0  0  0
  8  9  1  0  0  0  0
  8 11  1  0  0  0  0
  8 13  1  0  0  0  0
  9 10  2  0  0  0  0
  9 17  1  0  0  0  0
 11 14  1  0  0  0  0
 11 15  1  0  0  0  0
 11 16  1  0  0  0  0
 17 18  1  0  0  0  0
 17 23  1  0  0  0  0
 18 19  1  0  0  0  0
 18 21  1  0  0  0  0
 18 24  1  0  0  0  0
 19 20  2  0  0  0  0
 19 28  1  0  0  0  0
 21 22  1  0  0  0  0
 21 25  1  0  0  0  0
 21 26  1  0  0  0  0
 22 27  1  0  0  0  0
 28 29  1  0  0  0  0
 28 33  1  0  0  0  0
 29 30  1  0  0  0  0
 29 32  1  0  0  0  0
 29 34  1  0  0  0  0
 30 31  2  0  0  0  0
 30 38  1  0  0  0  0
 32 35  1  0  0  0  0
 32 36  1  0  0  0  0
 32 37  1  0  0  0  0
 38 39  1  0  0  0  0
 38 40  1  0  0  0  0
 39 41  1  0  0  0  0
 39 42  1  0  0  0  0
 39 43  1  0  0  0  0
M  END
$$$$

  -OEChem-05262216003D

 43 42  0     1  0  0  0  0  0999 V2000
   -3.0992   -5.1020    0.8127 C   0  0  0  0  0  0  0  0  0  0  0  0
   -2.1441   -5.8397    1.0011 O   0  0  0  0  0  0  0  0  0  0  0  0
   -4.4967   -5.5488    1.1989 C   0  0  0  0  0  0  0  0  0  0  0  0
   -5.1473   -5.5386    0.3211 H   0  0  0  0  0  0  0  0  0  0  0  0
   -4.4692   -6.5636    1.6058 H   0  0  0  0  0  0  0  0  0  0  0  0
   -4.9079   -4.8762    1.9559 H   0  0  0  0  0  0  0  0  0  0  0  0
   -2.9090   -3.8549    0.2583 N   0  0  0  0  0  0  0  0  0  0  0  0
   -1.5954   -3.2463    0.0181 C   0  0  2  0  0  0  0  0  0  0  0  0
   -1.6532   -1.7097    0.1482 C   0  0  0  0  0  0  0  0  0  0  0  0
   -2.7340   -1.1464    0.2767 O   0  0  0  0  0  0  0  0  0  0  0  0
   -1.1243   -3.6453   -1.3838 C   0  0  0  0  0  0  0  0  0  0  0  0
   -3.7097   -3.2228    0.2393 H   0  0  0  0  0  0  0  0  0  0  0  0
   -0.8787   -3.6128    0.7608 H   0  0  0  0  0  0  0  0  0  0  0  0
   -1.8198   -3.2694   -2.1416 H   0  0  0  0  0  0  0  0  0  0  0  0
   -0.1313   -3.2341   -1.5877 H   0  0  0  0  0  0  0  0  0  0  0  0
   -1.0706   -4.7355   -1.4702 H   0  0  0  0  0  0  0  0  0  0  0  0
   -0.4876   -0.9700    0.2413 N   0  0  0  0  0  0  0  0  0  0  0  0
   -0.4031    0.4652   -0.0913 C   0  0  2  0  0  0  0  0  0  0  0  0
   -0.7735    0.8087   -1.5645 C   0  0  0  0  0  0  0  0  0  0  0  0
   -1.8303    0.4632   -2.0718 O   0  0  0  0  0  0  0  0  0  0  0  0
    1.0126    0.9463    0.2770 C   0  0  0  0  0  0  0  0  0  0  0  0
    1.2825    0.8370    2.0932 S   0  0  0  0  0  0  0  0  0  0  0  0
    0.3736   -1.5056    0.2113 H   0  0  0  0  0  0  0  0  0  0  0  0
   -1.1185    1.0094    0.5353 H   0  0  0  0  0  0  0  0  0  0  0  0
    1.7659    0.3512   -0.2501 H   0  0  0  0  0  0  0  0  0  0  0  0
    1.1375    1.9934   -0.0189 H   0  0  0  0  0  0  0  0  0  0  0  0
    2.5231    1.3600    2.2120 H   0  0  0  0  0  0  0  0  0  0  0  0
    0.1459    1.4201   -2.4011 N   0  0  0  0  0  0  0  0  0  0  0  0
   -0.0059    1.5790   -3.8532 C   0  0  2  0  0  0  0  0  0  0  0  0
    1.3695    1.5503   -4.5530 C   0  0  0  0  0  0  0  0  0  0  0  0
    2.3969    1.5708   -3.8814 O   0  0  0  0  0  0  0  0  0  0  0  0
   -0.7281    2.9026   -4.1235 C   0  0  0  0  0  0  0  0  0  0  0  0
    1.0871    1.5635   -2.0384 H   0  0  0  0  0  0  0  0  0  0  0  0
   -0.5981    0.7526   -4.2611 H   0  0  0  0  0  0  0  0  0  0  0  0
   -0.1489    3.7427   -3.7273 H   0  0  0  0  0  0  0  0  0  0  0  0
   -0.8704    3.0525   -5.1978 H   0  0  0  0  0  0  0  0  0  0  0  0
   -1.7123    2.9009   -3.6441 H   0  0  0  0  0  0  0  0  0  0  0  0
    1.4595    1.4820   -5.9307 N   0  0  0  0  0  0  0  0  0  0  0  0
    2.7273    1.4603   -6.6503 C   0  0  0  0  0  0  0  0  0  0  0  0
    0.5921    1.4673   -6.4598 H   0  0  0  0  0  0  0  0  0  0  0  0
    3.2830    2.3874   -6.4750 H   0  0  0  0  0  0  0  0  0  0  0  0
    3.3407    0.6145   -6.3224 H   0  0  0  0  0  0  0  0  0  0  0  0
    2.5502    1.3609   -7.7256 H   0  0  0  0  0  0  0  0  0  0  0  0
  1  2  2  0  0  0  0
  1  3  1  0  0  0  0
  1  7  1  0  0  0  0
  3  4  1  0  0  0  0
  3  5  1  0  0  0  0
  3  6  1  0  0  0  0
  7  8  1  0  0  0  0
  7 12  1  0  0  0  0
  8  9  1  0  0  0  0
  8 11  1  0  0  0  0
  8 13  1  0  0  0  0
  9 10  2  0  0  0  0
  9 17  1  0  0  0  0
 11 14  1  0  0  0  0
 11 15  1  0  0  0  0
 11 16  1  0  0  0  0
 17 18  1  0  0  0  0
 17 23  1  0  0  0  0
 18 19  1  0  0  0  0
 18 21  1  0  0  0  0
 18 24  1  0  0  0  0
 19 20  2  0  0  0  0
 19 28  1  0  0  0  0
 21 22  1  0  0  0  0
 21 25  1  0  0  0  0
 21 26  1  0  0  0  0
 22 27  1  0  0  0  0
 28 29  1  0  0  0  0
 28 33  1  0  0  0  0
 29 30  1  0  0  0  0
 29 32  1  0  0  0  0
 29 34  1  0  0  0  0
 30 31  2  0  0  0  0
 30 38  1  0  0  0  0
 32 35  1  0  0  0  0
 32 36  1  0  0  0  0
 32 37  1  0  0  0  0
 38 39  1  0  0  0  0
 38 40  1  0  0  0  0
 39 41  1  0  0  0  0
 39 42  1  0  0  0  0
 39 43  1  0  0  0  0
M  END
$$$$

  -OEChem-05262216003D

 43 42  0     1  0  0  0  0  0999 V2000
   -3.2115   -5.0399    1.1258 C   0  0  0  0  0  0  0  0  0  0  0  0
   -2.3149   -5.6291    1.7092 O   0  0  0  0  0  0  0  0  0  0  0  0
   -4.6568   -5.4475    1.3393 C   0  0  0  0  0  0  0  0  0  0  0  0
   -5.1216   -5.6916    0.3810 H   0  0  0  0  0  0  0  0  0  0  0  0
   -4.7091   -6.3249    1.9898 H   0  0  0  0  0  0  0  0  0  0  0  0
   -5.2090   -4.6285    1.8063 H   0  0  0  0  0  0  0  0  0  0  0  0
   -2.9128   -3.9920    0.2821 N   0  0  0  0  0  0  0  0  0  0  0  0
   -1.5772   -3.4000    0.1374 C   0  0  2  0  0  0  0  0  0  0  0  0
   -1.6581   -1.8924   -0.1831 C   0  0  0  0  0  0  0  0  0  0  0  0
   -2.7261   -1.4033   -0.5210 O   0  0  0  0  0  0  0  0  0  0  0  0
   -0.8350   -4.1468   -0.9750 C   0  0  0  0  0  0  0  0  0  0  0  0
   -3.6935   -3.4452   -0.0822 H   0  0  0  0  0  0  0  0  0  0  0  0
   -1.0237   -3.5056    1.0767 H   0  0  0  0  0  0  0  0  0  0  0  0
   -1.3734   -4.0523   -1.9235 H   0  0  0  0  0  0  0  0  0  0  0  0
    0.1735   -3.7430   -1.1049 H   0  0  0  0  0  0  0  0  0  0  0  0
   -0.7515   -5.2097   -0.7266 H   0  0  0  0  0  0  0  0  0  0  0  0
   -0.5438   -1.0907   -0.0138 N   0  0  0  0  0  0  0  0  0  0  0  0
   -0.4591    0.3536   -0.3013 C   0  0  2  0  0  0  0  0  0  0  0  0
   -0.7388    0.7445   -1.7782 C   0  0  0  0  0  0  0  0  0  0  0  0
   -1.8737    0.9465   -2.1836 O   0  0  0  0  0  0  0  0  0  0  0  0
    0.9285    0.8333    0.1556 C   0  0  0  0  0  0  0  0  0  0  0  0
    1.0918    0.6684    1.9803 S   0  0  0  0  0  0  0  0  0  0  0  0
    0.2536   -1.5239    0.4434 H   0  0  0  0  0  0  0  0  0  0  0  0
   -1.2163    0.8724    0.2973 H   0  0  0  0  0  0  0  0  0  0  0  0
    1.7169    0.2591   -0.3422 H   0  0  0  0  0  0  0  0  0  0  0  0
    1.0563    1.8882   -0.1113 H   0  0  0  0  0  0  0  0  0  0  0  0
    2.2998    1.2367    2.1921 H   0  0  0  0  0  0  0  0  0  0  0  0
    0.3014    1.1009   -2.6201 N   0  0  0  0  0  0  0  0  0  0  0  0
    0.1474    1.4202   -4.0446 C   0  0  2  0  0  0  0  0  0  0  0  0
    1.3780    0.9438   -4.8449 C   0  0  0  0  0  0  0  0  0  0  0  0
    2.3763    0.5456   -4.2516 O   0  0  0  0  0  0  0  0  0  0  0  0
   -0.0440    2.9338   -4.1835 C   0  0  0  0  0  0  0  0  0  0  0  0
    1.2395    0.8255   -2.3331 H   0  0  0  0  0  0  0  0  0  0  0  0
   -0.7295    0.9044   -4.4517 H   0  0  0  0  0  0  0  0  0  0  0  0
    0.8336    3.4675   -3.8046 H   0  0  0  0  0  0  0  0  0  0  0  0
   -0.1958    3.2093   -5.2312 H   0  0  0  0  0  0  0  0  0  0  0  0
   -0.9212    3.2574   -3.6141 H   0  0  0  0  0  0  0  0  0  0  0  0
    1.3656    0.9435   -6.2272 N   0  0  0  0  0  0  0  0  0  0  0  0
    2.4917    0.4937   -7.0369 C   0  0  0  0  0  0  0  0  0  0  0  0
    0.5197    1.2616   -6.6917 H   0  0  0  0  0  0  0  0  0  0  0  0
    3.3831    1.0915   -6.8189 H   0  0  0  0  0  0  0  0  0  0  0  0
    2.7147   -0.5589   -6.8325 H   0  0  0  0  0  0  0  0  0  0  0  0
    2.2587    0.5973   -8.1012 H   0  0  0  0  0  0  0  0  0  0  0  0
  1  2  2  0  0  0  0
  1  3  1  0  0  0  0
  1  7  1  0  0  0  0
  3  4  1  0  0  0  0
  3  5  1  0  0  0  0
  3  6  1  0  0  0  0
  7  8  1  0  0  0  0
  7 12  1  0  0  0  0
  8  9  1  0  0  0  0
  8 11  1  0  0  0  0
  8 13  1  0  0  0  0
  9 10  2  0  0  0  0
  9 17  1  0  0  0  0
 11 14  1  0  0  0  0
 11 15  1  0  0  0  0
 11 16  1  0  0  0  0
 17 18  1  0  0  0  0
 17 23  1  0  0  0  0
 18 19  1  0  0  0  0
 18 21  1  0  0  0  0
 18 24  1  0  0  0  0
 19 20  2  0  0  0  0
 19 28  1  0  0  0  0
 21 22  1  0  0  0  0
 21 25  1  0  0  0  0
 21 26  1  0  0  0  0
 22 27  1  0  0  0  0
 28 29  1  0  0  0  0
 28 33  1  0  0  0  0
 29 30  1  0  0  0  0
 29 32  1  0  0  0  0
 29 34  1  0  0  0  0
 30 31  2  0  0  0  0
 30 38  1  0  0  0  0
 32 35  1  0  0  0  0
 32 36  1  0  0  0  0
 32 37  1  0  0  0  0
 38 39  1  0  0  0  0
 38 40  1  0  0  0  0
 39 41  1  0  0  0  0
 39 42  1  0  0  0  0
 39 43  1  0  0  0  0
M  END
$$$$

  -OEChem-05262216003D

 43 42  0     1  0  0  0  0  0999 V2000
   -3.2849   -4.9702    1.2101 C   0  0  0  0  0  0  0  0  0  0  0  0
   -2.4545   -5.4827    1.9443 O   0  0  0  0  0  0  0  0  0  0  0  0
   -4.7461   -5.3643    1.3183 C   0  0  0  0  0  0  0  0  0  0  0  0
   -5.0928   -5.7769    0.3679 H   0  0  0  0  0  0  0  0  0  0  0  0
   -4.8773   -6.1189    2.0988 H   0  0  0  0  0  0  0  0  0  0  0  0
   -5.3504   -4.4893    1.5696 H   0  0  0  0  0  0  0  0  0  0  0  0
   -2.8962   -4.0225    0.2876 N   0  0  0  0  0  0  0  0  0  0  0  0
   -1.5472   -3.4488    0.2070 C   0  0  2  0  0  0  0  0  0  0  0  0
   -1.5826   -1.9843   -0.2785 C   0  0  0  0  0  0  0  0  0  0  0  0
   -2.5903   -1.5478   -0.8159 O   0  0  0  0  0  0  0  0  0  0  0  0
   -0.7113   -4.3101   -0.7445 C   0  0  0  0  0  0  0  0  0  0  0  0
   -3.6316   -3.5307   -0.2201 H   0  0  0  0  0  0  0  0  0  0  0  0
   -1.0852   -3.4532    1.2001 H   0  0  0  0  0  0  0  0  0  0  0  0
   -1.1577   -4.3185   -1.7442 H   0  0  0  0  0  0  0  0  0  0  0  0
    0.3086   -3.9214   -0.8213 H   0  0  0  0  0  0  0  0  0  0  0  0
   -0.6605   -5.3401   -0.3770 H   0  0  0  0  0  0  0  0  0  0  0  0
   -0.4895   -1.1615   -0.0762 N   0  0  0  0  0  0  0  0  0  0  0  0
   -0.4500    0.2855   -0.3545 C   0  0  2  0  0  0  0  0  0  0  0  0
   -0.7169    0.6683   -1.8314 C   0  0  0  0  0  0  0  0  0  0  0  0
   -1.7870    1.1586   -2.1639 O   0  0  0  0  0  0  0  0  0  0  0  0
    0.9158    0.8130    0.1079 C   0  0  0  0  0  0  0  0  0  0  0  0
    1.0762    0.6452    1.9327 S   0  0  0  0  0  0  0  0  0  0  0  0
    0.2327   -1.5307    0.5372 H   0  0  0  0  0  0  0  0  0  0  0  0
   -1.2297    0.7767    0.2385 H   0  0  0  0  0  0  0  0  0  0  0  0
    1.7260    0.2674   -0.3867 H   0  0  0  0  0  0  0  0  0  0  0  0
    1.0071    1.8713   -0.1610 H   0  0  0  0  0  0  0  0  0  0  0  0
    2.2564    1.2675    2.1514 H   0  0  0  0  0  0  0  0  0  0  0  0
    0.3339    0.7588   -2.7278 N   0  0  0  0  0  0  0  0  0  0  0  0
    0.1771    1.0786   -4.1517 C   0  0  2  0  0  0  0  0  0  0  0  0
    1.1841    0.2799   -5.0058 C   0  0  0  0  0  0  0  0  0  0  0  0
    2.1097   -0.3160   -4.4626 O   0  0  0  0  0  0  0  0  0  0  0  0
    0.3813    2.5852   -4.3362 C   0  0  0  0  0  0  0  0  0  0  0  0
    1.1810    0.2465   -2.4854 H   0  0  0  0  0  0  0  0  0  0  0  0
   -0.8291    0.8053   -4.4879 H   0  0  0  0  0  0  0  0  0  0  0  0
    1.3892    2.8760   -4.0236 H   0  0  0  0  0  0  0  0  0  0  0  0
    0.2458    2.8662   -5.3848 H   0  0  0  0  0  0  0  0  0  0  0  0
   -0.3447    3.1416   -3.7348 H   0  0  0  0  0  0  0  0  0  0  0  0
    1.0502    0.2157   -6.3803 N   0  0  0  0  0  0  0  0  0  0  0  0
    1.9614   -0.5323   -7.2380 C   0  0  0  0  0  0  0  0  0  0  0  0
    0.2594    0.6958   -6.8006 H   0  0  0  0  0  0  0  0  0  0  0  0
    2.9828   -0.1506   -7.1358 H   0  0  0  0  0  0  0  0  0  0  0  0
    1.9534   -1.5945   -6.9715 H   0  0  0  0  0  0  0  0  0  0  0  0
    1.6604   -0.4363   -8.2856 H   0  0  0  0  0  0  0  0  0  0  0  0
  1  2  2  0  0  0  0
  1  3  1  0  0  0  0
  1  7  1  0  0  0  0
  3  4  1  0  0  0  0
  3  5  1  0  0  0  0
  3  6  1  0  0  0  0
  7  8  1  0  0  0  0
  7 12  1  0  0  0  0
  8  9  1  0  0  0  0
  8 11  1  0  0  0  0
  8 13  1  0  0  0  0
  9 10  2  0  0  0  0
  9 17  1  0  0  0  0
 11 14  1  0  0  0  0
 11 15  1  0  0  0  0
 11 16  1  0  0  0  0
 17 18  1  0  0  0  0
 17 23  1  0  0  0  0
 18 19  1  0  0  0  0
 18 21  1  0  0  0  0
 18 24  1  0  0  0  0
 19 20  2  0  0  0  0
 19 28  1  0  0  0  0
 21 22  1  0  0  0  0
 21 25  1  0  0  0  0
 21 26  1  0  0  0  0
 22 27  1  0  0  0  0
 28 29  1  0  0  0  0
 28 33  1  0  0  0  0
 29 30  1  0  0  0  0
 29 32  1  0  0  0  0
 29 34  1  0  0  0  0
 30 31  2  0  0  0  0
 30 38  1  0  0  0  0
 32 35  1  0  0  0  0
 32 36  1  0  0  0  0
 32 37  1  0  0  0  0
 38 39  1  0  0  0  0
 38 40  1  0  0  0  0
 39 41  1  0  0  0  0
 39 42  1  0  0  0  0
 39 43  1  0  0  0  0
M  END
$$$$

  -OEChem-05262216003D

 43 42  0     1  0  0  0  0  0999 V2000
   -3.2849   -4.9473    1.2288 C   0  0  0  0  0  0  0  0  0  0  0  0
   -2.4722   -5.4345    1.9991 O   0  0  0  0  0  0  0  0  0  0  0  0
   -4.7457   -5.3491    1.3080 C   0  0  0  0  0  0  0  0  0  0  0  0
   -5.0598   -5.8006    0.3640 H   0  0  0  0  0  0  0  0  0  0  0  0
   -4.8938   -6.0749    2.1125 H   0  0  0  0  0  0  0  0  0  0  0  0
   -5.3646   -4.4709    1.5077 H   0  0  0  0  0  0  0  0  0  0  0  0
   -2.8761   -4.0249    0.2896 N   0  0  0  0  0  0  0  0  0  0  0  0
   -1.5256   -3.4531    0.2223 C   0  0  2  0  0  0  0  0  0  0  0  0
   -1.5521   -1.9971   -0.2875 C   0  0  0  0  0  0  0  0  0  0  0  0
   -2.5411   -1.5718   -0.8690 O   0  0  0  0  0  0  0  0  0  0  0  0
   -0.6748   -4.3298   -0.7016 C   0  0  0  0  0  0  0  0  0  0  0  0
   -3.5998   -3.5539   -0.2534 H   0  0  0  0  0  0  0  0  0  0  0  0
   -1.0790   -3.4419    1.2224 H   0  0  0  0  0  0  0  0  0  0  0  0
   -1.0997   -4.3471   -1.7106 H   0  0  0  0  0  0  0  0  0  0  0  0
    0.3488   -3.9476   -0.7616 H   0  0  0  0  0  0  0  0  0  0  0  0
   -0.6375   -5.3558   -0.3213 H   0  0  0  0  0  0  0  0  0  0  0  0
   -0.4667   -1.1670   -0.0745 N   0  0  0  0  0  0  0  0  0  0  0  0
   -0.4510    0.2799   -0.3521 C   0  0  2  0  0  0  0  0  0  0  0  0
   -0.7186    0.6413   -1.8305 C   0  0  0  0  0  0  0  0  0  0  0  0
   -1.6720    1.3470   -2.1321 O   0  0  0  0  0  0  0  0  0  0  0  0
    0.9087    0.8356    0.0900 C   0  0  0  0  0  0  0  0  0  0  0  0
    1.0927    0.6726    1.9130 S   0  0  0  0  0  0  0  0  0  0  0  0
    0.2380   -1.5176    0.5698 H   0  0  0  0  0  0  0  0  0  0  0  0
   -1.2367    0.7634    0.2396 H   0  0  0  0  0  0  0  0  0  0  0  0
    1.7235    0.3072   -0.4158 H   0  0  0  0  0  0  0  0  0  0  0  0
    0.9737    1.8947   -0.1828 H   0  0  0  0  0  0  0  0  0  0  0  0
    2.2664    1.3119    2.1162 H   0  0  0  0  0  0  0  0  0  0  0  0
    0.2714    0.4403   -2.7753 N   0  0  0  0  0  0  0  0  0  0  0  0
    0.0931    0.6875   -4.2106 C   0  0  2  0  0  0  0  0  0  0  0  0
    0.8128   -0.3889   -5.0497 C   0  0  0  0  0  0  0  0  0  0  0  0
    1.6082   -1.1546   -4.5132 O   0  0  0  0  0  0  0  0  0  0  0  0
    0.6385    2.0817   -4.5306 C   0  0  0  0  0  0  0  0  0  0  0  0
    0.9844   -0.2474   -2.5346 H   0  0  0  0  0  0  0  0  0  0  0  0
   -0.9708    0.6458   -4.4682 H   0  0  0  0  0  0  0  0  0  0  0  0
    1.7051    2.1390   -4.2909 H   0  0  0  0  0  0  0  0  0  0  0  0
    0.5053    2.3130   -5.5917 H   0  0  0  0  0  0  0  0  0  0  0  0
    0.1072    2.8383   -3.9442 H   0  0  0  0  0  0  0  0  0  0  0  0
    0.5653   -0.5047   -6.4048 N   0  0  0  0  0  0  0  0  0  0  0  0
    1.1981   -1.5084   -7.2516 C   0  0  0  0  0  0  0  0  0  0  0  0
   -0.1184    0.1255   -6.8142 H   0  0  0  0  0  0  0  0  0  0  0  0
    2.2870   -1.3912   -7.2371 H   0  0  0  0  0  0  0  0  0  0  0  0
    0.9476   -2.5162   -6.9042 H   0  0  0  0  0  0  0  0  0  0  0  0
    0.8532   -1.4032   -8.2847 H   0  0  0  0  0  0  0  0  0  0  0  0
  1  2  2  0  0  0  0
  1  3  1  0  0  0  0
  1  7  1  0  0  0  0
  3  4  1  0  0  0  0
  3  5  1  0  0  0  0
  3  6  1  0  0  0  0
  7  8  1  0  0  0  0
  7 12  1  0  0  0  0
  8  9  1  0  0  0  0
  8 11  1  0  0  0  0
  8 13  1  0  0  0  0
  9 10  2  0  0  0  0
  9 17  1  0  0  0  0
 11 14  1  0  0  0  0
 11 15  1  0  0  0  0
 11 16  1  0  0  0  0
 17 18  1  0  0  0  0
 17 23  1  0  0  0  0
 18 19  1  0  0  0  0
 18 21  1  0  0  0  0
 18 24  1  0  0  0  0
 19 20  2  0  0  0  0
 19 28  1  0  0  0  0
 21 22  1  0  0  0  0
 21 25  1  0  0  0  0
 21 26  1  0  0  0  0
 22 27  1  0  0  0  0
 28 29  1  0  0  0  0
 28 33  1  0  0  0  0
 29 30  1  0  0  0  0
 29 32  1  0  0  0  0
 29 34  1  0  0  0  0
 30 31  2  0  0  0  0
 30 38  1  0  0  0  0
 32 35  1  0  0  0  0
 32 36  1  0  0  0  0
 32 37  1  0  0  0  0
 38 39  1  0  0  0  0
 38 40  1  0  0  0  0
 39 41  1  0  0  0  0
 39 42  1  0  0  0  0
 39 43  1  0  0  0  0
M  END
$$$$

  -OEChem-05262216003D

 43 42  0     1  0  0  0  0  0999 V2000
   -3.2569   -4.9461    1.1229 C   0  0  0  0  0  0  0  0  0  0  0  0
   -2.4834   -5.4064    1.9477 O   0  0  0  0  0  0  0  0  0  0  0  0
   -4.7163   -5.3601    1.1332 C   0  0  0  0  0  0  0  0  0  0  0  0
   -4.9817   -5.8123    0.1746 H   0  0  0  0  0  0  0  0  0  0  0  0
   -4.8965   -6.0888    1.9288 H   0  0  0  0  0  0  0  0  0  0  0  0
   -5.3507   -4.4871    1.3050 H   0  0  0  0  0  0  0  0  0  0  0  0
   -2.8076   -4.0405    0.1853 N   0  0  0  0  0  0  0  0  0  0  0  0
   -1.4679   -3.4391    0.1913 C   0  0  2  0  0  0  0  0  0  0  0  0
   -1.5035   -1.9725   -0.2850 C   0  0  0  0  0  0  0  0  0  0  0  0
   -2.4862   -1.5447   -0.8769 O   0  0  0  0  0  0  0  0  0  0  0  0
   -0.5596   -4.2737   -0.7162 C   0  0  0  0  0  0  0  0  0  0  0  0
   -3.5098   -3.5840   -0.3966 H   0  0  0  0  0  0  0  0  0  0  0  0
   -1.0637   -3.4423    1.2094 H   0  0  0  0  0  0  0  0  0  0  0  0
   -0.9341   -4.2666   -1.7452 H   0  0  0  0  0  0  0  0  0  0  0  0
    0.4587   -3.8735   -0.7146 H   0  0  0  0  0  0  0  0  0  0  0  0
   -0.5235   -5.3098   -0.3649 H   0  0  0  0  0  0  0  0  0  0  0  0
   -0.4275   -1.1355   -0.0509 N   0  0  0  0  0  0  0  0  0  0  0  0
   -0.4334    0.3143   -0.3153 C   0  0  2  0  0  0  0  0  0  0  0  0
   -0.6953    0.6686   -1.7934 C   0  0  0  0  0  0  0  0  0  0  0  0
   -1.4973    1.5456   -2.0865 O   0  0  0  0  0  0  0  0  0  0  0  0
    0.9186    0.8937    0.1152 C   0  0  0  0  0  0  0  0  0  0  0  0
    1.1264    0.7232    1.9349 S   0  0  0  0  0  0  0  0  0  0  0  0
    0.2743   -1.4833    0.5985 H   0  0  0  0  0  0  0  0  0  0  0  0
   -1.2274    0.7836    0.2769 H   0  0  0  0  0  0  0  0  0  0  0  0
    1.7371    0.3852   -0.4050 H   0  0  0  0  0  0  0  0  0  0  0  0
    0.9593    1.9554   -0.1522 H   0  0  0  0  0  0  0  0  0  0  0  0
    2.2810    1.3984    2.1315 H   0  0  0  0  0  0  0  0  0  0  0  0
    0.1707    0.2036   -2.7650 N   0  0  0  0  0  0  0  0  0  0  0  0
   -0.0852    0.3385   -4.2031 C   0  0  2  0  0  0  0  0  0  0  0  0
    0.2381   -0.9765   -4.9433 C   0  0  0  0  0  0  0  0  0  0  0  0
    0.8678   -1.8638   -4.3744 O   0  0  0  0  0  0  0  0  0  0  0  0
    0.7678    1.4918   -4.7370 C   0  0  0  0  0  0  0  0  0  0  0  0
    0.7222   -0.6115   -2.4982 H   0  0  0  0  0  0  0  0  0  0  0  0
   -1.1435    0.5601   -4.3796 H   0  0  0  0  0  0  0  0  0  0  0  0
    1.8315    1.2863   -4.5801 H   0  0  0  0  0  0  0  0  0  0  0  0
    0.5934    1.6356   -5.8074 H   0  0  0  0  0  0  0  0  0  0  0  0
    0.5116    2.4211   -4.2184 H   0  0  0  0  0  0  0  0  0  0  0  0
   -0.1827   -1.1701   -6.2460 N   0  0  0  0  0  0  0  0  0  0  0  0
    0.0618   -2.3978   -6.9930 C   0  0  0  0  0  0  0  0  0  0  0  0
   -0.7353   -0.4338   -6.6760 H   0  0  0  0  0  0  0  0  0  0  0  0
    1.1363   -2.5989   -7.0596 H   0  0  0  0  0  0  0  0  0  0  0  0
   -0.4264   -3.2475   -6.5040 H   0  0  0  0  0  0  0  0  0  0  0  0
   -0.3357   -2.3076   -8.0087 H   0  0  0  0  0  0  0  0  0  0  0  0
  1  2  2  0  0  0  0
  1  3  1  0  0  0  0
  1  7  1  0  0  0  0
  3  4  1  0  0  0  0
  3  5  1  0  0  0  0
  3  6  1  0  0  0  0
  7  8  1  0  0  0  0
  7 12  1  0  0  0  0
  8  9  1  0  0  0  0
  8 11  1  0  0  0  0
  8 13  1  0  0  0  0
  9 10  2  0  0  0  0
  9 17  1  0  0  0  0
 11 14  1  0  0  0  0
 11 15  1  0  0  0  0
 11 16  1  0  0  0  0
 17 18  1  0  0  0  0
 17 23  1  0  0  0  0
 18 19  1  0  0  0  0
 18 21  1  0  0  0  0
 18 24  1  0  0  0  0
 19 20  2  0  0  0  0
 19 28  1  0  0  0  0
 21 22  1  0  0  0  0
 21 25  1  0  0  0  0
 21 26  1  0  0  0  0
 22 27  1  0  0  0  0
 28 29  1  0  0  0  0
 28 33  1  0  0  0  0
 29 30  1  0  0  0  0
 29 32  1  0  0  0  0
 29 34  1  0  0  0  0
 30 31  2  0  0  0  0
 30 38  1  0  0  0  0
 32 35  1  0  0  0  0
 32 36  1  0  0  0  0
 32 37  1  0  0  0  0
 38 39  1  0  0  0  0
 38 40  1  0  0  0  0
 39 41  1  0  0  0  0
 39 42  1  0  0  0  0
 39 43  1  0  0  0  0
M  END
$$$$

  -OEChem-05262216003D

 43 42  0     1  0  0  0  0  0999 V2000
   -3.1896   -4.9385    1.0411 C   0  0  0  0  0  0  0  0  0  0  0  0
   -2.3952   -5.3914    1.8502 O   0  0  0  0  0  0  0  0  0  0  0  0
   -4.6504   -5.3448    1.0994 C   0  0  0  0  0  0  0  0  0  0  0  0
   -4.9518   -5.7917    0.1489 H   0  0  0  0  0  0  0  0  0  0  0  0
   -4.8074   -6.0755    1.8977 H   0  0  0  0  0  0  0  0  0  0  0  0
   -5.2734   -4.4690    1.2965 H   0  0  0  0  0  0  0  0  0  0  0  0
   -2.7653   -4.0465    0.0794 N   0  0  0  0  0  0  0  0  0  0  0  0
   -1.4263   -3.4439    0.0410 C   0  0  2  0  0  0  0  0  0  0  0  0
   -1.4905   -1.9495   -0.3325 C   0  0  0  0  0  0  0  0  0  0  0  0
   -2.4779   -1.5012   -0.9024 O   0  0  0  0  0  0  0  0  0  0  0  0
   -0.5845   -4.2108   -0.9826 C   0  0  0  0  0  0  0  0  0  0  0  0
   -3.4848   -3.5929   -0.4828 H   0  0  0  0  0  0  0  0  0  0  0  0
   -0.9521   -3.5163    1.0256 H   0  0  0  0  0  0  0  0  0  0  0  0
   -1.0357   -4.1446   -1.9784 H   0  0  0  0  0  0  0  0  0  0  0  0
    0.4282   -3.8000   -1.0347 H   0  0  0  0  0  0  0  0  0  0  0  0
   -0.5148   -5.2659   -0.7004 H   0  0  0  0  0  0  0  0  0  0  0  0
   -0.4285   -1.1089   -0.0494 N   0  0  0  0  0  0  0  0  0  0  0  0
   -0.4409    0.3452   -0.2934 C   0  0  2  0  0  0  0  0  0  0  0  0
   -0.6584    0.7014   -1.7770 C   0  0  0  0  0  0  0  0  0  0  0  0
   -1.2907    1.7002   -2.0943 O   0  0  0  0  0  0  0  0  0  0  0  0
    0.8970    0.9305    0.1677 C   0  0  0  0  0  0  0  0  0  0  0  0
    1.0779    0.7380    1.9880 S   0  0  0  0  0  0  0  0  0  0  0  0
    0.2747   -1.4694    0.5915 H   0  0  0  0  0  0  0  0  0  0  0  0
   -1.2542    0.8046    0.2793 H   0  0  0  0  0  0  0  0  0  0  0  0
    1.7274    0.4364   -0.3475 H   0  0  0  0  0  0  0  0  0  0  0  0
    0.9315    1.9963   -0.0846 H   0  0  0  0  0  0  0  0  0  0  0  0
    2.2252    1.4177    2.2088 H   0  0  0  0  0  0  0  0  0  0  0  0
    0.0467    0.0074   -2.7409 N   0  0  0  0  0  0  0  0  0  0  0  0
   -0.3149    0.0287   -4.1610 C   0  0  2  0  0  0  0  0  0  0  0  0
   -0.3751   -1.4076   -4.7231 C   0  0  0  0  0  0  0  0  0  0  0  0
    0.1193   -2.3368   -4.0900 O   0  0  0  0  0  0  0  0  0  0  0  0
    0.7231    0.8684   -4.9077 C   0  0  0  0  0  0  0  0  0  0  0  0
    0.4390   -0.8762   -2.4164 H   0  0  0  0  0  0  0  0  0  0  0  0
   -1.3060    0.4755   -4.2955 H   0  0  0  0  0  0  0  0  0  0  0  0
    1.7206    0.4311   -4.7965 H   0  0  0  0  0  0  0  0  0  0  0  0
    0.4809    0.9205   -5.9733 H   0  0  0  0  0  0  0  0  0  0  0  0
    0.7411    1.8872   -4.5076 H   0  0  0  0  0  0  0  0  0  0  0  0
   -0.9844   -1.6613   -5.9380 N   0  0  0  0  0  0  0  0  0  0  0  0
   -1.1092   -2.9979   -6.5066 C   0  0  0  0  0  0  0  0  0  0  0  0
   -1.4339   -0.8818   -6.4099 H   0  0  0  0  0  0  0  0  0  0  0  0
   -0.1235   -3.4623   -6.6159 H   0  0  0  0  0  0  0  0  0  0  0  0
   -1.7281   -3.6316   -5.8626 H   0  0  0  0  0  0  0  0  0  0  0  0
   -1.5758   -2.9468   -7.4952 H   0  0  0  0  0  0  0  0  0  0  0  0
  1  2  2  0  0  0  0
  1  3  1  0  0  0  0
  1  7  1  0  0  0  0
  3  4  1  0  0  0  0
  3  5  1  0  0  0  0
  3  6  1  0  0  0  0
  7  8  1  0  0  0  0
  7 12  1  0  0  0  0
  8  9  1  0  0  0  0
  8 11  1  0  0  0  0
  8 13  1  0  0  0  0
  9 10  2  0  0  0  0
  9 17  1  0  0  0  0
 11 14  1  0  0  0  0
 11 15  1  0  0  0  0
 11 16  1  0  0  0  0
 17 18  1  0  0  0  0
 17 23  1  0  0  0  0
 18 19  1  0  0  0  0
 18 21  1  0  0  0  0
 18 24  1  0  0  0  0
 19 20  2  0  0  0  0
 19 28  1  0  0  0  0
 21 22  1  0  0  0  0
 21 25  1  0  0  0  0
 21 26  1  0  0  0  0
 22 27  1  0  0  0  0
 28 29  1  0  0  0  0
 28 33  1  0  0  0  0
 29 30  1  0  0  0  0
 29 32  1  0  0  0  0
 29 34  1  0  0  0  0
 30 31  2  0  0  0  0
 30 38  1  0  0  0  0
 32 35  1  0  0  0  0
 32 36  1  0  0  0  0
 32 37  1  0  0  0  0
 38 39  1  0  0  0  0
 38 40  1  0  0  0  0
 39 41  1  0  0  0  0
 39 42  1  0  0  0  0
 39 43  1  0  0  0  0
M  END
$$$$

  -OEChem-05262216003D

 43 42  0     1  0  0  0  0  0999 V2000
   -3.2480   -4.9218    1.2685 C   0  0  0  0  0  0  0  0  0  0  0  0
   -2.4322   -5.3736    2.0566 O   0  0  0  0  0  0  0  0  0  0  0  0
   -4.7115   -5.3046    1.3858 C   0  0  0  0  0  0  0  0  0  0  0  0
   -5.0603   -5.7407    0.4465 H   0  0  0  0  0  0  0  0  0  0  0  0
   -4.8466   -6.0380    2.1859 H   0  0  0  0  0  0  0  0  0  0  0  0
   -5.3111   -4.4199    1.6140 H   0  0  0  0  0  0  0  0  0  0  0  0
   -2.8436   -4.0528    0.2775 N   0  0  0  0  0  0  0  0  0  0  0  0
   -1.4927   -3.4865    0.1691 C   0  0  2  0  0  0  0  0  0  0  0  0
   -1.5328   -2.0027   -0.2476 C   0  0  0  0  0  0  0  0  0  0  0  0
   -2.5276   -1.5439   -0.7961 O   0  0  0  0  0  0  0  0  0  0  0  0
   -0.7129   -4.3057   -0.8628 C   0  0  0  0  0  0  0  0  0  0  0  0
   -3.5727   -3.6047   -0.2764 H   0  0  0  0  0  0  0  0  0  0  0  0
   -0.9816   -3.5420    1.1362 H   0  0  0  0  0  0  0  0  0  0  0  0
   -1.2036   -4.2570   -1.8407 H   0  0  0  0  0  0  0  0  0  0  0  0
    0.3070   -3.9236   -0.9686 H   0  0  0  0  0  0  0  0  0  0  0  0
   -0.6593   -5.3538   -0.5516 H   0  0  0  0  0  0  0  0  0  0  0  0
   -0.4429   -1.1787   -0.0258 N   0  0  0  0  0  0  0  0  0  0  0  0
   -0.4321    0.2680   -0.3188 C   0  0  2  0  0  0  0  0  0  0  0  0
   -0.6866    0.6037   -1.8033 C   0  0  0  0  0  0  0  0  0  0  0  0
   -1.0953    1.7106   -2.1299 O   0  0  0  0  0  0  0  0  0  0  0  0
    0.9399    0.8214    0.0781 C   0  0  0  0  0  0  0  0  0  0  0  0
    1.1779    0.6751    1.8970 S   0  0  0  0  0  0  0  0  0  0  0  0
    0.2729   -1.5336    0.6047 H   0  0  0  0  0  0  0  0  0  0  0  0
   -1.2108    0.7665    0.2689 H   0  0  0  0  0  0  0  0  0  0  0  0
    1.7339    0.2847   -0.4521 H   0  0  0  0  0  0  0  0  0  0  0  0
    1.0018    1.8778   -0.2067 H   0  0  0  0  0  0  0  0  0  0  0  0
    2.3502    1.3284    2.0597 H   0  0  0  0  0  0  0  0  0  0  0  0
   -0.2925   -0.2909   -2.7786 N   0  0  0  0  0  0  0  0  0  0  0  0
   -0.7173   -0.2111   -4.1779 C   0  0  2  0  0  0  0  0  0  0  0  0
   -0.9624   -1.6248   -4.7484 C   0  0  0  0  0  0  0  0  0  0  0  0
   -0.5694   -2.6141   -4.1355 O   0  0  0  0  0  0  0  0  0  0  0  0
    0.3650    0.5215   -4.9751 C   0  0  0  0  0  0  0  0  0  0  0  0
   -0.0928   -1.2316   -2.4399 H   0  0  0  0  0  0  0  0  0  0  0  0
   -1.6599    0.3424   -4.2497 H   0  0  0  0  0  0  0  0  0  0  0  0
    1.3136   -0.0224   -4.9224 H   0  0  0  0  0  0  0  0  0  0  0  0
    0.0724    0.6143   -6.0251 H   0  0  0  0  0  0  0  0  0  0  0  0
    0.5165    1.5269   -4.5697 H   0  0  0  0  0  0  0  0  0  0  0  0
   -1.6240   -1.7923   -5.9507 N   0  0  0  0  0  0  0  0  0  0  0  0
   -1.9094   -3.0989   -6.5306 C   0  0  0  0  0  0  0  0  0  0  0  0
   -1.9724   -0.9592   -6.4163 H   0  0  0  0  0  0  0  0  0  0  0  0
   -0.9820   -3.6609   -6.6838 H   0  0  0  0  0  0  0  0  0  0  0  0
   -2.5662   -3.6755   -5.8708 H   0  0  0  0  0  0  0  0  0  0  0  0
   -2.4057   -2.9834   -7.4988 H   0  0  0  0  0  0  0  0  0  0  0  0
  1  2  2  0  0  0  0
  1  3  1  0  0  0  0
  1  7  1  0  0  0  0
  3  4  1  0  0  0  0
  3  5  1  0  0  0  0
  3  6  1  0  0  0  0
  7  8  1  0  0  0  0
  7 12  1  0  0  0  0
  8  9  1  0  0  0  0
  8 11  1  0  0  0  0
  8 13  1  0  0  0  0
  9 10  2  0  0  0  0
  9 17  1  0  0  0  0
 11 14  1  0  0  0  0
 11 15  1  0  0  0  0
 11 16  1  0  0  0  0
 17 18  1  0  0  0  0
 17 23  1  0  0  0  0
 18 19  1  0  0  0  0
 18 21  1  0  0  0  0
 18 24  1  0  0  0  0
 19 20  2  0  0  0  0
 19 28  1  0  0  0  0
 21 22  1  0  0  0  0
 21 25  1  0  0  0  0
 21 26  1  0  0  0  0
 22 27  1  0  0  0  0
 28 29  1  0  0  0  0
 28 33  1  0  0  0  0
 29 30  1  0  0  0  0
 29 32  1  0  0  0  0
 29 34  1  0  0  0  0
 30 31  2  0  0  0  0
 30 38  1  0  0  0  0
 32 35  1  0  0  0  0
 32 36  1  0  0  0  0
 32 37  1  0  0  0  0
 38 39  1  0  0  0  0
 38 40  1  0  0  0  0
 39 41  1  0  0  0  0
 39 42  1  0  0  0  0
 39 43  1  0  0  0  0
M  END
$$$$

  -OEChem-05262216003D

 43 42  0     1  0  0  0  0  0999 V2000
   -3.2647   -4.9544    1.4065 C   0  0  0  0  0  0  0  0  0  0  0  0
   -2.4475   -5.3933    2.2005 O   0  0  0  0  0  0  0  0  0  0  0  0
   -4.7194   -5.3740    1.5006 C   0  0  0  0  0  0  0  0  0  0  0  0
   -5.0229   -5.8748    0.5779 H   0  0  0  0  0  0  0  0  0  0  0  0
   -4.8599   -6.0623    2.3388 H   0  0  0  0  0  0  0  0  0  0  0  0
   -5.3519   -4.4967    1.6560 H   0  0  0  0  0  0  0  0  0  0  0  0
   -2.8687   -4.0698    0.4264 N   0  0  0  0  0  0  0  0  0  0  0  0
   -1.5246   -3.4872    0.3269 C   0  0  2  0  0  0  0  0  0  0  0  0
   -1.5739   -2.0149   -0.1291 C   0  0  0  0  0  0  0  0  0  0  0  0
   -2.5839   -1.5622   -0.6537 O   0  0  0  0  0  0  0  0  0  0  0  0
   -0.7159   -4.3249   -0.6681 C   0  0  0  0  0  0  0  0  0  0  0  0
   -3.5991   -3.6391   -0.1396 H   0  0  0  0  0  0  0  0  0  0  0  0
   -1.0325   -3.5110    1.3052 H   0  0  0  0  0  0  0  0  0  0  0  0
   -1.1872   -4.3067   -1.6568 H   0  0  0  0  0  0  0  0  0  0  0  0
    0.3026   -3.9366   -0.7618 H   0  0  0  0  0  0  0  0  0  0  0  0
   -0.6586   -5.3640   -0.3288 H   0  0  0  0  0  0  0  0  0  0  0  0
   -0.4693   -1.1945    0.0163 N   0  0  0  0  0  0  0  0  0  0  0  0
   -0.4401    0.2375   -0.3431 C   0  0  2  0  0  0  0  0  0  0  0  0
   -0.7312    0.5406   -1.8316 C   0  0  0  0  0  0  0  0  0  0  0  0
   -0.8802    1.6973   -2.2054 O   0  0  0  0  0  0  0  0  0  0  0  0
    0.9602    0.7613   -0.0032 C   0  0  0  0  0  0  0  0  0  0  0  0
    1.2428    0.6812    1.8133 S   0  0  0  0  0  0  0  0  0  0  0  0
    0.2771   -1.5395    0.6156 H   0  0  0  0  0  0  0  0  0  0  0  0
   -1.1864    0.7778    0.2493 H   0  0  0  0  0  0  0  0  0  0  0  0
    1.7220    0.1794   -0.5331 H   0  0  0  0  0  0  0  0  0  0  0  0
    1.0500    1.8036   -0.3290 H   0  0  0  0  0  0  0  0  0  0  0  0
    2.4439    1.2926    1.9160 H   0  0  0  0  0  0  0  0  0  0  0  0
   -0.6870   -0.4697   -2.7723 N   0  0  0  0  0  0  0  0  0  0  0  0
   -1.1182   -0.3304   -4.1650 C   0  0  2  0  0  0  0  0  0  0  0  0
   -1.6609   -1.6724   -4.7021 C   0  0  0  0  0  0  0  0  0  0  0  0
   -1.4140   -2.7204   -4.1119 O   0  0  0  0  0  0  0  0  0  0  0  0
    0.0722    0.1445   -5.0041 C   0  0  0  0  0  0  0  0  0  0  0  0
   -0.7331   -1.4147   -2.3921 H   0  0  0  0  0  0  0  0  0  0  0  0
   -1.9267    0.4059   -4.2274 H   0  0  0  0  0  0  0  0  0  0  0  0
    0.8910   -0.5801   -4.9498 H   0  0  0  0  0  0  0  0  0  0  0  0
   -0.2192    0.2648   -6.0517 H   0  0  0  0  0  0  0  0  0  0  0  0
    0.4357    1.1091   -4.6356 H   0  0  0  0  0  0  0  0  0  0  0  0
   -2.4279   -1.7087   -5.8520 N   0  0  0  0  0  0  0  0  0  0  0  0
   -2.9931   -2.9368   -6.3981 C   0  0  0  0  0  0  0  0  0  0  0  0
   -2.6496   -0.8232   -6.2979 H   0  0  0  0  0  0  0  0  0  0  0  0
   -2.1990   -3.6531   -6.6342 H   0  0  0  0  0  0  0  0  0  0  0  0
   -3.6785   -3.3955   -5.6779 H   0  0  0  0  0  0  0  0  0  0  0  0
   -3.5485   -2.7227   -7.3165 H   0  0  0  0  0  0  0  0  0  0  0  0
  1  2  2  0  0  0  0
  1  3  1  0  0  0  0
  1  7  1  0  0  0  0
  3  4  1  0  0  0  0
  3  5  1  0  0  0  0
  3  6  1  0  0  0  0
  7  8  1  0  0  0  0
  7 12  1  0  0  0  0
  8  9  1  0  0  0  0
  8 11  1  0  0  0  0
  8 13  1  0  0  0  0
  9 10  2  0  0  0  0
  9 17  1  0  0  0  0
 11 14  1  0  0  0  0
 11 15  1  0  0  0  0
 11 16  1  0  0  0  0
 17 18  1  0  0  0  0
 17 23  1  0  0  0  0
 18 19  1  0  0  0  0
 18 21  1  0  0  0  0
 18 24  1  0  0  0  0
 19 20  2  0  0  0  0
 19 28  1  0  0  0  0
 21 22  1  0  0  0  0
 21 25  1  0  0  0  0
 21 26  1  0  0  0  0
 22 27  1  0  0  0  0
 28 29  1  0  0  0  0
 28 33  1  0  0  0  0
 29 30  1  0  0  0  0
 29 32  1  0  0  0  0
 29 34  1  0  0  0  0
 30 31  2  0  0  0  0
 30 38  1  0  0  0  0
 32 35  1  0  0  0  0
 32 36  1  0  0  0  0
 32 37  1  0  0  0  0
 38 39  1  0  0  0  0
 38 40  1  0  0  0  0
 39 41  1  0  0  0  0
 39 42  1  0  0  0  0
 39 43  1  0  0  0  0
M  END
$$$$

  -OEChem-05262216003D

 43 42  0     1  0  0  0  0  0999 V2000
   -3.2295   -5.0215    1.4933 C   0  0  0  0  0  0  0  0  0  0  0  0
   -2.4002   -5.4806    2.2630 O   0  0  0  0  0  0  0  0  0  0  0  0
   -4.6809   -5.4525    1.5878 C   0  0  0  0  0  0  0  0  0  0  0  0
   -5.0043   -5.8841    0.6376 H   0  0  0  0  0  0  0  0  0  0  0  0
   -4.8017   -6.2018    2.3749 H   0  0  0  0  0  0  0  0  0  0  0  0
   -5.3104   -4.5906    1.8217 H   0  0  0  0  0  0  0  0  0  0  0  0
   -2.8520   -4.0967    0.5438 N   0  0  0  0  0  0  0  0  0  0  0  0
   -1.5174   -3.4915    0.4552 C   0  0  2  0  0  0  0  0  0  0  0  0
   -1.5898   -2.0199   -0.0008 C   0  0  0  0  0  0  0  0  0  0  0  0
   -2.6310   -1.5639   -0.4567 O   0  0  0  0  0  0  0  0  0  0  0  0
   -0.6893   -4.3156   -0.5350 C   0  0  0  0  0  0  0  0  0  0  0  0
   -3.5917   -3.6605   -0.0061 H   0  0  0  0  0  0  0  0  0  0  0  0
   -1.0329   -3.5073    1.4375 H   0  0  0  0  0  0  0  0  0  0  0  0
   -1.1521   -4.2985   -1.5277 H   0  0  0  0  0  0  0  0  0  0  0  0
    0.3257   -3.9158   -0.6171 H   0  0  0  0  0  0  0  0  0  0  0  0
   -0.6233   -5.3553   -0.1991 H   0  0  0  0  0  0  0  0  0  0  0  0
   -0.4749   -1.2034    0.0523 N   0  0  0  0  0  0  0  0  0  0  0  0
   -0.4411    0.2178   -0.3522 C   0  0  2  0  0  0  0  0  0  0  0  0
   -0.8063    0.5064   -1.8327 C   0  0  0  0  0  0  0  0  0  0  0  0
   -0.6997    1.6428   -2.2783 O   0  0  0  0  0  0  0  0  0  0  0  0
    0.9849    0.7168   -0.0780 C   0  0  0  0  0  0  0  0  0  0  0  0
    1.3358    0.6794    1.7282 S   0  0  0  0  0  0  0  0  0  0  0  0
    0.3219   -1.5569    0.5768 H   0  0  0  0  0  0  0  0  0  0  0  0
   -1.1471    0.7837    0.2643 H   0  0  0  0  0  0  0  0  0  0  0  0
    1.7120    0.1043   -0.6213 H   0  0  0  0  0  0  0  0  0  0  0  0
    1.0902    1.7488   -0.4306 H   0  0  0  0  0  0  0  0  0  0  0  0
    2.5436    1.2855    1.7694 H   0  0  0  0  0  0  0  0  0  0  0  0
   -1.1386   -0.5142   -2.7024 N   0  0  0  0  0  0  0  0  0  0  0  0
   -1.5684   -0.3343   -4.0925 C   0  0  2  0  0  0  0  0  0  0  0  0
   -2.4169   -1.5333   -4.5688 C   0  0  0  0  0  0  0  0  0  0  0  0
   -2.3747   -2.6026   -3.9679 O   0  0  0  0  0  0  0  0  0  0  0  0
   -0.3291   -0.1792   -4.9810 C   0  0  0  0  0  0  0  0  0  0  0  0
   -1.4500   -1.3761   -2.2500 H   0  0  0  0  0  0  0  0  0  0  0  0
   -2.1881    0.5653   -4.1688 H   0  0  0  0  0  0  0  0  0  0  0  0
    0.3086   -1.0657   -4.9043 H   0  0  0  0  0  0  0  0  0  0  0  0
   -0.6207   -0.0486   -6.0273 H   0  0  0  0  0  0  0  0  0  0  0  0
    0.2531    0.6957   -4.6755 H   0  0  0  0  0  0  0  0  0  0  0  0
   -3.2265   -1.4177   -5.6840 N   0  0  0  0  0  0  0  0  0  0  0  0
   -4.0645   -2.5028   -6.1800 C   0  0  0  0  0  0  0  0  0  0  0  0
   -3.2656   -0.5138   -6.1460 H   0  0  0  0  0  0  0  0  0  0  0  0
   -3.4514   -3.3708   -6.4450 H   0  0  0  0  0  0  0  0  0  0  0  0
   -4.7914   -2.8043   -5.4184 H   0  0  0  0  0  0  0  0  0  0  0  0
   -4.6111   -2.1820   -7.0720 H   0  0  0  0  0  0  0  0  0  0  0  0
  1  2  2  0  0  0  0
  1  3  1  0  0  0  0
  1  7  1  0  0  0  0
  3  4  1  0  0  0  0
  3  5  1  0  0  0  0
  3  6  1  0  0  0  0
  7  8  1  0  0  0  0
  7 12  1  0  0  0  0
  8  9  1  0  0  0  0
  8 11  1  0  0  0  0
  8 13  1  0  0  0  0
  9 10  2  0  0  0  0
  9 17  1  0  0  0  0
 11 14  1  0  0  0  0
 11 15  1  0  0  0  0
 11 16  1  0  0  0  0
 17 18  1  0  0  0  0
 17 23  1  0  0  0  0
 18 19  1  0  0  0  0
 18 21  1  0  0  0  0
 18 24  1  0  0  0  0
 19 20  2  0  0  0  0
 19 28  1  0  0  0  0
 21 22  1  0  0  0  0
 21 25  1  0  0  0  0
 21 26  1  0  0  0  0
 22 27  1  0  0  0  0
 28 29  1  0  0  0  0
 28 33  1  0  0  0  0
 29 30  1  0  0  0  0
 29 32  1  0  0  0  0
 29 34  1  0  0  0  0
 30 31  2  0  0  0  0
 30 38  1  0  0  0  0
 32 35  1  0  0  0  0
 32 36  1  0  0  0  0
 32 37  1  0  0  0  0
 38 39  1  0  0  0  0
 38 40  1  0  0  0  0
 39 41  1  0  0  0  0
 39 42  1  0  0  0  0
 39 43  1  0  0  0  0
M  END
$$$$

  -OEChem-05262216003D

 43 42  0     1  0  0  0  0  0999 V2000
   -3.1849   -5.0966    1.4290 C   0  0  0  0  0  0  0  0  0  0  0  0
   -2.3301   -5.6195    2.1269 O   0  0  0  0  0  0  0  0  0  0  0  0
   -4.6244   -5.5701    1.5018 C   0  0  0  0  0  0  0  0  0  0  0  0
   -4.9551   -5.9126    0.5182 H   0  0  0  0  0  0  0  0  0  0  0  0
   -4.7143   -6.3973    2.2115 H   0  0  0  0  0  0  0  0  0  0  0  0
   -5.2695   -4.7516    1.8303 H   0  0  0  0  0  0  0  0  0  0  0  0
   -2.8438   -4.0692    0.5760 N   0  0  0  0  0  0  0  0  0  0  0  0
   -1.5135   -3.4519    0.5041 C   0  0  2  0  0  0  0  0  0  0  0  0
   -1.5982   -1.9606    0.1164 C   0  0  0  0  0  0  0  0  0  0  0  0
   -2.6699   -1.4657   -0.2111 O   0  0  0  0  0  0  0  0  0  0  0  0
   -0.6875   -4.2280   -0.5278 C   0  0  0  0  0  0  0  0  0  0  0  0
   -3.6004   -3.5944    0.0832 H   0  0  0  0  0  0  0  0  0  0  0  0
   -1.0240   -3.5092    1.4824 H   0  0  0  0  0  0  0  0  0  0  0  0
   -1.1605   -4.1735   -1.5142 H   0  0  0  0  0  0  0  0  0  0  0  0
    0.3240   -3.8183   -0.6028 H   0  0  0  0  0  0  0  0  0  0  0  0
   -0.6096   -5.2803   -0.2365 H   0  0  0  0  0  0  0  0  0  0  0  0
   -0.4676   -1.1645    0.0918 N   0  0  0  0  0  0  0  0  0  0  0  0
   -0.4129    0.2463   -0.3484 C   0  0  2  0  0  0  0  0  0  0  0  0
   -0.8394    0.5156   -1.8204 C   0  0  0  0  0  0  0  0  0  0  0  0
   -0.5040    1.5544   -2.3778 O   0  0  0  0  0  0  0  0  0  0  0  0
    1.0365    0.7098   -0.1268 C   0  0  0  0  0  0  0  0  0  0  0  0
    1.4410    0.7024    1.6686 S   0  0  0  0  0  0  0  0  0  0  0  0
    0.3753   -1.5583    0.5024 H   0  0  0  0  0  0  0  0  0  0  0  0
   -1.0788    0.8428    0.2841 H   0  0  0  0  0  0  0  0  0  0  0  0
    1.7287    0.0655   -0.6787 H   0  0  0  0  0  0  0  0  0  0  0  0
    1.1628    1.7312   -0.5020 H   0  0  0  0  0  0  0  0  0  0  0  0
    2.6720    1.2607    1.6577 H   0  0  0  0  0  0  0  0  0  0  0  0
   -1.5234   -0.4251   -2.5660 N   0  0  0  0  0  0  0  0  0  0  0  0
   -1.9868   -0.2506   -3.9469 C   0  0  2  0  0  0  0  0  0  0  0  0
   -3.1287   -1.2340   -4.2836 C   0  0  0  0  0  0  0  0  0  0  0  0
   -3.2862   -2.2559   -3.6236 O   0  0  0  0  0  0  0  0  0  0  0  0
   -0.8094   -0.4777   -4.9023 C   0  0  0  0  0  0  0  0  0  0  0  0
   -1.9935   -1.1530   -2.0194 H   0  0  0  0  0  0  0  0  0  0  0  0
   -2.3706    0.7670   -4.0748 H   0  0  0  0  0  0  0  0  0  0  0  0
   -0.4080   -1.4885   -4.7779 H   0  0  0  0  0  0  0  0  0  0  0  0
   -1.1288   -0.3546   -5.9414 H   0  0  0  0  0  0  0  0  0  0  0  0
   -0.0095    0.2416   -4.7026 H   0  0  0  0  0  0  0  0  0  0  0  0
   -3.9740   -0.9836   -5.3493 N   0  0  0  0  0  0  0  0  0  0  0  0
   -5.0743   -1.8647   -5.7210 C   0  0  0  0  0  0  0  0  0  0  0  0
   -3.8377   -0.1197   -5.8658 H   0  0  0  0  0  0  0  0  0  0  0  0
   -4.7029   -2.8722   -5.9368 H   0  0  0  0  0  0  0  0  0  0  0  0
   -5.8064   -1.9254   -4.9089 H   0  0  0  0  0  0  0  0  0  0  0  0
   -5.5788   -1.4850   -6.6147 H   0  0  0  0  0  0  0  0  0  0  0  0
  1  2  2  0  0  0  0
  1  3  1  0  0  0  0
  1  7  1  0  0  0  0
  3  4  1  0  0  0  0
  3  5  1  0  0  0  0
  3  6  1  0  0  0  0
  7  8  1  0  0  0  0
  7 12  1  0  0  0  0
  8  9  1  0  0  0  0
  8 11  1  0  0  0  0
  8 13  1  0  0  0  0
  9 10  2  0  0  0  0
  9 17  1  0  0  0  0
 11 14  1  0  0  0  0
 11 15  1  0  0  0  0
 11 16  1  0  0  0  0
 17 18  1  0  0  0  0
 17 23  1  0  0  0  0
 18 19  1  0  0  0  0
 18 21  1  0  0  0  0
 18 24  1  0  0  0  0
 19 20  2  0  0  0  0
 19 28  1  0  0  0  0
 21 22  1  0  0  0  0
 21 25  1  0  0  0  0
 21 26  1  0  0  0  0
 22 27  1  0  0  0  0
 28 29  1  0  0  0  0
 28 33  1  0  0  0  0
 29 30  1  0  0  0  0
 29 32  1  0  0  0  0
 29 34  1  0  0  0  0
 30 31  2  0  0  0  0
 30 38  1  0  0  0  0
 32 35  1  0  0  0  0
 32 36  1  0  0  0  0
 32 37  1  0  0  0  0
 38 39  1  0  0  0  0
 38 40  1  0  0  0  0
 39 41  1  0  0  0  0
 39 42  1  0  0  0  0
 39 43  1  0  0  0  0
M  END
$$$$

  -OEChem-05262216003D

 43 42  0     1  0  0  0  0  0999 V2000
   -3.1631   -5.1448    1.2923 C   0  0  0  0  0  0  0  0  0  0  0  0
   -2.2802   -5.7563    1.8736 O   0  0  0  0  0  0  0  0  0  0  0  0
   -4.6028   -5.6150    1.3791 C   0  0  0  0  0  0  0  0  0  0  0  0
   -4.9876   -5.8228    0.3776 H   0  0  0  0  0  0  0  0  0  0  0  0
   -4.6664   -6.5279    1.9779 H   0  0  0  0  0  0  0  0  0  0  0  0
   -5.2197   -4.8431    1.8455 H   0  0  0  0  0  0  0  0  0  0  0  0
   -2.8527   -4.0222    0.5557 N   0  0  0  0  0  0  0  0  0  0  0  0
   -1.5177   -3.4150    0.4838 C   0  0  2  0  0  0  0  0  0  0  0  0
   -1.5974   -1.8982    0.2103 C   0  0  0  0  0  0  0  0  0  0  0  0
   -2.6822   -1.3564    0.0341 O   0  0  0  0  0  0  0  0  0  0  0  0
   -0.7332   -4.1210   -0.6285 C   0  0  0  0  0  0  0  0  0  0  0  0
   -3.6282   -3.4822    0.1704 H   0  0  0  0  0  0  0  0  0  0  0  0
   -0.9985   -3.5497    1.4390 H   0  0  0  0  0  0  0  0  0  0  0  0
   -1.2269   -3.9756   -1.5952 H   0  0  0  0  0  0  0  0  0  0  0  0
    0.2854   -3.7281   -0.6936 H   0  0  0  0  0  0  0  0  0  0  0  0
   -0.6719   -5.1953   -0.4271 H   0  0  0  0  0  0  0  0  0  0  0  0
   -0.4534   -1.1255    0.1317 N   0  0  0  0  0  0  0  0  0  0  0  0
   -0.3864    0.2788   -0.3261 C   0  0  2  0  0  0  0  0  0  0  0  0
   -0.8668    0.5308   -1.7870 C   0  0  0  0  0  0  0  0  0  0  0  0
   -0.3446    1.4060   -2.4684 O   0  0  0  0  0  0  0  0  0  0  0  0
    1.0745    0.7281   -0.1425 C   0  0  0  0  0  0  0  0  0  0  0  0
    1.5224    0.7392    1.6428 S   0  0  0  0  0  0  0  0  0  0  0  0
    0.4196   -1.5761    0.3919 H   0  0  0  0  0  0  0  0  0  0  0  0
   -1.0244    0.8911    0.3191 H   0  0  0  0  0  0  0  0  0  0  0  0
    1.7465    0.0698   -0.7025 H   0  0  0  0  0  0  0  0  0  0  0  0
    1.2044    1.7441   -0.5318 H   0  0  0  0  0  0  0  0  0  0  0  0
    2.7662    1.2664    1.5938 H   0  0  0  0  0  0  0  0  0  0  0  0
   -1.8373   -0.2487   -2.3874 N   0  0  0  0  0  0  0  0  0  0  0  0
   -2.3334   -0.1034   -3.7613 C   0  0  2  0  0  0  0  0  0  0  0  0
   -3.6957   -0.8050   -3.9518 C   0  0  0  0  0  0  0  0  0  0  0  0
   -4.0354   -1.7212   -3.2110 O   0  0  0  0  0  0  0  0  0  0  0  0
   -1.3087   -0.7034   -4.7321 C   0  0  0  0  0  0  0  0  0  0  0  0
   -2.3815   -0.8495   -1.7584 H   0  0  0  0  0  0  0  0  0  0  0  0
   -2.4696    0.9598   -3.9843 H   0  0  0  0  0  0  0  0  0  0  0  0
   -1.1537   -1.7648   -4.5136 H   0  0  0  0  0  0  0  0  0  0  0  0
   -1.6571   -0.6077   -5.7650 H   0  0  0  0  0  0  0  0  0  0  0  0
   -0.3479   -0.1869   -4.6462 H   0  0  0  0  0  0  0  0  0  0  0  0
   -4.5391   -0.4220   -4.9790 N   0  0  0  0  0  0  0  0  0  0  0  0
   -5.8512   -1.0180   -5.2006 C   0  0  0  0  0  0  0  0  0  0  0  0
   -4.2462    0.3556   -5.5630 H   0  0  0  0  0  0  0  0  0  0  0  0
   -5.7623   -2.0997   -5.3470 H   0  0  0  0  0  0  0  0  0  0  0  0
   -6.5052   -0.8316   -4.3424 H   0  0  0  0  0  0  0  0  0  0  0  0
   -6.3172   -0.5872   -6.0920 H   0  0  0  0  0  0  0  0  0  0  0  0
  1  2  2  0  0  0  0
  1  3  1  0  0  0  0
  1  7  1  0  0  0  0
  3  4  1  0  0  0  0
  3  5  1  0  0  0  0
  3  6  1  0  0  0  0
  7  8  1  0  0  0  0
  7 12  1  0  0  0  0
  8  9  1  0  0  0  0
  8 11  1  0  0  0  0
  8 13  1  0  0  0  0
  9 10  2  0  0  0  0
  9 17  1  0  0  0  0
 11 14  1  0  0  0  0
 11 15  1  0  0  0  0
 11 16  1  0  0  0  0
 17 18  1  0  0  0  0
 17 23  1  0  0  0  0
 18 19  1  0  0  0  0
 18 21  1  0  0  0  0
 18 24  1  0  0  0  0
 19 20  2  0  0  0  0
 19 28  1  0  0  0  0
 21 22  1  0  0  0  0
 21 25  1  0  0  0  0
 21 26  1  0  0  0  0
 22 27  1  0  0  0  0
 28 29  1  0  0  0  0
 28 33  1  0  0  0  0
 29 30  1  0  0  0  0
 29 32  1  0  0  0  0
 29 34  1  0  0  0  0
 30 31  2  0  0  0  0
 30 38  1  0  0  0  0
 32 35  1  0  0  0  0
 32 36  1  0  0  0  0
 32 37  1  0  0  0  0
 38 39  1  0  0  0  0
 38 40  1  0  0  0  0
 39 41  1  0  0  0  0
 39 42  1  0  0  0  0
 39 43  1  0  0  0  0
M  END
$$$$

  -OEChem-05262216003D

 43 42  0     1  0  0  0  0  0999 V2000
   -3.1835   -5.1344    1.1519 C   0  0  0  0  0  0  0  0  0  0  0  0
   -2.2846   -5.8364    1.5885 O   0  0  0  0  0  0  0  0  0  0  0  0
   -4.6322   -5.5476    1.3303 C   0  0  0  0  0  0  0  0  0  0  0  0
   -5.1152   -5.6427    0.3546 H   0  0  0  0  0  0  0  0  0  0  0  0
   -4.6889   -6.5094    1.8475 H   0  0  0  0  0  0  0  0  0  0  0  0
   -5.1645   -4.7977    1.9205 H   0  0  0  0  0  0  0  0  0  0  0  0
   -2.8826   -3.9615    0.4944 N   0  0  0  0  0  0  0  0  0  0  0  0
   -1.5322   -3.3983    0.3690 C   0  0  2  0  0  0  0  0  0  0  0  0
   -1.5765   -1.8606    0.2470 C   0  0  0  0  0  0  0  0  0  0  0  0
   -2.6530   -1.2758    0.2147 O   0  0  0  0  0  0  0  0  0  0  0  0
   -0.8700   -4.0185   -0.8669 C   0  0  0  0  0  0  0  0  0  0  0  0
   -3.6613   -3.3496    0.2471 H   0  0  0  0  0  0  0  0  0  0  0  0
   -0.9434   -3.6418    1.2601 H   0  0  0  0  0  0  0  0  0  0  0  0
   -1.4360   -3.7663   -1.7696 H   0  0  0  0  0  0  0  0  0  0  0  0
    0.1544   -3.6527   -0.9826 H   0  0  0  0  0  0  0  0  0  0  0  0
   -0.8352   -5.1087   -0.7721 H   0  0  0  0  0  0  0  0  0  0  0  0
   -0.4186   -1.1109    0.1521 N   0  0  0  0  0  0  0  0  0  0  0  0
   -0.3512    0.3045   -0.2691 C   0  0  2  0  0  0  0  0  0  0  0  0
   -0.8853    0.5822   -1.7061 C   0  0  0  0  0  0  0  0  0  0  0  0
   -0.2373    1.2674   -2.4896 O   0  0  0  0  0  0  0  0  0  0  0  0
    1.1145    0.7495   -0.1205 C   0  0  0  0  0  0  0  0  0  0  0  0
    1.6217    0.7173    1.6484 S   0  0  0  0  0  0  0  0  0  0  0  0
    0.4591   -1.6093    0.2694 H   0  0  0  0  0  0  0  0  0  0  0  0
   -0.9641    0.9050    0.4115 H   0  0  0  0  0  0  0  0  0  0  0  0
    1.7682    0.1058   -0.7178 H   0  0  0  0  0  0  0  0  0  0  0  0
    1.2290    1.7741   -0.4912 H   0  0  0  0  0  0  0  0  0  0  0  0
    2.8716    1.2254    1.5685 H   0  0  0  0  0  0  0  0  0  0  0  0
   -2.0675    0.0351   -2.1678 N   0  0  0  0  0  0  0  0  0  0  0  0
   -2.6002    0.1497   -3.5315 C   0  0  2  0  0  0  0  0  0  0  0  0
   -4.0883   -0.2552   -3.6044 C   0  0  0  0  0  0  0  0  0  0  0  0
   -4.5623   -1.0393   -2.7904 O   0  0  0  0  0  0  0  0  0  0  0  0
   -1.7860   -0.7523   -4.4682 C   0  0  0  0  0  0  0  0  0  0  0  0
   -2.6319   -0.4803   -1.4817 H   0  0  0  0  0  0  0  0  0  0  0  0
   -2.5181    1.1906   -3.8613 H   0  0  0  0  0  0  0  0  0  0  0  0
   -1.8419   -1.7940   -4.1365 H   0  0  0  0  0  0  0  0  0  0  0  0
   -2.1725   -0.6911   -5.4900 H   0  0  0  0  0  0  0  0  0  0  0  0
   -0.7352   -0.4481   -4.4822 H   0  0  0  0  0  0  0  0  0  0  0  0
   -4.8946    0.2296   -4.6181 N   0  0  0  0  0  0  0  0  0  0  0  0
   -6.3053   -0.1145   -4.7516 C   0  0  0  0  0  0  0  0  0  0  0  0
   -4.4814    0.8813   -5.2785 H   0  0  0  0  0  0  0  0  0  0  0  0
   -6.4274   -1.1973   -4.8626 H   0  0  0  0  0  0  0  0  0  0  0  0
   -6.8648    0.2141   -3.8694 H   0  0  0  0  0  0  0  0  0  0  0  0
   -6.7325    0.3732   -5.6332 H   0  0  0  0  0  0  0  0  0  0  0  0
  1  2  2  0  0  0  0
  1  3  1  0  0  0  0
  1  7  1  0  0  0  0
  3  4  1  0  0  0  0
  3  5  1  0  0  0  0
  3  6  1  0  0  0  0
  7  8  1  0  0  0  0
  7 12  1  0  0  0  0
  8  9  1  0  0  0  0
  8 11  1  0  0  0  0
  8 13  1  0  0  0  0
  9 10  2  0  0  0  0
  9 17  1  0  0  0  0
 11 14  1  0  0  0  0
 11 15  1  0  0  0  0
 11 16  1  0  0  0  0
 17 18  1  0  0  0  0
 17 23  1  0  0  0  0
 18 19  1  0  0  0  0
 18 21  1  0  0  0  0
 18 24  1  0  0  0  0
 19 20  2  0  0  0  0
 19 28  1  0  0  0  0
 21 22  1  0  0  0  0
 21 25  1  0  0  0  0
 21 26  1  0  0  0  0
 22 27  1  0  0  0  0
 28 29  1  0  0  0  0
 28 33  1  0  0  0  0
 29 30  1  0  0  0  0
 29 32  1  0  0  0  0
 29 34  1  0  0  0  0
 30 31  2  0  0  0  0
 30 38  1  0  0  0  0
 32 35  1  0  0  0  0
 32 36  1  0  0  0  0
 32 37  1  0  0  0  0
 38 39  1  0  0  0  0
 38 40  1  0  0  0  0
 39 41  1  0  0  0  0
 39 42  1  0  0  0  0
 39 43  1  0  0  0  0
M  END
$$$$

  -OEChem-05262216003D

 43 42  0     1  0  0  0  0  0999 V2000
   -2.9670   -5.2741    1.3379 C   0  0  0  0  0  0  0  0  0  0  0  0
   -2.0054   -5.8816    1.7818 O   0  0  0  0  0  0  0  0  0  0  0  0
   -4.3763   -5.7439    1.6453 C   0  0  0  0  0  0  0  0  0  0  0  0
   -4.8958   -5.9952    0.7173 H   0  0  0  0  0  0  0  0  0  0  0  0
   -4.3473   -6.6303    2.2852 H   0  0  0  0  0  0  0  0  0  0  0  0
   -4.9289   -4.9549    2.1613 H   0  0  0  0  0  0  0  0  0  0  0  0
   -2.7738   -4.1537    0.5587 N   0  0  0  0  0  0  0  0  0  0  0  0
   -1.4694   -3.5208    0.3249 C   0  0  2  0  0  0  0  0  0  0  0  0
   -1.6143   -2.0037    0.0842 C   0  0  0  0  0  0  0  0  0  0  0  0
   -2.7264   -1.5067   -0.0483 O   0  0  0  0  0  0  0  0  0  0  0  0
   -0.8126   -4.1941   -0.8850 C   0  0  0  0  0  0  0  0  0  0  0  0
   -3.5992   -3.6048    0.3170 H   0  0  0  0  0  0  0  0  0  0  0  0
   -0.8317   -3.6537    1.2057 H   0  0  0  0  0  0  0  0  0  0  0  0
   -1.4323   -4.0630   -1.7781 H   0  0  0  0  0  0  0  0  0  0  0  0
    0.1744   -3.7634   -1.0786 H   0  0  0  0  0  0  0  0  0  0  0  0
   -0.6883   -5.2662   -0.7013 H   0  0  0  0  0  0  0  0  0  0  0  0
   -0.5020   -1.1834    0.0569 N   0  0  0  0  0  0  0  0  0  0  0  0
   -0.4905    0.2539   -0.2803 C   0  0  2  0  0  0  0  0  0  0  0  0
   -1.0025    0.5971   -1.7083 C   0  0  0  0  0  0  0  0  0  0  0  0
   -0.2614    1.1400   -2.5214 O   0  0  0  0  0  0  0  0  0  0  0  0
    0.9493    0.7529   -0.0700 C   0  0  0  0  0  0  0  0  0  0  0  0
    1.4172    0.6396    1.7062 S   0  0  0  0  0  0  0  0  0  0  0  0
    0.3886   -1.6154    0.2883 H   0  0  0  0  0  0  0  0  0  0  0  0
   -1.1437    0.7856    0.4196 H   0  0  0  0  0  0  0  0  0  0  0  0
    1.6446    0.1727   -0.6859 H   0  0  0  0  0  0  0  0  0  0  0  0
    1.0235    1.8004   -0.3824 H   0  0  0  0  0  0  0  0  0  0  0  0
    2.6446    1.2058    1.6851 H   0  0  0  0  0  0  0  0  0  0  0  0
   -2.2824    0.2819   -2.1201 N   0  0  0  0  0  0  0  0  0  0  0  0
   -2.8225    0.5064   -3.4673 C   0  0  2  0  0  0  0  0  0  0  0  0
   -4.3535    0.7009   -3.4714 C   0  0  0  0  0  0  0  0  0  0  0  0
   -5.0460    0.2568   -2.5641 O   0  0  0  0  0  0  0  0  0  0  0  0
   -2.4426   -0.6945   -4.3392 C   0  0  0  0  0  0  0  0  0  0  0  0
   -2.8750   -0.2134   -1.4426 H   0  0  0  0  0  0  0  0  0  0  0  0
   -2.3799    1.4142   -3.8899 H   0  0  0  0  0  0  0  0  0  0  0  0
   -2.8788   -1.6128   -3.9325 H   0  0  0  0  0  0  0  0  0  0  0  0
   -2.8076   -0.5577   -5.3616 H   0  0  0  0  0  0  0  0  0  0  0  0
   -1.3547   -0.8103   -4.3743 H   0  0  0  0  0  0  0  0  0  0  0  0
   -4.9662    1.3573   -4.5237 N   0  0  0  0  0  0  0  0  0  0  0  0
   -6.4069    1.5659   -4.6059 C   0  0  0  0  0  0  0  0  0  0  0  0
   -4.3711    1.7294   -5.2577 H   0  0  0  0  0  0  0  0  0  0  0  0
   -6.9336    0.6057   -4.6058 H   0  0  0  0  0  0  0  0  0  0  0  0
   -6.7573    2.1600   -3.7552 H   0  0  0  0  0  0  0  0  0  0  0  0
   -6.6606    2.0982   -5.5276 H   0  0  0  0  0  0  0  0  0  0  0  0
  1  2  2  0  0  0  0
  1  3  1  0  0  0  0
  1  7  1  0  0  0  0
  3  4  1  0  0  0  0
  3  5  1  0  0  0  0
  3  6  1  0  0  0  0
  7  8  1  0  0  0  0
  7 12  1  0  0  0  0
  8  9  1  0  0  0  0
  8 11  1  0  0  0  0
  8 13  1  0  0  0  0
  9 10  2  0  0  0  0
  9 17  1  0  0  0  0
 11 14  1  0  0  0  0
 11 15  1  0  0  0  0
 11 16  1  0  0  0  0
 17 18  1  0  0  0  0
 17 23  1  0  0  0  0
 18 19  1  0  0  0  0
 18 21  1  0  0  0  0
 18 24  1  0  0  0  0
 19 20  2  0  0  0  0
 19 28  1  0  0  0  0
 21 22  1  0  0  0  0
 21 25  1  0  0  0  0
 21 26  1  0  0  0  0
 22 27  1  0  0  0  0
 28 29  1  0  0  0  0
 28 33  1  0  0  0  0
 29 30  1  0  0  0  0
 29 32  1  0  0  0  0
 29 34  1  0  0  0  0
 30 31  2  0  0  0  0
 30 38  1  0  0  0  0
 32 35  1  0  0  0  0
 32 36  1  0  0  0  0
 32 37  1  0  0  0  0
 38 39  1  0  0  0  0
 38 40  1  0  0  0  0
 39 41  1  0  0  0  0
 39 42  1  0  0  0  0
 39 43  1  0  0  0  0
M  END
$$$$

  -OEChem-05262216003D

 43 42  0     1  0  0  0  0  0999 V2000
   -3.0683   -5.2101    1.2287 C   0  0  0  0  0  0  0  0  0  0  0  0
   -2.1238   -5.8597    1.6489 O   0  0  0  0  0  0  0  0  0  0  0  0
   -4.4896   -5.6489    1.5256 C   0  0  0  0  0  0  0  0  0  0  0  0
   -5.0260   -5.8320    0.5913 H   0  0  0  0  0  0  0  0  0  0  0  0
   -4.4852   -6.5696    2.1157 H   0  0  0  0  0  0  0  0  0  0  0  0
   -5.0099   -4.8711    2.0899 H   0  0  0  0  0  0  0  0  0  0  0  0
   -2.8445   -4.0723    0.4837 N   0  0  0  0  0  0  0  0  0  0  0  0
   -1.5207   -3.4822    0.2464 C   0  0  2  0  0  0  0  0  0  0  0  0
   -1.6118   -1.9579    0.0257 C   0  0  0  0  0  0  0  0  0  0  0  0
   -2.7049   -1.4225   -0.1219 O   0  0  0  0  0  0  0  0  0  0  0  0
   -0.8970   -4.1623   -0.9771 C   0  0  0  0  0  0  0  0  0  0  0  0
   -3.6534   -3.4942    0.2557 H   0  0  0  0  0  0  0  0  0  0  0  0
   -0.8819   -3.6499    1.1206 H   0  0  0  0  0  0  0  0  0  0  0  0
   -1.5198   -4.0002   -1.8626 H   0  0  0  0  0  0  0  0  0  0  0  0
    0.1015   -3.7608   -1.1744 H   0  0  0  0  0  0  0  0  0  0  0  0
   -0.8063   -5.2401   -0.8082 H   0  0  0  0  0  0  0  0  0  0  0  0
   -0.4723   -1.1751    0.0286 N   0  0  0  0  0  0  0  0  0  0  0  0
   -0.4306    0.2721   -0.2506 C   0  0  2  0  0  0  0  0  0  0  0  0
   -0.9454    0.6629   -1.6616 C   0  0  0  0  0  0  0  0  0  0  0  0
   -0.1636    1.0132   -2.5399 O   0  0  0  0  0  0  0  0  0  0  0  0
    1.0211    0.7344   -0.0490 C   0  0  0  0  0  0  0  0  0  0  0  0
    1.5176    0.5427    1.7124 S   0  0  0  0  0  0  0  0  0  0  0  0
    0.4025   -1.6340    0.2690 H   0  0  0  0  0  0  0  0  0  0  0  0
   -1.0619    0.7951    0.4754 H   0  0  0  0  0  0  0  0  0  0  0  0
    1.6935    0.1618   -0.6970 H   0  0  0  0  0  0  0  0  0  0  0  0
    1.1101    1.7900   -0.3282 H   0  0  0  0  0  0  0  0  0  0  0  0
    2.7563    1.0831    1.6886 H   0  0  0  0  0  0  0  0  0  0  0  0
   -2.2952    0.6572   -1.9510 N   0  0  0  0  0  0  0  0  0  0  0  0
   -2.8775    0.9353   -3.2702 C   0  0  2  0  0  0  0  0  0  0  0  0
   -4.3520    1.3875   -3.1873 C   0  0  0  0  0  0  0  0  0  0  0  0
   -5.0189    1.1841   -2.1800 O   0  0  0  0  0  0  0  0  0  0  0  0
   -2.7618   -0.3327   -4.1237 C   0  0  0  0  0  0  0  0  0  0  0  0
   -2.9042    0.2232   -1.2481 H   0  0  0  0  0  0  0  0  0  0  0  0
   -2.3173    1.7459   -3.7477 H   0  0  0  0  0  0  0  0  0  0  0  0
   -3.3037   -1.1596   -3.6530 H   0  0  0  0  0  0  0  0  0  0  0  0
   -3.1792   -0.1644   -5.1208 H   0  0  0  0  0  0  0  0  0  0  0  0
   -1.7124   -0.6226   -4.2356 H   0  0  0  0  0  0  0  0  0  0  0  0
   -4.9435    2.0256   -4.2633 N   0  0  0  0  0  0  0  0  0  0  0  0
   -6.3219    2.5019   -4.2538 C   0  0  0  0  0  0  0  0  0  0  0  0
   -4.3686    2.1985   -5.0824 H   0  0  0  0  0  0  0  0  0  0  0  0
   -7.0133    1.6739   -4.0652 H   0  0  0  0  0  0  0  0  0  0  0  0
   -6.4601    3.2597   -3.4753 H   0  0  0  0  0  0  0  0  0  0  0  0
   -6.5753    2.9483   -5.2203 H   0  0  0  0  0  0  0  0  0  0  0  0
  1  2  2  0  0  0  0
  1  3  1  0  0  0  0
  1  7  1  0  0  0  0
  3  4  1  0  0  0  0
  3  5  1  0  0  0  0
  3  6  1  0  0  0  0
  7  8  1  0  0  0  0
  7 12  1  0  0  0  0
  8  9  1  0  0  0  0
  8 11  1  0  0  0  0
  8 13  1  0  0  0  0
  9 10  2  0  0  0  0
  9 17  1  0  0  0  0
 11 14  1  0  0  0  0
 11 15  1  0  0  0  0
 11 16  1  0  0  0  0
 17 18  1  0  0  0  0
 17 23  1  0  0  0  0
 18 19  1  0  0  0  0
 18 21  1  0  0  0  0
 18 24  1  0  0  0  0
 19 20  2  0  0  0  0
 19 28  1  0  0  0  0
 21 22  1  0  0  0  0
 21 25  1  0  0  0  0
 21 26  1  0  0  0  0
 22 27  1  0  0  0  0
 28 29  1  0  0  0  0
 28 33  1  0  0  0  0
 29 30  1  0  0  0  0
 29 32  1  0  0  0  0
 29 34  1  0  0  0  0
 30 31  2  0  0  0  0
 30 38  1  0  0  0  0
 32 35  1  0  0  0  0
 32 36  1  0  0  0  0
 32 37  1  0  0  0  0
 38 39  1  0  0  0  0
 38 40  1  0  0  0  0
 39 41  1  0  0  0  0
 39 42  1  0  0  0  0
 39 43  1  0  0  0  0
M  END
$$$$

  -OEChem-05262216003D

 43 42  0     1  0  0  0  0  0999 V2000
   -3.1515   -5.1350    1.1660 C   0  0  0  0  0  0  0  0  0  0  0  0
   -2.2299   -5.7951    1.6189 O   0  0  0  0  0  0  0  0  0  0  0  0
   -4.5874   -5.5270    1.4599 C   0  0  0  0  0  0  0  0  0  0  0  0
   -5.1143   -5.7412    0.5269 H   0  0  0  0  0  0  0  0  0  0  0  0
   -4.6129   -6.4189    2.0922 H   0  0  0  0  0  0  0  0  0  0  0  0
   -5.0978   -4.7126    1.9796 H   0  0  0  0  0  0  0  0  0  0  0  0
   -2.8882   -4.0254    0.3914 N   0  0  0  0  0  0  0  0  0  0  0  0
   -1.5480   -3.4651    0.1741 C   0  0  2  0  0  0  0  0  0  0  0  0
   -1.6011   -1.9382   -0.0428 C   0  0  0  0  0  0  0  0  0  0  0  0
   -2.6770   -1.3786   -0.2295 O   0  0  0  0  0  0  0  0  0  0  0  0
   -0.9239   -4.1567   -1.0420 C   0  0  0  0  0  0  0  0  0  0  0  0
   -3.6791   -3.4337    0.1378 H   0  0  0  0  0  0  0  0  0  0  0  0
   -0.9239   -3.6496    1.0555 H   0  0  0  0  0  0  0  0  0  0  0  0
   -1.5292   -3.9773   -1.9365 H   0  0  0  0  0  0  0  0  0  0  0  0
    0.0871   -3.7796   -1.2232 H   0  0  0  0  0  0  0  0  0  0  0  0
   -0.8623   -5.2368   -0.8737 H   0  0  0  0  0  0  0  0  0  0  0  0
   -0.4483   -1.1767    0.0067 N   0  0  0  0  0  0  0  0  0  0  0  0
   -0.3984    0.2754   -0.2304 C   0  0  2  0  0  0  0  0  0  0  0  0
   -0.8920    0.6816   -1.6405 C   0  0  0  0  0  0  0  0  0  0  0  0
   -0.1007    0.8291   -2.5663 O   0  0  0  0  0  0  0  0  0  0  0  0
    1.0504    0.7371   -0.0148 C   0  0  0  0  0  0  0  0  0  0  0  0
    1.5457    0.5004    1.7411 S   0  0  0  0  0  0  0  0  0  0  0  0
    0.4143   -1.6478    0.2658 H   0  0  0  0  0  0  0  0  0  0  0  0
   -1.0355    0.7844    0.5005 H   0  0  0  0  0  0  0  0  0  0  0  0
    1.7258    0.1816   -0.6745 H   0  0  0  0  0  0  0  0  0  0  0  0
    1.1363    1.7987   -0.2703 H   0  0  0  0  0  0  0  0  0  0  0  0
    2.7898    1.0290    1.7293 H   0  0  0  0  0  0  0  0  0  0  0  0
   -2.2250    0.9690   -1.8519 N   0  0  0  0  0  0  0  0  0  0  0  0
   -2.8115    1.3304   -3.1479 C   0  0  2  0  0  0  0  0  0  0  0  0
   -4.1534    2.0793   -2.9958 C   0  0  0  0  0  0  0  0  0  0  0  0
   -4.7632    2.0677   -1.9328 O   0  0  0  0  0  0  0  0  0  0  0  0
   -3.0124    0.0473   -3.9633 C   0  0  0  0  0  0  0  0  0  0  0  0
   -2.8701    0.6655   -1.1174 H   0  0  0  0  0  0  0  0  0  0  0  0
   -2.1257    1.9962   -3.6819 H   0  0  0  0  0  0  0  0  0  0  0  0
   -3.6916   -0.6336   -3.4400 H   0  0  0  0  0  0  0  0  0  0  0  0
   -3.4362    0.2776   -4.9452 H   0  0  0  0  0  0  0  0  0  0  0  0
   -2.0571   -0.4646   -4.1146 H   0  0  0  0  0  0  0  0  0  0  0  0
   -4.6911    2.7686   -4.0679 N   0  0  0  0  0  0  0  0  0  0  0  0
   -5.9540    3.4941   -3.9994 C   0  0  0  0  0  0  0  0  0  0  0  0
   -4.1660    2.7730   -4.9372 H   0  0  0  0  0  0  0  0  0  0  0  0
   -6.7681    2.8213   -3.7093 H   0  0  0  0  0  0  0  0  0  0  0  0
   -5.8893    4.3049   -3.2662 H   0  0  0  0  0  0  0  0  0  0  0  0
   -6.1960    3.9270   -4.9747 H   0  0  0  0  0  0  0  0  0  0  0  0
  1  2  2  0  0  0  0
  1  3  1  0  0  0  0
  1  7  1  0  0  0  0
  3  4  1  0  0  0  0
  3  5  1  0  0  0  0
  3  6  1  0  0  0  0
  7  8  1  0  0  0  0
  7 12  1  0  0  0  0
  8  9  1  0  0  0  0
  8 11  1  0  0  0  0
  8 13  1  0  0  0  0
  9 10  2  0  0  0  0
  9 17  1  0  0  0  0
 11 14  1  0  0  0  0
 11 15  1  0  0  0  0
 11 16  1  0  0  0  0
 17 18  1  0  0  0  0
 17 23  1  0  0  0  0
 18 19  1  0  0  0  0
 18 21  1  0  0  0  0
 18 24  1  0  0  0  0
 19 20  2  0  0  0  0
 19 28  1  0  0  0  0
 21 22  1  0  0  0  0
 21 25  1  0  0  0  0
 21 26  1  0  0  0  0
 22 27  1  0  0  0  0
 28 29  1  0  0  0  0
 28 33  1  0  0  0  0
 29 30  1  0  0  0  0
 29 32  1  0  0  0  0
 29 34  1  0  0  0  0
 30 31  2  0  0  0  0
 30 38  1  0  0  0  0
 32 35  1  0  0  0  0
 32 36  1  0  0  0  0
 32 37  1  0  0  0  0
 38 39  1  0  0  0  0
 38 40  1  0  0  0  0
 39 41  1  0  0  0  0
 39 42  1  0  0  0  0
 39 43  1  0  0  0  0
M  END
$$$$

  -OEChem-05262216003D

 43 42  0     1  0  0  0  0  0999 V2000
   -3.2146   -5.0719    1.1133 C   0  0  0  0  0  0  0  0  0  0  0  0
   -2.3103   -5.7410    1.5878 O   0  0  0  0  0  0  0  0  0  0  0  0
   -4.6609   -5.4314    1.3977 C   0  0  0  0  0  0  0  0  0  0  0  0
   -5.1821   -5.6510    0.4627 H   0  0  0  0  0  0  0  0  0  0  0  0
   -4.7107   -6.3119    2.0444 H   0  0  0  0  0  0  0  0  0  0  0  0
   -5.1611   -4.5985    1.8979 H   0  0  0  0  0  0  0  0  0  0  0  0
   -2.9231   -3.9787    0.3257 N   0  0  0  0  0  0  0  0  0  0  0  0
   -1.5715   -3.4405    0.1236 C   0  0  2  0  0  0  0  0  0  0  0  0
   -1.5949   -1.9105   -0.0723 C   0  0  0  0  0  0  0  0  0  0  0  0
   -2.6572   -1.3270   -0.2664 O   0  0  0  0  0  0  0  0  0  0  0  0
   -0.9520   -4.1290   -1.0964 C   0  0  0  0  0  0  0  0  0  0  0  0
   -3.7005   -3.3761    0.0570 H   0  0  0  0  0  0  0  0  0  0  0  0
   -0.9559   -3.6466    1.0061 H   0  0  0  0  0  0  0  0  0  0  0  0
   -1.5462   -3.9267   -1.9932 H   0  0  0  0  0  0  0  0  0  0  0  0
    0.0676   -3.7698   -1.2658 H   0  0  0  0  0  0  0  0  0  0  0  0
   -0.9134   -5.2119   -0.9404 H   0  0  0  0  0  0  0  0  0  0  0  0
   -0.4302   -1.1711    0.0074 N   0  0  0  0  0  0  0  0  0  0  0  0
   -0.3668    0.2827   -0.2024 C   0  0  2  0  0  0  0  0  0  0  0  0
   -0.8436    0.7015   -1.6121 C   0  0  0  0  0  0  0  0  0  0  0  0
   -0.0953    0.6008   -2.5790 O   0  0  0  0  0  0  0  0  0  0  0  0
    1.0841    0.7323    0.0159 C   0  0  0  0  0  0  0  0  0  0  0  0
    1.5816    0.4608    1.7664 S   0  0  0  0  0  0  0  0  0  0  0  0
    0.4277   -1.6620    0.2441 H   0  0  0  0  0  0  0  0  0  0  0  0
   -1.0025    0.7857    0.5335 H   0  0  0  0  0  0  0  0  0  0  0  0
    1.7544    0.1837   -0.6547 H   0  0  0  0  0  0  0  0  0  0  0  0
    1.1755    1.7974   -0.2220 H   0  0  0  0  0  0  0  0  0  0  0  0
    2.8320    0.9741    1.7626 H   0  0  0  0  0  0  0  0  0  0  0  0
   -2.0821    1.2881   -1.7794 N   0  0  0  0  0  0  0  0  0  0  0  0
   -2.6541    1.6891   -3.0702 C   0  0  2  0  0  0  0  0  0  0  0  0
   -3.7917    2.7203   -2.9045 C   0  0  0  0  0  0  0  0  0  0  0  0
   -4.2992    2.9206   -1.8068 O   0  0  0  0  0  0  0  0  0  0  0  0
   -3.1775    0.4349   -3.7804 C   0  0  0  0  0  0  0  0  0  0  0  0
   -2.7236    1.2365   -0.9871 H   0  0  0  0  0  0  0  0  0  0  0  0
   -1.8748    2.1549   -3.6823 H   0  0  0  0  0  0  0  0  0  0  0  0
   -3.9517   -0.0487   -3.1755 H   0  0  0  0  0  0  0  0  0  0  0  0
   -3.6045    0.6925   -4.7542 H   0  0  0  0  0  0  0  0  0  0  0  0
   -2.3653   -0.2809   -3.9415 H   0  0  0  0  0  0  0  0  0  0  0  0
   -4.2516    3.4324   -3.9974 N   0  0  0  0  0  0  0  0  0  0  0  0
   -5.3193    4.4220   -3.9170 C   0  0  0  0  0  0  0  0  0  0  0  0
   -3.8116    3.2530   -4.8949 H   0  0  0  0  0  0  0  0  0  0  0  0
   -6.2354    3.9672   -3.5254 H   0  0  0  0  0  0  0  0  0  0  0  0
   -5.0276    5.2480   -3.2599 H   0  0  0  0  0  0  0  0  0  0  0  0
   -5.5337    4.8286   -4.9098 H   0  0  0  0  0  0  0  0  0  0  0  0
  1  2  2  0  0  0  0
  1  3  1  0  0  0  0
  1  7  1  0  0  0  0
  3  4  1  0  0  0  0
  3  5  1  0  0  0  0
  3  6  1  0  0  0  0
  7  8  1  0  0  0  0
  7 12  1  0  0  0  0
  8  9  1  0  0  0  0
  8 11  1  0  0  0  0
  8 13  1  0  0  0  0
  9 10  2  0  0  0  0
  9 17  1  0  0  0  0
 11 14  1  0  0  0  0
 11 15  1  0  0  0  0
 11 16  1  0  0  0  0
 17 18  1  0  0  0  0
 17 23  1  0  0  0  0
 18 19  1  0  0  0  0
 18 21  1  0  0  0  0
 18 24  1  0  0  0  0
 19 20  2  0  0  0  0
 19 28  1  0  0  0  0
 21 22  1  0  0  0  0
 21 25  1  0  0  0  0
 21 26  1  0  0  0  0
 22 27  1  0  0  0  0
 28 29  1  0  0  0  0
 28 33  1  0  0  0  0
 29 30  1  0  0  0  0
 29 32  1  0  0  0  0
 29 34  1  0  0  0  0
 30 31  2  0  0  0  0
 30 38  1  0  0  0  0
 32 35  1  0  0  0  0
 32 36  1  0  0  0  0
 32 37  1  0  0  0  0
 38 39  1  0  0  0  0
 38 40  1  0  0  0  0
 39 41  1  0  0  0  0
 39 42  1  0  0  0  0
 39 43  1  0  0  0  0
M  END
$$$$

  -OEChem-05262216003D

 43 42  0     1  0  0  0  0  0999 V2000
   -3.2444   -5.0654    1.0711 C   0  0  0  0  0  0  0  0  0  0  0  0
   -2.3437   -5.7570    1.5191 O   0  0  0  0  0  0  0  0  0  0  0  0
   -4.6913   -5.4229    1.3532 C   0  0  0  0  0  0  0  0  0  0  0  0
   -5.2081   -5.6492    0.4176 H   0  0  0  0  0  0  0  0  0  0  0  0
   -4.7426   -6.2991    2.0055 H   0  0  0  0  0  0  0  0  0  0  0  0
   -5.1937   -4.5872    1.8465 H   0  0  0  0  0  0  0  0  0  0  0  0
   -2.9476   -3.9526    0.3137 N   0  0  0  0  0  0  0  0  0  0  0  0
   -1.5920   -3.4241    0.1152 C   0  0  2  0  0  0  0  0  0  0  0  0
   -1.6007   -1.8887   -0.0317 C   0  0  0  0  0  0  0  0  0  0  0  0
   -2.6580   -1.2895   -0.2044 O   0  0  0  0  0  0  0  0  0  0  0  0
   -0.9958   -4.0793   -1.1341 C   0  0  0  0  0  0  0  0  0  0  0  0
   -3.7197   -3.3341    0.0671 H   0  0  0  0  0  0  0  0  0  0  0  0
   -0.9696   -3.6659    0.9836 H   0  0  0  0  0  0  0  0  0  0  0  0
   -1.5968   -3.8374   -2.0165 H   0  0  0  0  0  0  0  0  0  0  0  0
    0.0267   -3.7288   -1.3027 H   0  0  0  0  0  0  0  0  0  0  0  0
   -0.9715   -5.1673   -1.0162 H   0  0  0  0  0  0  0  0  0  0  0  0
   -0.4285   -1.1624    0.0546 N   0  0  0  0  0  0  0  0  0  0  0  0
   -0.3575    0.2887   -0.1713 C   0  0  2  0  0  0  0  0  0  0  0  0
   -0.8181    0.6905   -1.5897 C   0  0  0  0  0  0  0  0  0  0  0  0
   -0.1777    0.3318   -2.5725 O   0  0  0  0  0  0  0  0  0  0  0  0
    1.0903    0.7476    0.0404 C   0  0  0  0  0  0  0  0  0  0  0  0
    1.5893    0.5020    1.7940 S   0  0  0  0  0  0  0  0  0  0  0  0
    0.4354   -1.6718    0.2174 H   0  0  0  0  0  0  0  0  0  0  0  0
   -0.9978    0.7987    0.5558 H   0  0  0  0  0  0  0  0  0  0  0  0
    1.7627    0.1923   -0.6230 H   0  0  0  0  0  0  0  0  0  0  0  0
    1.1770    1.8097   -0.2121 H   0  0  0  0  0  0  0  0  0  0  0  0
    2.8359    1.0245    1.7844 H   0  0  0  0  0  0  0  0  0  0  0  0
   -1.8897    1.5444   -1.7596 N   0  0  0  0  0  0  0  0  0  0  0  0
   -2.4187    1.9874   -3.0546 C   0  0  2  0  0  0  0  0  0  0  0  0
   -3.2521    3.2798   -2.9183 C   0  0  0  0  0  0  0  0  0  0  0  0
   -3.6103    3.6748   -1.8140 O   0  0  0  0  0  0  0  0  0  0  0  0
   -3.2794    0.8608   -3.6384 C   0  0  0  0  0  0  0  0  0  0  0  0
   -2.4323    1.7893   -0.9317 H   0  0  0  0  0  0  0  0  0  0  0  0
   -1.5872    2.2003   -3.7347 H   0  0  0  0  0  0  0  0  0  0  0  0
   -4.1076    0.6242   -2.9624 H   0  0  0  0  0  0  0  0  0  0  0  0
   -3.6928    1.1536   -4.6079 H   0  0  0  0  0  0  0  0  0  0  0  0
   -2.6798   -0.0436   -3.7801 H   0  0  0  0  0  0  0  0  0  0  0  0
   -3.6052    4.0071   -4.0404 N   0  0  0  0  0  0  0  0  0  0  0  0
   -4.4008    5.2277   -3.9842 C   0  0  0  0  0  0  0  0  0  0  0  0
   -3.2884    3.6657   -4.9429 H   0  0  0  0  0  0  0  0  0  0  0  0
   -5.3539    5.0411   -3.4775 H   0  0  0  0  0  0  0  0  0  0  0  0
   -3.8616    6.0118   -3.4422 H   0  0  0  0  0  0  0  0  0  0  0  0
   -4.6132    5.5887   -4.9951 H   0  0  0  0  0  0  0  0  0  0  0  0
  1  2  2  0  0  0  0
  1  3  1  0  0  0  0
  1  7  1  0  0  0  0
  3  4  1  0  0  0  0
  3  5  1  0  0  0  0
  3  6  1  0  0  0  0
  7  8  1  0  0  0  0
  7 12  1  0  0  0  0
  8  9  1  0  0  0  0
  8 11  1  0  0  0  0
  8 13  1  0  0  0  0
  9 10  2  0  0  0  0
  9 17  1  0  0  0  0
 11 14  1  0  0  0  0
 11 15  1  0  0  0  0
 11 16  1  0  0  0  0
 17 18  1  0  0  0  0
 17 23  1  0  0  0  0
 18 19  1  0  0  0  0
 18 21  1  0  0  0  0
 18 24  1  0  0  0  0
 19 20  2  0  0  0  0
 19 28  1  0  0  0  0
 21 22  1  0  0  0  0
 21 25  1  0  0  0  0
 21 26  1  0  0  0  0
 22 27  1  0  0  0  0
 28 29  1  0  0  0  0
 28 33  1  0  0  0  0
 29 30  1  0  0  0  0
 29 32  1  0  0  0  0
 29 34  1  0  0  0  0
 30 31  2  0  0  0  0
 30 38  1  0  0  0  0
 32 35  1  0  0  0  0
 32 36  1  0  0  0  0
 32 37  1  0  0  0  0
 38 39  1  0  0  0  0
 38 40  1  0  0  0  0
 39 41  1  0  0  0  0
 39 42  1  0  0  0  0
 39 43  1  0  0  0  0
M  END
$$$$

  -OEChem-05262216003D

 43 42  0     1  0  0  0  0  0999 V2000
   -3.2340   -5.1139    1.0078 C   0  0  0  0  0  0  0  0  0  0  0  0
   -2.3160   -5.8350    1.3654 O   0  0  0  0  0  0  0  0  0  0  0  0
   -4.6697   -5.5081    1.2999 C   0  0  0  0  0  0  0  0  0  0  0  0
   -5.2115   -5.6620    0.3637 H   0  0  0  0  0  0  0  0  0  0  0  0
   -4.6955   -6.4356    1.8788 H   0  0  0  0  0  0  0  0  0  0  0  0
   -5.1645   -4.7212    1.8742 H   0  0  0  0  0  0  0  0  0  0  0  0
   -2.9663   -3.9366    0.3422 N   0  0  0  0  0  0  0  0  0  0  0  0
   -1.6189   -3.3901    0.1342 C   0  0  2  0  0  0  0  0  0  0  0  0
   -1.6318   -1.8482    0.0797 C   0  0  0  0  0  0  0  0  0  0  0  0
   -2.6935   -1.2384   -0.0110 O   0  0  0  0  0  0  0  0  0  0  0  0
   -1.0572   -3.9661   -1.1697 C   0  0  0  0  0  0  0  0  0  0  0  0
   -3.7485   -3.3065    0.1666 H   0  0  0  0  0  0  0  0  0  0  0  0
   -0.9708   -3.6811    0.9682 H   0  0  0  0  0  0  0  0  0  0  0  0
   -1.6884   -3.6801   -2.0173 H   0  0  0  0  0  0  0  0  0  0  0  0
   -0.0439   -3.5953   -1.3508 H   0  0  0  0  0  0  0  0  0  0  0  0
   -1.0192   -5.0588   -1.1160 H   0  0  0  0  0  0  0  0  0  0  0  0
   -0.4523   -1.1316    0.1485 N   0  0  0  0  0  0  0  0  0  0  0  0
   -0.3786    0.3137   -0.1131 C   0  0  2  0  0  0  0  0  0  0  0  0
   -0.8413    0.6804   -1.5392 C   0  0  0  0  0  0  0  0  0  0  0  0
   -0.3718    0.0910   -2.5074 O   0  0  0  0  0  0  0  0  0  0  0  0
    1.0716    0.7759    0.0682 C   0  0  0  0  0  0  0  0  0  0  0  0
    1.5972    0.5741    1.8196 S   0  0  0  0  0  0  0  0  0  0  0  0
    0.4140   -1.6612    0.1709 H   0  0  0  0  0  0  0  0  0  0  0  0
   -1.0148    0.8430    0.6039 H   0  0  0  0  0  0  0  0  0  0  0  0
    1.7322    0.2026   -0.5913 H   0  0  0  0  0  0  0  0  0  0  0  0
    1.1566    1.8314   -0.2112 H   0  0  0  0  0  0  0  0  0  0  0  0
    2.8500    1.0787    1.7773 H   0  0  0  0  0  0  0  0  0  0  0  0
   -1.6901    1.7495   -1.7488 N   0  0  0  0  0  0  0  0  0  0  0  0
   -2.1473    2.2166   -3.0630 C   0  0  2  0  0  0  0  0  0  0  0  0
   -2.5857    3.6964   -3.0216 C   0  0  0  0  0  0  0  0  0  0  0  0
   -2.7041    4.2771   -1.9479 O   0  0  0  0  0  0  0  0  0  0  0  0
   -3.3072    1.3239   -3.5184 C   0  0  0  0  0  0  0  0  0  0  0  0
   -2.0438    2.2470   -0.9319 H   0  0  0  0  0  0  0  0  0  0  0  0
   -1.3263    2.1388   -3.7835 H   0  0  0  0  0  0  0  0  0  0  0  0
   -4.1393    1.3874   -2.8098 H   0  0  0  0  0  0  0  0  0  0  0  0
   -3.6645    1.6303   -4.5058 H   0  0  0  0  0  0  0  0  0  0  0  0
   -2.9835    0.2800   -3.5797 H   0  0  0  0  0  0  0  0  0  0  0  0
   -2.8290    4.3891   -4.1937 N   0  0  0  0  0  0  0  0  0  0  0  0
   -3.2223    5.7929   -4.2274 C   0  0  0  0  0  0  0  0  0  0  0  0
   -2.7073    3.8900   -5.0701 H   0  0  0  0  0  0  0  0  0  0  0  0
   -4.1349    5.9504   -3.6427 H   0  0  0  0  0  0  0  0  0  0  0  0
   -2.4272    6.4234   -3.8155 H   0  0  0  0  0  0  0  0  0  0  0  0
   -3.4152    6.1075   -5.2575 H   0  0  0  0  0  0  0  0  0  0  0  0
  1  2  2  0  0  0  0
  1  3  1  0  0  0  0
  1  7  1  0  0  0  0
  3  4  1  0  0  0  0
  3  5  1  0  0  0  0
  3  6  1  0  0  0  0
  7  8  1  0  0  0  0
  7 12  1  0  0  0  0
  8  9  1  0  0  0  0
  8 11  1  0  0  0  0
  8 13  1  0  0  0  0
  9 10  2  0  0  0  0
  9 17  1  0  0  0  0
 11 14  1  0  0  0  0
 11 15  1  0  0  0  0
 11 16  1  0  0  0  0
 17 18  1  0  0  0  0
 17 23  1  0  0  0  0
 18 19  1  0  0  0  0
 18 21  1  0  0  0  0
 18 24  1  0  0  0  0
 19 20  2  0  0  0  0
 19 28  1  0  0  0  0
 21 22  1  0  0  0  0
 21 25  1  0  0  0  0
 21 26  1  0  0  0  0
 22 27  1  0  0  0  0
 28 29  1  0  0  0  0
 28 33  1  0  0  0  0
 29 30  1  0  0  0  0
 29 32  1  0  0  0  0
 29 34  1  0  0  0  0
 30 31  2  0  0  0  0
 30 38  1  0  0  0  0
 32 35  1  0  0  0  0
 32 36  1  0  0  0  0
 32 37  1  0  0  0  0
 38 39  1  0  0  0  0
 38 40  1  0  0  0  0
 39 41  1  0  0  0  0
 39 42  1  0  0  0  0
 39 43  1  0  0  0  0
M  END
$$$$

  -OEChem-05262216003D

 43 42  0     1  0  0  0  0  0999 V2000
   -3.2262   -5.1197    0.9956 C   0  0  0  0  0  0  0  0  0  0  0  0
   -2.3007   -5.8500    1.3134 O   0  0  0  0  0  0  0  0  0  0  0  0
   -4.6563   -5.5254    1.3001 C   0  0  0  0  0  0  0  0  0  0  0  0
   -5.2150   -5.6468    0.3688 H   0  0  0  0  0  0  0  0  0  0  0  0
   -4.6726   -6.4725    1.8470 H   0  0  0  0  0  0  0  0  0  0  0  0
   -5.1401   -4.7587    1.9102 H   0  0  0  0  0  0  0  0  0  0  0  0
   -2.9745   -3.9224    0.3605 N   0  0  0  0  0  0  0  0  0  0  0  0
   -1.6341   -3.3681    0.1318 C   0  0  2  0  0  0  0  0  0  0  0  0
   -1.6477   -1.8257    0.1354 C   0  0  0  0  0  0  0  0  0  0  0  0
   -2.7108   -1.2130    0.0901 O   0  0  0  0  0  0  0  0  0  0  0  0
   -1.1166   -3.8915   -1.2117 C   0  0  0  0  0  0  0  0  0  0  0  0
   -3.7615   -3.2899    0.2197 H   0  0  0  0  0  0  0  0  0  0  0  0
   -0.9594   -3.6906    0.9322 H   0  0  0  0  0  0  0  0  0  0  0  0
   -1.7757   -3.5718   -2.0254 H   0  0  0  0  0  0  0  0  0  0  0  0
   -0.1101   -3.5120   -1.4118 H   0  0  0  0  0  0  0  0  0  0  0  0
   -1.0770   -4.9854   -1.2031 H   0  0  0  0  0  0  0  0  0  0  0  0
   -0.4648   -1.1142    0.2025 N   0  0  0  0  0  0  0  0  0  0  0  0
   -0.3958    0.3270   -0.0853 C   0  0  2  0  0  0  0  0  0  0  0  0
   -0.8488    0.6738   -1.5203 C   0  0  0  0  0  0  0  0  0  0  0  0
   -0.5577   -0.0651   -2.4557 O   0  0  0  0  0  0  0  0  0  0  0  0
    1.0522    0.7981    0.0978 C   0  0  0  0  0  0  0  0  0  0  0  0
    1.5690    0.6316    1.8556 S   0  0  0  0  0  0  0  0  0  0  0  0
    0.3945   -1.6523    0.1501 H   0  0  0  0  0  0  0  0  0  0  0  0
   -1.0411    0.8646    0.6174 H   0  0  0  0  0  0  0  0  0  0  0  0
    1.7201    0.2152   -0.5457 H   0  0  0  0  0  0  0  0  0  0  0  0
    1.1370    1.8491   -0.1990 H   0  0  0  0  0  0  0  0  0  0  0  0
    2.8306    1.1140    1.8055 H   0  0  0  0  0  0  0  0  0  0  0  0
   -1.4347    1.8956   -1.7897 N   0  0  0  0  0  0  0  0  0  0  0  0
   -1.7915    2.3828   -3.1276 C   0  0  2  0  0  0  0  0  0  0  0  0
   -1.8497    3.9251   -3.1732 C   0  0  0  0  0  0  0  0  0  0  0  0
   -1.7789    4.5763   -2.1363 O   0  0  0  0  0  0  0  0  0  0  0  0
   -3.1454    1.7793   -3.5178 C   0  0  0  0  0  0  0  0  0  0  0  0
   -1.5927    2.5332   -1.0097 H   0  0  0  0  0  0  0  0  0  0  0  0
   -1.0312    2.0635   -3.8482 H   0  0  0  0  0  0  0  0  0  0  0  0
   -3.9203    2.0901   -2.8097 H   0  0  0  0  0  0  0  0  0  0  0  0
   -3.4378    2.1034   -4.5208 H   0  0  0  0  0  0  0  0  0  0  0  0
   -3.0902    0.6859   -3.5134 H   0  0  0  0  0  0  0  0  0  0  0  0
   -1.9623    4.5889   -4.3813 N   0  0  0  0  0  0  0  0  0  0  0  0
   -2.0225    6.0414   -4.4951 C   0  0  0  0  0  0  0  0  0  0  0  0
   -2.0231    4.0264   -5.2250 H   0  0  0  0  0  0  0  0  0  0  0  0
   -2.8995    6.4318   -3.9678 H   0  0  0  0  0  0  0  0  0  0  0  0
   -1.1226    6.4971   -4.0683 H   0  0  0  0  0  0  0  0  0  0  0  0
   -2.0928    6.3356   -5.5468 H   0  0  0  0  0  0  0  0  0  0  0  0
  1  2  2  0  0  0  0
  1  3  1  0  0  0  0
  1  7  1  0  0  0  0
  3  4  1  0  0  0  0
  3  5  1  0  0  0  0
  3  6  1  0  0  0  0
  7  8  1  0  0  0  0
  7 12  1  0  0  0  0
  8  9  1  0  0  0  0
  8 11  1  0  0  0  0
  8 13  1  0  0  0  0
  9 10  2  0  0  0  0
  9 17  1  0  0  0  0
 11 14  1  0  0  0  0
 11 15  1  0  0  0  0
 11 16  1  0  0  0  0
 17 18  1  0  0  0  0
 17 23  1  0  0  0  0
 18 19  1  0  0  0  0
 18 21  1  0  0  0  0
 18 24  1  0  0  0  0
 19 20  2  0  0  0  0
 19 28  1  0  0  0  0
 21 22  1  0  0  0  0
 21 25  1  0  0  0  0
 21 26  1  0  0  0  0
 22 27  1  0  0  0  0
 28 29  1  0  0  0  0
 28 33  1  0  0  0  0
 29 30  1  0  0  0  0
 29 32  1  0  0  0  0
 29 34  1  0  0  0  0
 30 31  2  0  0  0  0
 30 38  1  0  0  0  0
 32 35  1  0  0  0  0
 32 36  1  0  0  0  0
 32 37  1  0  0  0  0
 38 39  1  0  0  0  0
 38 40  1  0  0  0  0
 39 41  1  0  0  0  0
 39 42  1  0  0  0  0
 39 43  1  0  0  0  0
M  END
$$$$

  -OEChem-05262216003D

 43 42  0     1  0  0  0  0  0999 V2000
   -3.2001   -5.1321    0.9689 C   0  0  0  0  0  0  0  0  0  0  0  0
   -2.2634   -5.8675    1.2386 O   0  0  0  0  0  0  0  0  0  0  0  0
   -4.6192   -5.5531    1.3007 C   0  0  0  0  0  0  0  0  0  0  0  0
   -5.2183   -5.5963    0.3879 H   0  0  0  0  0  0  0  0  0  0  0  0
   -4.6193   -6.5411    1.7696 H   0  0  0  0  0  0  0  0  0  0  0  0
   -5.0697   -4.8355    1.9906 H   0  0  0  0  0  0  0  0  0  0  0  0
   -2.9709   -3.9141    0.3661 N   0  0  0  0  0  0  0  0  0  0  0  0
   -1.6396   -3.3446    0.1228 C   0  0  2  0  0  0  0  0  0  0  0  0
   -1.6603   -1.8034    0.1893 C   0  0  0  0  0  0  0  0  0  0  0  0
   -2.7280   -1.1963    0.1903 O   0  0  0  0  0  0  0  0  0  0  0  0
   -1.1607   -3.8107   -1.2555 C   0  0  0  0  0  0  0  0  0  0  0  0
   -3.7642   -3.2818    0.2642 H   0  0  0  0  0  0  0  0  0  0  0  0
   -0.9405   -3.6962    0.8894 H   0  0  0  0  0  0  0  0  0  0  0  0
   -1.8349   -3.4451   -2.0371 H   0  0  0  0  0  0  0  0  0  0  0  0
   -0.1545   -3.4342   -1.4618 H   0  0  0  0  0  0  0  0  0  0  0  0
   -1.1354   -4.9041   -1.2990 H   0  0  0  0  0  0  0  0  0  0  0  0
   -0.4800   -1.0858    0.2535 N   0  0  0  0  0  0  0  0  0  0  0  0
   -0.4300    0.3522   -0.0592 C   0  0  2  0  0  0  0  0  0  0  0  0
   -0.8794    0.6779   -1.5024 C   0  0  0  0  0  0  0  0  0  0  0  0
   -0.7801   -0.1613   -2.3925 O   0  0  0  0  0  0  0  0  0  0  0  0
    1.0137    0.8387    0.1264 C   0  0  0  0  0  0  0  0  0  0  0  0
    1.5194    0.7051    1.8903 S   0  0  0  0  0  0  0  0  0  0  0  0
    0.3775   -1.6208    0.1599 H   0  0  0  0  0  0  0  0  0  0  0  0
   -1.0855    0.8932    0.6317 H   0  0  0  0  0  0  0  0  0  0  0  0
    1.6889    0.2489   -0.5029 H   0  0  0  0  0  0  0  0  0  0  0  0
    1.0975    1.8851   -0.1867 H   0  0  0  0  0  0  0  0  0  0  0  0
    2.7740    1.2061    1.8454 H   0  0  0  0  0  0  0  0  0  0  0  0
   -1.1876    1.9789   -1.8521 N   0  0  0  0  0  0  0  0  0  0  0  0
   -1.4293    2.4488   -3.2220 C   0  0  2  0  0  0  0  0  0  0  0  0
   -1.0775    3.9441   -3.3747 C   0  0  0  0  0  0  0  0  0  0  0  0
   -0.7715    4.6077   -2.3894 O   0  0  0  0  0  0  0  0  0  0  0  0
   -2.9016    2.1988   -3.5649 C   0  0  0  0  0  0  0  0  0  0  0  0
   -1.1341    2.6927   -1.1256 H   0  0  0  0  0  0  0  0  0  0  0  0
   -0.7955    1.8923   -3.9208 H   0  0  0  0  0  0  0  0  0  0  0  0
   -3.5522    2.7576   -2.8846 H   0  0  0  0  0  0  0  0  0  0  0  0
   -3.1180    2.5113   -4.5906 H   0  0  0  0  0  0  0  0  0  0  0  0
   -3.1366    1.1334   -3.4742 H   0  0  0  0  0  0  0  0  0  0  0  0
   -1.0844    4.5458   -4.6197 N   0  0  0  0  0  0  0  0  0  0  0  0
   -0.7660    5.9530   -4.8294 C   0  0  0  0  0  0  0  0  0  0  0  0
   -1.3431    3.9744   -5.4188 H   0  0  0  0  0  0  0  0  0  0  0  0
   -1.4464    6.5898   -4.2543 H   0  0  0  0  0  0  0  0  0  0  0  0
    0.2622    6.1636   -4.5170 H   0  0  0  0  0  0  0  0  0  0  0  0
   -0.8651    6.2104   -5.8882 H   0  0  0  0  0  0  0  0  0  0  0  0
  1  2  2  0  0  0  0
  1  3  1  0  0  0  0
  1  7  1  0  0  0  0
  3  4  1  0  0  0  0
  3  5  1  0  0  0  0
  3  6  1  0  0  0  0
  7  8  1  0  0  0  0
  7 12  1  0  0  0  0
  8  9  1  0  0  0  0
  8 11  1  0  0  0  0
  8 13  1  0  0  0  0
  9 10  2  0  0  0  0
  9 17  1  0  0  0  0
 11 14  1  0  0  0  0
 11 15  1  0  0  0  0
 11 16  1  0  0  0  0
 17 18  1  0  0  0  0
 17 23  1  0  0  0  0
 18 19  1  0  0  0  0
 18 21  1  0  0  0  0
 18 24  1  0  0  0  0
 19 20  2  0  0  0  0
 19 28  1  0  0  0  0
 21 22  1  0  0  0  0
 21 25  1  0  0  0  0
 21 26  1  0  0  0  0
 22 27  1  0  0  0  0
 28 29  1  0  0  0  0
 28 33  1  0  0  0  0
 29 30  1  0  0  0  0
 29 32  1  0  0  0  0
 29 34  1  0  0  0  0
 30 31  2  0  0  0  0
 30 38  1  0  0  0  0
 32 35  1  0  0  0  0
 32 36  1  0  0  0  0
 32 37  1  0  0  0  0
 38 39  1  0  0  0  0
 38 40  1  0  0  0  0
 39 41  1  0  0  0  0
 39 42  1  0  0  0  0
 39 43  1  0  0  0  0
M  END
$$$$

  -OEChem-05262216003D

 43 42  0     1  0  0  0  0  0999 V2000
   -3.1390   -5.1842    0.9452 C   0  0  0  0  0  0  0  0  0  0  0  0
   -2.1806   -5.9294    1.0781 O   0  0  0  0  0  0  0  0  0  0  0  0
   -4.5246   -5.6450    1.3571 C   0  0  0  0  0  0  0  0  0  0  0  0
   -5.2066   -5.5837    0.5056 H   0  0  0  0  0  0  0  0  0  0  0  0
   -4.4896   -6.6809    1.7060 H   0  0  0  0  0  0  0  0  0  0  0  0
   -4.9033   -5.0134    2.1644 H   0  0  0  0  0  0  0  0  0  0  0  0
   -2.9638   -3.9204    0.4245 N   0  0  0  0  0  0  0  0  0  0  0  0
   -1.6594   -3.3196    0.1186 C   0  0  2  0  0  0  0  0  0  0  0  0
   -1.6859   -1.7866    0.2890 C   0  0  0  0  0  0  0  0  0  0  0  0
   -2.7491   -1.2007    0.4749 O   0  0  0  0  0  0  0  0  0  0  0  0
   -1.2843   -3.6851   -1.3210 C   0  0  0  0  0  0  0  0  0  0  0  0
   -3.7643   -3.2889    0.4394 H   0  0  0  0  0  0  0  0  0  0  0  0
   -0.9016   -3.7137    0.8040 H   0  0  0  0  0  0  0  0  0  0  0  0
   -2.0202   -3.2767   -2.0216 H   0  0  0  0  0  0  0  0  0  0  0  0
   -0.3006   -3.2811   -1.5778 H   0  0  0  0  0  0  0  0  0  0  0  0
   -1.2526   -4.7725   -1.4413 H   0  0  0  0  0  0  0  0  0  0  0  0
   -0.5102   -1.0570    0.3116 N   0  0  0  0  0  0  0  0  0  0  0  0
   -0.4620    0.3770   -0.0317 C   0  0  2  0  0  0  0  0  0  0  0  0
   -1.2488    0.7837   -1.3075 C   0  0  0  0  0  0  0  0  0  0  0  0
   -1.5672   -0.0523   -2.1476 O   0  0  0  0  0  0  0  0  0  0  0  0
    1.0185    0.7426   -0.2306 C   0  0  0  0  0  0  0  0  0  0  0  0
    1.9465    0.5659    1.3482 S   0  0  0  0  0  0  0  0  0  0  0  0
    0.3416   -1.5916    0.1748 H   0  0  0  0  0  0  0  0  0  0  0  0
   -0.8727    0.9529    0.8037 H   0  0  0  0  0  0  0  0  0  0  0  0
    1.4610    0.1031   -1.0020 H   0  0  0  0  0  0  0  0  0  0  0  0
    1.1093    1.7798   -0.5696 H   0  0  0  0  0  0  0  0  0  0  0  0
    3.1823    0.9691    0.9781 H   0  0  0  0  0  0  0  0  0  0  0  0
   -1.2636    2.1097   -1.7017 N   0  0  0  0  0  0  0  0  0  0  0  0
   -1.6845    2.5992   -3.0208 C   0  0  2  0  0  0  0  0  0  0  0  0
   -0.9779    3.9251   -3.3762 C   0  0  0  0  0  0  0  0  0  0  0  0
   -0.2627    4.4815   -2.5488 O   0  0  0  0  0  0  0  0  0  0  0  0
   -3.2067    2.7755   -3.0049 C   0  0  0  0  0  0  0  0  0  0  0  0
   -0.8315    2.7935   -1.0809 H   0  0  0  0  0  0  0  0  0  0  0  0
   -1.4133    1.8703   -3.7921 H   0  0  0  0  0  0  0  0  0  0  0  0
   -3.4990    3.5074   -2.2450 H   0  0  0  0  0  0  0  0  0  0  0  0
   -3.5669    3.1198   -3.9787 H   0  0  0  0  0  0  0  0  0  0  0  0
   -3.6954    1.8228   -2.7761 H   0  0  0  0  0  0  0  0  0  0  0  0
   -1.1244    4.4872   -4.6312 N   0  0  0  0  0  0  0  0  0  0  0  0
   -0.4916    5.7394   -5.0285 C   0  0  0  0  0  0  0  0  0  0  0  0
   -1.7166    4.0017   -5.2988 H   0  0  0  0  0  0  0  0  0  0  0  0
   -0.8120    6.5561   -4.3729 H   0  0  0  0  0  0  0  0  0  0  0  0
    0.5987    5.6517   -4.9759 H   0  0  0  0  0  0  0  0  0  0  0  0
   -0.7685    5.9939   -6.0563 H   0  0  0  0  0  0  0  0  0  0  0  0
  1  2  2  0  0  0  0
  1  3  1  0  0  0  0
  1  7  1  0  0  0  0
  3  4  1  0  0  0  0
  3  5  1  0  0  0  0
  3  6  1  0  0  0  0
  7  8  1  0  0  0  0
  7 12  1  0  0  0  0
  8  9  1  0  0  0  0
  8 11  1  0  0  0  0
  8 13  1  0  0  0  0
  9 10  2  0  0  0  0
  9 17  1  0  0  0  0
 11 14  1  0  0  0  0
 11 15  1  0  0  0  0
 11 16  1  0  0  0  0
 17 18  1  0  0  0  0
 17 23  1  0  0  0  0
 18 19  1  0  0  0  0
 18 21  1  0  0  0  0
 18 24  1  0  0  0  0
 19 20  2  0  0  0  0
 19 28  1  0  0  0  0
 21 22  1  0  0  0  0
 21 25  1  0  0  0  0
 21 26  1  0  0  0  0
 22 27  1  0  0  0  0
 28 29  1  0  0  0  0
 28 33  1  0  0  0  0
 29 30  1  0  0  0  0
 29 32  1  0  0  0  0
 29 34  1  0  0  0  0
 30 31  2  0  0  0  0
 30 38  1  0  0  0  0
 32 35  1  0  0  0  0
 32 36  1  0  0  0  0
 32 37  1  0  0  0  0
 38 39  1  0  0  0  0
 38 40  1  0  0  0  0
 39 41  1  0  0  0  0
 39 42  1  0  0  0  0
 39 43  1  0  0  0  0
M  END
$$$$

  -OEChem-05262216003D

 43 42  0     1  0  0  0  0  0999 V2000
   -3.1244   -5.1702    0.9102 C   0  0  0  0  0  0  0  0  0  0  0  0
   -2.1629   -5.9195    0.9849 O   0  0  0  0  0  0  0  0  0  0  0  0
   -4.4966   -5.6476    1.3472 C   0  0  0  0  0  0  0  0  0  0  0  0
   -5.2071   -5.5439    0.5234 H   0  0  0  0  0  0  0  0  0  0  0  0
   -4.4533   -6.6992    1.6447 H   0  0  0  0  0  0  0  0  0  0  0  0
   -4.8443   -5.0549    2.1969 H   0  0  0  0  0  0  0  0  0  0  0  0
   -2.9646   -3.8871    0.4330 N   0  0  0  0  0  0  0  0  0  0  0  0
   -1.6704   -3.2771    0.1041 C   0  0  2  0  0  0  0  0  0  0  0  0
   -1.6894   -1.7487    0.3108 C   0  0  0  0  0  0  0  0  0  0  0  0
   -2.7409   -1.1676    0.5641 O   0  0  0  0  0  0  0  0  0  0  0  0
   -1.3357   -3.6065   -1.3538 C   0  0  0  0  0  0  0  0  0  0  0  0
   -3.7627   -3.2558    0.4981 H   0  0  0  0  0  0  0  0  0  0  0  0
   -0.8945   -3.6869    0.7591 H   0  0  0  0  0  0  0  0  0  0  0  0
   -2.0908   -3.1799   -2.0222 H   0  0  0  0  0  0  0  0  0  0  0  0
   -0.3592   -3.1969   -1.6282 H   0  0  0  0  0  0  0  0  0  0  0  0
   -1.3097   -4.6905   -1.5024 H   0  0  0  0  0  0  0  0  0  0  0  0
   -0.5104   -1.0244    0.3175 N   0  0  0  0  0  0  0  0  0  0  0  0
   -0.4480    0.4070   -0.0387 C   0  0  2  0  0  0  0  0  0  0  0  0
   -1.2323    0.8342   -1.3162 C   0  0  0  0  0  0  0  0  0  0  0  0
   -1.7843    0.0109   -2.0383 O   0  0  0  0  0  0  0  0  0  0  0  0
    1.0478    0.7339   -0.2096 C   0  0  0  0  0  0  0  0  0  0  0  0
    1.9332    0.5497    1.3927 S   0  0  0  0  0  0  0  0  0  0  0  0
    0.3321   -1.5684    0.1627 H   0  0  0  0  0  0  0  0  0  0  0  0
   -0.8531    0.9921    0.7931 H   0  0  0  0  0  0  0  0  0  0  0  0
    1.4914    0.0766   -0.9652 H   0  0  0  0  0  0  0  0  0  0  0  0
    1.1801    1.7654   -0.5502 H   0  0  0  0  0  0  0  0  0  0  0  0
    3.1801    0.9462    1.0542 H   0  0  0  0  0  0  0  0  0  0  0  0
   -0.9858    2.0703   -1.8895 N   0  0  0  0  0  0  0  0  0  0  0  0
   -1.3787    2.4782   -3.2452 C   0  0  2  0  0  0  0  0  0  0  0  0
   -0.4376    3.5735   -3.7905 C   0  0  0  0  0  0  0  0  0  0  0  0
    0.4177    4.0662   -3.0613 O   0  0  0  0  0  0  0  0  0  0  0  0
   -2.8280    2.9746   -3.2022 C   0  0  0  0  0  0  0  0  0  0  0  0
   -0.3809    2.7155   -1.3827 H   0  0  0  0  0  0  0  0  0  0  0  0
   -1.3095    1.6227   -3.9257 H   0  0  0  0  0  0  0  0  0  0  0  0
   -2.9172    3.8380   -2.5353 H   0  0  0  0  0  0  0  0  0  0  0  0
   -3.1654    3.2678   -4.2006 H   0  0  0  0  0  0  0  0  0  0  0  0
   -3.4893    2.1828   -2.8361 H   0  0  0  0  0  0  0  0  0  0  0  0
   -0.5329    3.9944   -5.1041 N   0  0  0  0  0  0  0  0  0  0  0  0
    0.3236    5.0251   -5.6782 C   0  0  0  0  0  0  0  0  0  0  0  0
   -1.2488    3.5678   -5.6853 H   0  0  0  0  0  0  0  0  0  0  0  0
    0.2059    5.9678   -5.1334 H   0  0  0  0  0  0  0  0  0  0  0  0
    1.3743    4.7197   -5.6319 H   0  0  0  0  0  0  0  0  0  0  0  0
    0.0592    5.1967   -6.7260 H   0  0  0  0  0  0  0  0  0  0  0  0
  1  2  2  0  0  0  0
  1  3  1  0  0  0  0
  1  7  1  0  0  0  0
  3  4  1  0  0  0  0
  3  5  1  0  0  0  0
  3  6  1  0  0  0  0
  7  8  1  0  0  0  0
  7 12  1  0  0  0  0
  8  9  1  0  0  0  0
  8 11  1  0  0  0  0
  8 13  1  0  0  0  0
  9 10  2  0  0  0  0
  9 17  1  0  0  0  0
 11 14  1  0  0  0  0
 11 15  1  0  0  0  0
 11 16  1  0  0  0  0
 17 18  1  0  0  0  0
 17 23  1  0  0  0  0
 18 19  1  0  0  0  0
 18 21  1  0  0  0  0
 18 24  1  0  0  0  0
 19 20  2  0  0  0  0
 19 28  1  0  0  0  0
 21 22  1  0  0  0  0
 21 25  1  0  0  0  0
 21 26  1  0  0  0  0
 22 27  1  0  0  0  0
 28 29  1  0  0  0  0
 28 33  1  0  0  0  0
 29 30  1  0  0  0  0
 29 32  1  0  0  0  0
 29 34  1  0  0  0  0
 30 31  2  0  0  0  0
 30 38  1  0  0  0  0
 32 35  1  0  0  0  0
 32 36  1  0  0  0  0
 32 37  1  0  0  0  0
 38 39  1  0  0  0  0
 38 40  1  0  0  0  0
 39 41  1  0  0  0  0
 39 42  1  0  0  0  0
 39 43  1  0  0  0  0
M  END
$$$$

  -OEChem-05262216003D

 43 42  0     1  0  0  0  0  0999 V2000
   -3.0922   -5.1610    0.8084 C   0  0  0  0  0  0  0  0  0  0  0  0
   -2.1375   -5.9224    0.7805 O   0  0  0  0  0  0  0  0  0  0  0  0
   -4.4418   -5.6481    1.3011 C   0  0  0  0  0  0  0  0  0  0  0  0
   -5.2013   -5.4833    0.5331 H   0  0  0  0  0  0  0  0  0  0  0  0
   -4.3974   -6.7167    1.5289 H   0  0  0  0  0  0  0  0  0  0  0  0
   -4.7253   -5.1057    2.2063 H   0  0  0  0  0  0  0  0  0  0  0  0
   -2.9448   -3.8529    0.4016 N   0  0  0  0  0  0  0  0  0  0  0  0
   -1.6646   -3.2311    0.0430 C   0  0  2  0  0  0  0  0  0  0  0  0
   -1.6722   -1.7160    0.3327 C   0  0  0  0  0  0  0  0  0  0  0  0
   -2.7080   -1.1550    0.6774 O   0  0  0  0  0  0  0  0  0  0  0  0
   -1.4035   -3.4816   -1.4456 C   0  0  0  0  0  0  0  0  0  0  0  0
   -3.7305   -3.2196    0.5509 H   0  0  0  0  0  0  0  0  0  0  0  0
   -0.8589   -3.6776    0.6354 H   0  0  0  0  0  0  0  0  0  0  0  0
   -2.1876   -3.0172   -2.0529 H   0  0  0  0  0  0  0  0  0  0  0  0
   -0.4390   -3.0609   -1.7443 H   0  0  0  0  0  0  0  0  0  0  0  0
   -1.3903   -4.5560   -1.6543 H   0  0  0  0  0  0  0  0  0  0  0  0
   -0.4948   -0.9894    0.3377 N   0  0  0  0  0  0  0  0  0  0  0  0
   -0.4279    0.4433   -0.0202 C   0  0  2  0  0  0  0  0  0  0  0  0
   -1.2074    0.8842   -1.3025 C   0  0  0  0  0  0  0  0  0  0  0  0
   -2.0087    0.1522   -1.8698 O   0  0  0  0  0  0  0  0  0  0  0  0
    1.0739    0.7737   -0.1442 C   0  0  0  0  0  0  0  0  0  0  0  0
    1.9112    0.5955    1.4842 S   0  0  0  0  0  0  0  0  0  0  0  0
    0.3405   -1.5353    0.1542 H   0  0  0  0  0  0  0  0  0  0  0  0
   -0.8492    1.0242    0.8070 H   0  0  0  0  0  0  0  0  0  0  0  0
    1.5437    0.1214   -0.8881 H   0  0  0  0  0  0  0  0  0  0  0  0
    1.2167    1.8078   -0.4706 H   0  0  0  0  0  0  0  0  0  0  0  0
    3.1684    0.9890    1.1812 H   0  0  0  0  0  0  0  0  0  0  0  0
   -0.7566    1.9574   -2.0539 N   0  0  0  0  0  0  0  0  0  0  0  0
   -1.1523    2.2671   -3.4348 C   0  0  2  0  0  0  0  0  0  0  0  0
   -0.0210    3.0114   -4.1764 C   0  0  0  0  0  0  0  0  0  0  0  0
    0.9794    3.3710   -3.5626 O   0  0  0  0  0  0  0  0  0  0  0  0
   -2.4302    3.1114   -3.3955 C   0  0  0  0  0  0  0  0  0  0  0  0
    0.0304    2.4910   -1.6888 H   0  0  0  0  0  0  0  0  0  0  0  0
   -1.3475    1.3408   -3.9857 H   0  0  0  0  0  0  0  0  0  0  0  0
   -2.2539    4.0486   -2.8579 H   0  0  0  0  0  0  0  0  0  0  0  0
   -2.7677    3.3482   -4.4088 H   0  0  0  0  0  0  0  0  0  0  0  0
   -3.2303    2.5639   -2.8868 H   0  0  0  0  0  0  0  0  0  0  0  0
   -0.1082    3.2592   -5.5340 N   0  0  0  0  0  0  0  0  0  0  0  0
    0.9281    3.9540   -6.2888 C   0  0  0  0  0  0  0  0  0  0  0  0
   -0.9454    2.9473   -6.0182 H   0  0  0  0  0  0  0  0  0  0  0  0
    1.0862    4.9602   -5.8864 H   0  0  0  0  0  0  0  0  0  0  0  0
    1.8733    3.4031   -6.2405 H   0  0  0  0  0  0  0  0  0  0  0  0
    0.6352    4.0446   -7.3392 H   0  0  0  0  0  0  0  0  0  0  0  0
  1  2  2  0  0  0  0
  1  3  1  0  0  0  0
  1  7  1  0  0  0  0
  3  4  1  0  0  0  0
  3  5  1  0  0  0  0
  3  6  1  0  0  0  0
  7  8  1  0  0  0  0
  7 12  1  0  0  0  0
  8  9  1  0  0  0  0
  8 11  1  0  0  0  0
  8 13  1  0  0  0  0
  9 10  2  0  0  0  0
  9 17  1  0  0  0  0
 11 14  1  0  0  0  0
 11 15  1  0  0  0  0
 11 16  1  0  0  0  0
 17 18  1  0  0  0  0
 17 23  1  0  0  0  0
 18 19  1  0  0  0  0
 18 21  1  0  0  0  0
 18 24  1  0  0  0  0
 19 20  2  0  0  0  0
 19 28  1  0  0  0  0
 21 22  1  0  0  0  0
 21 25  1  0  0  0  0
 21 26  1  0  0  0  0
 22 27  1  0  0  0  0
 28 29  1  0  0  0  0
 28 33  1  0  0  0  0
 29 30  1  0  0  0  0
 29 32  1  0  0  0  0
 29 34  1  0  0  0  0
 30 31  2  0  0  0  0
 30 38  1  0  0  0  0
 32 35  1  0  0  0  0
 32 36  1  0  0  0  0
 32 37  1  0  0  0  0
 38 39  1  0  0  0  0
 38 40  1  0  0  0  0
 39 41  1  0  0  0  0
 39 42  1  0  0  0  0
 39 43  1  0  0  0  0
M  END
$$$$

  -OEChem-05262216003D

 43 42  0     1  0  0  0  0  0999 V2000
   -3.1121   -5.1469    0.8195 C   0  0  0  0  0  0  0  0  0  0  0  0
   -2.1537   -5.9021    0.8764 O   0  0  0  0  0  0  0  0  0  0  0  0
   -4.4756   -5.6053    1.3011 C   0  0  0  0  0  0  0  0  0  0  0  0
   -5.1939   -5.5684    0.4784 H   0  0  0  0  0  0  0  0  0  0  0  0
   -4.4188   -6.6314    1.6752 H   0  0  0  0  0  0  0  0  0  0  0  0
   -4.8230   -4.9545    2.1073 H   0  0  0  0  0  0  0  0  0  0  0  0
   -2.9557   -3.8673    0.3330 N   0  0  0  0  0  0  0  0  0  0  0  0
   -1.6596   -3.2500    0.0280 C   0  0  2  0  0  0  0  0  0  0  0  0
   -1.6934   -1.7247    0.2606 C   0  0  0  0  0  0  0  0  0  0  0  0
   -2.7419   -1.1761    0.5804 O   0  0  0  0  0  0  0  0  0  0  0  0
   -1.3051   -3.5577   -1.4296 C   0  0  0  0  0  0  0  0  0  0  0  0
   -3.7448   -3.2287    0.4356 H   0  0  0  0  0  0  0  0  0  0  0  0
   -0.8894   -3.6666    0.6862 H   0  0  0  0  0  0  0  0  0  0  0  0
   -2.0499   -3.1209   -2.1031 H   0  0  0  0  0  0  0  0  0  0  0  0
   -0.3236   -3.1462   -1.6816 H   0  0  0  0  0  0  0  0  0  0  0  0
   -1.2779   -4.6398   -1.5935 H   0  0  0  0  0  0  0  0  0  0  0  0
   -0.5201   -0.9926    0.2972 N   0  0  0  0  0  0  0  0  0  0  0  0
   -0.4139    0.4354   -0.0713 C   0  0  2  0  0  0  0  0  0  0  0  0
   -1.1300    0.8841   -1.3877 C   0  0  0  0  0  0  0  0  0  0  0  0
   -2.1813    0.3977   -1.7779 O   0  0  0  0  0  0  0  0  0  0  0  0
    1.0937    0.7578   -0.1047 C   0  0  0  0  0  0  0  0  0  0  0  0
    1.8254    0.5935    1.5748 S   0  0  0  0  0  0  0  0  0  0  0  0
    0.3252   -1.5438    0.1917 H   0  0  0  0  0  0  0  0  0  0  0  0
   -0.8746    1.0247    0.7286 H   0  0  0  0  0  0  0  0  0  0  0  0
    1.6082    0.0986   -0.8121 H   0  0  0  0  0  0  0  0  0  0  0  0
    1.2543    1.7911   -0.4268 H   0  0  0  0  0  0  0  0  0  0  0  0
    3.0967    0.9958    1.3535 H   0  0  0  0  0  0  0  0  0  0  0  0
   -0.4863    1.7151   -2.2911 N   0  0  0  0  0  0  0  0  0  0  0  0
   -0.9388    2.0111   -3.6573 C   0  0  2  0  0  0  0  0  0  0  0  0
    0.2575    2.3754   -4.5622 C   0  0  0  0  0  0  0  0  0  0  0  0
    1.3772    2.4995   -4.0743 O   0  0  0  0  0  0  0  0  0  0  0  0
   -1.9484    3.1629   -3.6011 C   0  0  0  0  0  0  0  0  0  0  0  0
    0.4622    2.0114   -2.0679 H   0  0  0  0  0  0  0  0  0  0  0  0
   -1.4199    1.1274   -4.0901 H   0  0  0  0  0  0  0  0  0  0  0  0
   -1.4832    4.0593   -3.1788 H   0  0  0  0  0  0  0  0  0  0  0  0
   -2.3188    3.4007   -4.6025 H   0  0  0  0  0  0  0  0  0  0  0  0
   -2.8045    2.8880   -2.9764 H   0  0  0  0  0  0  0  0  0  0  0  0
    0.0877    2.5492   -5.9232 N   0  0  0  0  0  0  0  0  0  0  0  0
    1.1757    2.9050   -6.8263 C   0  0  0  0  0  0  0  0  0  0  0  0
   -0.8501    2.4413   -6.2993 H   0  0  0  0  0  0  0  0  0  0  0  0
    1.6034    3.8739   -6.5472 H   0  0  0  0  0  0  0  0  0  0  0  0
    1.9660    2.1475   -6.7915 H   0  0  0  0  0  0  0  0  0  0  0  0
    0.8083    2.9728   -7.8549 H   0  0  0  0  0  0  0  0  0  0  0  0
  1  2  2  0  0  0  0
  1  3  1  0  0  0  0
  1  7  1  0  0  0  0
  3  4  1  0  0  0  0
  3  5  1  0  0  0  0
  3  6  1  0  0  0  0
  7  8  1  0  0  0  0
  7 12  1  0  0  0  0
  8  9  1  0  0  0  0
  8 11  1  0  0  0  0
  8 13  1  0  0  0  0
  9 10  2  0  0  0  0
  9 17  1  0  0  0  0
 11 14  1  0  0  0  0
 11 15  1  0  0  0  0
 11 16  1  0  0  0  0
 17 18  1  0  0  0  0
 17 23  1  0  0  0  0
 18 19  1  0  0  0  0
 18 21  1  0  0  0  0
 18 24  1  0  0  0  0
 19 20  2  0  0  0  0
 19 28  1  0  0  0  0
 21 22  1  0  0  0  0
 21 25  1  0  0  0  0
 21 26  1  0  0  0  0
 22 27  1  0  0  0  0
 28 29  1  0  0  0  0
 28 33  1  0  0  0  0
 29 30  1  0  0  0  0
 29 32  1  0  0  0  0
 29 34  1  0  0  0  0
 30 31  2  0  0  0  0
 30 38  1  0  0  0  0
 32 35  1  0  0  0  0
 32 36  1  0  0  0  0
 32 37  1  0  0  0  0
 38 39  1  0  0  0  0
 38 40  1  0  0  0  0
 39 41  1  0  0  0  0
 39 42  1  0  0  0  0
 39 43  1  0  0  0  0
M  END
$$$$

  -OEChem-05262216003D

 43 42  0     1  0  0  0  0  0999 V2000
   -3.1534   -5.1308    1.1002 C   0  0  0  0  0  0  0  0  0  0  0  0
   -2.2227   -5.6995    1.6495 O   0  0  0  0  0  0  0  0  0  0  0  0
   -4.5786   -5.5904    1.3438 C   0  0  0  0  0  0  0  0  0  0  0  0
   -5.0488   -5.8667    0.3969 H   0  0  0  0  0  0  0  0  0  0  0  0
   -4.5869   -6.4590    2.0081 H   0  0  0  0  0  0  0  0  0  0  0  0
   -5.1549   -4.7863    1.8080 H   0  0  0  0  0  0  0  0  0  0  0  0
   -2.9115   -4.0586    0.2687 N   0  0  0  0  0  0  0  0  0  0  0  0
   -1.6021   -3.4136    0.1079 C   0  0  2  0  0  0  0  0  0  0  0  0
   -1.7447   -1.9033   -0.1795 C   0  0  0  0  0  0  0  0  0  0  0  0
   -2.8388   -1.4597   -0.4896 O   0  0  0  0  0  0  0  0  0  0  0  0
   -0.8564   -4.1085   -1.0359 C   0  0  0  0  0  0  0  0  0  0  0  0
   -3.7195   -3.5304   -0.0623 H   0  0  0  0  0  0  0  0  0  0  0  0
   -1.0251   -3.5172    1.0331 H   0  0  0  0  0  0  0  0  0  0  0  0
   -1.4187   -4.0153   -1.9707 H   0  0  0  0  0  0  0  0  0  0  0  0
    0.1328   -3.6634   -1.1785 H   0  0  0  0  0  0  0  0  0  0  0  0
   -0.7263   -5.1723   -0.8124 H   0  0  0  0  0  0  0  0  0  0  0  0
   -0.6475   -1.0751   -0.0156 N   0  0  0  0  0  0  0  0  0  0  0  0
   -0.5334    0.3745   -0.2841 C   0  0  2  0  0  0  0  0  0  0  0  0
   -1.1265    0.9035   -1.6237 C   0  0  0  0  0  0  0  0  0  0  0  0
   -2.3291    1.0493   -1.7805 O   0  0  0  0  0  0  0  0  0  0  0  0
    0.9633    0.7112   -0.1567 C   0  0  0  0  0  0  0  0  0  0  0  0
    1.5270    0.4442    1.5743 S   0  0  0  0  0  0  0  0  0  0  0  0
    0.1648   -1.5146    0.4094 H   0  0  0  0  0  0  0  0  0  0  0  0
   -1.0752    0.9094    0.5033 H   0  0  0  0  0  0  0  0  0  0  0  0
    1.5536    0.0988   -0.8469 H   0  0  0  0  0  0  0  0  0  0  0  0
    1.1311    1.7646   -0.4066 H   0  0  0  0  0  0  0  0  0  0  0  0
    2.7978    0.9024    1.5173 H   0  0  0  0  0  0  0  0  0  0  0  0
   -0.3164    1.5345   -2.5542 N   0  0  0  0  0  0  0  0  0  0  0  0
   -0.7776    2.0340   -3.8557 C   0  0  2  0  0  0  0  0  0  0  0  0
    0.2953    1.8076   -4.9410 C   0  0  0  0  0  0  0  0  0  0  0  0
    1.4350    1.4872   -4.6161 O   0  0  0  0  0  0  0  0  0  0  0  0
   -1.1021    3.5232   -3.7116 C   0  0  0  0  0  0  0  0  0  0  0  0
    0.6846    1.3586   -2.4853 H   0  0  0  0  0  0  0  0  0  0  0  0
   -1.6785    1.4947   -4.1686 H   0  0  0  0  0  0  0  0  0  0  0  0
   -0.2098    4.0821   -3.4118 H   0  0  0  0  0  0  0  0  0  0  0  0
   -1.4686    3.9310   -4.6582 H   0  0  0  0  0  0  0  0  0  0  0  0
   -1.8764    3.6685   -2.9514 H   0  0  0  0  0  0  0  0  0  0  0  0
   -0.0180    1.9431   -6.2806 N   0  0  0  0  0  0  0  0  0  0  0  0
    0.9431    1.7217   -7.3543 C   0  0  0  0  0  0  0  0  0  0  0  0
   -0.9754    2.1869   -6.5185 H   0  0  0  0  0  0  0  0  0  0  0  0
    1.7837    2.4178   -7.2651 H   0  0  0  0  0  0  0  0  0  0  0  0
    1.3286    0.6972   -7.3192 H   0  0  0  0  0  0  0  0  0  0  0  0
    0.4667    1.8784   -8.3269 H   0  0  0  0  0  0  0  0  0  0  0  0
  1  2  2  0  0  0  0
  1  3  1  0  0  0  0
  1  7  1  0  0  0  0
  3  4  1  0  0  0  0
  3  5  1  0  0  0  0
  3  6  1  0  0  0  0
  7  8  1  0  0  0  0
  7 12  1  0  0  0  0
  8  9  1  0  0  0  0
  8 11  1  0  0  0  0
  8 13  1  0  0  0  0
  9 10  2  0  0  0  0
  9 17  1  0  0  0  0
 11 14  1  0  0  0  0
 11 15  1  0  0  0  0
 11 16  1  0  0  0  0
 17 18  1  0  0  0  0
 17 23  1  0  0  0  0
 18 19  1  0  0  0  0
 18 21  1  0  0  0  0
 18 24  1  0  0  0  0
 19 20  2  0  0  0  0
 19 28  1  0  0  0  0
 21 22  1  0  0  0  0
 21 25  1  0  0  0  0
 21 26  1  0  0  0  0
 22 27  1  0  0  0  0
 28 29  1  0  0  0  0
 28 33  1  0  0  0  0
 29 30  1  0  0  0  0
 29 32  1  0  0  0  0
 29 34  1  0  0  0  0
 30 31  2  0  0  0  0
 30 38  1  0  0  0  0
 32 35  1  0  0  0  0
 32 36  1  0  0  0  0
 32 37  1  0  0  0  0
 38 39  1  0  0  0  0
 38 40  1  0  0  0  0
 39 41  1  0  0  0  0
 39 42  1  0  0  0  0
 39 43  1  0  0  0  0
M  END
$$$$

  -OEChem-05262216003D

 43 42  0     1  0  0  0  0  0999 V2000
   -3.2746   -5.0165    1.1956 C   0  0  0  0  0  0  0  0  0  0  0  0
   -2.4538   -5.4858    1.9683 O   0  0  0  0  0  0  0  0  0  0  0  0
   -4.7285   -5.4425    1.2763 C   0  0  0  0  0  0  0  0  0  0  0  0
   -5.0321   -5.9122    0.3377 H   0  0  0  0  0  0  0  0  0  0  0  0
   -4.8675   -6.1591    2.0907 H   0  0  0  0  0  0  0  0  0  0  0  0
   -5.3625   -4.5720    1.4619 H   0  0  0  0  0  0  0  0  0  0  0  0
   -2.8832   -4.0877    0.2554 N   0  0  0  0  0  0  0  0  0  0  0  0
   -1.5518   -3.4706    0.2064 C   0  0  2  0  0  0  0  0  0  0  0  0
   -1.6213   -2.0144   -0.3016 C   0  0  0  0  0  0  0  0  0  0  0  0
   -2.6323   -1.6266   -0.8667 O   0  0  0  0  0  0  0  0  0  0  0  0
   -0.6606   -4.3189   -0.7055 C   0  0  0  0  0  0  0  0  0  0  0  0
   -3.6181   -3.6229   -0.2781 H   0  0  0  0  0  0  0  0  0  0  0  0
   -1.1197   -3.4455    1.2126 H   0  0  0  0  0  0  0  0  0  0  0  0
   -1.0713   -4.3502   -1.7199 H   0  0  0  0  0  0  0  0  0  0  0  0
    0.3504   -3.9036   -0.7507 H   0  0  0  0  0  0  0  0  0  0  0  0
   -0.5952   -5.3432   -0.3247 H   0  0  0  0  0  0  0  0  0  0  0  0
   -0.5455   -1.1675   -0.0984 N   0  0  0  0  0  0  0  0  0  0  0  0
   -0.4823    0.2858   -0.3553 C   0  0  2  0  0  0  0  0  0  0  0  0
   -1.0691    0.7895   -1.7022 C   0  0  0  0  0  0  0  0  0  0  0  0
   -2.2250    1.1874   -1.7555 O   0  0  0  0  0  0  0  0  0  0  0  0
    0.9934    0.6876   -0.2054 C   0  0  0  0  0  0  0  0  0  0  0  0
    1.5384    0.4336    1.5342 S   0  0  0  0  0  0  0  0  0  0  0  0
    0.1921   -1.5436    0.4927 H   0  0  0  0  0  0  0  0  0  0  0  0
   -1.0591    0.7953    0.4244 H   0  0  0  0  0  0  0  0  0  0  0  0
    1.6217    0.1014   -0.8848 H   0  0  0  0  0  0  0  0  0  0  0  0
    1.1147    1.7467   -0.4581 H   0  0  0  0  0  0  0  0  0  0  0  0
    2.7968    0.9261    1.4941 H   0  0  0  0  0  0  0  0  0  0  0  0
   -0.2352    1.1704   -2.7410 N   0  0  0  0  0  0  0  0  0  0  0  0
   -0.7112    1.6622   -4.0404 C   0  0  2  0  0  0  0  0  0  0  0  0
    0.1882    1.1545   -5.1867 C   0  0  0  0  0  0  0  0  0  0  0  0
    1.2731    0.6400   -4.9323 O   0  0  0  0  0  0  0  0  0  0  0  0
   -0.7296    3.1930   -4.0011 C   0  0  0  0  0  0  0  0  0  0  0  0
    0.7013    0.7689   -2.7429 H   0  0  0  0  0  0  0  0  0  0  0  0
   -1.7245    1.2919   -4.2316 H   0  0  0  0  0  0  0  0  0  0  0  0
    0.2767    3.5832   -3.8191 H   0  0  0  0  0  0  0  0  0  0  0  0
   -1.0958    3.5991   -4.9486 H   0  0  0  0  0  0  0  0  0  0  0  0
   -1.3893    3.5417   -3.2001 H   0  0  0  0  0  0  0  0  0  0  0  0
   -0.2231    1.2585   -6.5025 N   0  0  0  0  0  0  0  0  0  0  0  0
    0.5612    0.7663   -7.6286 C   0  0  0  0  0  0  0  0  0  0  0  0
   -1.1406    1.6581   -6.6785 H   0  0  0  0  0  0  0  0  0  0  0  0
    1.5384    1.2598   -7.6610 H   0  0  0  0  0  0  0  0  0  0  0  0
    0.7149   -0.3149   -7.5452 H   0  0  0  0  0  0  0  0  0  0  0  0
    0.0413    0.9702   -8.5698 H   0  0  0  0  0  0  0  0  0  0  0  0
  1  2  2  0  0  0  0
  1  3  1  0  0  0  0
  1  7  1  0  0  0  0
  3  4  1  0  0  0  0
  3  5  1  0  0  0  0
  3  6  1  0  0  0  0
  7  8  1  0  0  0  0
  7 12  1  0  0  0  0
  8  9  1  0  0  0  0
  8 11  1  0  0  0  0
  8 13  1  0  0  0  0
  9 10  2  0  0  0  0
  9 17  1  0  0  0  0
 11 14  1  0  0  0  0
 11 15  1  0  0  0  0
 11 16  1  0  0  0  0
 17 18  1  0  0  0  0
 17 23  1  0  0  0  0
 18 19  1  0  0  0  0
 18 21  1  0  0  0  0
 18 24  1  0  0  0  0
 19 20  2  0  0  0  0
 19 28  1  0  0  0  0
 21 22  1  0  0  0  0
 21 25  1  0  0  0  0
 21 26  1  0  0  0  0
 22 27  1  0  0  0  0
 28 29  1  0  0  0  0
 28 33  1  0  0  0  0
 29 30  1  0  0  0  0
 29 32  1  0  0  0  0
 29 34  1  0  0  0  0
 30 31  2  0  0  0  0
 30 38  1  0  0  0  0
 32 35  1  0  0  0  0
 32 36  1  0  0  0  0
 32 37  1  0  0  0  0
 38 39  1  0  0  0  0
 38 40  1  0  0  0  0
 39 41  1  0  0  0  0
 39 42  1  0  0  0  0
 39 43  1  0  0  0  0
M  END
$$$$

  -OEChem-05262216003D

 43 42  0     1  0  0  0  0  0999 V2000
   -3.2611   -4.9961    1.2290 C   0  0  0  0  0  0  0  0  0  0  0  0
   -2.4318   -5.4655    1.9926 O   0  0  0  0  0  0  0  0  0  0  0  0
   -4.7155   -5.4155    1.3335 C   0  0  0  0  0  0  0  0  0  0  0  0
   -5.0462   -5.8546    0.3892 H   0  0  0  0  0  0  0  0  0  0  0  0
   -4.8379   -6.1563    2.1287 H   0  0  0  0  0  0  0  0  0  0  0  0
   -5.3390   -4.5478    1.5621 H   0  0  0  0  0  0  0  0  0  0  0  0
   -2.8767   -4.0766    0.2763 N   0  0  0  0  0  0  0  0  0  0  0  0
   -1.5387   -3.4764    0.1976 C   0  0  2  0  0  0  0  0  0  0  0  0
   -1.6004   -2.0181   -0.3030 C   0  0  0  0  0  0  0  0  0  0  0  0
   -2.6031   -1.6215   -0.8790 O   0  0  0  0  0  0  0  0  0  0  0  0
   -0.6798   -4.3305   -0.7392 C   0  0  0  0  0  0  0  0  0  0  0  0
   -3.6148   -3.6163   -0.2566 H   0  0  0  0  0  0  0  0  0  0  0  0
   -1.0817   -3.4610    1.1930 H   0  0  0  0  0  0  0  0  0  0  0  0
   -1.1183   -4.3569   -1.7418 H   0  0  0  0  0  0  0  0  0  0  0  0
    0.3329   -3.9234   -0.8123 H   0  0  0  0  0  0  0  0  0  0  0  0
   -0.6124   -5.3554   -0.3608 H   0  0  0  0  0  0  0  0  0  0  0  0
   -0.5262   -1.1725   -0.0884 N   0  0  0  0  0  0  0  0  0  0  0  0
   -0.4811    0.2793   -0.3496 C   0  0  2  0  0  0  0  0  0  0  0  0
   -1.0689    0.7494   -1.7040 C   0  0  0  0  0  0  0  0  0  0  0  0
   -2.1397    1.3421   -1.7317 O   0  0  0  0  0  0  0  0  0  0  0  0
    0.9850    0.7153   -0.2184 C   0  0  0  0  0  0  0  0  0  0  0  0
    1.5560    0.4834    1.5151 S   0  0  0  0  0  0  0  0  0  0  0  0
    0.2059   -1.5412    0.5146 H   0  0  0  0  0  0  0  0  0  0  0  0
   -1.0659    0.7871    0.4255 H   0  0  0  0  0  0  0  0  0  0  0  0
    1.6198    0.1398   -0.9005 H   0  0  0  0  0  0  0  0  0  0  0  0
    1.0763    1.7743   -0.4838 H   0  0  0  0  0  0  0  0  0  0  0  0
    2.7913    1.0300    1.4592 H   0  0  0  0  0  0  0  0  0  0  0  0
   -0.2630    0.8317   -2.8264 N   0  0  0  0  0  0  0  0  0  0  0  0
   -0.7433    1.2441   -4.1507 C   0  0  2  0  0  0  0  0  0  0  0  0
   -0.0464    0.4373   -5.2661 C   0  0  0  0  0  0  0  0  0  0  0  0
    0.9473   -0.2349   -5.0068 O   0  0  0  0  0  0  0  0  0  0  0  0
   -0.4758    2.7430   -4.3168 C   0  0  0  0  0  0  0  0  0  0  0  0
    0.5709    0.2455   -2.8268 H   0  0  0  0  0  0  0  0  0  0  0  0
   -1.8194    1.0554   -4.2332 H   0  0  0  0  0  0  0  0  0  0  0  0
    0.5967    2.9507   -4.2468 H   0  0  0  0  0  0  0  0  0  0  0  0
   -0.8366    3.0927   -5.2886 H   0  0  0  0  0  0  0  0  0  0  0  0
   -0.9920    3.3084   -3.5342 H   0  0  0  0  0  0  0  0  0  0  0  0
   -0.5336    0.4577   -6.5598 N   0  0  0  0  0  0  0  0  0  0  0  0
    0.0644   -0.3017   -7.6513 C   0  0  0  0  0  0  0  0  0  0  0  0
   -1.3797    0.9922   -6.7361 H   0  0  0  0  0  0  0  0  0  0  0  0
    1.1164   -0.0253   -7.7796 H   0  0  0  0  0  0  0  0  0  0  0  0
    0.0047   -1.3761   -7.4477 H   0  0  0  0  0  0  0  0  0  0  0  0
   -0.4619   -0.0968   -8.5886 H   0  0  0  0  0  0  0  0  0  0  0  0
  1  2  2  0  0  0  0
  1  3  1  0  0  0  0
  1  7  1  0  0  0  0
  3  4  1  0  0  0  0
  3  5  1  0  0  0  0
  3  6  1  0  0  0  0
  7  8  1  0  0  0  0
  7 12  1  0  0  0  0
  8  9  1  0  0  0  0
  8 11  1  0  0  0  0
  8 13  1  0  0  0  0
  9 10  2  0  0  0  0
  9 17  1  0  0  0  0
 11 14  1  0  0  0  0
 11 15  1  0  0  0  0
 11 16  1  0  0  0  0
 17 18  1  0  0  0  0
 17 23  1  0  0  0  0
 18 19  1  0  0  0  0
 18 21  1  0  0  0  0
 18 24  1  0  0  0  0
 19 20  2  0  0  0  0
 19 28  1  0  0  0  0
 21 22  1  0  0  0  0
 21 25  1  0  0  0  0
 21 26  1  0  0  0  0
 22 27  1  0  0  0  0
 28 29  1  0  0  0  0
 28 33  1  0  0  0  0
 29 30  1  0  0  0  0
 29 32  1  0  0  0  0
 29 34  1  0  0  0  0
 30 31  2  0  0  0  0
 30 38  1  0  0  0  0
 32 35  1  0  0  0  0
 32 36  1  0  0  0  0
 32 37  1  0  0  0  0
 38 39  1  0  0  0  0
 38 40  1  0  0  0  0
 39 41  1  0  0  0  0
 39 42  1  0  0  0  0
 39 43  1  0  0  0  0
M  END
$$$$

  -OEChem-05262216003D

 43 42  0     1  0  0  0  0  0999 V2000
   -3.2339   -4.9920    1.2239 C   0  0  0  0  0  0  0  0  0  0  0  0
   -2.3894   -5.4765    1.9609 O   0  0  0  0  0  0  0  0  0  0  0  0
   -4.6890   -5.3996    1.3605 C   0  0  0  0  0  0  0  0  0  0  0  0
   -5.0558   -5.7981    0.4117 H   0  0  0  0  0  0  0  0  0  0  0  0
   -4.7941   -6.1696    2.1299 H   0  0  0  0  0  0  0  0  0  0  0  0
   -5.2943   -4.5345    1.6425 H   0  0  0  0  0  0  0  0  0  0  0  0
   -2.8683   -4.0611    0.2751 N   0  0  0  0  0  0  0  0  0  0  0  0
   -1.5285   -3.4692    0.1690 C   0  0  2  0  0  0  0  0  0  0  0  0
   -1.5929   -1.9982   -0.2916 C   0  0  0  0  0  0  0  0  0  0  0  0
   -2.6011   -1.5813   -0.8454 O   0  0  0  0  0  0  0  0  0  0  0  0
   -0.7083   -4.3046   -0.8180 C   0  0  0  0  0  0  0  0  0  0  0  0
   -3.6167   -3.5945   -0.2374 H   0  0  0  0  0  0  0  0  0  0  0  0
   -1.0381   -3.4836    1.1484 H   0  0  0  0  0  0  0  0  0  0  0  0
   -1.1852   -4.3099   -1.8035 H   0  0  0  0  0  0  0  0  0  0  0  0
    0.3016   -3.8970   -0.9224 H   0  0  0  0  0  0  0  0  0  0  0  0
   -0.6283   -5.3370   -0.4631 H   0  0  0  0  0  0  0  0  0  0  0  0
   -0.5153   -1.1583   -0.0698 N   0  0  0  0  0  0  0  0  0  0  0  0
   -0.4734    0.2939   -0.3276 C   0  0  2  0  0  0  0  0  0  0  0  0
   -1.0632    0.7448   -1.6837 C   0  0  0  0  0  0  0  0  0  0  0  0
   -2.0052    1.5263   -1.7131 O   0  0  0  0  0  0  0  0  0  0  0  0
    0.9894    0.7441   -0.2242 C   0  0  0  0  0  0  0  0  0  0  0  0
    1.5983    0.5169    1.4966 S   0  0  0  0  0  0  0  0  0  0  0  0
    0.2249   -1.5346    0.5184 H   0  0  0  0  0  0  0  0  0  0  0  0
   -1.0549    0.8025    0.4496 H   0  0  0  0  0  0  0  0  0  0  0  0
    1.6160    0.1758   -0.9193 H   0  0  0  0  0  0  0  0  0  0  0  0
    1.0644    1.8038   -0.4924 H   0  0  0  0  0  0  0  0  0  0  0  0
    2.8291    1.0696    1.4118 H   0  0  0  0  0  0  0  0  0  0  0  0
   -0.3517    0.5276   -2.8495 N   0  0  0  0  0  0  0  0  0  0  0  0
   -0.8714    0.8352   -4.1861 C   0  0  2  0  0  0  0  0  0  0  0  0
   -0.4277   -0.2322   -5.2081 C   0  0  0  0  0  0  0  0  0  0  0  0
    0.4434   -1.0440   -4.9096 O   0  0  0  0  0  0  0  0  0  0  0  0
   -0.3683    2.2233   -4.5929 C   0  0  0  0  0  0  0  0  0  0  0  0
    0.3455   -0.2153   -2.8128 H   0  0  0  0  0  0  0  0  0  0  0  0
   -1.9668    0.8360   -4.1685 H   0  0  0  0  0  0  0  0  0  0  0  0
    0.7256    2.2375   -4.6328 H   0  0  0  0  0  0  0  0  0  0  0  0
   -0.7575    2.5013   -5.5769 H   0  0  0  0  0  0  0  0  0  0  0  0
   -0.7003    2.9730   -3.8675 H   0  0  0  0  0  0  0  0  0  0  0  0
   -1.0071   -0.2889   -6.4620 N   0  0  0  0  0  0  0  0  0  0  0  0
   -0.6522   -1.2876   -7.4630 C   0  0  0  0  0  0  0  0  0  0  0  0
   -1.7571    0.3662   -6.6636 H   0  0  0  0  0  0  0  0  0  0  0  0
    0.4193   -1.2453   -7.6852 H   0  0  0  0  0  0  0  0  0  0  0  0
   -0.8982   -2.2927   -7.1050 H   0  0  0  0  0  0  0  0  0  0  0  0
   -1.2029   -1.1050   -8.3907 H   0  0  0  0  0  0  0  0  0  0  0  0
  1  2  2  0  0  0  0
  1  3  1  0  0  0  0
  1  7  1  0  0  0  0
  3  4  1  0  0  0  0
  3  5  1  0  0  0  0
  3  6  1  0  0  0  0
  7  8  1  0  0  0  0
  7 12  1  0  0  0  0
  8  9  1  0  0  0  0
  8 11  1  0  0  0  0
  8 13  1  0  0  0  0
  9 10  2  0  0  0  0
  9 17  1  0  0  0  0
 11 14  1  0  0  0  0
 11 15  1  0  0  0  0
 11 16  1  0  0  0  0
 17 18  1  0  0  0  0
 17 23  1  0  0  0  0
 18 19  1  0  0  0  0
 18 21  1  0  0  0  0
 18 24  1  0  0  0  0
 19 20  2  0  0  0  0
 19 28  1  0  0  0  0
 21 22  1  0  0  0  0
 21 25  1  0  0  0  0
 21 26  1  0  0  0  0
 22 27  1  0  0  0  0
 28 29  1  0  0  0  0
 28 33  1  0  0  0  0
 29 30  1  0  0  0  0
 29 32  1  0  0  0  0
 29 34  1  0  0  0  0
 30 31  2  0  0  0  0
 30 38  1  0  0  0  0
 32 35  1  0  0  0  0
 32 36  1  0  0  0  0
 32 37  1  0  0  0  0
 38 39  1  0  0  0  0
 38 40  1  0  0  0  0
 39 41  1  0  0  0  0
 39 42  1  0  0  0  0
 39 43  1  0  0  0  0
M  END
$$$$

  -OEChem-05262216003D

 43 42  0     1  0  0  0  0  0999 V2000
   -3.1558   -4.9846    0.1899 C   0  0  0  0  0  0  0  0  0  0  0  0
   -2.4084   -5.5330    0.9842 O   0  0  0  0  0  0  0  0  0  0  0  0
   -4.5919   -5.4519    0.0477 C   0  0  0  0  0  0  0  0  0  0  0  0
   -4.8048   -5.6953   -0.9961 H   0  0  0  0  0  0  0  0  0  0  0  0
   -4.7599   -6.3434    0.6585 H   0  0  0  0  0  0  0  0  0  0  0  0
   -5.2738   -4.6644    0.3778 H   0  0  0  0  0  0  0  0  0  0  0  0
   -2.7023   -3.9272   -0.5687 N   0  0  0  0  0  0  0  0  0  0  0  0
   -1.3965   -3.2794   -0.3909 C   0  0  2  0  0  0  0  0  0  0  0  0
   -1.4781   -1.7640   -0.6682 C   0  0  0  0  0  0  0  0  0  0  0  0
   -2.4354   -1.3145   -1.2875 O   0  0  0  0  0  0  0  0  0  0  0  0
   -0.3938   -3.9478   -1.3352 C   0  0  0  0  0  0  0  0  0  0  0  0
   -3.3921   -3.4156   -1.1178 H   0  0  0  0  0  0  0  0  0  0  0  0
   -1.0573   -3.4044    0.6429 H   0  0  0  0  0  0  0  0  0  0  0  0
   -0.7215   -3.8488   -2.3748 H   0  0  0  0  0  0  0  0  0  0  0  0
    0.5938   -3.4873   -1.2381 H   0  0  0  0  0  0  0  0  0  0  0  0
   -0.3038   -5.0127   -1.0988 H   0  0  0  0  0  0  0  0  0  0  0  0
   -0.4901   -0.9156   -0.1930 N   0  0  0  0  0  0  0  0  0  0  0  0
   -0.4813    0.5563   -0.3078 C   0  0  2  0  0  0  0  0  0  0  0  0
   -0.8708    1.0747   -1.7071 C   0  0  0  0  0  0  0  0  0  0  0  0
   -1.7804    1.8820   -1.8441 O   0  0  0  0  0  0  0  0  0  0  0  0
    0.9229    1.0553    0.0500 C   0  0  0  0  0  0  0  0  0  0  0  0
    1.2888    0.6876    1.8150 S   0  0  0  0  0  0  0  0  0  0  0  0
    0.1914   -1.3310    0.4383 H   0  0  0  0  0  0  0  0  0  0  0  0
   -1.2035    0.9735    0.4025 H   0  0  0  0  0  0  0  0  0  0  0  0
    1.6732    0.5837   -0.5928 H   0  0  0  0  0  0  0  0  0  0  0  0
    0.9756    2.1380   -0.1090 H   0  0  0  0  0  0  0  0  0  0  0  0
    2.4887    1.2927    1.9653 H   0  0  0  0  0  0  0  0  0  0  0  0
   -0.1118    0.7011   -2.8005 N   0  0  0  0  0  0  0  0  0  0  0  0
   -0.7352    0.5724   -4.1211 C   0  0  2  0  0  0  0  0  0  0  0  0
   -1.0232   -0.9178   -4.3948 C   0  0  0  0  0  0  0  0  0  0  0  0
   -0.1807   -1.7586   -4.0912 O   0  0  0  0  0  0  0  0  0  0  0  0
    0.2166    1.1526   -5.1678 C   0  0  0  0  0  0  0  0  0  0  0  0
    0.5473   -0.0464   -2.5908 H   0  0  0  0  0  0  0  0  0  0  0  0
   -1.6813    1.1214   -4.1708 H   0  0  0  0  0  0  0  0  0  0  0  0
    1.1747    0.6234   -5.1530 H   0  0  0  0  0  0  0  0  0  0  0  0
   -0.2164    1.0600   -6.1684 H   0  0  0  0  0  0  0  0  0  0  0  0
    0.3992    2.2123   -4.9647 H   0  0  0  0  0  0  0  0  0  0  0  0
   -2.2290   -1.3189   -4.9371 N   0  0  0  0  0  0  0  0  0  0  0  0
   -2.6177   -2.7206   -5.0263 C   0  0  0  0  0  0  0  0  0  0  0  0
   -2.9582   -0.6128   -4.9892 H   0  0  0  0  0  0  0  0  0  0  0  0
   -1.8951   -3.2825   -5.6272 H   0  0  0  0  0  0  0  0  0  0  0  0
   -2.6696   -3.1669   -4.0276 H   0  0  0  0  0  0  0  0  0  0  0  0
   -3.6005   -2.8104   -5.4986 H   0  0  0  0  0  0  0  0  0  0  0  0
  1  2  2  0  0  0  0
  1  3  1  0  0  0  0
  1  7  1  0  0  0  0
  3  4  1  0  0  0  0
  3  5  1  0  0  0  0
  3  6  1  0  0  0  0
  7  8  1  0  0  0  0
  7 12  1  0  0  0  0
  8  9  1  0  0  0  0
  8 11  1  0  0  0  0
  8 13  1  0  0  0  0
  9 10  2  0  0  0  0
  9 17  1  0  0  0  0
 11 14  1  0  0  0  0
 11 15  1  0  0  0  0
 11 16  1  0  0  0  0
 17 18  1  0  0  0  0
 17 23  1  0  0  0  0
 18 19  1  0  0  0  0
 18 21  1  0  0  0  0
 18 24  1  0  0  0  0
 19 20  2  0  0  0  0
 19 28  1  0  0  0  0
 21 22  1  0  0  0  0
 21 25  1  0  0  0  0
 21 26  1  0  0  0  0
 22 27  1  0  0  0  0
 28 29  1  0  0  0  0
 28 33  1  0  0  0  0
 29 30  1  0  0  0  0
 29 32  1  0  0  0  0
 29 34  1  0  0  0  0
 30 31  2  0  0  0  0
 30 38  1  0  0  0  0
 32 35  1  0  0  0  0
 32 36  1  0  0  0  0
 32 37  1  0  0  0  0
 38 39  1  0  0  0  0
 38 40  1  0  0  0  0
 39 41  1  0  0  0  0
 39 42  1  0  0  0  0
 39 43  1  0  0  0  0
M  END
$$$$

  -OEChem-05262216003D

 43 42  0     1  0  0  0  0  0999 V2000
   -3.2100   -4.9949    0.8248 C   0  0  0  0  0  0  0  0  0  0  0  0
   -2.4048   -5.5099    1.5845 O   0  0  0  0  0  0  0  0  0  0  0  0
   -4.6616   -5.4350    0.8392 C   0  0  0  0  0  0  0  0  0  0  0  0
   -4.9505   -5.8000   -0.1495 H   0  0  0  0  0  0  0  0  0  0  0  0
   -4.8053   -6.2380    1.5677 H   0  0  0  0  0  0  0  0  0  0  0  0
   -5.3029   -4.5930    1.1110 H   0  0  0  0  0  0  0  0  0  0  0  0
   -2.8060   -4.0020   -0.0414 N   0  0  0  0  0  0  0  0  0  0  0  0
   -1.4722   -3.3886   -0.0380 C   0  0  2  0  0  0  0  0  0  0  0  0
   -1.5408   -1.8831   -0.3676 C   0  0  0  0  0  0  0  0  0  0  0  0
   -2.5448   -1.4191   -0.8951 O   0  0  0  0  0  0  0  0  0  0  0  0
   -0.6063   -4.1239   -1.0645 C   0  0  0  0  0  0  0  0  0  0  0  0
   -3.5308   -3.5161   -0.5684 H   0  0  0  0  0  0  0  0  0  0  0  0
   -1.0187   -3.4866    0.9541 H   0  0  0  0  0  0  0  0  0  0  0  0
   -1.0466   -4.0447   -2.0639 H   0  0  0  0  0  0  0  0  0  0  0  0
    0.4015   -3.6996   -1.0947 H   0  0  0  0  0  0  0  0  0  0  0  0
   -0.5267   -5.1837   -0.8028 H   0  0  0  0  0  0  0  0  0  0  0  0
   -0.4791   -1.0506   -0.0517 N   0  0  0  0  0  0  0  0  0  0  0  0
   -0.4248    0.4070   -0.2856 C   0  0  2  0  0  0  0  0  0  0  0  0
   -0.9184    0.8513   -1.6779 C   0  0  0  0  0  0  0  0  0  0  0  0
   -1.5500    1.8910   -1.8136 O   0  0  0  0  0  0  0  0  0  0  0  0
    1.0283    0.8611   -0.1152 C   0  0  0  0  0  0  0  0  0  0  0  0
    1.5640    0.6100    1.6272 S   0  0  0  0  0  0  0  0  0  0  0  0
    0.2562   -1.4534    0.5254 H   0  0  0  0  0  0  0  0  0  0  0  0
   -1.0530    0.9124    0.4561 H   0  0  0  0  0  0  0  0  0  0  0  0
    1.6832    0.3068   -0.7958 H   0  0  0  0  0  0  0  0  0  0  0  0
    1.1087    1.9252   -0.3649 H   0  0  0  0  0  0  0  0  0  0  0  0
    2.7933    1.1722    1.6067 H   0  0  0  0  0  0  0  0  0  0  0  0
   -0.5022    0.1513   -2.7939 N   0  0  0  0  0  0  0  0  0  0  0  0
   -1.2314    0.1956   -4.0640 C   0  0  2  0  0  0  0  0  0  0  0  0
   -1.5389   -1.2379   -4.5465 C   0  0  0  0  0  0  0  0  0  0  0  0
   -0.8676   -2.1810   -4.1353 O   0  0  0  0  0  0  0  0  0  0  0  0
   -0.3783    0.9484   -5.0864 C   0  0  0  0  0  0  0  0  0  0  0  0
   -0.0902   -0.7570   -2.5825 H   0  0  0  0  0  0  0  0  0  0  0  0
   -2.1877    0.7148   -3.9388 H   0  0  0  0  0  0  0  0  0  0  0  0
    0.5778    0.4373   -5.2383 H   0  0  0  0  0  0  0  0  0  0  0  0
   -0.8974    1.0111   -6.0476 H   0  0  0  0  0  0  0  0  0  0  0  0
   -0.1788    1.9652   -4.7337 H   0  0  0  0  0  0  0  0  0  0  0  0
   -2.5643   -1.4739   -5.4429 N   0  0  0  0  0  0  0  0  0  0  0  0
   -2.9459   -2.8099   -5.8831 C   0  0  0  0  0  0  0  0  0  0  0  0
   -3.1467   -0.6842   -5.7060 H   0  0  0  0  0  0  0  0  0  0  0  0
   -2.1063   -3.3031   -6.3844 H   0  0  0  0  0  0  0  0  0  0  0  0
   -3.2549   -3.4206   -5.0283 H   0  0  0  0  0  0  0  0  0  0  0  0
   -3.7815   -2.7522   -6.5871 H   0  0  0  0  0  0  0  0  0  0  0  0
  1  2  2  0  0  0  0
  1  3  1  0  0  0  0
  1  7  1  0  0  0  0
  3  4  1  0  0  0  0
  3  5  1  0  0  0  0
  3  6  1  0  0  0  0
  7  8  1  0  0  0  0
  7 12  1  0  0  0  0
  8  9  1  0  0  0  0
  8 11  1  0  0  0  0
  8 13  1  0  0  0  0
  9 10  2  0  0  0  0
  9 17  1  0  0  0  0
 11 14  1  0  0  0  0
 11 15  1  0  0  0  0
 11 16  1  0  0  0  0
 17 18  1  0  0  0  0
 17 23  1  0  0  0  0
 18 19  1  0  0  0  0
 18 21  1  0  0  0  0
 18 24  1  0  0  0  0
 19 20  2  0  0  0  0
 19 28  1  0  0  0  0
 21 22  1  0  0  0  0
 21 25  1  0  0  0  0
 21 26  1  0  0  0  0
 22 27  1  0  0  0  0
 28 29  1  0  0  0  0
 28 33  1  0  0  0  0
 29 30  1  0  0  0  0
 29 32  1  0  0  0  0
 29 34  1  0  0  0  0
 30 31  2  0  0  0  0
 30 38  1  0  0  0  0
 32 35  1  0  0  0  0
 32 36  1  0  0  0  0
 32 37  1  0  0  0  0
 38 39  1  0  0  0  0
 38 40  1  0  0  0  0
 39 41  1  0  0  0  0
 39 42  1  0  0  0  0
 39 43  1  0  0  0  0
M  END
$$$$

  -OEChem-05262216003D

 43 42  0     1  0  0  0  0  0999 V2000
   -3.1862   -5.0196    1.2766 C   0  0  0  0  0  0  0  0  0  0  0  0
   -2.3350   -5.4768    2.0229 O   0  0  0  0  0  0  0  0  0  0  0  0
   -4.6313   -5.4630    1.4074 C   0  0  0  0  0  0  0  0  0  0  0  0
   -4.9644   -5.9263    0.4756 H   0  0  0  0  0  0  0  0  0  0  0  0
   -4.7309   -6.1901    2.2184 H   0  0  0  0  0  0  0  0  0  0  0  0
   -5.2677   -4.6020    1.6266 H   0  0  0  0  0  0  0  0  0  0  0  0
   -2.8377   -4.0912    0.3191 N   0  0  0  0  0  0  0  0  0  0  0  0
   -1.5104   -3.4734    0.2047 C   0  0  2  0  0  0  0  0  0  0  0  0
   -1.6066   -1.9796   -0.1678 C   0  0  0  0  0  0  0  0  0  0  0  0
   -2.6446   -1.5286   -0.6355 O   0  0  0  0  0  0  0  0  0  0  0  0
   -0.7196   -4.2379   -0.8607 C   0  0  0  0  0  0  0  0  0  0  0  0
   -3.5950   -3.6479   -0.1997 H   0  0  0  0  0  0  0  0  0  0  0  0
   -0.9834   -3.5380    1.1627 H   0  0  0  0  0  0  0  0  0  0  0  0
   -1.2267   -4.1798   -1.8300 H   0  0  0  0  0  0  0  0  0  0  0  0
    0.2858   -3.8199   -0.9688 H   0  0  0  0  0  0  0  0  0  0  0  0
   -0.6271   -5.2916   -0.5786 H   0  0  0  0  0  0  0  0  0  0  0  0
   -0.5237   -1.1387    0.0261 N   0  0  0  0  0  0  0  0  0  0  0  0
   -0.4645    0.2980   -0.3156 C   0  0  2  0  0  0  0  0  0  0  0  0
   -1.0195    0.6865   -1.7048 C   0  0  0  0  0  0  0  0  0  0  0  0
   -1.3759    1.8373   -1.9234 O   0  0  0  0  0  0  0  0  0  0  0  0
    1.0073    0.7207   -0.2604 C   0  0  0  0  0  0  0  0  0  0  0  0
    1.6432    0.5777    1.4603 S   0  0  0  0  0  0  0  0  0  0  0  0
    0.2571   -1.5188    0.5567 H   0  0  0  0  0  0  0  0  0  0  0  0
   -1.0364    0.8649    0.4266 H   0  0  0  0  0  0  0  0  0  0  0  0
    1.6055    0.1027   -0.9383 H   0  0  0  0  0  0  0  0  0  0  0  0
    1.1001    1.7627   -0.5873 H   0  0  0  0  0  0  0  0  0  0  0  0
    2.8832    1.0990    1.3233 H   0  0  0  0  0  0  0  0  0  0  0  0
   -0.9531   -0.2111   -2.7527 N   0  0  0  0  0  0  0  0  0  0  0  0
   -1.6610   -0.0359   -4.0228 C   0  0  2  0  0  0  0  0  0  0  0  0
   -2.1541   -1.3967   -4.5599 C   0  0  0  0  0  0  0  0  0  0  0  0
   -1.6843   -2.4428   -4.1201 O   0  0  0  0  0  0  0  0  0  0  0  0
   -0.7146    0.6319   -5.0239 C   0  0  0  0  0  0  0  0  0  0  0  0
   -0.8003   -1.1801   -2.4755 H   0  0  0  0  0  0  0  0  0  0  0  0
   -2.5406    0.5993   -3.8728 H   0  0  0  0  0  0  0  0  0  0  0  0
    0.1660    0.0040   -5.1940 H   0  0  0  0  0  0  0  0  0  0  0  0
   -1.2199    0.7931   -5.9808 H   0  0  0  0  0  0  0  0  0  0  0  0
   -0.3831    1.6025   -4.6415 H   0  0  0  0  0  0  0  0  0  0  0  0
   -3.1204   -1.4505   -5.5473 N   0  0  0  0  0  0  0  0  0  0  0  0
   -3.6460   -2.6991   -6.0857 C   0  0  0  0  0  0  0  0  0  0  0  0
   -3.5207   -0.5711   -5.8611 H   0  0  0  0  0  0  0  0  0  0  0  0
   -2.8369   -3.3083   -6.5025 H   0  0  0  0  0  0  0  0  0  0  0  0
   -4.1499   -3.2726   -5.3004 H   0  0  0  0  0  0  0  0  0  0  0  0
   -4.3667   -2.4933   -6.8832 H   0  0  0  0  0  0  0  0  0  0  0  0
  1  2  2  0  0  0  0
  1  3  1  0  0  0  0
  1  7  1  0  0  0  0
  3  4  1  0  0  0  0
  3  5  1  0  0  0  0
  3  6  1  0  0  0  0
  7  8  1  0  0  0  0
  7 12  1  0  0  0  0
  8  9  1  0  0  0  0
  8 11  1  0  0  0  0
  8 13  1  0  0  0  0
  9 10  2  0  0  0  0
  9 17  1  0  0  0  0
 11 14  1  0  0  0  0
 11 15  1  0  0  0  0
 11 16  1  0  0  0  0
 17 18  1  0  0  0  0
 17 23  1  0  0  0  0
 18 19  1  0  0  0  0
 18 21  1  0  0  0  0
 18 24  1  0  0  0  0
 19 20  2  0  0  0  0
 19 28  1  0  0  0  0
 21 22  1  0  0  0  0
 21 25  1  0  0  0  0
 21 26  1  0  0  0  0
 22 27  1  0  0  0  0
 28 29  1  0  0  0  0
 28 33  1  0  0  0  0
 29 30  1  0  0  0  0
 29 32  1  0  0  0  0
 29 34  1  0  0  0  0
 30 31  2  0  0  0  0
 30 38  1  0  0  0  0
 32 35  1  0  0  0  0
 32 36  1  0  0  0  0
 32 37  1  0  0  0  0
 38 39  1  0  0  0  0
 38 40  1  0  0  0  0
 39 41  1  0  0  0  0
 39 42  1  0  0  0  0
 39 43  1  0  0  0  0
M  END
$$$$

  -OEChem-05262216003D

 43 42  0     1  0  0  0  0  0999 V2000
   -3.1411   -5.0924    1.4254 C   0  0  0  0  0  0  0  0  0  0  0  0
   -2.2858   -5.5468    2.1689 O   0  0  0  0  0  0  0  0  0  0  0  0
   -4.5779   -5.5666    1.5364 C   0  0  0  0  0  0  0  0  0  0  0  0
   -4.9005   -6.0027    0.5878 H   0  0  0  0  0  0  0  0  0  0  0  0
   -4.6656   -6.3239    2.3206 H   0  0  0  0  0  0  0  0  0  0  0  0
   -5.2310   -4.7260    1.7841 H   0  0  0  0  0  0  0  0  0  0  0  0
   -2.8056   -4.1390    0.4886 N   0  0  0  0  0  0  0  0  0  0  0  0
   -1.4914   -3.4911    0.3963 C   0  0  2  0  0  0  0  0  0  0  0  0
   -1.6210   -2.0017    0.0161 C   0  0  0  0  0  0  0  0  0  0  0  0
   -2.6930   -1.5586   -0.3755 O   0  0  0  0  0  0  0  0  0  0  0  0
   -0.6676   -4.2419   -0.6541 C   0  0  0  0  0  0  0  0  0  0  0  0
   -3.5690   -3.7006   -0.0262 H   0  0  0  0  0  0  0  0  0  0  0  0
   -0.9793   -3.5402    1.3633 H   0  0  0  0  0  0  0  0  0  0  0  0
   -1.1578   -4.1913   -1.6324 H   0  0  0  0  0  0  0  0  0  0  0  0
    0.3332   -3.8090   -0.7427 H   0  0  0  0  0  0  0  0  0  0  0  0
   -0.5634   -5.2941   -0.3710 H   0  0  0  0  0  0  0  0  0  0  0  0
   -0.5308   -1.1533    0.0953 N   0  0  0  0  0  0  0  0  0  0  0  0
   -0.4812    0.2621   -0.3336 C   0  0  2  0  0  0  0  0  0  0  0  0
   -1.1026    0.6107   -1.7111 C   0  0  0  0  0  0  0  0  0  0  0  0
   -1.2007    1.7842   -2.0492 O   0  0  0  0  0  0  0  0  0  0  0  0
    1.0017    0.6539   -0.3719 C   0  0  0  0  0  0  0  0  0  0  0  0
    1.7173    0.5942    1.3225 S   0  0  0  0  0  0  0  0  0  0  0  0
    0.2992   -1.5233    0.5534 H   0  0  0  0  0  0  0  0  0  0  0  0
   -1.0020    0.8751    0.4095 H   0  0  0  0  0  0  0  0  0  0  0  0
    1.5530   -0.0123   -1.0438 H   0  0  0  0  0  0  0  0  0  0  0  0
    1.1029    1.6745   -0.7583 H   0  0  0  0  0  0  0  0  0  0  0  0
    2.9512    1.0993    1.0998 H   0  0  0  0  0  0  0  0  0  0  0  0
   -1.3985   -0.3726   -2.6352 N   0  0  0  0  0  0  0  0  0  0  0  0
   -2.0749   -0.1418   -3.9141 C   0  0  2  0  0  0  0  0  0  0  0  0
   -2.8581   -1.3982   -4.3540 C   0  0  0  0  0  0  0  0  0  0  0  0
   -2.5977   -2.4947   -3.8668 O   0  0  0  0  0  0  0  0  0  0  0  0
   -1.0252    0.2303   -4.9661 C   0  0  0  0  0  0  0  0  0  0  0  0
   -1.5280   -1.3037   -2.2372 H   0  0  0  0  0  0  0  0  0  0  0  0
   -2.7928    0.6780   -3.8066 H   0  0  0  0  0  0  0  0  0  0  0  0
   -0.2928   -0.5760   -5.0751 H   0  0  0  0  0  0  0  0  0  0  0  0
   -1.4986    0.4057   -5.9367 H   0  0  0  0  0  0  0  0  0  0  0  0
   -0.4973    1.1425   -4.6711 H   0  0  0  0  0  0  0  0  0  0  0  0
   -3.8583   -1.3029   -5.3044 N   0  0  0  0  0  0  0  0  0  0  0  0
   -4.6568   -2.4420   -5.7412 C   0  0  0  0  0  0  0  0  0  0  0  0
   -4.0792   -0.3789   -5.6642 H   0  0  0  0  0  0  0  0  0  0  0  0
   -4.0153   -3.2157   -6.1762 H   0  0  0  0  0  0  0  0  0  0  0  0
   -5.2042   -2.8723   -4.8960 H   0  0  0  0  0  0  0  0  0  0  0  0
   -5.3810   -2.1285   -6.4993 H   0  0  0  0  0  0  0  0  0  0  0  0
  1  2  2  0  0  0  0
  1  3  1  0  0  0  0
  1  7  1  0  0  0  0
  3  4  1  0  0  0  0
  3  5  1  0  0  0  0
  3  6  1  0  0  0  0
  7  8  1  0  0  0  0
  7 12  1  0  0  0  0
  8  9  1  0  0  0  0
  8 11  1  0  0  0  0
  8 13  1  0  0  0  0
  9 10  2  0  0  0  0
  9 17  1  0  0  0  0
 11 14  1  0  0  0  0
 11 15  1  0  0  0  0
 11 16  1  0  0  0  0
 17 18  1  0  0  0  0
 17 23  1  0  0  0  0
 18 19  1  0  0  0  0
 18 21  1  0  0  0  0
 18 24  1  0  0  0  0
 19 20  2  0  0  0  0
 19 28  1  0  0  0  0
 21 22  1  0  0  0  0
 21 25  1  0  0  0  0
 21 26  1  0  0  0  0
 22 27  1  0  0  0  0
 28 29  1  0  0  0  0
 28 33  1  0  0  0  0
 29 30  1  0  0  0  0
 29 32  1  0  0  0  0
 29 34  1  0  0  0  0
 30 31  2  0  0  0  0
 30 38  1  0  0  0  0
 32 35  1  0  0  0  0
 32 36  1  0  0  0  0
 32 37  1  0  0  0  0
 38 39  1  0  0  0  0
 38 40  1  0  0  0  0
 39 41  1  0  0  0  0
 39 42  1  0  0  0  0
 39 43  1  0  0  0  0
M  END
$$$$

  -OEChem-05262216003D

 43 42  0     1  0  0  0  0  0999 V2000
   -3.0890   -5.1685    1.4349 C   0  0  0  0  0  0  0  0  0  0  0  0
   -2.2347   -5.6496    2.1630 O   0  0  0  0  0  0  0  0  0  0  0  0
   -4.5175   -5.6753    1.4953 C   0  0  0  0  0  0  0  0  0  0  0  0
   -4.8224   -6.0459    0.5137 H   0  0  0  0  0  0  0  0  0  0  0  0
   -4.5990   -6.4895    2.2207 H   0  0  0  0  0  0  0  0  0  0  0  0
   -5.1878   -4.8664    1.7960 H   0  0  0  0  0  0  0  0  0  0  0  0
   -2.7586   -4.1561    0.5605 N   0  0  0  0  0  0  0  0  0  0  0  0
   -1.4557   -3.4792    0.5293 C   0  0  2  0  0  0  0  0  0  0  0  0
   -1.6032   -1.9861    0.1693 C   0  0  0  0  0  0  0  0  0  0  0  0
   -2.7055   -1.5231   -0.0938 O   0  0  0  0  0  0  0  0  0  0  0  0
   -0.5740   -4.2028   -0.4943 C   0  0  0  0  0  0  0  0  0  0  0  0
   -3.5241   -3.7032    0.0603 H   0  0  0  0  0  0  0  0  0  0  0  0
   -0.9838   -3.5299    1.5167 H   0  0  0  0  0  0  0  0  0  0  0  0
   -1.0253   -4.1530   -1.4910 H   0  0  0  0  0  0  0  0  0  0  0  0
    0.4213   -3.7512   -0.5383 H   0  0  0  0  0  0  0  0  0  0  0  0
   -0.4603   -5.2557   -0.2163 H   0  0  0  0  0  0  0  0  0  0  0  0
   -0.5032   -1.1484    0.1411 N   0  0  0  0  0  0  0  0  0  0  0  0
   -0.4529    0.2478   -0.3494 C   0  0  2  0  0  0  0  0  0  0  0  0
   -1.1456    0.5759   -1.7044 C   0  0  0  0  0  0  0  0  0  0  0  0
   -1.0313    1.6996   -2.1797 O   0  0  0  0  0  0  0  0  0  0  0  0
    1.0407    0.5942   -0.4621 C   0  0  0  0  0  0  0  0  0  0  0  0
    1.8234    0.5828    1.2040 S   0  0  0  0  0  0  0  0  0  0  0  0
    0.3661   -1.5372    0.4991 H   0  0  0  0  0  0  0  0  0  0  0  0
   -0.9198    0.8969    0.3986 H   0  0  0  0  0  0  0  0  0  0  0  0
    1.5452   -0.1140   -1.1277 H   0  0  0  0  0  0  0  0  0  0  0  0
    1.1601    1.5952   -0.8912 H   0  0  0  0  0  0  0  0  0  0  0  0
    3.0607    1.0436    0.9131 H   0  0  0  0  0  0  0  0  0  0  0  0
   -1.7976   -0.3818   -2.4575 N   0  0  0  0  0  0  0  0  0  0  0  0
   -2.5166   -0.1317   -3.7109 C   0  0  2  0  0  0  0  0  0  0  0  0
   -3.5774   -1.2237   -3.9744 C   0  0  0  0  0  0  0  0  0  0  0  0
   -3.5161   -2.3062   -3.3996 O   0  0  0  0  0  0  0  0  0  0  0  0
   -1.5075   -0.0924   -4.8637 C   0  0  0  0  0  0  0  0  0  0  0  0
   -2.1083   -1.2000   -1.9271 H   0  0  0  0  0  0  0  0  0  0  0  0
   -3.0365    0.8297   -3.6461 H   0  0  0  0  0  0  0  0  0  0  0  0
   -0.9740   -1.0455   -4.9350 H   0  0  0  0  0  0  0  0  0  0  0  0
   -2.0172    0.0946   -5.8134 H   0  0  0  0  0  0  0  0  0  0  0  0
   -0.7752    0.7051   -4.7047 H   0  0  0  0  0  0  0  0  0  0  0  0
   -4.6013   -0.9987   -4.8767 N   0  0  0  0  0  0  0  0  0  0  0  0
   -5.6368   -1.9813   -5.1752 C   0  0  0  0  0  0  0  0  0  0  0  0
   -4.6411   -0.0885   -5.3259 H   0  0  0  0  0  0  0  0  0  0  0  0
   -5.1895   -2.9090   -5.5476 H   0  0  0  0  0  0  0  0  0  0  0  0
   -6.2213   -2.2081   -4.2773 H   0  0  0  0  0  0  0  0  0  0  0  0
   -6.3154   -1.5944   -5.9415 H   0  0  0  0  0  0  0  0  0  0  0  0
  1  2  2  0  0  0  0
  1  3  1  0  0  0  0
  1  7  1  0  0  0  0
  3  4  1  0  0  0  0
  3  5  1  0  0  0  0
  3  6  1  0  0  0  0
  7  8  1  0  0  0  0
  7 12  1  0  0  0  0
  8  9  1  0  0  0  0
  8 11  1  0  0  0  0
  8 13  1  0  0  0  0
  9 10  2  0  0  0  0
  9 17  1  0  0  0  0
 11 14  1  0  0  0  0
 11 15  1  0  0  0  0
 11 16  1  0  0  0  0
 17 18  1  0  0  0  0
 17 23  1  0  0  0  0
 18 19  1  0  0  0  0
 18 21  1  0  0  0  0
 18 24  1  0  0  0  0
 19 20  2  0  0  0  0
 19 28  1  0  0  0  0
 21 22  1  0  0  0  0
 21 25  1  0  0  0  0
 21 26  1  0  0  0  0
 22 27  1  0  0  0  0
 28 29  1  0  0  0  0
 28 33  1  0  0  0  0
 29 30  1  0  0  0  0
 29 32  1  0  0  0  0
 29 34  1  0  0  0  0
 30 31  2  0  0  0  0
 30 38  1  0  0  0  0
 32 35  1  0  0  0  0
 32 36  1  0  0  0  0
 32 37  1  0  0  0  0
 38 39  1  0  0  0  0
 38 40  1  0  0  0  0
 39 41  1  0  0  0  0
 39 42  1  0  0  0  0
 39 43  1  0  0  0  0
M  END
$$$$

  -OEChem-05262216003D

 43 42  0     1  0  0  0  0  0999 V2000
   -3.1479   -5.1762    1.0874 C   0  0  0  0  0  0  0  0  0  0  0  0
   -2.3335   -5.8013    1.7490 O   0  0  0  0  0  0  0  0  0  0  0  0
   -4.5802   -5.6637    0.9806 C   0  0  0  0  0  0  0  0  0  0  0  0
   -4.8438   -5.8176   -0.0686 H   0  0  0  0  0  0  0  0  0  0  0  0
   -4.6988   -6.6093    1.5166 H   0  0  0  0  0  0  0  0  0  0  0  0
   -5.2576   -4.9246    1.4149 H   0  0  0  0  0  0  0  0  0  0  0  0
   -2.7686   -4.0208    0.4391 N   0  0  0  0  0  0  0  0  0  0  0  0
   -1.4570   -3.3752    0.5892 C   0  0  2  0  0  0  0  0  0  0  0  0
   -1.5600   -1.8470    0.3910 C   0  0  0  0  0  0  0  0  0  0  0  0
   -2.6582   -1.3084    0.3337 O   0  0  0  0  0  0  0  0  0  0  0  0
   -0.5024   -4.0064   -0.4325 C   0  0  0  0  0  0  0  0  0  0  0  0
   -3.5070   -3.4739   -0.0072 H   0  0  0  0  0  0  0  0  0  0  0  0
   -1.0705   -3.5463    1.5998 H   0  0  0  0  0  0  0  0  0  0  0  0
   -0.8552   -3.8186   -1.4518 H   0  0  0  0  0  0  0  0  0  0  0  0
    0.5066   -3.5974   -0.3285 H   0  0  0  0  0  0  0  0  0  0  0  0
   -0.4467   -5.0889   -0.2790 H   0  0  0  0  0  0  0  0  0  0  0  0
   -0.4349   -1.0561    0.2427 N   0  0  0  0  0  0  0  0  0  0  0  0
   -0.3742    0.3025   -0.3469 C   0  0  2  0  0  0  0  0  0  0  0  0
   -1.1433    0.5514   -1.6824 C   0  0  0  0  0  0  0  0  0  0  0  0
   -0.8538    1.5159   -2.3807 O   0  0  0  0  0  0  0  0  0  0  0  0
    1.1218    0.6047   -0.5469 C   0  0  0  0  0  0  0  0  0  0  0  0
    1.9799    0.6907    1.0790 S   0  0  0  0  0  0  0  0  0  0  0  0
    0.4555   -1.5146    0.4172 H   0  0  0  0  0  0  0  0  0  0  0  0
   -0.7874    1.0112    0.3778 H   0  0  0  0  0  0  0  0  0  0  0  0
    1.5815   -0.1572   -1.1846 H   0  0  0  0  0  0  0  0  0  0  0  0
    1.2460    1.5724   -1.0451 H   0  0  0  0  0  0  0  0  0  0  0  0
    3.2045    1.1214    0.7024 H   0  0  0  0  0  0  0  0  0  0  0  0
   -2.0997   -0.3171   -2.1722 N   0  0  0  0  0  0  0  0  0  0  0  0
   -2.8714   -0.1490   -3.4073 C   0  0  2  0  0  0  0  0  0  0  0  0
   -4.1574   -1.0037   -3.3767 C   0  0  0  0  0  0  0  0  0  0  0  0
   -4.2294   -2.0010   -2.6641 O   0  0  0  0  0  0  0  0  0  0  0  0
   -2.0054   -0.5620   -4.6032 C   0  0  0  0  0  0  0  0  0  0  0  0
   -2.4938   -0.9636   -1.4819 H   0  0  0  0  0  0  0  0  0  0  0  0
   -3.1642    0.9009   -3.5113 H   0  0  0  0  0  0  0  0  0  0  0  0
   -1.6885   -1.6049   -4.5014 H   0  0  0  0  0  0  0  0  0  0  0  0
   -2.5665   -0.4579   -5.5367 H   0  0  0  0  0  0  0  0  0  0  0  0
   -1.1131    0.0681   -4.6675 H   0  0  0  0  0  0  0  0  0  0  0  0
   -5.2360   -0.6631   -4.1721 N   0  0  0  0  0  0  0  0  0  0  0  0
   -6.4844   -1.4152   -4.1948 C   0  0  0  0  0  0  0  0  0  0  0  0
   -5.1564    0.1763   -4.7386 H   0  0  0  0  0  0  0  0  0  0  0  0
   -6.3069   -2.4415   -4.5325 H   0  0  0  0  0  0  0  0  0  0  0  0
   -6.9330   -1.4454   -3.1963 H   0  0  0  0  0  0  0  0  0  0  0  0
   -7.1966   -0.9444   -4.8791 H   0  0  0  0  0  0  0  0  0  0  0  0
  1  2  2  0  0  0  0
  1  3  1  0  0  0  0
  1  7  1  0  0  0  0
  3  4  1  0  0  0  0
  3  5  1  0  0  0  0
  3  6  1  0  0  0  0
  7  8  1  0  0  0  0
  7 12  1  0  0  0  0
  8  9  1  0  0  0  0
  8 11  1  0  0  0  0
  8 13  1  0  0  0  0
  9 10  2  0  0  0  0
  9 17  1  0  0  0  0
 11 14  1  0  0  0  0
 11 15  1  0  0  0  0
 11 16  1  0  0  0  0
 17 18  1  0  0  0  0
 17 23  1  0  0  0  0
 18 19  1  0  0  0  0
 18 21  1  0  0  0  0
 18 24  1  0  0  0  0
 19 20  2  0  0  0  0
 19 28  1  0  0  0  0
 21 22  1  0  0  0  0
 21 25  1  0  0  0  0
 21 26  1  0  0  0  0
 22 27  1  0  0  0  0
 28 29  1  0  0  0  0
 28 33  1  0  0  0  0
 29 30  1  0  0  0  0
 29 32  1  0  0  0  0
 29 34  1  0  0  0  0
 30 31  2  0  0  0  0
 30 38  1  0  0  0  0
 32 35  1  0  0  0  0
 32 36  1  0  0  0  0
 32 37  1  0  0  0  0
 38 39  1  0  0  0  0
 38 40  1  0  0  0  0
 39 41  1  0  0  0  0
 39 42  1  0  0  0  0
 39 43  1  0  0  0  0
M  END
$$$$

  -OEChem-05262216003D

 43 42  0     1  0  0  0  0  0999 V2000
   -3.4921   -4.7918    0.3235 C   0  0  0  0  0  0  0  0  0  0  0  0
   -2.8971   -5.6479    0.9609 O   0  0  0  0  0  0  0  0  0  0  0  0
   -4.9233   -5.0252   -0.1214 C   0  0  0  0  0  0  0  0  0  0  0  0
   -4.9940   -4.9348   -1.2081 H   0  0  0  0  0  0  0  0  0  0  0  0
   -5.2542   -6.0243    0.1750 H   0  0  0  0  0  0  0  0  0  0  0  0
   -5.5804   -4.2832    0.3386 H   0  0  0  0  0  0  0  0  0  0  0  0
   -2.8633   -3.6109   -0.0019 N   0  0  0  0  0  0  0  0  0  0  0  0
   -1.5422   -3.2056    0.5032 C   0  0  2  0  0  0  0  0  0  0  0  0
   -1.4455   -1.6688    0.6338 C   0  0  0  0  0  0  0  0  0  0  0  0
   -2.4444   -1.0139    0.9034 O   0  0  0  0  0  0  0  0  0  0  0  0
   -0.4821   -3.7815   -0.4463 C   0  0  0  0  0  0  0  0  0  0  0  0
   -3.4479   -2.9009   -0.4575 H   0  0  0  0  0  0  0  0  0  0  0  0
   -1.3846   -3.6197    1.5053 H   0  0  0  0  0  0  0  0  0  0  0  0
   -0.5890   -3.3500   -1.4469 H   0  0  0  0  0  0  0  0  0  0  0  0
    0.5260   -3.5747   -0.0755 H   0  0  0  0  0  0  0  0  0  0  0  0
   -0.5958   -4.8677   -0.5239 H   0  0  0  0  0  0  0  0  0  0  0  0
   -0.2872   -0.9711    0.3388 N   0  0  0  0  0  0  0  0  0  0  0  0
   -0.2266    0.3809   -0.2696 C   0  0  2  0  0  0  0  0  0  0  0  0
   -1.1637    0.6419   -1.4939 C   0  0  0  0  0  0  0  0  0  0  0  0
   -0.7980    1.3647   -2.4129 O   0  0  0  0  0  0  0  0  0  0  0  0
    1.2454    0.6102   -0.6597 C   0  0  0  0  0  0  0  0  0  0  0  0
    2.3115    0.6624    0.8392 S   0  0  0  0  0  0  0  0  0  0  0  0
    0.5393   -1.5484    0.2151 H   0  0  0  0  0  0  0  0  0  0  0  0
   -0.5071    1.1152    0.4928 H   0  0  0  0  0  0  0  0  0  0  0  0
    1.5830   -0.1751   -1.3435 H   0  0  0  0  0  0  0  0  0  0  0  0
    1.3492    1.5691   -1.1789 H   0  0  0  0  0  0  0  0  0  0  0  0
    3.5043    0.9916    0.2954 H   0  0  0  0  0  0  0  0  0  0  0  0
   -2.3769   -0.0007   -1.6438 N   0  0  0  0  0  0  0  0  0  0  0  0
   -3.2105   -0.0903   -2.8479 C   0  0  2  0  0  0  0  0  0  0  0  0
   -4.4868   -0.9076   -2.5483 C   0  0  0  0  0  0  0  0  0  0  0  0
   -4.4542   -1.8319   -1.7382 O   0  0  0  0  0  0  0  0  0  0  0  0
   -2.4461   -0.7899   -3.9819 C   0  0  0  0  0  0  0  0  0  0  0  0
   -2.7181   -0.4929   -0.8123 H   0  0  0  0  0  0  0  0  0  0  0  0
   -3.5000    0.9171   -3.1631 H   0  0  0  0  0  0  0  0  0  0  0  0
   -2.0885   -1.7704   -3.6510 H   0  0  0  0  0  0  0  0  0  0  0  0
   -3.0969   -0.9316   -4.8501 H   0  0  0  0  0  0  0  0  0  0  0  0
   -1.5858   -0.1945   -4.3003 H   0  0  0  0  0  0  0  0  0  0  0  0
   -5.6646   -0.6427   -3.2217 N   0  0  0  0  0  0  0  0  0  0  0  0
   -6.9022   -1.3784   -2.9913 C   0  0  0  0  0  0  0  0  0  0  0  0
   -5.6696    0.1361   -3.8744 H   0  0  0  0  0  0  0  0  0  0  0  0
   -6.7591   -2.4441   -3.1988 H   0  0  0  0  0  0  0  0  0  0  0  0
   -7.2303   -1.2620   -1.9529 H   0  0  0  0  0  0  0  0  0  0  0  0
   -7.6929   -1.0030   -3.6481 H   0  0  0  0  0  0  0  0  0  0  0  0
  1  2  2  0  0  0  0
  1  3  1  0  0  0  0
  1  7  1  0  0  0  0
  3  4  1  0  0  0  0
  3  5  1  0  0  0  0
  3  6  1  0  0  0  0
  7  8  1  0  0  0  0
  7 12  1  0  0  0  0
  8  9  1  0  0  0  0
  8 11  1  0  0  0  0
  8 13  1  0  0  0  0
  9 10  2  0  0  0  0
  9 17  1  0  0  0  0
 11 14  1  0  0  0  0
 11 15  1  0  0  0  0
 11 16  1  0  0  0  0
 17 18  1  0  0  0  0
 17 23  1  0  0  0  0
 18 19  1  0  0  0  0
 18 21  1  0  0  0  0
 18 24  1  0  0  0  0
 19 20  2  0  0  0  0
 19 28  1  0  0  0  0
 21 22  1  0  0  0  0
 21 25  1  0  0  0  0
 21 26  1  0  0  0  0
 22 27  1  0  0  0  0
 28 29  1  0  0  0  0
 28 33  1  0  0  0  0
 29 30  1  0  0  0  0
 29 32  1  0  0  0  0
 29 34  1  0  0  0  0
 30 31  2  0  0  0  0
 30 38  1  0  0  0  0
 32 35  1  0  0  0  0
 32 36  1  0  0  0  0
 32 37  1  0  0  0  0
 38 39  1  0  0  0  0
 38 40  1  0  0  0  0
 39 41  1  0  0  0  0
 39 42  1  0  0  0  0
 39 43  1  0  0  0  0
M  END
$$$$

  -OEChem-05262216003D

 43 42  0     1  0  0  0  0  0999 V2000
   -3.1981   -5.1398    0.9795 C   0  0  0  0  0  0  0  0  0  0  0  0
   -2.3076   -5.9246    1.2671 O   0  0  0  0  0  0  0  0  0  0  0  0
   -4.6509   -5.5145    1.2059 C   0  0  0  0  0  0  0  0  0  0  0  0
   -5.1958   -5.4833    0.2591 H   0  0  0  0  0  0  0  0  0  0  0  0
   -4.7204   -6.5241    1.6202 H   0  0  0  0  0  0  0  0  0  0  0  0
   -5.1122   -4.8133    1.9058 H   0  0  0  0  0  0  0  0  0  0  0  0
   -2.8841   -3.9064    0.4518 N   0  0  0  0  0  0  0  0  0  0  0  0
   -1.5200   -3.3705    0.3469 C   0  0  2  0  0  0  0  0  0  0  0  0
   -1.5222   -1.8295    0.4352 C   0  0  0  0  0  0  0  0  0  0  0  0
   -2.5622   -1.2315    0.6827 O   0  0  0  0  0  0  0  0  0  0  0  0
   -0.9245   -3.8404   -0.9860 C   0  0  0  0  0  0  0  0  0  0  0  0
   -3.6495   -3.2374    0.3512 H   0  0  0  0  0  0  0  0  0  0  0  0
   -0.9070   -3.7472    1.1731 H   0  0  0  0  0  0  0  0  0  0  0  0
   -1.5102   -3.4503   -1.8247 H   0  0  0  0  0  0  0  0  0  0  0  0
    0.1093   -3.4993   -1.0925 H   0  0  0  0  0  0  0  0  0  0  0  0
   -0.9292   -4.9339   -1.0383 H   0  0  0  0  0  0  0  0  0  0  0  0
   -0.3709   -1.0844    0.2592 N   0  0  0  0  0  0  0  0  0  0  0  0
   -0.3126    0.3084   -0.2430 C   0  0  2  0  0  0  0  0  0  0  0  0
   -1.1859    0.6371   -1.4969 C   0  0  0  0  0  0  0  0  0  0  0  0
   -0.7045    1.2632   -2.4345 O   0  0  0  0  0  0  0  0  0  0  0  0
    1.1736    0.6133   -0.5097 C   0  0  0  0  0  0  0  0  0  0  0  0
    2.1298    0.5863    1.0624 S   0  0  0  0  0  0  0  0  0  0  0  0
    0.4882   -1.6220    0.1845 H   0  0  0  0  0  0  0  0  0  0  0  0
   -0.6638    0.9744    0.5518 H   0  0  0  0  0  0  0  0  0  0  0  0
    1.5869   -0.1059   -1.2241 H   0  0  0  0  0  0  0  0  0  0  0  0
    1.2747    1.6122   -0.9482 H   0  0  0  0  0  0  0  0  0  0  0  0
    3.3490    0.9792    0.6313 H   0  0  0  0  0  0  0  0  0  0  0  0
   -2.4975    0.2234   -1.6339 N   0  0  0  0  0  0  0  0  0  0  0  0
   -3.3224    0.3237   -2.8457 C   0  0  2  0  0  0  0  0  0  0  0  0
   -4.7928   -0.0451   -2.5558 C   0  0  0  0  0  0  0  0  0  0  0  0
   -5.0651   -0.8957   -1.7157 O   0  0  0  0  0  0  0  0  0  0  0  0
   -2.7813   -0.6257   -3.9247 C   0  0  0  0  0  0  0  0  0  0  0  0
   -2.8999   -0.2828   -0.8363 H   0  0  0  0  0  0  0  0  0  0  0  0
   -3.2928    1.3538   -3.2154 H   0  0  0  0  0  0  0  0  0  0  0  0
   -2.7733   -1.6565   -3.5563 H   0  0  0  0  0  0  0  0  0  0  0  0
   -3.4084   -0.5817   -4.8203 H   0  0  0  0  0  0  0  0  0  0  0  0
   -1.7622   -0.3509   -4.2109 H   0  0  0  0  0  0  0  0  0  0  0  0
   -5.8165    0.5370   -3.2810 N   0  0  0  0  0  0  0  0  0  0  0  0
   -7.2245    0.2206   -3.0722 C   0  0  0  0  0  0  0  0  0  0  0  0
   -5.5665    1.2455   -3.9645 H   0  0  0  0  0  0  0  0  0  0  0  0
   -7.4046   -0.8482   -3.2288 H   0  0  0  0  0  0  0  0  0  0  0  0
   -7.5289    0.4835   -2.0537 H   0  0  0  0  0  0  0  0  0  0  0  0
   -7.8473    0.7818   -3.7754 H   0  0  0  0  0  0  0  0  0  0  0  0
  1  2  2  0  0  0  0
  1  3  1  0  0  0  0
  1  7  1  0  0  0  0
  3  4  1  0  0  0  0
  3  5  1  0  0  0  0
  3  6  1  0  0  0  0
  7  8  1  0  0  0  0
  7 12  1  0  0  0  0
  8  9  1  0  0  0  0
  8 11  1  0  0  0  0
  8 13  1  0  0  0  0
  9 10  2  0  0  0  0
  9 17  1  0  0  0  0
 11 14  1  0  0  0  0
 11 15  1  0  0  0  0
 11 16  1  0  0  0  0
 17 18  1  0  0  0  0
 17 23  1  0  0  0  0
 18 19  1  0  0  0  0
 18 21  1  0  0  0  0
 18 24  1  0  0  0  0
 19 20  2  0  0  0  0
 19 28  1  0  0  0  0
 21 22  1  0  0  0  0
 21 25  1  0  0  0  0
 21 26  1  0  0  0  0
 22 27  1  0  0  0  0
 28 29  1  0  0  0  0
 28 33  1  0  0  0  0
 29 30  1  0  0  0  0
 29 32  1  0  0  0  0
 29 34  1  0  0  0  0
 30 31  2  0  0  0  0
 30 38  1  0  0  0  0
 32 35  1  0  0  0  0
 32 36  1  0  0  0  0
 32 37  1  0  0  0  0
 38 39  1  0  0  0  0
 38 40  1  0  0  0  0
 39 41  1  0  0  0  0
 39 42  1  0  0  0  0
 39 43  1  0  0  0  0
M  END
$$$$

  -OEChem-05262216003D

 43 42  0     1  0  0  0  0  0999 V2000
   -2.7339   -5.4765    1.3137 C   0  0  0  0  0  0  0  0  0  0  0  0
   -1.7054   -6.0607    1.6165 O   0  0  0  0  0  0  0  0  0  0  0  0
   -4.0799   -6.0267    1.7459 C   0  0  0  0  0  0  0  0  0  0  0  0
   -4.6817   -6.2714    0.8675 H   0  0  0  0  0  0  0  0  0  0  0  0
   -3.9434   -6.9323    2.3432 H   0  0  0  0  0  0  0  0  0  0  0  0
   -4.6111   -5.2852    2.3474 H   0  0  0  0  0  0  0  0  0  0  0  0
   -2.6730   -4.3100    0.5817 N   0  0  0  0  0  0  0  0  0  0  0  0
   -1.4275   -3.6061    0.2481 C   0  0  2  0  0  0  0  0  0  0  0  0
   -1.6477   -2.0836    0.1261 C   0  0  0  0  0  0  0  0  0  0  0  0
   -2.7852   -1.6314    0.1288 O   0  0  0  0  0  0  0  0  0  0  0  0
   -0.8867   -4.1729   -1.0687 C   0  0  0  0  0  0  0  0  0  0  0  0
   -3.5409   -3.7873    0.4630 H   0  0  0  0  0  0  0  0  0  0  0  0
   -0.6902   -3.7675    1.0423 H   0  0  0  0  0  0  0  0  0  0  0  0
   -1.6088   -4.0182   -1.8769 H   0  0  0  0  0  0  0  0  0  0  0  0
    0.0529   -3.6837   -1.3425 H   0  0  0  0  0  0  0  0  0  0  0  0
   -0.6984   -5.2469   -0.9705 H   0  0  0  0  0  0  0  0  0  0  0  0
   -0.5639   -1.2256    0.0942 N   0  0  0  0  0  0  0  0  0  0  0  0
   -0.5475    0.2188   -0.2235 C   0  0  2  0  0  0  0  0  0  0  0  0
   -1.3659    0.6882   -1.4647 C   0  0  0  0  0  0  0  0  0  0  0  0
   -0.7981    1.2246   -2.4109 O   0  0  0  0  0  0  0  0  0  0  0  0
    0.9366    0.6026   -0.3661 C   0  0  0  0  0  0  0  0  0  0  0  0
    1.8059    0.4036    1.2444 S   0  0  0  0  0  0  0  0  0  0  0  0
    0.3439   -1.6598    0.2416 H   0  0  0  0  0  0  0  0  0  0  0  0
   -0.9634    0.7626    0.6309 H   0  0  0  0  0  0  0  0  0  0  0  0
    1.4143   -0.0081   -1.1398 H   0  0  0  0  0  0  0  0  0  0  0  0
    1.0188    1.6510   -0.6730 H   0  0  0  0  0  0  0  0  0  0  0  0
    3.0271    0.8988    0.9427 H   0  0  0  0  0  0  0  0  0  0  0  0
   -2.7300    0.5034   -1.5707 N   0  0  0  0  0  0  0  0  0  0  0  0
   -3.5465    0.8293   -2.7480 C   0  0  2  0  0  0  0  0  0  0  0  0
   -5.0053    1.1873   -2.3904 C   0  0  0  0  0  0  0  0  0  0  0  0
   -5.4924    0.8567   -1.3164 O   0  0  0  0  0  0  0  0  0  0  0  0
   -3.5164   -0.3796   -3.6881 C   0  0  0  0  0  0  0  0  0  0  0  0
   -3.1742   -0.0420   -0.8231 H   0  0  0  0  0  0  0  0  0  0  0  0
   -3.1201    1.6979   -3.2602 H   0  0  0  0  0  0  0  0  0  0  0  0
   -3.9461   -1.2568   -3.1930 H   0  0  0  0  0  0  0  0  0  0  0  0
   -4.0906   -0.1750   -4.5966 H   0  0  0  0  0  0  0  0  0  0  0  0
   -2.4864   -0.6117   -3.9761 H   0  0  0  0  0  0  0  0  0  0  0  0
   -5.7926    1.8702   -3.3006 N   0  0  0  0  0  0  0  0  0  0  0  0
   -7.1814    2.2322   -3.0445 C   0  0  0  0  0  0  0  0  0  0  0  0
   -5.3655    2.1441   -4.1803 H   0  0  0  0  0  0  0  0  0  0  0  0
   -7.7812    1.3370   -2.8489 H   0  0  0  0  0  0  0  0  0  0  0  0
   -7.2493    2.8981   -2.1778 H   0  0  0  0  0  0  0  0  0  0  0  0
   -7.6049    2.7479   -3.9117 H   0  0  0  0  0  0  0  0  0  0  0  0
  1  2  2  0  0  0  0
  1  3  1  0  0  0  0
  1  7  1  0  0  0  0
  3  4  1  0  0  0  0
  3  5  1  0  0  0  0
  3  6  1  0  0  0  0
  7  8  1  0  0  0  0
  7 12  1  0  0  0  0
  8  9  1  0  0  0  0
  8 11  1  0  0  0  0
  8 13  1  0  0  0  0
  9 10  2  0  0  0  0
  9 17  1  0  0  0  0
 11 14  1  0  0  0  0
 11 15  1  0  0  0  0
 11 16  1  0  0  0  0
 17 18  1  0  0  0  0
 17 23  1  0  0  0  0
 18 19  1  0  0  0  0
 18 21  1  0  0  0  0
 18 24  1  0  0  0  0
 19 20  2  0  0  0  0
 19 28  1  0  0  0  0
 21 22  1  0  0  0  0
 21 25  1  0  0  0  0
 21 26  1  0  0  0  0
 22 27  1  0  0  0  0
 28 29  1  0  0  0  0
 28 33  1  0  0  0  0
 29 30  1  0  0  0  0
 29 32  1  0  0  0  0
 29 34  1  0  0  0  0
 30 31  2  0  0  0  0
 30 38  1  0  0  0  0
 32 35  1  0  0  0  0
 32 36  1  0  0  0  0
 32 37  1  0  0  0  0
 38 39  1  0  0  0  0
 38 40  1  0  0  0  0
 39 41  1  0  0  0  0
 39 42  1  0  0  0  0
 39 43  1  0  0  0  0
M  END
$$$$

  -OEChem-05262216003D

 43 42  0     1  0  0  0  0  0999 V2000
   -2.9129   -5.3659    1.2185 C   0  0  0  0  0  0  0  0  0  0  0  0
   -1.9212   -6.0003    1.5417 O   0  0  0  0  0  0  0  0  0  0  0  0
   -4.2952   -5.8580    1.6042 C   0  0  0  0  0  0  0  0  0  0  0  0
   -4.8914   -6.0375    0.7063 H   0  0  0  0  0  0  0  0  0  0  0  0
   -4.2200   -6.7909    2.1697 H   0  0  0  0  0  0  0  0  0  0  0  0
   -4.7982   -5.1109    2.2230 H   0  0  0  0  0  0  0  0  0  0  0  0
   -2.7776   -4.1949    0.5045 N   0  0  0  0  0  0  0  0  0  0  0  0
   -1.4932   -3.5508    0.2010 C   0  0  2  0  0  0  0  0  0  0  0  0
   -1.6454   -2.0216    0.0622 C   0  0  0  0  0  0  0  0  0  0  0  0
   -2.7630   -1.5218    0.0224 O   0  0  0  0  0  0  0  0  0  0  0  0
   -0.9416   -4.1522   -1.0957 C   0  0  0  0  0  0  0  0  0  0  0  0
   -3.6171   -3.6335    0.3626 H   0  0  0  0  0  0  0  0  0  0  0  0
   -0.7864   -3.7377    1.0169 H   0  0  0  0  0  0  0  0  0  0  0  0
   -1.6328   -3.9718   -1.9253 H   0  0  0  0  0  0  0  0  0  0  0  0
    0.0269   -3.7088   -1.3457 H   0  0  0  0  0  0  0  0  0  0  0  0
   -0.8056   -5.2327   -0.9844 H   0  0  0  0  0  0  0  0  0  0  0  0
   -0.5289   -1.2058    0.0602 N   0  0  0  0  0  0  0  0  0  0  0  0
   -0.4818    0.2440   -0.2195 C   0  0  2  0  0  0  0  0  0  0  0  0
   -1.2945    0.7357   -1.4509 C   0  0  0  0  0  0  0  0  0  0  0  0
   -0.7202    1.0976   -2.4731 O   0  0  0  0  0  0  0  0  0  0  0  0
    1.0035    0.6127   -0.3695 C   0  0  0  0  0  0  0  0  0  0  0  0
    1.8875    0.3604    1.2250 S   0  0  0  0  0  0  0  0  0  0  0  0
    0.3635   -1.6674    0.2177 H   0  0  0  0  0  0  0  0  0  0  0  0
   -0.8837    0.7783    0.6472 H   0  0  0  0  0  0  0  0  0  0  0  0
    1.4647    0.0118   -1.1603 H   0  0  0  0  0  0  0  0  0  0  0  0
    1.0928    1.6659   -0.6585 H   0  0  0  0  0  0  0  0  0  0  0  0
    3.1196    0.8208    0.9132 H   0  0  0  0  0  0  0  0  0  0  0  0
   -2.6707    0.8349   -1.4106 N   0  0  0  0  0  0  0  0  0  0  0  0
   -3.5213    1.2161   -2.5452 C   0  0  2  0  0  0  0  0  0  0  0  0
   -4.8943    1.7631   -2.0988 C   0  0  0  0  0  0  0  0  0  0  0  0
   -5.3383    1.5196   -0.9831 O   0  0  0  0  0  0  0  0  0  0  0  0
   -3.7119   -0.0151   -3.4382 C   0  0  0  0  0  0  0  0  0  0  0  0
   -3.1260    0.3447   -0.6336 H   0  0  0  0  0  0  0  0  0  0  0  0
   -3.0280    2.0072   -3.1189 H   0  0  0  0  0  0  0  0  0  0  0  0
   -4.1871   -0.8242   -2.8738 H   0  0  0  0  0  0  0  0  0  0  0  0
   -4.3425    0.2271   -4.2989 H   0  0  0  0  0  0  0  0  0  0  0  0
   -2.7459   -0.3709   -3.8096 H   0  0  0  0  0  0  0  0  0  0  0  0
   -5.6505    2.5297   -2.9672 N   0  0  0  0  0  0  0  0  0  0  0  0
   -6.9511    3.0878   -2.6161 C   0  0  0  0  0  0  0  0  0  0  0  0
   -5.2558    2.7335   -3.8804 H   0  0  0  0  0  0  0  0  0  0  0  0
   -7.6507    2.2894   -2.3463 H   0  0  0  0  0  0  0  0  0  0  0  0
   -6.8570    3.7747   -1.7683 H   0  0  0  0  0  0  0  0  0  0  0  0
   -7.3677    3.6395   -3.4642 H   0  0  0  0  0  0  0  0  0  0  0  0
  1  2  2  0  0  0  0
  1  3  1  0  0  0  0
  1  7  1  0  0  0  0
  3  4  1  0  0  0  0
  3  5  1  0  0  0  0
  3  6  1  0  0  0  0
  7  8  1  0  0  0  0
  7 12  1  0  0  0  0
  8  9  1  0  0  0  0
  8 11  1  0  0  0  0
  8 13  1  0  0  0  0
  9 10  2  0  0  0  0
  9 17  1  0  0  0  0
 11 14  1  0  0  0  0
 11 15  1  0  0  0  0
 11 16  1  0  0  0  0
 17 18  1  0  0  0  0
 17 23  1  0  0  0  0
 18 19  1  0  0  0  0
 18 21  1  0  0  0  0
 18 24  1  0  0  0  0
 19 20  2  0  0  0  0
 19 28  1  0  0  0  0
 21 22  1  0  0  0  0
 21 25  1  0  0  0  0
 21 26  1  0  0  0  0
 22 27  1  0  0  0  0
 28 29  1  0  0  0  0
 28 33  1  0  0  0  0
 29 30  1  0  0  0  0
 29 32  1  0  0  0  0
 29 34  1  0  0  0  0
 30 31  2  0  0  0  0
 30 38  1  0  0  0  0
 32 35  1  0  0  0  0
 32 36  1  0  0  0  0
 32 37  1  0  0  0  0
 38 39  1  0  0  0  0
 38 40  1  0  0  0  0
 39 41  1  0  0  0  0
 39 42  1  0  0  0  0
 39 43  1  0  0  0  0
M  END
$$$$

  -OEChem-05262216003D

 43 42  0     1  0  0  0  0  0999 V2000
   -3.0826   -5.2289    1.1388 C   0  0  0  0  0  0  0  0  0  0  0  0
   -2.1312   -5.8918    1.5208 O   0  0  0  0  0  0  0  0  0  0  0  0
   -4.4968   -5.6464    1.4964 C   0  0  0  0  0  0  0  0  0  0  0  0
   -5.0705   -5.8391    0.5867 H   0  0  0  0  0  0  0  0  0  0  0  0
   -4.4801   -6.5567    2.1022 H   0  0  0  0  0  0  0  0  0  0  0  0
   -4.9871   -4.8539    2.0667 H   0  0  0  0  0  0  0  0  0  0  0  0
   -2.8723   -4.0906    0.3903 N   0  0  0  0  0  0  0  0  0  0  0  0
   -1.5518   -3.4977    0.1403 C   0  0  2  0  0  0  0  0  0  0  0  0
   -1.6359   -1.9626    0.0064 C   0  0  0  0  0  0  0  0  0  0  0  0
   -2.7296   -1.4134   -0.0676 O   0  0  0  0  0  0  0  0  0  0  0  0
   -0.9740   -4.1167   -1.1361 C   0  0  0  0  0  0  0  0  0  0  0  0
   -3.6807   -3.4953    0.2118 H   0  0  0  0  0  0  0  0  0  0  0  0
   -0.8848   -3.7158    0.9815 H   0  0  0  0  0  0  0  0  0  0  0  0
   -1.6221   -3.9034   -1.9923 H   0  0  0  0  0  0  0  0  0  0  0  0
    0.0221   -3.7143   -1.3439 H   0  0  0  0  0  0  0  0  0  0  0  0
   -0.8893   -5.2024   -1.0247 H   0  0  0  0  0  0  0  0  0  0  0  0
   -0.4874   -1.1928    0.0427 N   0  0  0  0  0  0  0  0  0  0  0  0
   -0.4069    0.2590   -0.2036 C   0  0  2  0  0  0  0  0  0  0  0  0
   -1.2029    0.7606   -1.4370 C   0  0  0  0  0  0  0  0  0  0  0  0
   -0.6493    0.9074   -2.5221 O   0  0  0  0  0  0  0  0  0  0  0  0
    1.0822    0.6066   -0.3575 C   0  0  0  0  0  0  0  0  0  0  0  0
    1.9764    0.3038    1.2222 S   0  0  0  0  0  0  0  0  0  0  0  0
    0.3880   -1.6839    0.2054 H   0  0  0  0  0  0  0  0  0  0  0  0
   -0.7994    0.7898    0.6698 H   0  0  0  0  0  0  0  0  0  0  0  0
    1.5277    0.0134   -1.1638 H   0  0  0  0  0  0  0  0  0  0  0  0
    1.1857    1.6633   -0.6277 H   0  0  0  0  0  0  0  0  0  0  0  0
    3.2084    0.7638    0.9100 H   0  0  0  0  0  0  0  0  0  0  0  0
   -2.5191    1.1553   -1.3054 N   0  0  0  0  0  0  0  0  0  0  0  0
   -3.3760    1.6033   -2.4099 C   0  0  2  0  0  0  0  0  0  0  0  0
   -4.6078    2.3888   -1.9087 C   0  0  0  0  0  0  0  0  0  0  0  0
   -4.9403    2.3521   -0.7294 O   0  0  0  0  0  0  0  0  0  0  0  0
   -3.8278    0.3739   -3.2079 C   0  0  0  0  0  0  0  0  0  0  0  0
   -2.9947    0.8338   -0.4593 H   0  0  0  0  0  0  0  0  0  0  0  0
   -2.8036    2.2703   -3.0629 H   0  0  0  0  0  0  0  0  0  0  0  0
   -4.4057   -0.3025   -2.5695 H   0  0  0  0  0  0  0  0  0  0  0  0
   -4.4514    0.6728   -4.0556 H   0  0  0  0  0  0  0  0  0  0  0  0
   -2.9617   -0.1708   -3.5959 H   0  0  0  0  0  0  0  0  0  0  0  0
   -5.3594    3.1420   -2.7927 N   0  0  0  0  0  0  0  0  0  0  0  0
   -6.5375    3.9026   -2.3941 C   0  0  0  0  0  0  0  0  0  0  0  0
   -5.0602    3.1671   -3.7629 H   0  0  0  0  0  0  0  0  0  0  0  0
   -7.2780    3.2448   -1.9266 H   0  0  0  0  0  0  0  0  0  0  0  0
   -6.2631    4.6871   -1.6810 H   0  0  0  0  0  0  0  0  0  0  0  0
   -6.9982    4.3737   -3.2677 H   0  0  0  0  0  0  0  0  0  0  0  0
  1  2  2  0  0  0  0
  1  3  1  0  0  0  0
  1  7  1  0  0  0  0
  3  4  1  0  0  0  0
  3  5  1  0  0  0  0
  3  6  1  0  0  0  0
  7  8  1  0  0  0  0
  7 12  1  0  0  0  0
  8  9  1  0  0  0  0
  8 11  1  0  0  0  0
  8 13  1  0  0  0  0
  9 10  2  0  0  0  0
  9 17  1  0  0  0  0
 11 14  1  0  0  0  0
 11 15  1  0  0  0  0
 11 16  1  0  0  0  0
 17 18  1  0  0  0  0
 17 23  1  0  0  0  0
 18 19  1  0  0  0  0
 18 21  1  0  0  0  0
 18 24  1  0  0  0  0
 19 20  2  0  0  0  0
 19 28  1  0  0  0  0
 21 22  1  0  0  0  0
 21 25  1  0  0  0  0
 21 26  1  0  0  0  0
 22 27  1  0  0  0  0
 28 29  1  0  0  0  0
 28 33  1  0  0  0  0
 29 30  1  0  0  0  0
 29 32  1  0  0  0  0
 29 34  1  0  0  0  0
 30 31  2  0  0  0  0
 30 38  1  0  0  0  0
 32 35  1  0  0  0  0
 32 36  1  0  0  0  0
 32 37  1  0  0  0  0
 38 39  1  0  0  0  0
 38 40  1  0  0  0  0
 39 41  1  0  0  0  0
 39 42  1  0  0  0  0
 39 43  1  0  0  0  0
M  END
$$$$

  -OEChem-05262216003D

 43 42  0     1  0  0  0  0  0999 V2000
   -3.1409   -5.1913    1.0600 C   0  0  0  0  0  0  0  0  0  0  0  0
   -2.1994   -5.8873    1.4058 O   0  0  0  0  0  0  0  0  0  0  0  0
   -4.5606   -5.6086    1.3962 C   0  0  0  0  0  0  0  0  0  0  0  0
   -5.1295   -5.7703    0.4773 H   0  0  0  0  0  0  0  0  0  0  0  0
   -4.5543   -6.5371    1.9744 H   0  0  0  0  0  0  0  0  0  0  0  0
   -5.0491   -4.8300    1.9874 H   0  0  0  0  0  0  0  0  0  0  0  0
   -2.9149   -4.0199    0.3690 N   0  0  0  0  0  0  0  0  0  0  0  0
   -1.5854   -3.4466    0.1212 C   0  0  2  0  0  0  0  0  0  0  0  0
   -1.6355   -1.9065    0.0436 C   0  0  0  0  0  0  0  0  0  0  0  0
   -2.7157   -1.3282   -0.0158 O   0  0  0  0  0  0  0  0  0  0  0  0
   -1.0408   -4.0273   -1.1877 C   0  0  0  0  0  0  0  0  0  0  0  0
   -3.7143   -3.4072    0.2105 H   0  0  0  0  0  0  0  0  0  0  0  0
   -0.9108   -3.7112    0.9428 H   0  0  0  0  0  0  0  0  0  0  0  0
   -1.6960   -3.7640   -2.0245 H   0  0  0  0  0  0  0  0  0  0  0  0
   -0.0390   -3.6389   -1.3948 H   0  0  0  0  0  0  0  0  0  0  0  0
   -0.9794   -5.1184   -1.1225 H   0  0  0  0  0  0  0  0  0  0  0  0
   -0.4693   -1.1646    0.0911 N   0  0  0  0  0  0  0  0  0  0  0  0
   -0.3769    0.2845   -0.1567 C   0  0  2  0  0  0  0  0  0  0  0  0
   -1.1682    0.7665   -1.3972 C   0  0  0  0  0  0  0  0  0  0  0  0
   -0.7000    0.6322   -2.5233 O   0  0  0  0  0  0  0  0  0  0  0  0
    1.1081    0.6317   -0.3318 C   0  0  0  0  0  0  0  0  0  0  0  0
    2.0247    0.3289    1.2346 S   0  0  0  0  0  0  0  0  0  0  0  0
    0.4012   -1.6782    0.2001 H   0  0  0  0  0  0  0  0  0  0  0  0
   -0.7640    0.8223    0.7147 H   0  0  0  0  0  0  0  0  0  0  0  0
    1.5416    0.0355   -1.1422 H   0  0  0  0  0  0  0  0  0  0  0  0
    1.2070    1.6871   -0.6076 H   0  0  0  0  0  0  0  0  0  0  0  0
    3.2672    0.7340    0.8886 H   0  0  0  0  0  0  0  0  0  0  0  0
   -2.3615    1.4443   -1.2449 N   0  0  0  0  0  0  0  0  0  0  0  0
   -3.2143    1.8964   -2.3504 C   0  0  2  0  0  0  0  0  0  0  0  0
   -4.1924    3.0070   -1.9100 C   0  0  0  0  0  0  0  0  0  0  0  0
   -4.4003    3.2220   -0.7210 O   0  0  0  0  0  0  0  0  0  0  0  0
   -3.9920    0.6895   -2.8901 C   0  0  0  0  0  0  0  0  0  0  0  0
   -2.7824    1.4315   -0.3159 H   0  0  0  0  0  0  0  0  0  0  0  0
   -2.5866    2.3095   -3.1466 H   0  0  0  0  0  0  0  0  0  0  0  0
   -4.6148    0.2541   -2.1018 H   0  0  0  0  0  0  0  0  0  0  0  0
   -4.6377    0.9875   -3.7215 H   0  0  0  0  0  0  0  0  0  0  0  0
   -3.3028   -0.0808   -3.2501 H   0  0  0  0  0  0  0  0  0  0  0  0
   -4.8451    3.7758   -2.8567 N   0  0  0  0  0  0  0  0  0  0  0  0
   -5.7765    4.8446   -2.5167 C   0  0  0  0  0  0  0  0  0  0  0  0
   -4.6489    3.5850   -3.8348 H   0  0  0  0  0  0  0  0  0  0  0  0
   -6.6123    4.4528   -1.9274 H   0  0  0  0  0  0  0  0  0  0  0  0
   -5.2709    5.6234   -1.9361 H   0  0  0  0  0  0  0  0  0  0  0  0
   -6.1791    5.2982   -3.4274 H   0  0  0  0  0  0  0  0  0  0  0  0
  1  2  2  0  0  0  0
  1  3  1  0  0  0  0
  1  7  1  0  0  0  0
  3  4  1  0  0  0  0
  3  5  1  0  0  0  0
  3  6  1  0  0  0  0
  7  8  1  0  0  0  0
  7 12  1  0  0  0  0
  8  9  1  0  0  0  0
  8 11  1  0  0  0  0
  8 13  1  0  0  0  0
  9 10  2  0  0  0  0
  9 17  1  0  0  0  0
 11 14  1  0  0  0  0
 11 15  1  0  0  0  0
 11 16  1  0  0  0  0
 17 18  1  0  0  0  0
 17 23  1  0  0  0  0
 18 19  1  0  0  0  0
 18 21  1  0  0  0  0
 18 24  1  0  0  0  0
 19 20  2  0  0  0  0
 19 28  1  0  0  0  0
 21 22  1  0  0  0  0
 21 25  1  0  0  0  0
 21 26  1  0  0  0  0
 22 27  1  0  0  0  0
 28 29  1  0  0  0  0
 28 33  1  0  0  0  0
 29 30  1  0  0  0  0
 29 32  1  0  0  0  0
 29 34  1  0  0  0  0
 30 31  2  0  0  0  0
 30 38  1  0  0  0  0
 32 35  1  0  0  0  0
 32 36  1  0  0  0  0
 32 37  1  0  0  0  0
 38 39  1  0  0  0  0
 38 40  1  0  0  0  0
 39 41  1  0  0  0  0
 39 42  1  0  0  0  0
 39 43  1  0  0  0  0
M  END
$$$$

  -OEChem-05262216003D

 43 42  0     1  0  0  0  0  0999 V2000
   -3.2050   -5.1413    1.0191 C   0  0  0  0  0  0  0  0  0  0  0  0
   -2.2785   -5.8590    1.3613 O   0  0  0  0  0  0  0  0  0  0  0  0
   -4.6330   -5.5278    1.3551 C   0  0  0  0  0  0  0  0  0  0  0  0
   -5.1984   -5.7011    0.4362 H   0  0  0  0  0  0  0  0  0  0  0  0
   -4.6453   -6.4424    1.9548 H   0  0  0  0  0  0  0  0  0  0  0  0
   -5.1124   -4.7276    1.9244 H   0  0  0  0  0  0  0  0  0  0  0  0
   -2.9546   -3.9702    0.3367 N   0  0  0  0  0  0  0  0  0  0  0  0
   -1.6140   -3.4181    0.1038 C   0  0  2  0  0  0  0  0  0  0  0  0
   -1.6355   -1.8760    0.0591 C   0  0  0  0  0  0  0  0  0  0  0  0
   -2.7049   -1.2756    0.0116 O   0  0  0  0  0  0  0  0  0  0  0  0
   -1.0800   -3.9840   -1.2155 C   0  0  0  0  0  0  0  0  0  0  0  0
   -3.7411   -3.3396    0.1838 H   0  0  0  0  0  0  0  0  0  0  0  0
   -0.9460   -3.7122    0.9207 H   0  0  0  0  0  0  0  0  0  0  0  0
   -1.7290   -3.6917   -2.0474 H   0  0  0  0  0  0  0  0  0  0  0  0
   -0.0704   -3.6120   -1.4145 H   0  0  0  0  0  0  0  0  0  0  0  0
   -1.0409   -5.0771   -1.1707 H   0  0  0  0  0  0  0  0  0  0  0  0
   -0.4561   -1.1564    0.1241 N   0  0  0  0  0  0  0  0  0  0  0  0
   -0.3496    0.2906   -0.1272 C   0  0  2  0  0  0  0  0  0  0  0  0
   -1.1222    0.7646   -1.3803 C   0  0  0  0  0  0  0  0  0  0  0  0
   -0.7709    0.3946   -2.4962 O   0  0  0  0  0  0  0  0  0  0  0  0
    1.1351    0.6352   -0.3021 C   0  0  0  0  0  0  0  0  0  0  0  0
    2.0518    0.3353    1.2644 S   0  0  0  0  0  0  0  0  0  0  0  0
    0.4075   -1.6876    0.1938 H   0  0  0  0  0  0  0  0  0  0  0  0
   -0.7418    0.8328    0.7388 H   0  0  0  0  0  0  0  0  0  0  0  0
    1.5679    0.0358   -1.1106 H   0  0  0  0  0  0  0  0  0  0  0  0
    1.2355    1.6897   -0.5805 H   0  0  0  0  0  0  0  0  0  0  0  0
    3.2898    0.7568    0.9236 H   0  0  0  0  0  0  0  0  0  0  0  0
   -2.1327    1.6995   -1.2688 N   0  0  0  0  0  0  0  0  0  0  0  0
   -2.9499    2.1888   -2.3849 C   0  0  2  0  0  0  0  0  0  0  0  0
   -3.6584    3.5140   -2.0314 C   0  0  0  0  0  0  0  0  0  0  0  0
   -3.7087    3.8994   -0.8683 O   0  0  0  0  0  0  0  0  0  0  0  0
   -3.9833    1.1130   -2.7428 C   0  0  0  0  0  0  0  0  0  0  0  0
   -2.4352    1.9584   -0.3302 H   0  0  0  0  0  0  0  0  0  0  0  0
   -2.3062    2.3779   -3.2501 H   0  0  0  0  0  0  0  0  0  0  0  0
   -4.6278    0.9031   -1.8830 H   0  0  0  0  0  0  0  0  0  0  0  0
   -4.6095    1.4413   -3.5774 H   0  0  0  0  0  0  0  0  0  0  0  0
   -3.4841    0.1835   -3.0347 H   0  0  0  0  0  0  0  0  0  0  0  0
   -4.2344    4.2875   -3.0226 N   0  0  0  0  0  0  0  0  0  0  0  0
   -4.9081    5.5532   -2.7581 C   0  0  0  0  0  0  0  0  0  0  0  0
   -4.1665    3.9550   -3.9799 H   0  0  0  0  0  0  0  0  0  0  0  0
   -5.7088    5.4160   -2.0236 H   0  0  0  0  0  0  0  0  0  0  0  0
   -4.1975    6.2909   -2.3707 H   0  0  0  0  0  0  0  0  0  0  0  0
   -5.3502    5.9468   -3.6784 H   0  0  0  0  0  0  0  0  0  0  0  0
  1  2  2  0  0  0  0
  1  3  1  0  0  0  0
  1  7  1  0  0  0  0
  3  4  1  0  0  0  0
  3  5  1  0  0  0  0
  3  6  1  0  0  0  0
  7  8  1  0  0  0  0
  7 12  1  0  0  0  0
  8  9  1  0  0  0  0
  8 11  1  0  0  0  0
  8 13  1  0  0  0  0
  9 10  2  0  0  0  0
  9 17  1  0  0  0  0
 11 14  1  0  0  0  0
 11 15  1  0  0  0  0
 11 16  1  0  0  0  0
 17 18  1  0  0  0  0
 17 23  1  0  0  0  0
 18 19  1  0  0  0  0
 18 21  1  0  0  0  0
 18 24  1  0  0  0  0
 19 20  2  0  0  0  0
 19 28  1  0  0  0  0
 21 22  1  0  0  0  0
 21 25  1  0  0  0  0
 21 26  1  0  0  0  0
 22 27  1  0  0  0  0
 28 29  1  0  0  0  0
 28 33  1  0  0  0  0
 29 30  1  0  0  0  0
 29 32  1  0  0  0  0
 29 34  1  0  0  0  0
 30 31  2  0  0  0  0
 30 38  1  0  0  0  0
 32 35  1  0  0  0  0
 32 36  1  0  0  0  0
 32 37  1  0  0  0  0
 38 39  1  0  0  0  0
 38 40  1  0  0  0  0
 39 41  1  0  0  0  0
 39 42  1  0  0  0  0
 39 43  1  0  0  0  0
M  END
$$$$

  -OEChem-05262216003D

 43 42  0     1  0  0  0  0  0999 V2000
   -3.2099   -5.1423    1.0025 C   0  0  0  0  0  0  0  0  0  0  0  0
   -2.2803   -5.8648    1.3264 O   0  0  0  0  0  0  0  0  0  0  0  0
   -4.6353   -5.5382    1.3382 C   0  0  0  0  0  0  0  0  0  0  0  0
   -5.2194   -5.6412    0.4205 H   0  0  0  0  0  0  0  0  0  0  0  0
   -4.6454   -6.4929    1.8714 H   0  0  0  0  0  0  0  0  0  0  0  0
   -5.0957   -4.7759    1.9716 H   0  0  0  0  0  0  0  0  0  0  0  0
   -2.9664   -3.9599    0.3374 N   0  0  0  0  0  0  0  0  0  0  0  0
   -1.6283   -3.4023    0.1056 C   0  0  2  0  0  0  0  0  0  0  0  0
   -1.6465   -1.8604    0.1228 C   0  0  0  0  0  0  0  0  0  0  0  0
   -2.7142   -1.2545    0.1225 O   0  0  0  0  0  0  0  0  0  0  0  0
   -1.1181   -3.9161   -1.2440 C   0  0  0  0  0  0  0  0  0  0  0  0
   -3.7539   -3.3260    0.2040 H   0  0  0  0  0  0  0  0  0  0  0  0
   -0.9476   -3.7294    0.8990 H   0  0  0  0  0  0  0  0  0  0  0  0
   -1.7751   -3.5812   -2.0534 H   0  0  0  0  0  0  0  0  0  0  0  0
   -0.1077   -3.5456   -1.4414 H   0  0  0  0  0  0  0  0  0  0  0  0
   -1.0903   -5.0104   -1.2466 H   0  0  0  0  0  0  0  0  0  0  0  0
   -0.4642   -1.1468    0.1893 N   0  0  0  0  0  0  0  0  0  0  0  0
   -0.3640    0.2965   -0.0827 C   0  0  2  0  0  0  0  0  0  0  0  0
   -1.1297    0.7478   -1.3475 C   0  0  0  0  0  0  0  0  0  0  0  0
   -0.9260    0.1867   -2.4198 O   0  0  0  0  0  0  0  0  0  0  0  0
    1.1177    0.6435   -0.2674 C   0  0  0  0  0  0  0  0  0  0  0  0
    2.0398    0.3685    1.3004 S   0  0  0  0  0  0  0  0  0  0  0  0
    0.3971   -1.6853    0.1948 H   0  0  0  0  0  0  0  0  0  0  0  0
   -0.7628    0.8483    0.7740 H   0  0  0  0  0  0  0  0  0  0  0  0
    1.5479    0.0335   -1.0692 H   0  0  0  0  0  0  0  0  0  0  0  0
    1.2150    1.6943   -0.5605 H   0  0  0  0  0  0  0  0  0  0  0  0
    3.2823    0.7646    0.9459 H   0  0  0  0  0  0  0  0  0  0  0  0
   -1.9197    1.8808   -1.3225 N   0  0  0  0  0  0  0  0  0  0  0  0
   -2.6496    2.4225   -2.4748 C   0  0  2  0  0  0  0  0  0  0  0  0
   -2.9979    3.9137   -2.2787 C   0  0  0  0  0  0  0  0  0  0  0  0
   -2.8334    4.4503   -1.1881 O   0  0  0  0  0  0  0  0  0  0  0  0
   -3.9260    1.5970   -2.6747 C   0  0  0  0  0  0  0  0  0  0  0  0
   -2.0507    2.3535   -0.4288 H   0  0  0  0  0  0  0  0  0  0  0  0
   -2.0246    2.3456   -3.3707 H   0  0  0  0  0  0  0  0  0  0  0  0
   -4.5642    1.6592   -1.7875 H   0  0  0  0  0  0  0  0  0  0  0  0
   -4.4903    1.9620   -3.5376 H   0  0  0  0  0  0  0  0  0  0  0  0
   -3.6770    0.5455   -2.8484 H   0  0  0  0  0  0  0  0  0  0  0  0
   -3.4898    4.6626   -3.3323 N   0  0  0  0  0  0  0  0  0  0  0  0
   -3.8545    6.0692   -3.2122 C   0  0  0  0  0  0  0  0  0  0  0  0
   -3.6278    4.1914   -4.2216 H   0  0  0  0  0  0  0  0  0  0  0  0
   -4.6409    6.1975   -2.4608 H   0  0  0  0  0  0  0  0  0  0  0  0
   -2.9856    6.6676   -2.9186 H   0  0  0  0  0  0  0  0  0  0  0  0
   -4.2259    6.4469   -4.1696 H   0  0  0  0  0  0  0  0  0  0  0  0
  1  2  2  0  0  0  0
  1  3  1  0  0  0  0
  1  7  1  0  0  0  0
  3  4  1  0  0  0  0
  3  5  1  0  0  0  0
  3  6  1  0  0  0  0
  7  8  1  0  0  0  0
  7 12  1  0  0  0  0
  8  9  1  0  0  0  0
  8 11  1  0  0  0  0
  8 13  1  0  0  0  0
  9 10  2  0  0  0  0
  9 17  1  0  0  0  0
 11 14  1  0  0  0  0
 11 15  1  0  0  0  0
 11 16  1  0  0  0  0
 17 18  1  0  0  0  0
 17 23  1  0  0  0  0
 18 19  1  0  0  0  0
 18 21  1  0  0  0  0
 18 24  1  0  0  0  0
 19 20  2  0  0  0  0
 19 28  1  0  0  0  0
 21 22  1  0  0  0  0
 21 25  1  0  0  0  0
 21 26  1  0  0  0  0
 22 27  1  0  0  0  0
 28 29  1  0  0  0  0
 28 33  1  0  0  0  0
 29 30  1  0  0  0  0
 29 32  1  0  0  0  0
 29 34  1  0  0  0  0
 30 31  2  0  0  0  0
 30 38  1  0  0  0  0
 32 35  1  0  0  0  0
 32 36  1  0  0  0  0
 32 37  1  0  0  0  0
 38 39  1  0  0  0  0
 38 40  1  0  0  0  0
 39 41  1  0  0  0  0
 39 42  1  0  0  0  0
 39 43  1  0  0  0  0
M  END
$$$$

  -OEChem-05262216003D

 43 42  0     1  0  0  0  0  0999 V2000
   -3.2009   -5.1581    0.9910 C   0  0  0  0  0  0  0  0  0  0  0  0
   -2.2636   -5.8909    1.2655 O   0  0  0  0  0  0  0  0  0  0  0  0
   -4.6187   -5.5730    1.3369 C   0  0  0  0  0  0  0  0  0  0  0  0
   -5.2189   -5.6434    0.4263 H   0  0  0  0  0  0  0  0  0  0  0  0
   -4.6163   -6.5472    1.8339 H   0  0  0  0  0  0  0  0  0  0  0  0
   -5.0700   -4.8370    2.0068 H   0  0  0  0  0  0  0  0  0  0  0  0
   -2.9737   -3.9492    0.3692 N   0  0  0  0  0  0  0  0  0  0  0  0
   -1.6427   -3.3812    0.1198 C   0  0  2  0  0  0  0  0  0  0  0  0
   -1.6603   -1.8402    0.1899 C   0  0  0  0  0  0  0  0  0  0  0  0
   -2.7272   -1.2349    0.2436 O   0  0  0  0  0  0  0  0  0  0  0  0
   -1.1714   -3.8455   -1.2616 C   0  0  0  0  0  0  0  0  0  0  0  0
   -3.7652   -3.3132    0.2767 H   0  0  0  0  0  0  0  0  0  0  0  0
   -0.9396   -3.7351    0.8814 H   0  0  0  0  0  0  0  0  0  0  0  0
   -1.8541   -3.4865   -2.0387 H   0  0  0  0  0  0  0  0  0  0  0  0
   -0.1696   -3.4618   -1.4763 H   0  0  0  0  0  0  0  0  0  0  0  0
   -1.1379   -4.9388   -1.3033 H   0  0  0  0  0  0  0  0  0  0  0  0
   -0.4774   -1.1255    0.2465 N   0  0  0  0  0  0  0  0  0  0  0  0
   -0.3924    0.3136   -0.0573 C   0  0  2  0  0  0  0  0  0  0  0  0
   -1.1578    0.7388   -1.3319 C   0  0  0  0  0  0  0  0  0  0  0  0
   -1.1119    0.0410   -2.3405 O   0  0  0  0  0  0  0  0  0  0  0  0
    1.0858    0.6730   -0.2501 C   0  0  0  0  0  0  0  0  0  0  0  0
    2.0129    0.4433    1.3222 S   0  0  0  0  0  0  0  0  0  0  0  0
    0.3803   -1.6662    0.1902 H   0  0  0  0  0  0  0  0  0  0  0  0
   -0.8000    0.8784    0.7872 H   0  0  0  0  0  0  0  0  0  0  0  0
    1.5219    0.0504   -1.0392 H   0  0  0  0  0  0  0  0  0  0  0  0
    1.1734    1.7184   -0.5654 H   0  0  0  0  0  0  0  0  0  0  0  0
    3.2524    0.8394    0.9569 H   0  0  0  0  0  0  0  0  0  0  0  0
   -1.6972    2.0073   -1.4259 N   0  0  0  0  0  0  0  0  0  0  0  0
   -2.3254    2.5709   -2.6269 C   0  0  2  0  0  0  0  0  0  0  0  0
   -2.3185    4.1145   -2.5980 C   0  0  0  0  0  0  0  0  0  0  0  0
   -1.9793    4.7113   -1.5815 O   0  0  0  0  0  0  0  0  0  0  0  0
   -3.7611    2.0413   -2.7193 C   0  0  0  0  0  0  0  0  0  0  0  0
   -1.6410    2.6139   -0.6083 H   0  0  0  0  0  0  0  0  0  0  0  0
   -1.7659    2.2570   -3.5144 H   0  0  0  0  0  0  0  0  0  0  0  0
   -4.3387    2.3475   -1.8411 H   0  0  0  0  0  0  0  0  0  0  0  0
   -4.2574    2.4256   -3.6152 H   0  0  0  0  0  0  0  0  0  0  0  0
   -3.7609    0.9476   -2.7699 H   0  0  0  0  0  0  0  0  0  0  0  0
   -2.6779    4.8398   -3.7192 N   0  0  0  0  0  0  0  0  0  0  0  0
   -2.7020    6.2972   -3.7550 C   0  0  0  0  0  0  0  0  0  0  0  0
   -2.9673    4.3211   -4.5434 H   0  0  0  0  0  0  0  0  0  0  0  0
   -3.4213    6.6860   -3.0266 H   0  0  0  0  0  0  0  0  0  0  0  0
   -1.7116    6.7032   -3.5232 H   0  0  0  0  0  0  0  0  0  0  0  0
   -2.9935    6.6469   -4.7500 H   0  0  0  0  0  0  0  0  0  0  0  0
  1  2  2  0  0  0  0
  1  3  1  0  0  0  0
  1  7  1  0  0  0  0
  3  4  1  0  0  0  0
  3  5  1  0  0  0  0
  3  6  1  0  0  0  0
  7  8  1  0  0  0  0
  7 12  1  0  0  0  0
  8  9  1  0  0  0  0
  8 11  1  0  0  0  0
  8 13  1  0  0  0  0
  9 10  2  0  0  0  0
  9 17  1  0  0  0  0
 11 14  1  0  0  0  0
 11 15  1  0  0  0  0
 11 16  1  0  0  0  0
 17 18  1  0  0  0  0
 17 23  1  0  0  0  0
 18 19  1  0  0  0  0
 18 21  1  0  0  0  0
 18 24  1  0  0  0  0
 19 20  2  0  0  0  0
 19 28  1  0  0  0  0
 21 22  1  0  0  0  0
 21 25  1  0  0  0  0
 21 26  1  0  0  0  0
 22 27  1  0  0  0  0
 28 29  1  0  0  0  0
 28 33  1  0  0  0  0
 29 30  1  0  0  0  0
 29 32  1  0  0  0  0
 29 34  1  0  0  0  0
 30 31  2  0  0  0  0
 30 38  1  0  0  0  0
 32 35  1  0  0  0  0
 32 36  1  0  0  0  0
 32 37  1  0  0  0  0
 38 39  1  0  0  0  0
 38 40  1  0  0  0  0
 39 41  1  0  0  0  0
 39 42  1  0  0  0  0
 39 43  1  0  0  0  0
M  END
$$$$

  -OEChem-05262216003D

 43 42  0     1  0  0  0  0  0999 V2000
   -3.1832   -5.1686    0.9824 C   0  0  0  0  0  0  0  0  0  0  0  0
   -2.2365   -5.9068    1.2055 O   0  0  0  0  0  0  0  0  0  0  0  0
   -4.5898   -5.6018    1.3500 C   0  0  0  0  0  0  0  0  0  0  0  0
   -5.2145   -5.6357    0.4540 H   0  0  0  0  0  0  0  0  0  0  0  0
   -4.5707   -6.5959    1.8056 H   0  0  0  0  0  0  0  0  0  0  0  0
   -5.0238   -4.8964    2.0628 H   0  0  0  0  0  0  0  0  0  0  0  0
   -2.9759   -3.9372    0.3993 N   0  0  0  0  0  0  0  0  0  0  0  0
   -1.6539   -3.3576    0.1310 C   0  0  2  0  0  0  0  0  0  0  0  0
   -1.6772   -1.8188    0.2352 C   0  0  0  0  0  0  0  0  0  0  0  0
   -2.7439   -1.2196    0.3417 O   0  0  0  0  0  0  0  0  0  0  0  0
   -1.2132   -3.7889   -1.2710 C   0  0  0  0  0  0  0  0  0  0  0  0
   -3.7720   -3.3027    0.3425 H   0  0  0  0  0  0  0  0  0  0  0  0
   -0.9320   -3.7252    0.8683 H   0  0  0  0  0  0  0  0  0  0  0  0
   -1.9104   -3.4075   -2.0242 H   0  0  0  0  0  0  0  0  0  0  0  0
   -0.2145   -3.4040   -1.4970 H   0  0  0  0  0  0  0  0  0  0  0  0
   -1.1856   -4.8809   -1.3410 H   0  0  0  0  0  0  0  0  0  0  0  0
   -0.4964   -1.0993    0.2773 N   0  0  0  0  0  0  0  0  0  0  0  0
   -0.4255    0.3356   -0.0507 C   0  0  2  0  0  0  0  0  0  0  0  0
   -1.1948    0.7498   -1.3291 C   0  0  0  0  0  0  0  0  0  0  0  0
   -1.3254   -0.0372   -2.2619 O   0  0  0  0  0  0  0  0  0  0  0  0
    1.0526    0.6972   -0.2464 C   0  0  0  0  0  0  0  0  0  0  0  0
    1.9786    0.4988    1.3304 S   0  0  0  0  0  0  0  0  0  0  0  0
    0.3581   -1.6394    0.1833 H   0  0  0  0  0  0  0  0  0  0  0  0
   -0.8369    0.9081    0.7869 H   0  0  0  0  0  0  0  0  0  0  0  0
    1.4919    0.0629   -1.0239 H   0  0  0  0  0  0  0  0  0  0  0  0
    1.1397    1.7374   -0.5777 H   0  0  0  0  0  0  0  0  0  0  0  0
    3.2134    0.9094    0.9641 H   0  0  0  0  0  0  0  0  0  0  0  0
   -1.4641    2.0857   -1.5626 N   0  0  0  0  0  0  0  0  0  0  0  0
   -1.9859    2.6369   -2.8194 C   0  0  2  0  0  0  0  0  0  0  0  0
   -1.6294    4.1314   -2.9709 C   0  0  0  0  0  0  0  0  0  0  0  0
   -1.1104    4.7381   -2.0396 O   0  0  0  0  0  0  0  0  0  0  0  0
   -3.5055    2.4366   -2.8423 C   0  0  0  0  0  0  0  0  0  0  0  0
   -1.2170    2.7574   -0.8362 H   0  0  0  0  0  0  0  0  0  0  0  0
   -1.5383    2.1077   -3.6673 H   0  0  0  0  0  0  0  0  0  0  0  0
   -3.9727    2.9581   -2.0008 H   0  0  0  0  0  0  0  0  0  0  0  0
   -3.9322    2.8224   -3.7727 H   0  0  0  0  0  0  0  0  0  0  0  0
   -3.7495    1.3718   -2.7694 H   0  0  0  0  0  0  0  0  0  0  0  0
   -1.8715    4.7952   -4.1596 N   0  0  0  0  0  0  0  0  0  0  0  0
   -1.5717    6.2074   -4.3645 C   0  0  0  0  0  0  0  0  0  0  0  0
   -2.3111    4.2711   -4.9107 H   0  0  0  0  0  0  0  0  0  0  0  0
   -2.1458    6.8256   -3.6662 H   0  0  0  0  0  0  0  0  0  0  0  0
   -0.5046    6.3999   -4.2105 H   0  0  0  0  0  0  0  0  0  0  0  0
   -1.8319    6.5054   -5.3848 H   0  0  0  0  0  0  0  0  0  0  0  0
  1  2  2  0  0  0  0
  1  3  1  0  0  0  0
  1  7  1  0  0  0  0
  3  4  1  0  0  0  0
  3  5  1  0  0  0  0
  3  6  1  0  0  0  0
  7  8  1  0  0  0  0
  7 12  1  0  0  0  0
  8  9  1  0  0  0  0
  8 11  1  0  0  0  0
  8 13  1  0  0  0  0
  9 10  2  0  0  0  0
  9 17  1  0  0  0  0
 11 14  1  0  0  0  0
 11 15  1  0  0  0  0
 11 16  1  0  0  0  0
 17 18  1  0  0  0  0
 17 23  1  0  0  0  0
 18 19  1  0  0  0  0
 18 21  1  0  0  0  0
 18 24  1  0  0  0  0
 19 20  2  0  0  0  0
 19 28  1  0  0  0  0
 21 22  1  0  0  0  0
 21 25  1  0  0  0  0
 21 26  1  0  0  0  0
 22 27  1  0  0  0  0
 28 29  1  0  0  0  0
 28 33  1  0  0  0  0
 29 30  1  0  0  0  0
 29 32  1  0  0  0  0
 29 34  1  0  0  0  0
 30 31  2  0  0  0  0
 30 38  1  0  0  0  0
 32 35  1  0  0  0  0
 32 36  1  0  0  0  0
 32 37  1  0  0  0  0
 38 39  1  0  0  0  0
 38 40  1  0  0  0  0
 39 41  1  0  0  0  0
 39 42  1  0  0  0  0
 39 43  1  0  0  0  0
M  END
$$$$

  -OEChem-05262216003D

 43 42  0     1  0  0  0  0  0999 V2000
   -3.0629   -5.2692    0.9450 C   0  0  0  0  0  0  0  0  0  0  0  0
   -2.0837   -5.9974    0.9926 O   0  0  0  0  0  0  0  0  0  0  0  0
   -4.4169   -5.7819    1.3977 C   0  0  0  0  0  0  0  0  0  0  0  0
   -5.1502   -5.6525    0.5980 H   0  0  0  0  0  0  0  0  0  0  0  0
   -4.3536   -6.8444    1.6489 H   0  0  0  0  0  0  0  0  0  0  0  0
   -4.7488   -5.2294    2.2800 H   0  0  0  0  0  0  0  0  0  0  0  0
   -2.9418   -3.9777    0.4802 N   0  0  0  0  0  0  0  0  0  0  0  0
   -1.6696   -3.3342    0.1314 C   0  0  2  0  0  0  0  0  0  0  0  0
   -1.7200   -1.8105    0.3665 C   0  0  0  0  0  0  0  0  0  0  0  0
   -2.7727   -1.2671    0.6877 O   0  0  0  0  0  0  0  0  0  0  0  0
   -1.3640   -3.6330   -1.3396 C   0  0  0  0  0  0  0  0  0  0  0  0
   -3.7509   -3.3642    0.5759 H   0  0  0  0  0  0  0  0  0  0  0  0
   -0.8678   -3.7368    0.7594 H   0  0  0  0  0  0  0  0  0  0  0  0
   -2.1479   -3.2197   -1.9830 H   0  0  0  0  0  0  0  0  0  0  0  0
   -0.4066   -3.1921   -1.6325 H   0  0  0  0  0  0  0  0  0  0  0  0
   -1.3103   -4.7137   -1.5043 H   0  0  0  0  0  0  0  0  0  0  0  0
   -0.5593   -1.0573    0.3556 N   0  0  0  0  0  0  0  0  0  0  0  0
   -0.5056    0.3741   -0.0066 C   0  0  2  0  0  0  0  0  0  0  0  0
   -1.5482    0.8946   -1.0366 C   0  0  0  0  0  0  0  0  0  0  0  0
   -2.0870    0.1336   -1.8341 O   0  0  0  0  0  0  0  0  0  0  0  0
    0.9001    0.6055   -0.5861 C   0  0  0  0  0  0  0  0  0  0  0  0
    2.1776    0.3371    0.7103 S   0  0  0  0  0  0  0  0  0  0  0  0
    0.2946   -1.5849    0.2009 H   0  0  0  0  0  0  0  0  0  0  0  0
   -0.6326    0.9675    0.9040 H   0  0  0  0  0  0  0  0  0  0  0  0
    1.0710   -0.0683   -1.4327 H   0  0  0  0  0  0  0  0  0  0  0  0
    0.9955    1.6314   -0.9567 H   0  0  0  0  0  0  0  0  0  0  0  0
    3.3068    0.6448    0.0343 H   0  0  0  0  0  0  0  0  0  0  0  0
   -1.5286    2.2325   -1.3907 N   0  0  0  0  0  0  0  0  0  0  0  0
   -2.1993    2.8162   -2.5602 C   0  0  2  0  0  0  0  0  0  0  0  0
   -1.5037    4.1185   -3.0100 C   0  0  0  0  0  0  0  0  0  0  0  0
   -0.5969    4.5951   -2.3346 O   0  0  0  0  0  0  0  0  0  0  0  0
   -3.6647    3.0786   -2.1956 C   0  0  0  0  0  0  0  0  0  0  0  0
   -0.9217    2.8555   -0.8584 H   0  0  0  0  0  0  0  0  0  0  0  0
   -2.1550    2.1169   -3.4019 H   0  0  0  0  0  0  0  0  0  0  0  0
   -3.7304    3.7771   -1.3552 H   0  0  0  0  0  0  0  0  0  0  0  0
   -4.2049    3.5042   -3.0463 H   0  0  0  0  0  0  0  0  0  0  0  0
   -4.1577    2.1437   -1.9097 H   0  0  0  0  0  0  0  0  0  0  0  0
   -1.8781    4.7491   -4.1823 N   0  0  0  0  0  0  0  0  0  0  0  0
   -1.2647    5.9836   -4.6575 C   0  0  0  0  0  0  0  0  0  0  0  0
   -2.6333    4.3344   -4.7210 H   0  0  0  0  0  0  0  0  0  0  0  0
   -1.4092    6.7888   -3.9294 H   0  0  0  0  0  0  0  0  0  0  0  0
   -0.1905    5.8413   -4.8168 H   0  0  0  0  0  0  0  0  0  0  0  0
   -1.7166    6.2906   -5.6057 H   0  0  0  0  0  0  0  0  0  0  0  0
  1  2  2  0  0  0  0
  1  3  1  0  0  0  0
  1  7  1  0  0  0  0
  3  4  1  0  0  0  0
  3  5  1  0  0  0  0
  3  6  1  0  0  0  0
  7  8  1  0  0  0  0
  7 12  1  0  0  0  0
  8  9  1  0  0  0  0
  8 11  1  0  0  0  0
  8 13  1  0  0  0  0
  9 10  2  0  0  0  0
  9 17  1  0  0  0  0
 11 14  1  0  0  0  0
 11 15  1  0  0  0  0
 11 16  1  0  0  0  0
 17 18  1  0  0  0  0
 17 23  1  0  0  0  0
 18 19  1  0  0  0  0
 18 21  1  0  0  0  0
 18 24  1  0  0  0  0
 19 20  2  0  0  0  0
 19 28  1  0  0  0  0
 21 22  1  0  0  0  0
 21 25  1  0  0  0  0
 21 26  1  0  0  0  0
 22 27  1  0  0  0  0
 28 29  1  0  0  0  0
 28 33  1  0  0  0  0
 29 30  1  0  0  0  0
 29 32  1  0  0  0  0
 29 34  1  0  0  0  0
 30 31  2  0  0  0  0
 30 38  1  0  0  0  0
 32 35  1  0  0  0  0
 32 36  1  0  0  0  0
 32 37  1  0  0  0  0
 38 39  1  0  0  0  0
 38 40  1  0  0  0  0
 39 41  1  0  0  0  0
 39 42  1  0  0  0  0
 39 43  1  0  0  0  0
M  END
$$$$

  -OEChem-05262216003D

 43 42  0     1  0  0  0  0  0999 V2000
   -3.0478   -5.2499    0.8809 C   0  0  0  0  0  0  0  0  0  0  0  0
   -2.0728   -5.9847    0.8483 O   0  0  0  0  0  0  0  0  0  0  0  0
   -4.3756   -5.7692    1.3998 C   0  0  0  0  0  0  0  0  0  0  0  0
   -5.1561   -5.6128    0.6513 H   0  0  0  0  0  0  0  0  0  0  0  0
   -4.3048   -6.8392    1.6147 H   0  0  0  0  0  0  0  0  0  0  0  0
   -4.6492   -5.2420    2.3172 H   0  0  0  0  0  0  0  0  0  0  0  0
   -2.9433   -3.9441    0.4532 N   0  0  0  0  0  0  0  0  0  0  0  0
   -1.6818   -3.2902    0.0848 C   0  0  2  0  0  0  0  0  0  0  0  0
   -1.7154   -1.7795    0.3964 C   0  0  0  0  0  0  0  0  0  0  0  0
   -2.7404   -1.2579    0.8242 O   0  0  0  0  0  0  0  0  0  0  0  0
   -1.4360   -3.5181   -1.4098 C   0  0  0  0  0  0  0  0  0  0  0  0
   -3.7384   -3.3285    0.6247 H   0  0  0  0  0  0  0  0  0  0  0  0
   -0.8578   -3.7263    0.6594 H   0  0  0  0  0  0  0  0  0  0  0  0
   -2.2380   -3.0637   -2.0012 H   0  0  0  0  0  0  0  0  0  0  0  0
   -0.4842   -3.0744   -1.7165 H   0  0  0  0  0  0  0  0  0  0  0  0
   -1.4035   -4.5899   -1.6300 H   0  0  0  0  0  0  0  0  0  0  0  0
   -0.5568   -1.0242    0.3639 N   0  0  0  0  0  0  0  0  0  0  0  0
   -0.5017    0.4080   -0.0023 C   0  0  2  0  0  0  0  0  0  0  0  0
   -1.5500    0.9565   -1.0213 C   0  0  0  0  0  0  0  0  0  0  0  0
   -2.3089    0.2168   -1.6366 O   0  0  0  0  0  0  0  0  0  0  0  0
    0.9176    0.6154   -0.5687 C   0  0  0  0  0  0  0  0  0  0  0  0
    2.1785    0.3400    0.7430 S   0  0  0  0  0  0  0  0  0  0  0  0
    0.2874   -1.5550    0.1723 H   0  0  0  0  0  0  0  0  0  0  0  0
   -0.6219    0.9995    0.9106 H   0  0  0  0  0  0  0  0  0  0  0  0
    1.0881   -0.0644   -1.4105 H   0  0  0  0  0  0  0  0  0  0  0  0
    1.0427    1.6368   -0.9410 H   0  0  0  0  0  0  0  0  0  0  0  0
    3.3213    0.6270    0.0801 H   0  0  0  0  0  0  0  0  0  0  0  0
   -1.3374    2.1942   -1.6065 N   0  0  0  0  0  0  0  0  0  0  0  0
   -1.9862    2.6912   -2.8281 C   0  0  2  0  0  0  0  0  0  0  0  0
   -1.0930    3.7238   -3.5492 C   0  0  0  0  0  0  0  0  0  0  0  0
   -0.0542    4.1098   -3.0217 O   0  0  0  0  0  0  0  0  0  0  0  0
   -3.3355    3.3072   -2.4432 C   0  0  0  0  0  0  0  0  0  0  0  0
   -0.5757    2.7642   -1.2404 H   0  0  0  0  0  0  0  0  0  0  0  0
   -2.1527    1.8636   -3.5258 H   0  0  0  0  0  0  0  0  0  0  0  0
   -3.1910    4.1470   -1.7559 H   0  0  0  0  0  0  0  0  0  0  0  0
   -3.8624    3.6684   -3.3311 H   0  0  0  0  0  0  0  0  0  0  0  0
   -3.9666    2.5599   -1.9514 H   0  0  0  0  0  0  0  0  0  0  0  0
   -1.4376    4.2063   -4.7986 N   0  0  0  0  0  0  0  0  0  0  0  0
   -0.6430    5.1893   -5.5254 C   0  0  0  0  0  0  0  0  0  0  0  0
   -2.3031    3.8705   -5.2115 H   0  0  0  0  0  0  0  0  0  0  0  0
   -0.5802    6.1253   -4.9601 H   0  0  0  0  0  0  0  0  0  0  0  0
    0.3706    4.8117   -5.6964 H   0  0  0  0  0  0  0  0  0  0  0  0
   -1.1000    5.4026   -6.4966 H   0  0  0  0  0  0  0  0  0  0  0  0
  1  2  2  0  0  0  0
  1  3  1  0  0  0  0
  1  7  1  0  0  0  0
  3  4  1  0  0  0  0
  3  5  1  0  0  0  0
  3  6  1  0  0  0  0
  7  8  1  0  0  0  0
  7 12  1  0  0  0  0
  8  9  1  0  0  0  0
  8 11  1  0  0  0  0
  8 13  1  0  0  0  0
  9 10  2  0  0  0  0
  9 17  1  0  0  0  0
 11 14  1  0  0  0  0
 11 15  1  0  0  0  0
 11 16  1  0  0  0  0
 17 18  1  0  0  0  0
 17 23  1  0  0  0  0
 18 19  1  0  0  0  0
 18 21  1  0  0  0  0
 18 24  1  0  0  0  0
 19 20  2  0  0  0  0
 19 28  1  0  0  0  0
 21 22  1  0  0  0  0
 21 25  1  0  0  0  0
 21 26  1  0  0  0  0
 22 27  1  0  0  0  0
 28 29  1  0  0  0  0
 28 33  1  0  0  0  0
 29 30  1  0  0  0  0
 29 32  1  0  0  0  0
 29 34  1  0  0  0  0
 30 31  2  0  0  0  0
 30 38  1  0  0  0  0
 32 35  1  0  0  0  0
 32 36  1  0  0  0  0
 32 37  1  0  0  0  0
 38 39  1  0  0  0  0
 38 40  1  0  0  0  0
 39 41  1  0  0  0  0
 39 42  1  0  0  0  0
 39 43  1  0  0  0  0
M  END
$$$$

  -OEChem-05262216003D

 43 42  0     1  0  0  0  0  0999 V2000
   -3.0454   -5.2309    0.7973 C   0  0  0  0  0  0  0  0  0  0  0  0
   -2.0791   -5.9699    0.6864 O   0  0  0  0  0  0  0  0  0  0  0  0
   -4.3499   -5.7603    1.3624 C   0  0  0  0  0  0  0  0  0  0  0  0
   -5.1548   -5.6191    0.6372 H   0  0  0  0  0  0  0  0  0  0  0  0
   -4.2595   -6.8269    1.5862 H   0  0  0  0  0  0  0  0  0  0  0  0
   -4.6006   -5.2267    2.2824 H   0  0  0  0  0  0  0  0  0  0  0  0
   -2.9507   -3.9092    0.4199 N   0  0  0  0  0  0  0  0  0  0  0  0
   -1.7005   -3.2448    0.0332 C   0  0  2  0  0  0  0  0  0  0  0  0
   -1.7259   -1.7443    0.3916 C   0  0  0  0  0  0  0  0  0  0  0  0
   -2.7318   -1.2460    0.8846 O   0  0  0  0  0  0  0  0  0  0  0  0
   -1.4971   -3.4266   -1.4743 C   0  0  0  0  0  0  0  0  0  0  0  0
   -3.7308   -3.2964    0.6588 H   0  0  0  0  0  0  0  0  0  0  0  0
   -0.8611   -3.6973    0.5717 H   0  0  0  0  0  0  0  0  0  0  0  0
   -2.3175   -2.9583   -2.0284 H   0  0  0  0  0  0  0  0  0  0  0  0
   -0.5561   -2.9697   -1.7940 H   0  0  0  0  0  0  0  0  0  0  0  0
   -1.4668   -4.4908   -1.7288 H   0  0  0  0  0  0  0  0  0  0  0  0
   -0.5642   -0.9942    0.3674 N   0  0  0  0  0  0  0  0  0  0  0  0
   -0.4747    0.4356   -0.0058 C   0  0  2  0  0  0  0  0  0  0  0  0
   -1.4915    1.0146   -1.0474 C   0  0  0  0  0  0  0  0  0  0  0  0
   -2.4871    0.4108   -1.4213 O   0  0  0  0  0  0  0  0  0  0  0  0
    0.9748    0.6089   -0.5091 C   0  0  0  0  0  0  0  0  0  0  0  0
    2.1704    0.3208    0.8593 S   0  0  0  0  0  0  0  0  0  0  0  0
    0.2741   -1.5368    0.1833 H   0  0  0  0  0  0  0  0  0  0  0  0
   -0.6108    1.0301    0.9032 H   0  0  0  0  0  0  0  0  0  0  0  0
    1.1709   -0.0782   -1.3396 H   0  0  0  0  0  0  0  0  0  0  0  0
    1.1436    1.6261   -0.8730 H   0  0  0  0  0  0  0  0  0  0  0  0
    3.3450    0.5992    0.2499 H   0  0  0  0  0  0  0  0  0  0  0  0
   -1.1170    2.0705   -1.8636 N   0  0  0  0  0  0  0  0  0  0  0  0
   -1.8021    2.4966   -3.0920 C   0  0  2  0  0  0  0  0  0  0  0  0
   -0.8126    3.1718   -4.0655 C   0  0  0  0  0  0  0  0  0  0  0  0
    0.3384    3.4023   -3.7060 O   0  0  0  0  0  0  0  0  0  0  0  0
   -2.9334    3.4568   -2.7103 C   0  0  0  0  0  0  0  0  0  0  0  0
   -0.2139    2.5072   -1.6871 H   0  0  0  0  0  0  0  0  0  0  0  0
   -2.2232    1.6263   -3.6071 H   0  0  0  0  0  0  0  0  0  0  0  0
   -2.5303    4.3456   -2.2146 H   0  0  0  0  0  0  0  0  0  0  0  0
   -3.4871    3.7733   -3.5990 H   0  0  0  0  0  0  0  0  0  0  0  0
   -3.6337    2.9650   -2.0274 H   0  0  0  0  0  0  0  0  0  0  0  0
   -1.2019    3.5046   -5.3498 N   0  0  0  0  0  0  0  0  0  0  0  0
   -0.3199    4.1560   -6.3107 C   0  0  0  0  0  0  0  0  0  0  0  0
   -2.1615    3.3056   -5.6181 H   0  0  0  0  0  0  0  0  0  0  0  0
   -0.0173    5.1426   -5.9440 H   0  0  0  0  0  0  0  0  0  0  0  0
    0.5775    3.5515   -6.4795 H   0  0  0  0  0  0  0  0  0  0  0  0
   -0.8335    4.2851   -7.2684 H   0  0  0  0  0  0  0  0  0  0  0  0
  1  2  2  0  0  0  0
  1  3  1  0  0  0  0
  1  7  1  0  0  0  0
  3  4  1  0  0  0  0
  3  5  1  0  0  0  0
  3  6  1  0  0  0  0
  7  8  1  0  0  0  0
  7 12  1  0  0  0  0
  8  9  1  0  0  0  0
  8 11  1  0  0  0  0
  8 13  1  0  0  0  0
  9 10  2  0  0  0  0
  9 17  1  0  0  0  0
 11 14  1  0  0  0  0
 11 15  1  0  0  0  0
 11 16  1  0  0  0  0
 17 18  1  0  0  0  0
 17 23  1  0  0  0  0
 18 19  1  0  0  0  0
 18 21  1  0  0  0  0
 18 24  1  0  0  0  0
 19 20  2  0  0  0  0
 19 28  1  0  0  0  0
 21 22  1  0  0  0  0
 21 25  1  0  0  0  0
 21 26  1  0  0  0  0
 22 27  1  0  0  0  0
 28 29  1  0  0  0  0
 28 33  1  0  0  0  0
 29 30  1  0  0  0  0
 29 32  1  0  0  0  0
 29 34  1  0  0  0  0
 30 31  2  0  0  0  0
 30 38  1  0  0  0  0
 32 35  1  0  0  0  0
 32 36  1  0  0  0  0
 32 37  1  0  0  0  0
 38 39  1  0  0  0  0
 38 40  1  0  0  0  0
 39 41  1  0  0  0  0
 39 42  1  0  0  0  0
 39 43  1  0  0  0  0
M  END
$$$$

  -OEChem-05262216003D

 43 42  0     1  0  0  0  0  0999 V2000
   -3.3328   -5.0330    1.1101 C   0  0  0  0  0  0  0  0  0  0  0  0
   -2.5902   -5.4254    1.9966 O   0  0  0  0  0  0  0  0  0  0  0  0
   -4.7705   -5.5138    1.0515 C   0  0  0  0  0  0  0  0  0  0  0  0
   -4.9537   -6.0280    0.1048 H   0  0  0  0  0  0  0  0  0  0  0  0
   -4.9708   -6.2061    1.8739 H   0  0  0  0  0  0  0  0  0  0  0  0
   -5.4514   -4.6633    1.1345 H   0  0  0  0  0  0  0  0  0  0  0  0
   -2.8683   -4.1446    0.1644 N   0  0  0  0  0  0  0  0  0  0  0  0
   -1.5585   -3.4835    0.2197 C   0  0  2  0  0  0  0  0  0  0  0  0
   -1.6119   -2.0709   -0.4016 C   0  0  0  0  0  0  0  0  0  0  0  0
   -2.5548   -1.7832   -1.1219 O   0  0  0  0  0  0  0  0  0  0  0  0
   -0.5422   -4.3618   -0.5176 C   0  0  0  0  0  0  0  0  0  0  0  0
   -3.5524   -3.7399   -0.4754 H   0  0  0  0  0  0  0  0  0  0  0  0
   -1.2485   -3.3692    1.2639 H   0  0  0  0  0  0  0  0  0  0  0  0
   -0.8293   -4.4793   -1.5676 H   0  0  0  0  0  0  0  0  0  0  0  0
    0.4557   -3.9149   -0.4764 H   0  0  0  0  0  0  0  0  0  0  0  0
   -0.4942   -5.3538   -0.0567 H   0  0  0  0  0  0  0  0  0  0  0  0
   -0.5457   -1.2079   -0.2056 N   0  0  0  0  0  0  0  0  0  0  0  0
   -0.4748    0.2629   -0.3697 C   0  0  2  0  0  0  0  0  0  0  0  0
   -1.3842    0.9623   -1.4237 C   0  0  0  0  0  0  0  0  0  0  0  0
   -2.5894    1.0364   -1.2268 O   0  0  0  0  0  0  0  0  0  0  0  0
    1.0169    0.5455   -0.6254 C   0  0  0  0  0  0  0  0  0  0  0  0
    2.0002    0.0999    0.8664 S   0  0  0  0  0  0  0  0  0  0  0  0
    0.1869   -1.5937    0.3859 H   0  0  0  0  0  0  0  0  0  0  0  0
   -0.7547    0.7224    0.5839 H   0  0  0  0  0  0  0  0  0  0  0  0
    1.3665   -0.0161   -1.4990 H   0  0  0  0  0  0  0  0  0  0  0  0
    1.1771    1.6112   -0.8181 H   0  0  0  0  0  0  0  0  0  0  0  0
    3.2398    0.4845    0.4867 H   0  0  0  0  0  0  0  0  0  0  0  0
   -0.8769    1.9290   -2.2780 N   0  0  0  0  0  0  0  0  0  0  0  0
   -1.6799    2.6359   -3.2855 C   0  0  2  0  0  0  0  0  0  0  0  0
   -0.8987    2.7785   -4.6079 C   0  0  0  0  0  0  0  0  0  0  0  0
    0.3081    2.5549   -4.6326 O   0  0  0  0  0  0  0  0  0  0  0  0
   -2.0610    4.0090   -2.7252 C   0  0  0  0  0  0  0  0  0  0  0  0
    0.1171    1.8643   -2.4913 H   0  0  0  0  0  0  0  0  0  0  0  0
   -2.5918    2.0703   -3.5064 H   0  0  0  0  0  0  0  0  0  0  0  0
   -1.1639    4.6002   -2.5153 H   0  0  0  0  0  0  0  0  0  0  0  0
   -2.6818    4.5572   -3.4401 H   0  0  0  0  0  0  0  0  0  0  0  0
   -2.6277    3.8923   -1.7958 H   0  0  0  0  0  0  0  0  0  0  0  0
   -1.5492    3.1357   -5.7742 N   0  0  0  0  0  0  0  0  0  0  0  0
   -0.8798    3.2374   -7.0653 C   0  0  0  0  0  0  0  0  0  0  0  0
   -2.5561    3.2653   -5.7299 H   0  0  0  0  0  0  0  0  0  0  0  0
   -0.0559    3.9572   -7.0151 H   0  0  0  0  0  0  0  0  0  0  0  0
   -0.4793    2.2638   -7.3668 H   0  0  0  0  0  0  0  0  0  0  0  0
   -1.5848    3.5741   -7.8315 H   0  0  0  0  0  0  0  0  0  0  0  0
  1  2  2  0  0  0  0
  1  3  1  0  0  0  0
  1  7  1  0  0  0  0
  3  4  1  0  0  0  0
  3  5  1  0  0  0  0
  3  6  1  0  0  0  0
  7  8  1  0  0  0  0
  7 12  1  0  0  0  0
  8  9  1  0  0  0  0
  8 11  1  0  0  0  0
  8 13  1  0  0  0  0
  9 10  2  0  0  0  0
  9 17  1  0  0  0  0
 11 14  1  0  0  0  0
 11 15  1  0  0  0  0
 11 16  1  0  0  0  0
 17 18  1  0  0  0  0
 17 23  1  0  0  0  0
 18 19  1  0  0  0  0
 18 21  1  0  0  0  0
 18 24  1  0  0  0  0
 19 20  2  0  0  0  0
 19 28  1  0  0  0  0
 21 22  1  0  0  0  0
 21 25  1  0  0  0  0
 21 26  1  0  0  0  0
 22 27  1  0  0  0  0
 28 29  1  0  0  0  0
 28 33  1  0  0  0  0
 29 30  1  0  0  0  0
 29 32  1  0  0  0  0
 29 34  1  0  0  0  0
 30 31  2  0  0  0  0
 30 38  1  0  0  0  0
 32 35  1  0  0  0  0
 32 36  1  0  0  0  0
 32 37  1  0  0  0  0
 38 39  1  0  0  0  0
 38 40  1  0  0  0  0
 39 41  1  0  0  0  0
 39 42  1  0  0  0  0
 39 43  1  0  0  0  0
M  END
$$$$

  -OEChem-05262216003D

 43 42  0     1  0  0  0  0  0999 V2000
   -3.3050   -5.0060    1.1849 C   0  0  0  0  0  0  0  0  0  0  0  0
   -2.5314   -5.4054    2.0413 O   0  0  0  0  0  0  0  0  0  0  0  0
   -4.7577   -5.4429    1.2080 C   0  0  0  0  0  0  0  0  0  0  0  0
   -5.0023   -5.9746    0.2853 H   0  0  0  0  0  0  0  0  0  0  0  0
   -4.9373   -6.1083    2.0572 H   0  0  0  0  0  0  0  0  0  0  0  0
   -5.4089   -4.5702    1.3011 H   0  0  0  0  0  0  0  0  0  0  0  0
   -2.8612   -4.1471    0.2024 N   0  0  0  0  0  0  0  0  0  0  0  0
   -1.5366   -3.5135    0.1937 C   0  0  2  0  0  0  0  0  0  0  0  0
   -1.5972   -2.0877   -0.3949 C   0  0  0  0  0  0  0  0  0  0  0  0
   -2.5521   -1.7755   -1.0898 O   0  0  0  0  0  0  0  0  0  0  0  0
   -0.5858   -4.3946   -0.6216 C   0  0  0  0  0  0  0  0  0  0  0  0
   -3.5633   -3.7383   -0.4146 H   0  0  0  0  0  0  0  0  0  0  0  0
   -1.1604   -3.4284    1.2191 H   0  0  0  0  0  0  0  0  0  0  0  0
   -0.9392   -4.4855   -1.6537 H   0  0  0  0  0  0  0  0  0  0  0  0
    0.4206   -3.9657   -0.6336 H   0  0  0  0  0  0  0  0  0  0  0  0
   -0.5284   -5.3960   -0.1831 H   0  0  0  0  0  0  0  0  0  0  0  0
   -0.5391   -1.2211   -0.1767 N   0  0  0  0  0  0  0  0  0  0  0  0
   -0.4830    0.2451   -0.3694 C   0  0  2  0  0  0  0  0  0  0  0  0
   -1.3728    0.8859   -1.4721 C   0  0  0  0  0  0  0  0  0  0  0  0
   -2.5472    1.1292   -1.2262 O   0  0  0  0  0  0  0  0  0  0  0  0
    1.0053    0.5659   -0.5844 C   0  0  0  0  0  0  0  0  0  0  0  0
    1.9525    0.1774    0.9457 S   0  0  0  0  0  0  0  0  0  0  0  0
    0.1900   -1.5968    0.4259 H   0  0  0  0  0  0  0  0  0  0  0  0
   -0.8062    0.7207    0.5625 H   0  0  0  0  0  0  0  0  0  0  0  0
    1.4004   -0.0048   -1.4318 H   0  0  0  0  0  0  0  0  0  0  0  0
    1.1334    1.6320   -0.8012 H   0  0  0  0  0  0  0  0  0  0  0  0
    3.1926    0.5867    0.5956 H   0  0  0  0  0  0  0  0  0  0  0  0
   -0.8140    1.5933   -2.5243 N   0  0  0  0  0  0  0  0  0  0  0  0
   -1.5948    2.2382   -3.5878 C   0  0  2  0  0  0  0  0  0  0  0  0
   -0.8806    2.1047   -4.9491 C   0  0  0  0  0  0  0  0  0  0  0  0
    0.2850    1.7220   -4.9934 O   0  0  0  0  0  0  0  0  0  0  0  0
   -1.7945    3.7111   -3.2190 C   0  0  0  0  0  0  0  0  0  0  0  0
    0.1421    1.3482   -2.7775 H   0  0  0  0  0  0  0  0  0  0  0  0
   -2.5720    1.7517   -3.6814 H   0  0  0  0  0  0  0  0  0  0  0  0
   -0.8284    4.2182   -3.1320 H   0  0  0  0  0  0  0  0  0  0  0  0
   -2.3902    4.2218   -3.9814 H   0  0  0  0  0  0  0  0  0  0  0  0
   -2.3185    3.7929   -2.2613 H   0  0  0  0  0  0  0  0  0  0  0  0
   -1.5448    2.3965   -6.1261 N   0  0  0  0  0  0  0  0  0  0  0  0
   -0.9412    2.2427   -7.4444 C   0  0  0  0  0  0  0  0  0  0  0  0
   -2.5201    2.6737   -6.0600 H   0  0  0  0  0  0  0  0  0  0  0  0
   -0.0209    2.8321   -7.5166 H   0  0  0  0  0  0  0  0  0  0  0  0
   -0.7024    1.1911   -7.6359 H   0  0  0  0  0  0  0  0  0  0  0  0
   -1.6322    2.5876   -8.2197 H   0  0  0  0  0  0  0  0  0  0  0  0
  1  2  2  0  0  0  0
  1  3  1  0  0  0  0
  1  7  1  0  0  0  0
  3  4  1  0  0  0  0
  3  5  1  0  0  0  0
  3  6  1  0  0  0  0
  7  8  1  0  0  0  0
  7 12  1  0  0  0  0
  8  9  1  0  0  0  0
  8 11  1  0  0  0  0
  8 13  1  0  0  0  0
  9 10  2  0  0  0  0
  9 17  1  0  0  0  0
 11 14  1  0  0  0  0
 11 15  1  0  0  0  0
 11 16  1  0  0  0  0
 17 18  1  0  0  0  0
 17 23  1  0  0  0  0
 18 19  1  0  0  0  0
 18 21  1  0  0  0  0
 18 24  1  0  0  0  0
 19 20  2  0  0  0  0
 19 28  1  0  0  0  0
 21 22  1  0  0  0  0
 21 25  1  0  0  0  0
 21 26  1  0  0  0  0
 22 27  1  0  0  0  0
 28 29  1  0  0  0  0
 28 33  1  0  0  0  0
 29 30  1  0  0  0  0
 29 32  1  0  0  0  0
 29 34  1  0  0  0  0
 30 31  2  0  0  0  0
 30 38  1  0  0  0  0
 32 35  1  0  0  0  0
 32 36  1  0  0  0  0
 32 37  1  0  0  0  0
 38 39  1  0  0  0  0
 38 40  1  0  0  0  0
 39 41  1  0  0  0  0
 39 42  1  0  0  0  0
 39 43  1  0  0  0  0
M  END
$$$$

  -OEChem-05262216003D

 43 42  0     1  0  0  0  0  0999 V2000
   -3.2704   -5.0209    1.2021 C   0  0  0  0  0  0  0  0  0  0  0  0
   -2.4599   -5.4616    2.0021 O   0  0  0  0  0  0  0  0  0  0  0  0
   -4.7210   -5.4607    1.2654 C   0  0  0  0  0  0  0  0  0  0  0  0
   -5.0003   -5.9603    0.3345 H   0  0  0  0  0  0  0  0  0  0  0  0
   -4.8687   -6.1558    2.0966 H   0  0  0  0  0  0  0  0  0  0  0  0
   -5.3681   -4.5926    1.4135 H   0  0  0  0  0  0  0  0  0  0  0  0
   -2.8696   -4.1163    0.2424 N   0  0  0  0  0  0  0  0  0  0  0  0
   -1.5387   -3.4986    0.1896 C   0  0  2  0  0  0  0  0  0  0  0  0
   -1.6087   -2.0495   -0.3373 C   0  0  0  0  0  0  0  0  0  0  0  0
   -2.5925   -1.6948   -0.9701 O   0  0  0  0  0  0  0  0  0  0  0  0
   -0.6463   -4.3567   -0.7119 C   0  0  0  0  0  0  0  0  0  0  0  0
   -3.5976   -3.6766   -0.3207 H   0  0  0  0  0  0  0  0  0  0  0  0
   -1.1076   -3.4610    1.1958 H   0  0  0  0  0  0  0  0  0  0  0  0
   -1.0553   -4.3978   -1.7266 H   0  0  0  0  0  0  0  0  0  0  0  0
    0.3652   -3.9424   -0.7595 H   0  0  0  0  0  0  0  0  0  0  0  0
   -0.5826   -5.3770   -0.3205 H   0  0  0  0  0  0  0  0  0  0  0  0
   -0.5405   -1.1943   -0.1223 N   0  0  0  0  0  0  0  0  0  0  0  0
   -0.4784    0.2668   -0.3402 C   0  0  2  0  0  0  0  0  0  0  0  0
   -1.3635    0.8720   -1.4629 C   0  0  0  0  0  0  0  0  0  0  0  0
   -2.4714    1.3116   -1.1820 O   0  0  0  0  0  0  0  0  0  0  0  0
    1.0043    0.5986   -0.5698 C   0  0  0  0  0  0  0  0  0  0  0  0
    1.9705    0.2461    0.9563 S   0  0  0  0  0  0  0  0  0  0  0  0
    0.2037   -1.5778    0.4562 H   0  0  0  0  0  0  0  0  0  0  0  0
   -0.8041    0.7599    0.5817 H   0  0  0  0  0  0  0  0  0  0  0  0
    1.4003    0.0151   -1.4082 H   0  0  0  0  0  0  0  0  0  0  0  0
    1.1121    1.6614   -0.8133 H   0  0  0  0  0  0  0  0  0  0  0  0
    3.2005    0.6728    0.5902 H   0  0  0  0  0  0  0  0  0  0  0  0
   -0.8111    1.2763   -2.6663 N   0  0  0  0  0  0  0  0  0  0  0  0
   -1.5895    1.8336   -3.7786 C   0  0  2  0  0  0  0  0  0  0  0  0
   -1.0197    1.3625   -5.1334 C   0  0  0  0  0  0  0  0  0  0  0  0
    0.0807    0.8200   -5.1797 O   0  0  0  0  0  0  0  0  0  0  0  0
   -1.5561    3.3614   -3.6760 C   0  0  0  0  0  0  0  0  0  0  0  0
    0.0662    0.8308   -2.9316 H   0  0  0  0  0  0  0  0  0  0  0  0
   -2.6276    1.4875   -3.7194 H   0  0  0  0  0  0  0  0  0  0  0  0
   -0.5258    3.7262   -3.7357 H   0  0  0  0  0  0  0  0  0  0  0  0
   -2.1352    3.8149   -4.4858 H   0  0  0  0  0  0  0  0  0  0  0  0
   -1.9860    3.6857   -2.7230 H   0  0  0  0  0  0  0  0  0  0  0  0
   -1.7378    1.5395   -6.3016 N   0  0  0  0  0  0  0  0  0  0  0  0
   -1.2631    1.0965   -7.6069 C   0  0  0  0  0  0  0  0  0  0  0  0
   -2.6591    1.9618   -6.2287 H   0  0  0  0  0  0  0  0  0  0  0  0
   -0.3079    1.5743   -7.8492 H   0  0  0  0  0  0  0  0  0  0  0  0
   -1.1264    0.0100   -7.6160 H   0  0  0  0  0  0  0  0  0  0  0  0
   -1.9873    1.3607   -8.3835 H   0  0  0  0  0  0  0  0  0  0  0  0
  1  2  2  0  0  0  0
  1  3  1  0  0  0  0
  1  7  1  0  0  0  0
  3  4  1  0  0  0  0
  3  5  1  0  0  0  0
  3  6  1  0  0  0  0
  7  8  1  0  0  0  0
  7 12  1  0  0  0  0
  8  9  1  0  0  0  0
  8 11  1  0  0  0  0
  8 13  1  0  0  0  0
  9 10  2  0  0  0  0
  9 17  1  0  0  0  0
 11 14  1  0  0  0  0
 11 15  1  0  0  0  0
 11 16  1  0  0  0  0
 17 18  1  0  0  0  0
 17 23  1  0  0  0  0
 18 19  1  0  0  0  0
 18 21  1  0  0  0  0
 18 24  1  0  0  0  0
 19 20  2  0  0  0  0
 19 28  1  0  0  0  0
 21 22  1  0  0  0  0
 21 25  1  0  0  0  0
 21 26  1  0  0  0  0
 22 27  1  0  0  0  0
 28 29  1  0  0  0  0
 28 33  1  0  0  0  0
 29 30  1  0  0  0  0
 29 32  1  0  0  0  0
 29 34  1  0  0  0  0
 30 31  2  0  0  0  0
 30 38  1  0  0  0  0
 32 35  1  0  0  0  0
 32 36  1  0  0  0  0
 32 37  1  0  0  0  0
 38 39  1  0  0  0  0
 38 40  1  0  0  0  0
 39 41  1  0  0  0  0
 39 42  1  0  0  0  0
 39 43  1  0  0  0  0
M  END
$$$$

  -OEChem-05262216003D

 43 42  0     1  0  0  0  0  0999 V2000
   -3.2389   -5.0315    1.2024 C   0  0  0  0  0  0  0  0  0  0  0  0
   -2.4086   -5.4891    1.9719 O   0  0  0  0  0  0  0  0  0  0  0  0
   -4.6884   -5.4692    1.2958 C   0  0  0  0  0  0  0  0  0  0  0  0
   -4.9866   -5.9698    0.3717 H   0  0  0  0  0  0  0  0  0  0  0  0
   -4.8200   -6.1625    2.1311 H   0  0  0  0  0  0  0  0  0  0  0  0
   -5.3311   -4.6001    1.4552 H   0  0  0  0  0  0  0  0  0  0  0  0
   -2.8617   -4.1093    0.2498 N   0  0  0  0  0  0  0  0  0  0  0  0
   -1.5328   -3.4886    0.1788 C   0  0  2  0  0  0  0  0  0  0  0  0
   -1.6159   -2.0237   -0.3000 C   0  0  0  0  0  0  0  0  0  0  0  0
   -2.6200   -1.6424   -0.8852 O   0  0  0  0  0  0  0  0  0  0  0  0
   -0.6646   -4.3175   -0.7722 C   0  0  0  0  0  0  0  0  0  0  0  0
   -3.6041   -3.6580   -0.2844 H   0  0  0  0  0  0  0  0  0  0  0  0
   -1.0737   -3.4817    1.1733 H   0  0  0  0  0  0  0  0  0  0  0  0
   -1.1027   -4.3318   -1.7757 H   0  0  0  0  0  0  0  0  0  0  0  0
    0.3438   -3.8981   -0.8371 H   0  0  0  0  0  0  0  0  0  0  0  0
   -0.5862   -5.3480   -0.4112 H   0  0  0  0  0  0  0  0  0  0  0  0
   -0.5464   -1.1712   -0.0802 N   0  0  0  0  0  0  0  0  0  0  0  0
   -0.4820    0.2858   -0.3180 C   0  0  2  0  0  0  0  0  0  0  0  0
   -1.3549    0.8592   -1.4627 C   0  0  0  0  0  0  0  0  0  0  0  0
   -2.3651    1.4948   -1.1882 O   0  0  0  0  0  0  0  0  0  0  0  0
    0.9964    0.6270   -0.5511 C   0  0  0  0  0  0  0  0  0  0  0  0
    1.9619    0.3010    0.9818 S   0  0  0  0  0  0  0  0  0  0  0  0
    0.2126   -1.5602    0.4754 H   0  0  0  0  0  0  0  0  0  0  0  0
   -0.8169    0.7944    0.5925 H   0  0  0  0  0  0  0  0  0  0  0  0
    1.3999    0.0358   -1.3801 H   0  0  0  0  0  0  0  0  0  0  0  0
    1.0922    1.6867   -0.8128 H   0  0  0  0  0  0  0  0  0  0  0  0
    3.1871    0.7420    0.6184 H   0  0  0  0  0  0  0  0  0  0  0  0
   -0.8591    0.9515   -2.7516 N   0  0  0  0  0  0  0  0  0  0  0  0
   -1.6476    1.4285   -3.8936 C   0  0  2  0  0  0  0  0  0  0  0  0
   -1.2964    0.6439   -5.1749 C   0  0  0  0  0  0  0  0  0  0  0  0
   -0.2933   -0.0628   -5.2070 O   0  0  0  0  0  0  0  0  0  0  0  0
   -1.3735    2.9234   -4.0816 C   0  0  0  0  0  0  0  0  0  0  0  0
   -0.0951    0.3179   -2.9836 H   0  0  0  0  0  0  0  0  0  0  0  0
   -2.7149    1.2762   -3.6987 H   0  0  0  0  0  0  0  0  0  0  0  0
   -0.3128    3.0949   -4.2909 H   0  0  0  0  0  0  0  0  0  0  0  0
   -1.9624    3.3203   -4.9137 H   0  0  0  0  0  0  0  0  0  0  0  0
   -1.6436    3.4745   -3.1751 H   0  0  0  0  0  0  0  0  0  0  0  0
   -2.1034    0.7281   -6.2945 N   0  0  0  0  0  0  0  0  0  0  0  0
   -1.8387   -0.0012   -7.5290 C   0  0  0  0  0  0  0  0  0  0  0  0
   -2.9453    1.2928   -6.2265 H   0  0  0  0  0  0  0  0  0  0  0  0
   -0.8555    0.2674   -7.9298 H   0  0  0  0  0  0  0  0  0  0  0  0
   -1.8630   -1.0812   -7.3488 H   0  0  0  0  0  0  0  0  0  0  0  0
   -2.5953    0.2412   -8.2817 H   0  0  0  0  0  0  0  0  0  0  0  0
  1  2  2  0  0  0  0
  1  3  1  0  0  0  0
  1  7  1  0  0  0  0
  3  4  1  0  0  0  0
  3  5  1  0  0  0  0
  3  6  1  0  0  0  0
  7  8  1  0  0  0  0
  7 12  1  0  0  0  0
  8  9  1  0  0  0  0
  8 11  1  0  0  0  0
  8 13  1  0  0  0  0
  9 10  2  0  0  0  0
  9 17  1  0  0  0  0
 11 14  1  0  0  0  0
 11 15  1  0  0  0  0
 11 16  1  0  0  0  0
 17 18  1  0  0  0  0
 17 23  1  0  0  0  0
 18 19  1  0  0  0  0
 18 21  1  0  0  0  0
 18 24  1  0  0  0  0
 19 20  2  0  0  0  0
 19 28  1  0  0  0  0
 21 22  1  0  0  0  0
 21 25  1  0  0  0  0
 21 26  1  0  0  0  0
 22 27  1  0  0  0  0
 28 29  1  0  0  0  0
 28 33  1  0  0  0  0
 29 30  1  0  0  0  0
 29 32  1  0  0  0  0
 29 34  1  0  0  0  0
 30 31  2  0  0  0  0
 30 38  1  0  0  0  0
 32 35  1  0  0  0  0
 32 36  1  0  0  0  0
 32 37  1  0  0  0  0
 38 39  1  0  0  0  0
 38 40  1  0  0  0  0
 39 41  1  0  0  0  0
 39 42  1  0  0  0  0
 39 43  1  0  0  0  0
M  END
$$$$

  -OEChem-05262216003D

 43 42  0     1  0  0  0  0  0999 V2000
   -3.2032   -5.0281    1.1891 C   0  0  0  0  0  0  0  0  0  0  0  0
   -2.3428   -5.5046    1.9127 O   0  0  0  0  0  0  0  0  0  0  0  0
   -4.6501   -5.4584    1.3417 C   0  0  0  0  0  0  0  0  0  0  0  0
   -5.0120   -5.8899    0.4052 H   0  0  0  0  0  0  0  0  0  0  0  0
   -4.7389   -6.2081    2.1333 H   0  0  0  0  0  0  0  0  0  0  0  0
   -5.2702   -4.5969    1.6017 H   0  0  0  0  0  0  0  0  0  0  0  0
   -2.8625   -4.0884    0.2395 N   0  0  0  0  0  0  0  0  0  0  0  0
   -1.5340   -3.4735    0.1235 C   0  0  2  0  0  0  0  0  0  0  0  0
   -1.6269   -1.9896   -0.2880 C   0  0  0  0  0  0  0  0  0  0  0  0
   -2.6499   -1.5749   -0.8162 O   0  0  0  0  0  0  0  0  0  0  0  0
   -0.7252   -4.2650   -0.9079 C   0  0  0  0  0  0  0  0  0  0  0  0
   -3.6246   -3.6252   -0.2550 H   0  0  0  0  0  0  0  0  0  0  0  0
   -1.0213   -3.5120    1.0907 H   0  0  0  0  0  0  0  0  0  0  0  0
   -1.2218   -4.2418   -1.8836 H   0  0  0  0  0  0  0  0  0  0  0  0
    0.2779   -3.8421   -1.0178 H   0  0  0  0  0  0  0  0  0  0  0  0
   -0.6262   -5.3081   -0.5910 H   0  0  0  0  0  0  0  0  0  0  0  0
   -0.5496   -1.1497   -0.0585 N   0  0  0  0  0  0  0  0  0  0  0  0
   -0.4725    0.3063   -0.2943 C   0  0  2  0  0  0  0  0  0  0  0  0
   -1.3361    0.8715   -1.4458 C   0  0  0  0  0  0  0  0  0  0  0  0
   -2.2138    1.6910   -1.2049 O   0  0  0  0  0  0  0  0  0  0  0  0
    1.0025    0.6459   -0.5429 C   0  0  0  0  0  0  0  0  0  0  0  0
    1.9857    0.3149    0.9770 S   0  0  0  0  0  0  0  0  0  0  0  0
    0.2224   -1.5573    0.4649 H   0  0  0  0  0  0  0  0  0  0  0  0
   -0.8049    0.8191    0.6149 H   0  0  0  0  0  0  0  0  0  0  0  0
    1.3961    0.0581   -1.3792 H   0  0  0  0  0  0  0  0  0  0  0  0
    1.0943    1.7061   -0.8032 H   0  0  0  0  0  0  0  0  0  0  0  0
    3.2042    0.7652    0.6026 H   0  0  0  0  0  0  0  0  0  0  0  0
   -0.9557    0.6700   -2.7599 N   0  0  0  0  0  0  0  0  0  0  0  0
   -1.7950    1.0341   -3.9059 C   0  0  2  0  0  0  0  0  0  0  0  0
   -1.6727   -0.0165   -5.0296 C   0  0  0  0  0  0  0  0  0  0  0  0
   -0.7709   -0.8491   -4.9981 O   0  0  0  0  0  0  0  0  0  0  0  0
   -1.3647    2.4167   -4.4038 C   0  0  0  0  0  0  0  0  0  0  0  0
   -0.3223   -0.1127   -2.9200 H   0  0  0  0  0  0  0  0  0  0  0  0
   -2.8469    1.0675   -3.6011 H   0  0  0  0  0  0  0  0  0  0  0  0
   -0.3200    2.3979   -4.7296 H   0  0  0  0  0  0  0  0  0  0  0  0
   -1.9872    2.7336   -5.2456 H   0  0  0  0  0  0  0  0  0  0  0  0
   -1.4672    3.1555   -3.6026 H   0  0  0  0  0  0  0  0  0  0  0  0
   -2.5716   -0.0304   -6.0800 N   0  0  0  0  0  0  0  0  0  0  0  0
   -2.5167   -1.0000   -7.1672 C   0  0  0  0  0  0  0  0  0  0  0  0
   -3.3305    0.6447   -6.0585 H   0  0  0  0  0  0  0  0  0  0  0  0
   -1.5572   -0.9341   -7.6909 H   0  0  0  0  0  0  0  0  0  0  0  0
   -2.6381   -2.0172   -6.7801 H   0  0  0  0  0  0  0  0  0  0  0  0
   -3.3164   -0.8058   -7.8885 H   0  0  0  0  0  0  0  0  0  0  0  0
  1  2  2  0  0  0  0
  1  3  1  0  0  0  0
  1  7  1  0  0  0  0
  3  4  1  0  0  0  0
  3  5  1  0  0  0  0
  3  6  1  0  0  0  0
  7  8  1  0  0  0  0
  7 12  1  0  0  0  0
  8  9  1  0  0  0  0
  8 11  1  0  0  0  0
  8 13  1  0  0  0  0
  9 10  2  0  0  0  0
  9 17  1  0  0  0  0
 11 14  1  0  0  0  0
 11 15  1  0  0  0  0
 11 16  1  0  0  0  0
 17 18  1  0  0  0  0
 17 23  1  0  0  0  0
 18 19  1  0  0  0  0
 18 21  1  0  0  0  0
 18 24  1  0  0  0  0
 19 20  2  0  0  0  0
 19 28  1  0  0  0  0
 21 22  1  0  0  0  0
 21 25  1  0  0  0  0
 21 26  1  0  0  0  0
 22 27  1  0  0  0  0
 28 29  1  0  0  0  0
 28 33  1  0  0  0  0
 29 30  1  0  0  0  0
 29 32  1  0  0  0  0
 29 34  1  0  0  0  0
 30 31  2  0  0  0  0
 30 38  1  0  0  0  0
 32 35  1  0  0  0  0
 32 36  1  0  0  0  0
 32 37  1  0  0  0  0
 38 39  1  0  0  0  0
 38 40  1  0  0  0  0
 39 41  1  0  0  0  0
 39 42  1  0  0  0  0
 39 43  1  0  0  0  0
M  END
$$$$

  -OEChem-05262216003D

 43 42  0     1  0  0  0  0  0999 V2000
   -3.2381   -5.0294    0.7408 C   0  0  0  0  0  0  0  0  0  0  0  0
   -2.3939   -5.6069    1.4076 O   0  0  0  0  0  0  0  0  0  0  0  0
   -4.6832   -5.4899    0.7766 C   0  0  0  0  0  0  0  0  0  0  0  0
   -5.0215   -5.7375   -0.2325 H   0  0  0  0  0  0  0  0  0  0  0  0
   -4.7801   -6.3773    1.4082 H   0  0  0  0  0  0  0  0  0  0  0  0
   -5.3169   -4.6977    1.1827 H   0  0  0  0  0  0  0  0  0  0  0  0
   -2.8810   -3.9492   -0.0373 N   0  0  0  0  0  0  0  0  0  0  0  0
   -1.5523   -3.3244   -0.0302 C   0  0  2  0  0  0  0  0  0  0  0  0
   -1.6356   -1.8020   -0.2657 C   0  0  0  0  0  0  0  0  0  0  0  0
   -2.6716   -1.3144   -0.7004 O   0  0  0  0  0  0  0  0  0  0  0  0
   -0.7051   -3.9832   -1.1230 C   0  0  0  0  0  0  0  0  0  0  0  0
   -3.6312   -3.4219   -0.4830 H   0  0  0  0  0  0  0  0  0  0  0  0
   -1.0755   -3.4805    0.9436 H   0  0  0  0  0  0  0  0  0  0  0  0
   -1.1625   -3.8294   -2.1064 H   0  0  0  0  0  0  0  0  0  0  0  0
    0.3030   -3.5588   -1.1381 H   0  0  0  0  0  0  0  0  0  0  0  0
   -0.6220   -5.0592   -0.9405 H   0  0  0  0  0  0  0  0  0  0  0  0
   -0.5365   -1.0026    0.0085 N   0  0  0  0  0  0  0  0  0  0  0  0
   -0.3975    0.4499   -0.2283 C   0  0  2  0  0  0  0  0  0  0  0  0
   -1.1997    1.0108   -1.4214 C   0  0  0  0  0  0  0  0  0  0  0  0
   -1.9184    1.9921   -1.2822 O   0  0  0  0  0  0  0  0  0  0  0  0
    1.0900    0.7462   -0.4499 C   0  0  0  0  0  0  0  0  0  0  0  0
    2.0371    0.3889    1.0863 S   0  0  0  0  0  0  0  0  0  0  0  0
    0.2491   -1.4642    0.4619 H   0  0  0  0  0  0  0  0  0  0  0  0
   -0.7421    0.9860    0.6627 H   0  0  0  0  0  0  0  0  0  0  0  0
    1.4808    0.1473   -1.2792 H   0  0  0  0  0  0  0  0  0  0  0  0
    1.2162    1.8031   -0.7104 H   0  0  0  0  0  0  0  0  0  0  0  0
    3.2714    0.8175    0.7388 H   0  0  0  0  0  0  0  0  0  0  0  0
   -0.9526    0.5193   -2.6888 N   0  0  0  0  0  0  0  0  0  0  0  0
   -1.9116    0.6753   -3.7856 C   0  0  2  0  0  0  0  0  0  0  0  0
   -2.1781   -0.6883   -4.4589 C   0  0  0  0  0  0  0  0  0  0  0  0
   -1.4070   -1.6269   -4.2739 O   0  0  0  0  0  0  0  0  0  0  0  0
   -1.3388    1.6824   -4.7845 C   0  0  0  0  0  0  0  0  0  0  0  0
   -0.4533   -0.3696   -2.7000 H   0  0  0  0  0  0  0  0  0  0  0  0
   -2.8700    1.0466   -3.4062 H   0  0  0  0  0  0  0  0  0  0  0  0
   -0.3896    1.3203   -5.1922 H   0  0  0  0  0  0  0  0  0  0  0  0
   -2.0365    1.8417   -5.6119 H   0  0  0  0  0  0  0  0  0  0  0  0
   -1.1627    2.6433   -4.2901 H   0  0  0  0  0  0  0  0  0  0  0  0
   -3.2733   -0.8630   -5.2845 N   0  0  0  0  0  0  0  0  0  0  0  0
   -3.5923   -2.1296   -5.9317 C   0  0  0  0  0  0  0  0  0  0  0  0
   -3.9219   -0.0862   -5.3744 H   0  0  0  0  0  0  0  0  0  0  0  0
   -2.7703   -2.4435   -6.5836 H   0  0  0  0  0  0  0  0  0  0  0  0
   -3.7658   -2.9096   -5.1829 H   0  0  0  0  0  0  0  0  0  0  0  0
   -4.4958   -2.0269   -6.5406 H   0  0  0  0  0  0  0  0  0  0  0  0
  1  2  2  0  0  0  0
  1  3  1  0  0  0  0
  1  7  1  0  0  0  0
  3  4  1  0  0  0  0
  3  5  1  0  0  0  0
  3  6  1  0  0  0  0
  7  8  1  0  0  0  0
  7 12  1  0  0  0  0
  8  9  1  0  0  0  0
  8 11  1  0  0  0  0
  8 13  1  0  0  0  0
  9 10  2  0  0  0  0
  9 17  1  0  0  0  0
 11 14  1  0  0  0  0
 11 15  1  0  0  0  0
 11 16  1  0  0  0  0
 17 18  1  0  0  0  0
 17 23  1  0  0  0  0
 18 19  1  0  0  0  0
 18 21  1  0  0  0  0
 18 24  1  0  0  0  0
 19 20  2  0  0  0  0
 19 28  1  0  0  0  0
 21 22  1  0  0  0  0
 21 25  1  0  0  0  0
 21 26  1  0  0  0  0
 22 27  1  0  0  0  0
 28 29  1  0  0  0  0
 28 33  1  0  0  0  0
 29 30  1  0  0  0  0
 29 32  1  0  0  0  0
 29 34  1  0  0  0  0
 30 31  2  0  0  0  0
 30 38  1  0  0  0  0
 32 35  1  0  0  0  0
 32 36  1  0  0  0  0
 32 37  1  0  0  0  0
 38 39  1  0  0  0  0
 38 40  1  0  0  0  0
 39 41  1  0  0  0  0
 39 42  1  0  0  0  0
 39 43  1  0  0  0  0
M  END
$$$$

  -OEChem-05262216003D

 43 42  0     1  0  0  0  0  0999 V2000
   -3.1442   -5.0596    1.1239 C   0  0  0  0  0  0  0  0  0  0  0  0
   -2.2473   -5.5671    1.7787 O   0  0  0  0  0  0  0  0  0  0  0  0
   -4.5786   -5.5151    1.3156 C   0  0  0  0  0  0  0  0  0  0  0  0
   -4.9684   -5.9207    0.3788 H   0  0  0  0  0  0  0  0  0  0  0  0
   -4.6282   -6.2917    2.0841 H   0  0  0  0  0  0  0  0  0  0  0  0
   -5.2000   -4.6716    1.6264 H   0  0  0  0  0  0  0  0  0  0  0  0
   -2.8580   -4.0666    0.2115 N   0  0  0  0  0  0  0  0  0  0  0  0
   -1.5408   -3.4373    0.0546 C   0  0  2  0  0  0  0  0  0  0  0  0
   -1.6624   -1.9183   -0.1827 C   0  0  0  0  0  0  0  0  0  0  0  0
   -2.7264   -1.4482   -0.5657 O   0  0  0  0  0  0  0  0  0  0  0  0
   -0.8357   -4.1055   -1.1289 C   0  0  0  0  0  0  0  0  0  0  0  0
   -3.6473   -3.5866   -0.2198 H   0  0  0  0  0  0  0  0  0  0  0  0
   -0.9440   -3.5824    0.9616 H   0  0  0  0  0  0  0  0  0  0  0  0
   -1.4062   -3.9526   -2.0514 H   0  0  0  0  0  0  0  0  0  0  0  0
    0.1660   -3.6879   -1.2664 H   0  0  0  0  0  0  0  0  0  0  0  0
   -0.7401   -5.1818   -0.9535 H   0  0  0  0  0  0  0  0  0  0  0  0
   -0.5760   -1.0892    0.0469 N   0  0  0  0  0  0  0  0  0  0  0  0
   -0.4661    0.3536   -0.2597 C   0  0  2  0  0  0  0  0  0  0  0  0
   -1.2753    0.8674   -1.4713 C   0  0  0  0  0  0  0  0  0  0  0  0
   -1.7897    1.9782   -1.4457 O   0  0  0  0  0  0  0  0  0  0  0  0
    1.0139    0.6557   -0.5162 C   0  0  0  0  0  0  0  0  0  0  0  0
    1.9886    0.3827    1.0204 S   0  0  0  0  0  0  0  0  0  0  0  0
    0.2390   -1.5239    0.4743 H   0  0  0  0  0  0  0  0  0  0  0  0
   -0.8074    0.9238    0.6107 H   0  0  0  0  0  0  0  0  0  0  0  0
    1.3976    0.0258   -1.3258 H   0  0  0  0  0  0  0  0  0  0  0  0
    1.1224    1.7016   -0.8246 H   0  0  0  0  0  0  0  0  0  0  0  0
    3.2123    0.8069    0.6317 H   0  0  0  0  0  0  0  0  0  0  0  0
   -1.2646    0.1487   -2.6515 N   0  0  0  0  0  0  0  0  0  0  0  0
   -2.2207    0.3753   -3.7372 C   0  0  2  0  0  0  0  0  0  0  0  0
   -2.6602   -0.9690   -4.3561 C   0  0  0  0  0  0  0  0  0  0  0  0
   -2.0120   -1.9903   -4.1413 O   0  0  0  0  0  0  0  0  0  0  0  0
   -1.5610    1.2713   -4.7879 C   0  0  0  0  0  0  0  0  0  0  0  0
   -0.9535   -0.8176   -2.5576 H   0  0  0  0  0  0  0  0  0  0  0  0
   -3.1178    0.8691   -3.3481 H   0  0  0  0  0  0  0  0  0  0  0  0
   -0.6632    0.7910   -5.1898 H   0  0  0  0  0  0  0  0  0  0  0  0
   -2.2511    1.4694   -5.6134 H   0  0  0  0  0  0  0  0  0  0  0  0
   -1.2746    2.2283   -4.3404 H   0  0  0  0  0  0  0  0  0  0  0  0
   -3.7777   -1.0341   -5.1675 N   0  0  0  0  0  0  0  0  0  0  0  0
   -4.2553   -2.2700   -5.7752 C   0  0  0  0  0  0  0  0  0  0  0  0
   -4.3158   -0.1818   -5.2941 H   0  0  0  0  0  0  0  0  0  0  0  0
   -3.4846   -2.7030   -6.4215 H   0  0  0  0  0  0  0  0  0  0  0  0
   -4.5184   -3.0001   -5.0026 H   0  0  0  0  0  0  0  0  0  0  0  0
   -5.1436   -2.0735   -6.3830 H   0  0  0  0  0  0  0  0  0  0  0  0
  1  2  2  0  0  0  0
  1  3  1  0  0  0  0
  1  7  1  0  0  0  0
  3  4  1  0  0  0  0
  3  5  1  0  0  0  0
  3  6  1  0  0  0  0
  7  8  1  0  0  0  0
  7 12  1  0  0  0  0
  8  9  1  0  0  0  0
  8 11  1  0  0  0  0
  8 13  1  0  0  0  0
  9 10  2  0  0  0  0
  9 17  1  0  0  0  0
 11 14  1  0  0  0  0
 11 15  1  0  0  0  0
 11 16  1  0  0  0  0
 17 18  1  0  0  0  0
 17 23  1  0  0  0  0
 18 19  1  0  0  0  0
 18 21  1  0  0  0  0
 18 24  1  0  0  0  0
 19 20  2  0  0  0  0
 19 28  1  0  0  0  0
 21 22  1  0  0  0  0
 21 25  1  0  0  0  0
 21 26  1  0  0  0  0
 22 27  1  0  0  0  0
 28 29  1  0  0  0  0
 28 33  1  0  0  0  0
 29 30  1  0  0  0  0
 29 32  1  0  0  0  0
 29 34  1  0  0  0  0
 30 31  2  0  0  0  0
 30 38  1  0  0  0  0
 32 35  1  0  0  0  0
 32 36  1  0  0  0  0
 32 37  1  0  0  0  0
 38 39  1  0  0  0  0
 38 40  1  0  0  0  0
 39 41  1  0  0  0  0
 39 42  1  0  0  0  0
 39 43  1  0  0  0  0
M  END
$$$$

  -OEChem-05262216003D

 43 42  0     1  0  0  0  0  0999 V2000
   -3.0787   -5.1529    1.2801 C   0  0  0  0  0  0  0  0  0  0  0  0
   -2.1808   -5.6374    1.9509 O   0  0  0  0  0  0  0  0  0  0  0  0
   -4.4985   -5.6690    1.4202 C   0  0  0  0  0  0  0  0  0  0  0  0
   -4.8356   -6.0943    0.4717 H   0  0  0  0  0  0  0  0  0  0  0  0
   -4.5440   -6.4438    2.1907 H   0  0  0  0  0  0  0  0  0  0  0  0
   -5.1667   -4.8521    1.7032 H   0  0  0  0  0  0  0  0  0  0  0  0
   -2.8060   -4.1315    0.3957 N   0  0  0  0  0  0  0  0  0  0  0  0
   -1.5080   -3.4551    0.2806 C   0  0  2  0  0  0  0  0  0  0  0  0
   -1.6723   -1.9430    0.0234 C   0  0  0  0  0  0  0  0  0  0  0  0
   -2.7650   -1.4918   -0.2935 O   0  0  0  0  0  0  0  0  0  0  0  0
   -0.7386   -4.1080   -0.8715 C   0  0  0  0  0  0  0  0  0  0  0  0
   -3.6001   -3.6788   -0.0560 H   0  0  0  0  0  0  0  0  0  0  0  0
   -0.9402   -3.5703    1.2103 H   0  0  0  0  0  0  0  0  0  0  0  0
   -1.2846   -3.9868   -1.8134 H   0  0  0  0  0  0  0  0  0  0  0  0
    0.2509   -3.6547   -0.9815 H   0  0  0  0  0  0  0  0  0  0  0  0
   -0.6080   -5.1779   -0.6806 H   0  0  0  0  0  0  0  0  0  0  0  0
   -0.5871   -1.0912    0.1403 N   0  0  0  0  0  0  0  0  0  0  0  0
   -0.4922    0.3215   -0.2927 C   0  0  2  0  0  0  0  0  0  0  0  0
   -1.3292    0.7703   -1.5164 C   0  0  0  0  0  0  0  0  0  0  0  0
   -1.5847    1.9580   -1.6708 O   0  0  0  0  0  0  0  0  0  0  0  0
    0.9824    0.5789   -0.6249 C   0  0  0  0  0  0  0  0  0  0  0  0
    2.0087    0.4268    0.8952 S   0  0  0  0  0  0  0  0  0  0  0  0
    0.2642   -1.5024    0.5175 H   0  0  0  0  0  0  0  0  0  0  0  0
   -0.7966    0.9620    0.5419 H   0  0  0  0  0  0  0  0  0  0  0  0
    1.3283   -0.1236   -1.3906 H   0  0  0  0  0  0  0  0  0  0  0  0
    1.0954    1.5924   -1.0263 H   0  0  0  0  0  0  0  0  0  0  0  0
    3.2179    0.8185    0.4347 H   0  0  0  0  0  0  0  0  0  0  0  0
   -1.6334   -0.1173   -2.5310 N   0  0  0  0  0  0  0  0  0  0  0  0
   -2.5613    0.1734   -3.6263 C   0  0  2  0  0  0  0  0  0  0  0  0
   -3.2900   -1.1124   -4.0755 C   0  0  0  0  0  0  0  0  0  0  0  0
   -2.8422   -2.2165   -3.7773 O   0  0  0  0  0  0  0  0  0  0  0  0
   -1.7750    0.7827   -4.7906 C   0  0  0  0  0  0  0  0  0  0  0  0
   -1.5900   -1.0996   -2.2597 H   0  0  0  0  0  0  0  0  0  0  0  0
   -3.3209    0.8850   -3.2856 H   0  0  0  0  0  0  0  0  0  0  0  0
   -1.0154    0.0799   -5.1474 H   0  0  0  0  0  0  0  0  0  0  0  0
   -2.4449    1.0248   -5.6209 H   0  0  0  0  0  0  0  0  0  0  0  0
   -1.2759    1.7029   -4.4713 H   0  0  0  0  0  0  0  0  0  0  0  0
   -4.4490   -1.0347   -4.8258 N   0  0  0  0  0  0  0  0  0  0  0  0
   -5.1955   -2.2060   -5.2694 C   0  0  0  0  0  0  0  0  0  0  0  0
   -4.8158   -0.1097   -5.0297 H   0  0  0  0  0  0  0  0  0  0  0  0
   -4.5803   -2.8252   -5.9309 H   0  0  0  0  0  0  0  0  0  0  0  0
   -5.5072   -2.8100   -4.4106 H   0  0  0  0  0  0  0  0  0  0  0  0
   -6.0908   -1.8986   -5.8184 H   0  0  0  0  0  0  0  0  0  0  0  0
  1  2  2  0  0  0  0
  1  3  1  0  0  0  0
  1  7  1  0  0  0  0
  3  4  1  0  0  0  0
  3  5  1  0  0  0  0
  3  6  1  0  0  0  0
  7  8  1  0  0  0  0
  7 12  1  0  0  0  0
  8  9  1  0  0  0  0
  8 11  1  0  0  0  0
  8 13  1  0  0  0  0
  9 10  2  0  0  0  0
  9 17  1  0  0  0  0
 11 14  1  0  0  0  0
 11 15  1  0  0  0  0
 11 16  1  0  0  0  0
 17 18  1  0  0  0  0
 17 23  1  0  0  0  0
 18 19  1  0  0  0  0
 18 21  1  0  0  0  0
 18 24  1  0  0  0  0
 19 20  2  0  0  0  0
 19 28  1  0  0  0  0
 21 22  1  0  0  0  0
 21 25  1  0  0  0  0
 21 26  1  0  0  0  0
 22 27  1  0  0  0  0
 28 29  1  0  0  0  0
 28 33  1  0  0  0  0
 29 30  1  0  0  0  0
 29 32  1  0  0  0  0
 29 34  1  0  0  0  0
 30 31  2  0  0  0  0
 30 38  1  0  0  0  0
 32 35  1  0  0  0  0
 32 36  1  0  0  0  0
 32 37  1  0  0  0  0
 38 39  1  0  0  0  0
 38 40  1  0  0  0  0
 39 41  1  0  0  0  0
 39 42  1  0  0  0  0
 39 43  1  0  0  0  0
M  END
$$$$

  -OEChem-05262216003D

 43 42  0     1  0  0  0  0  0999 V2000
   -2.9531   -5.2843    1.3867 C   0  0  0  0  0  0  0  0  0  0  0  0
   -2.0608   -5.7577    2.0731 O   0  0  0  0  0  0  0  0  0  0  0  0
   -4.3582   -5.8508    1.4626 C   0  0  0  0  0  0  0  0  0  0  0  0
   -4.6436   -6.2687    0.4941 H   0  0  0  0  0  0  0  0  0  0  0  0
   -4.4066   -6.6411    2.2169 H   0  0  0  0  0  0  0  0  0  0  0  0
   -5.0645   -5.0618    1.7330 H   0  0  0  0  0  0  0  0  0  0  0  0
   -2.6882   -4.2261    0.5448 N   0  0  0  0  0  0  0  0  0  0  0  0
   -1.4165   -3.4927    0.5088 C   0  0  2  0  0  0  0  0  0  0  0  0
   -1.6343   -1.9968    0.1968 C   0  0  0  0  0  0  0  0  0  0  0  0
   -2.7609   -1.5777   -0.0311 O   0  0  0  0  0  0  0  0  0  0  0  0
   -0.5261   -4.1447   -0.5543 C   0  0  0  0  0  0  0  0  0  0  0  0
   -3.4857   -3.7850    0.0855 H   0  0  0  0  0  0  0  0  0  0  0  0
   -0.9217   -3.5541    1.4843 H   0  0  0  0  0  0  0  0  0  0  0  0
   -0.9963   -4.0769   -1.5410 H   0  0  0  0  0  0  0  0  0  0  0  0
    0.4502   -3.6531   -0.5977 H   0  0  0  0  0  0  0  0  0  0  0  0
   -0.3674   -5.2017   -0.3172 H   0  0  0  0  0  0  0  0  0  0  0  0
   -0.5684   -1.1152    0.1883 N   0  0  0  0  0  0  0  0  0  0  0  0
   -0.5224    0.2720   -0.3309 C   0  0  2  0  0  0  0  0  0  0  0  0
   -1.4262    0.6838   -1.5268 C   0  0  0  0  0  0  0  0  0  0  0  0
   -1.4622    1.8624   -1.8595 O   0  0  0  0  0  0  0  0  0  0  0  0
    0.9361    0.5057   -0.7500 C   0  0  0  0  0  0  0  0  0  0  0  0
    2.0367    0.4457    0.7243 S   0  0  0  0  0  0  0  0  0  0  0  0
    0.3199   -1.4977    0.5055 H   0  0  0  0  0  0  0  0  0  0  0  0
   -0.7793    0.9520    0.4878 H   0  0  0  0  0  0  0  0  0  0  0  0
    1.2429   -0.2430   -1.4878 H   0  0  0  0  0  0  0  0  0  0  0  0
    1.0346    1.4922   -1.2169 H   0  0  0  0  0  0  0  0  0  0  0  0
    3.2186    0.8130    0.1803 H   0  0  0  0  0  0  0  0  0  0  0  0
   -2.0572   -0.2404   -2.3375 N   0  0  0  0  0  0  0  0  0  0  0  0
   -2.9594    0.0961   -3.4435 C   0  0  2  0  0  0  0  0  0  0  0  0
   -3.9829   -1.0335   -3.6926 C   0  0  0  0  0  0  0  0  0  0  0  0
   -3.7673   -2.1726   -3.2898 O   0  0  0  0  0  0  0  0  0  0  0  0
   -2.1249    0.3411   -4.7050 C   0  0  0  0  0  0  0  0  0  0  0  0
   -2.2413   -1.1392   -1.8846 H   0  0  0  0  0  0  0  0  0  0  0  0
   -3.5208    1.0025   -3.1938 H   0  0  0  0  0  0  0  0  0  0  0  0
   -1.5575   -0.5578   -4.9668 H   0  0  0  0  0  0  0  0  0  0  0  0
   -2.7708    0.6044   -5.5480 H   0  0  0  0  0  0  0  0  0  0  0  0
   -1.4201    1.1627   -4.5433 H   0  0  0  0  0  0  0  0  0  0  0  0
   -5.1506   -0.7744   -4.3869 N   0  0  0  0  0  0  0  0  0  0  0  0
   -6.1658   -1.7869   -4.6500 C   0  0  0  0  0  0  0  0  0  0  0  0
   -5.3181    0.1817   -4.6862 H   0  0  0  0  0  0  0  0  0  0  0  0
   -5.7449   -2.6064   -5.2421 H   0  0  0  0  0  0  0  0  0  0  0  0
   -6.5541   -2.1941   -3.7104 H   0  0  0  0  0  0  0  0  0  0  0  0
   -6.9998   -1.3512   -5.2081 H   0  0  0  0  0  0  0  0  0  0  0  0
  1  2  2  0  0  0  0
  1  3  1  0  0  0  0
  1  7  1  0  0  0  0
  3  4  1  0  0  0  0
  3  5  1  0  0  0  0
  3  6  1  0  0  0  0
  7  8  1  0  0  0  0
  7 12  1  0  0  0  0
  8  9  1  0  0  0  0
  8 11  1  0  0  0  0
  8 13  1  0  0  0  0
  9 10  2  0  0  0  0
  9 17  1  0  0  0  0
 11 14  1  0  0  0  0
 11 15  1  0  0  0  0
 11 16  1  0  0  0  0
 17 18  1  0  0  0  0
 17 23  1  0  0  0  0
 18 19  1  0  0  0  0
 18 21  1  0  0  0  0
 18 24  1  0  0  0  0
 19 20  2  0  0  0  0
 19 28  1  0  0  0  0
 21 22  1  0  0  0  0
 21 25  1  0  0  0  0
 21 26  1  0  0  0  0
 22 27  1  0  0  0  0
 28 29  1  0  0  0  0
 28 33  1  0  0  0  0
 29 30  1  0  0  0  0
 29 32  1  0  0  0  0
 29 34  1  0  0  0  0
 30 31  2  0  0  0  0
 30 38  1  0  0  0  0
 32 35  1  0  0  0  0
 32 36  1  0  0  0  0
 32 37  1  0  0  0  0
 38 39  1  0  0  0  0
 38 40  1  0  0  0  0
 39 41  1  0  0  0  0
 39 42  1  0  0  0  0
 39 43  1  0  0  0  0
M  END
$$$$

  -OEChem-05262216003D

 43 42  0     1  0  0  0  0  0999 V2000
   -3.2733   -4.9367    0.4135 C   0  0  0  0  0  0  0  0  0  0  0  0
   -2.7381   -5.6778    1.2241 O   0  0  0  0  0  0  0  0  0  0  0  0
   -4.5985   -5.3192   -0.2171 C   0  0  0  0  0  0  0  0  0  0  0  0
   -4.5105   -5.3009   -1.3062 H   0  0  0  0  0  0  0  0  0  0  0  0
   -4.8921   -6.3239    0.0983 H   0  0  0  0  0  0  0  0  0  0  0  0
   -5.3725   -4.6105    0.0874 H   0  0  0  0  0  0  0  0  0  0  0  0
   -2.6765   -3.7461    0.0637 N   0  0  0  0  0  0  0  0  0  0  0  0
   -1.4943   -3.1831    0.7377 C   0  0  2  0  0  0  0  0  0  0  0  0
   -1.5088   -1.6394    0.6703 C   0  0  0  0  0  0  0  0  0  0  0  0
   -2.5747   -1.0448    0.7484 O   0  0  0  0  0  0  0  0  0  0  0  0
   -0.2406   -3.7901    0.0915 C   0  0  0  0  0  0  0  0  0  0  0  0
   -3.2425   -3.1256   -0.5259 H   0  0  0  0  0  0  0  0  0  0  0  0
   -1.5111   -3.4548    1.7992 H   0  0  0  0  0  0  0  0  0  0  0  0
   -0.1723   -3.5007   -0.9620 H   0  0  0  0  0  0  0  0  0  0  0  0
    0.6623   -3.4573    0.6117 H   0  0  0  0  0  0  0  0  0  0  0  0
   -0.2778   -4.8829    0.1474 H   0  0  0  0  0  0  0  0  0  0  0  0
   -0.3770   -0.8949    0.3842 N   0  0  0  0  0  0  0  0  0  0  0  0
   -0.3102    0.3602   -0.4094 C   0  0  2  0  0  0  0  0  0  0  0  0
   -1.3392    0.5952   -1.5594 C   0  0  0  0  0  0  0  0  0  0  0  0
   -1.2332    1.5809   -2.2783 O   0  0  0  0  0  0  0  0  0  0  0  0
    1.1010    0.3832   -1.0205 C   0  0  0  0  0  0  0  0  0  0  0  0
    2.3709    0.5176    0.3048 S   0  0  0  0  0  0  0  0  0  0  0  0
    0.4978   -1.4087    0.4513 H   0  0  0  0  0  0  0  0  0  0  0  0
   -0.4237    1.2061    0.2765 H   0  0  0  0  0  0  0  0  0  0  0  0
    1.2688   -0.5158   -1.6226 H   0  0  0  0  0  0  0  0  0  0  0  0
    1.2067    1.2496   -1.6829 H   0  0  0  0  0  0  0  0  0  0  0  0
    3.4953    0.6825   -0.4272 H   0  0  0  0  0  0  0  0  0  0  0  0
   -2.3171   -0.3260   -1.8744 N   0  0  0  0  0  0  0  0  0  0  0  0
   -3.3529   -0.2029   -2.9008 C   0  0  2  0  0  0  0  0  0  0  0  0
   -4.4861   -1.2173   -2.6206 C   0  0  0  0  0  0  0  0  0  0  0  0
   -4.2737   -2.2169   -1.9342 O   0  0  0  0  0  0  0  0  0  0  0  0
   -2.7449   -0.4680   -4.2832 C   0  0  0  0  0  0  0  0  0  0  0  0
   -2.5437   -0.9648   -1.1101 H   0  0  0  0  0  0  0  0  0  0  0  0
   -3.7758    0.8067   -2.8718 H   0  0  0  0  0  0  0  0  0  0  0  0
   -2.3026   -1.4686   -4.3199 H   0  0  0  0  0  0  0  0  0  0  0  0
   -3.5131   -0.3979   -5.0591 H   0  0  0  0  0  0  0  0  0  0  0  0
   -1.9645    0.2654   -4.5078 H   0  0  0  0  0  0  0  0  0  0  0  0
   -5.7508   -1.0150   -3.1405 N   0  0  0  0  0  0  0  0  0  0  0  0
   -6.8750   -1.9076   -2.8848 C   0  0  0  0  0  0  0  0  0  0  0  0
   -5.9095   -0.1653   -3.6747 H   0  0  0  0  0  0  0  0  0  0  0  0
   -6.6737   -2.9036   -3.2928 H   0  0  0  0  0  0  0  0  0  0  0  0
   -7.0570   -1.9974   -1.8085 H   0  0  0  0  0  0  0  0  0  0  0  0
   -7.7825   -1.5178   -3.3564 H   0  0  0  0  0  0  0  0  0  0  0  0
  1  2  2  0  0  0  0
  1  3  1  0  0  0  0
  1  7  1  0  0  0  0
  3  4  1  0  0  0  0
  3  5  1  0  0  0  0
  3  6  1  0  0  0  0
  7  8  1  0  0  0  0
  7 12  1  0  0  0  0
  8  9  1  0  0  0  0
  8 11  1  0  0  0  0
  8 13  1  0  0  0  0
  9 10  2  0  0  0  0
  9 17  1  0  0  0  0
 11 14  1  0  0  0  0
 11 15  1  0  0  0  0
 11 16  1  0  0  0  0
 17 18  1  0  0  0  0
 17 23  1  0  0  0  0
 18 19  1  0  0  0  0
 18 21  1  0  0  0  0
 18 24  1  0  0  0  0
 19 20  2  0  0  0  0
 19 28  1  0  0  0  0
 21 22  1  0  0  0  0
 21 25  1  0  0  0  0
 21 26  1  0  0  0  0
 22 27  1  0  0  0  0
 28 29  1  0  0  0  0
 28 33  1  0  0  0  0
 29 30  1  0  0  0  0
 29 32  1  0  0  0  0
 29 34  1  0  0  0  0
 30 31  2  0  0  0  0
 30 38  1  0  0  0  0
 32 35  1  0  0  0  0
 32 36  1  0  0  0  0
 32 37  1  0  0  0  0
 38 39  1  0  0  0  0
 38 40  1  0  0  0  0
 39 41  1  0  0  0  0
 39 42  1  0  0  0  0
 39 43  1  0  0  0  0
M  END
$$$$

  -OEChem-05262216003D

 43 42  0     1  0  0  0  0  0999 V2000
   -3.4292   -4.8827    0.4257 C   0  0  0  0  0  0  0  0  0  0  0  0
   -2.8451   -5.7215    1.0951 O   0  0  0  0  0  0  0  0  0  0  0  0
   -4.8403   -5.1416   -0.0667 C   0  0  0  0  0  0  0  0  0  0  0  0
   -4.8592   -5.1325   -1.1592 H   0  0  0  0  0  0  0  0  0  0  0  0
   -5.1933   -6.1137    0.2876 H   0  0  0  0  0  0  0  0  0  0  0  0
   -5.5115   -4.3636    0.3054 H   0  0  0  0  0  0  0  0  0  0  0  0
   -2.8088   -3.6953    0.1081 N   0  0  0  0  0  0  0  0  0  0  0  0
   -1.5277   -3.2511    0.6814 C   0  0  2  0  0  0  0  0  0  0  0  0
   -1.4732   -1.7097    0.7714 C   0  0  0  0  0  0  0  0  0  0  0  0
   -2.4818   -1.0852    1.0706 O   0  0  0  0  0  0  0  0  0  0  0  0
   -0.3939   -3.8317   -0.1757 C   0  0  0  0  0  0  0  0  0  0  0  0
   -3.4057   -2.9951   -0.3468 H   0  0  0  0  0  0  0  0  0  0  0  0
   -1.4283   -3.6321    1.7040 H   0  0  0  0  0  0  0  0  0  0  0  0
   -0.4434   -3.4381   -1.1960 H   0  0  0  0  0  0  0  0  0  0  0  0
    0.5818   -3.5856    0.2536 H   0  0  0  0  0  0  0  0  0  0  0  0
   -0.4763   -4.9223   -0.2215 H   0  0  0  0  0  0  0  0  0  0  0  0
   -0.3428   -0.9810    0.4452 N   0  0  0  0  0  0  0  0  0  0  0  0
   -0.2906    0.3138   -0.2834 C   0  0  2  0  0  0  0  0  0  0  0  0
   -1.3904    0.6416   -1.3470 C   0  0  0  0  0  0  0  0  0  0  0  0
   -1.1836    1.5063   -2.1892 O   0  0  0  0  0  0  0  0  0  0  0  0
    1.0906    0.3291   -0.9658 C   0  0  0  0  0  0  0  0  0  0  0  0
    2.4302    0.3601    0.2958 S   0  0  0  0  0  0  0  0  0  0  0  0
    0.5046   -1.5381    0.3769 H   0  0  0  0  0  0  0  0  0  0  0  0
   -0.3369    1.1221    0.4537 H   0  0  0  0  0  0  0  0  0  0  0  0
    1.1996   -0.5395   -1.6234 H   0  0  0  0  0  0  0  0  0  0  0  0
    1.1950    1.2267   -1.5846 H   0  0  0  0  0  0  0  0  0  0  0  0
    3.5190    0.5367   -0.4855 H   0  0  0  0  0  0  0  0  0  0  0  0
   -2.5747   -0.0599   -1.4481 N   0  0  0  0  0  0  0  0  0  0  0  0
   -3.5832   -0.0016   -2.5114 C   0  0  2  0  0  0  0  0  0  0  0  0
   -4.7643   -0.9342   -2.1598 C   0  0  0  0  0  0  0  0  0  0  0  0
   -4.5797   -1.9385   -1.4741 O   0  0  0  0  0  0  0  0  0  0  0  0
   -2.9857   -0.4576   -3.8507 C   0  0  0  0  0  0  0  0  0  0  0  0
   -2.8144   -0.6272   -0.6309 H   0  0  0  0  0  0  0  0  0  0  0  0
   -3.9552    1.0239   -2.6018 H   0  0  0  0  0  0  0  0  0  0  0  0
   -2.5539   -1.4589   -3.7538 H   0  0  0  0  0  0  0  0  0  0  0  0
   -3.7596   -0.4863   -4.6237 H   0  0  0  0  0  0  0  0  0  0  0  0
   -2.2018    0.2285   -4.1834 H   0  0  0  0  0  0  0  0  0  0  0  0
   -6.0336   -0.6718   -2.6395 N   0  0  0  0  0  0  0  0  0  0  0  0
   -7.1930   -1.4998   -2.3289 C   0  0  0  0  0  0  0  0  0  0  0  0
   -6.1662    0.1770   -3.1823 H   0  0  0  0  0  0  0  0  0  0  0  0
   -7.0390   -2.5243   -2.6840 H   0  0  0  0  0  0  0  0  0  0  0  0
   -7.3685   -1.5240   -1.2483 H   0  0  0  0  0  0  0  0  0  0  0  0
   -8.0866   -1.0969   -2.8151 H   0  0  0  0  0  0  0  0  0  0  0  0
  1  2  2  0  0  0  0
  1  3  1  0  0  0  0
  1  7  1  0  0  0  0
  3  4  1  0  0  0  0
  3  5  1  0  0  0  0
  3  6  1  0  0  0  0
  7  8  1  0  0  0  0
  7 12  1  0  0  0  0
  8  9  1  0  0  0  0
  8 11  1  0  0  0  0
  8 13  1  0  0  0  0
  9 10  2  0  0  0  0
  9 17  1  0  0  0  0
 11 14  1  0  0  0  0
 11 15  1  0  0  0  0
 11 16  1  0  0  0  0
 17 18  1  0  0  0  0
 17 23  1  0  0  0  0
 18 19  1  0  0  0  0
 18 21  1  0  0  0  0
 18 24  1  0  0  0  0
 19 20  2  0  0  0  0
 19 28  1  0  0  0  0
 21 22  1  0  0  0  0
 21 25  1  0  0  0  0
 21 26  1  0  0  0  0
 22 27  1  0  0  0  0
 28 29  1  0  0  0  0
 28 33  1  0  0  0  0
 29 30  1  0  0  0  0
 29 32  1  0  0  0  0
 29 34  1  0  0  0  0
 30 31  2  0  0  0  0
 30 38  1  0  0  0  0
 32 35  1  0  0  0  0
 32 36  1  0  0  0  0
 32 37  1  0  0  0  0
 38 39  1  0  0  0  0
 38 40  1  0  0  0  0
 39 41  1  0  0  0  0
 39 42  1  0  0  0  0
 39 43  1  0  0  0  0
M  END
$$$$

  -OEChem-05262216003D

 43 42  0     1  0  0  0  0  0999 V2000
   -3.1320   -5.2872    1.5588 C   0  0  0  0  0  0  0  0  0  0  0  0
   -2.1223   -5.8061    2.0065 O   0  0  0  0  0  0  0  0  0  0  0  0
   -4.5001   -5.7739    1.9969 C   0  0  0  0  0  0  0  0  0  0  0  0
   -5.0721   -6.1115    1.1292 H   0  0  0  0  0  0  0  0  0  0  0  0
   -4.3967   -6.6081    2.6966 H   0  0  0  0  0  0  0  0  0  0  0  0
   -5.0436   -4.9653    2.4915 H   0  0  0  0  0  0  0  0  0  0  0  0
   -3.0275   -4.2453    0.6610 N   0  0  0  0  0  0  0  0  0  0  0  0
   -1.7584   -3.6111    0.2785 C   0  0  2  0  0  0  0  0  0  0  0  0
   -1.9286   -2.1127   -0.0496 C   0  0  0  0  0  0  0  0  0  0  0  0
   -3.0557   -1.6593   -0.2241 O   0  0  0  0  0  0  0  0  0  0  0  0
   -1.1904   -4.3586   -0.9321 C   0  0  0  0  0  0  0  0  0  0  0  0
   -3.8874   -3.7662    0.3988 H   0  0  0  0  0  0  0  0  0  0  0  0
   -1.0493   -3.6830    1.1108 H   0  0  0  0  0  0  0  0  0  0  0  0
   -1.8804   -4.2967   -1.7797 H   0  0  0  0  0  0  0  0  0  0  0  0
   -0.2288   -3.9317   -1.2327 H   0  0  0  0  0  0  0  0  0  0  0  0
   -1.0349   -5.4141   -0.6866 H   0  0  0  0  0  0  0  0  0  0  0  0
   -0.8149   -1.2887   -0.0335 N   0  0  0  0  0  0  0  0  0  0  0  0
   -0.6008    0.1046   -0.5034 C   0  0  2  0  0  0  0  0  0  0  0  0
   -1.3974    0.6909   -1.7121 C   0  0  0  0  0  0  0  0  0  0  0  0
   -0.9278    1.6195   -2.3559 O   0  0  0  0  0  0  0  0  0  0  0  0
    0.9107    0.1607   -0.8002 C   0  0  0  0  0  0  0  0  0  0  0  0
    1.8672   -0.0661    0.7562 S   0  0  0  0  0  0  0  0  0  0  0  0
    0.0332   -1.7471    0.2963 H   0  0  0  0  0  0  0  0  0  0  0  0
   -0.8212    0.7771    0.3318 H   0  0  0  0  0  0  0  0  0  0  0  0
    1.1837   -0.6013   -1.5377 H   0  0  0  0  0  0  0  0  0  0  0  0
    1.1830    1.1365   -1.2170 H   0  0  0  0  0  0  0  0  0  0  0  0
    3.1245    0.1802    0.3224 H   0  0  0  0  0  0  0  0  0  0  0  0
   -2.6729    0.2898   -2.0418 N   0  0  0  0  0  0  0  0  0  0  0  0
   -3.5713    0.9232   -3.0170 C   0  0  2  0  0  0  0  0  0  0  0  0
   -5.0593    0.7538   -2.6315 C   0  0  0  0  0  0  0  0  0  0  0  0
   -5.9349    1.2316   -3.3403 O   0  0  0  0  0  0  0  0  0  0  0  0
   -3.2877    0.3166   -4.3953 C   0  0  0  0  0  0  0  0  0  0  0  0
   -3.0289   -0.5015   -1.5115 H   0  0  0  0  0  0  0  0  0  0  0  0
   -3.3760    2.0007   -3.0538 H   0  0  0  0  0  0  0  0  0  0  0  0
   -3.4998   -0.7566   -4.3944 H   0  0  0  0  0  0  0  0  0  0  0  0
   -3.9121    0.7946   -5.1567 H   0  0  0  0  0  0  0  0  0  0  0  0
   -2.2388    0.4673   -4.6685 H   0  0  0  0  0  0  0  0  0  0  0  0
   -5.4335    0.0184   -1.5167 N   0  0  0  0  0  0  0  0  0  0  0  0
   -6.8208   -0.1909   -1.1235 C   0  0  0  0  0  0  0  0  0  0  0  0
   -4.6950   -0.3748   -0.9352 H   0  0  0  0  0  0  0  0  0  0  0  0
   -7.3726   -0.6999   -1.9207 H   0  0  0  0  0  0  0  0  0  0  0  0
   -6.8681   -0.8087   -0.2216 H   0  0  0  0  0  0  0  0  0  0  0  0
   -7.3083    0.7667   -0.9129 H   0  0  0  0  0  0  0  0  0  0  0  0
  1  2  2  0  0  0  0
  1  3  1  0  0  0  0
  1  7  1  0  0  0  0
  3  4  1  0  0  0  0
  3  5  1  0  0  0  0
  3  6  1  0  0  0  0
  7  8  1  0  0  0  0
  7 12  1  0  0  0  0
  8  9  1  0  0  0  0
  8 11  1  0  0  0  0
  8 13  1  0  0  0  0
  9 10  2  0  0  0  0
  9 17  1  0  0  0  0
 11 14  1  0  0  0  0
 11 15  1  0  0  0  0
 11 16  1  0  0  0  0
 17 18  1  0  0  0  0
 17 23  1  0  0  0  0
 18 19  1  0  0  0  0
 18 21  1  0  0  0  0
 18 24  1  0  0  0  0
 19 20  2  0  0  0  0
 19 28  1  0  0  0  0
 21 22  1  0  0  0  0
 21 25  1  0  0  0  0
 21 26  1  0  0  0  0
 22 27  1  0  0  0  0
 28 29  1  0  0  0  0
 28 33  1  0  0  0  0
 29 30  1  0  0  0  0
 29 32  1  0  0  0  0
 29 34  1  0  0  0  0
 30 31  2  0  0  0  0
 30 38  1  0  0  0  0
 32 35  1  0  0  0  0
 32 36  1  0  0  0  0
 32 37  1  0  0  0  0
 38 39  1  0  0  0  0
 38 40  1  0  0  0  0
 39 41  1  0  0  0  0
 39 42  1  0  0  0  0
 39 43  1  0  0  0  0
M  END
$$$$

  -OEChem-05262216003D

 43 42  0     1  0  0  0  0  0999 V2000
   -2.3759   -5.7328    1.4232 C   0  0  0  0  0  0  0  0  0  0  0  0
   -1.2926   -6.1753    1.7724 O   0  0  0  0  0  0  0  0  0  0  0  0
   -3.6582   -6.4015    1.8815 C   0  0  0  0  0  0  0  0  0  0  0  0
   -4.2247   -6.7548    1.0163 H   0  0  0  0  0  0  0  0  0  0  0  0
   -3.4290   -7.2552    2.5255 H   0  0  0  0  0  0  0  0  0  0  0  0
   -4.2698   -5.6909    2.4432 H   0  0  0  0  0  0  0  0  0  0  0  0
   -2.4357   -4.6158    0.6174 N   0  0  0  0  0  0  0  0  0  0  0  0
   -1.2728   -3.7959    0.2533 C   0  0  2  0  0  0  0  0  0  0  0  0
   -1.6579   -2.3137    0.0584 C   0  0  0  0  0  0  0  0  0  0  0  0
   -2.8389   -2.0101   -0.0145 O   0  0  0  0  0  0  0  0  0  0  0  0
   -0.6614   -4.3660   -1.0303 C   0  0  0  0  0  0  0  0  0  0  0  0
   -3.3549   -4.2028    0.4581 H   0  0  0  0  0  0  0  0  0  0  0  0
   -0.5291   -3.8371    1.0569 H   0  0  0  0  0  0  0  0  0  0  0  0
   -1.3885   -4.3327   -1.8479 H   0  0  0  0  0  0  0  0  0  0  0  0
    0.2223   -3.7923   -1.3252 H   0  0  0  0  0  0  0  0  0  0  0  0
   -0.3596   -5.4069   -0.8756 H   0  0  0  0  0  0  0  0  0  0  0  0
   -0.6709   -1.3443    0.0826 N   0  0  0  0  0  0  0  0  0  0  0  0
   -0.7167    0.1098   -0.2083 C   0  0  2  0  0  0  0  0  0  0  0  0
   -1.7347    0.6960   -1.2413 C   0  0  0  0  0  0  0  0  0  0  0  0
   -1.3591    1.5322   -2.0567 O   0  0  0  0  0  0  0  0  0  0  0  0
    0.7310    0.4583   -0.6092 C   0  0  0  0  0  0  0  0  0  0  0  0
    1.8644    0.2094    0.8207 S   0  0  0  0  0  0  0  0  0  0  0  0
    0.2580   -1.7001    0.2989 H   0  0  0  0  0  0  0  0  0  0  0  0
   -0.9489    0.6244    0.7294 H   0  0  0  0  0  0  0  0  0  0  0  0
    1.0453   -0.1479   -1.4653 H   0  0  0  0  0  0  0  0  0  0  0  0
    0.7994    1.5110   -0.9042 H   0  0  0  0  0  0  0  0  0  0  0  0
    3.0217    0.6932    0.3161 H   0  0  0  0  0  0  0  0  0  0  0  0
   -3.0691    0.3473   -1.2980 N   0  0  0  0  0  0  0  0  0  0  0  0
   -4.0588    0.8785   -2.2456 C   0  0  2  0  0  0  0  0  0  0  0  0
   -5.4747    0.9799   -1.6376 C   0  0  0  0  0  0  0  0  0  0  0  0
   -5.8018    0.2911   -0.6790 O   0  0  0  0  0  0  0  0  0  0  0  0
   -4.0717   -0.0372   -3.4728 C   0  0  0  0  0  0  0  0  0  0  0  0
   -3.3783   -0.3915   -0.6565 H   0  0  0  0  0  0  0  0  0  0  0  0
   -3.7705    1.8890   -2.5529 H   0  0  0  0  0  0  0  0  0  0  0  0
   -4.3654   -1.0523   -3.1863 H   0  0  0  0  0  0  0  0  0  0  0  0
   -4.7781    0.3328   -4.2218 H   0  0  0  0  0  0  0  0  0  0  0  0
   -3.0767   -0.0775   -3.9270 H   0  0  0  0  0  0  0  0  0  0  0  0
   -6.4037    1.8460   -2.1866 N   0  0  0  0  0  0  0  0  0  0  0  0
   -7.7602    1.9950   -1.6735 C   0  0  0  0  0  0  0  0  0  0  0  0
   -6.1077    2.4176   -2.9721 H   0  0  0  0  0  0  0  0  0  0  0  0
   -8.3080    1.0509   -1.7617 H   0  0  0  0  0  0  0  0  0  0  0  0
   -7.7412    2.2946   -0.6202 H   0  0  0  0  0  0  0  0  0  0  0  0
   -8.2975    2.7614   -2.2403 H   0  0  0  0  0  0  0  0  0  0  0  0
  1  2  2  0  0  0  0
  1  3  1  0  0  0  0
  1  7  1  0  0  0  0
  3  4  1  0  0  0  0
  3  5  1  0  0  0  0
  3  6  1  0  0  0  0
  7  8  1  0  0  0  0
  7 12  1  0  0  0  0
  8  9  1  0  0  0  0
  8 11  1  0  0  0  0
  8 13  1  0  0  0  0
  9 10  2  0  0  0  0
  9 17  1  0  0  0  0
 11 14  1  0  0  0  0
 11 15  1  0  0  0  0
 11 16  1  0  0  0  0
 17 18  1  0  0  0  0
 17 23  1  0  0  0  0
 18 19  1  0  0  0  0
 18 21  1  0  0  0  0
 18 24  1  0  0  0  0
 19 20  2  0  0  0  0
 19 28  1  0  0  0  0
 21 22  1  0  0  0  0
 21 25  1  0  0  0  0
 21 26  1  0  0  0  0
 22 27  1  0  0  0  0
 28 29  1  0  0  0  0
 28 33  1  0  0  0  0
 29 30  1  0  0  0  0
 29 32  1  0  0  0  0
 29 34  1  0  0  0  0
 30 31  2  0  0  0  0
 30 38  1  0  0  0  0
 32 35  1  0  0  0  0
 32 36  1  0  0  0  0
 32 37  1  0  0  0  0
 38 39  1  0  0  0  0
 38 40  1  0  0  0  0
 39 41  1  0  0  0  0
 39 42  1  0  0  0  0
 39 43  1  0  0  0  0
M  END
$$$$

  -OEChem-05262216003D

 43 42  0     1  0  0  0  0  0999 V2000
   -2.6204   -5.6184    1.2684 C   0  0  0  0  0  0  0  0  0  0  0  0
   -1.5719   -6.1519    1.5952 O   0  0  0  0  0  0  0  0  0  0  0  0
   -3.9474   -6.2221    1.6880 C   0  0  0  0  0  0  0  0  0  0  0  0
   -4.5417   -6.4673    0.8043 H   0  0  0  0  0  0  0  0  0  0  0  0
   -3.7798   -7.1360    2.2649 H   0  0  0  0  0  0  0  0  0  0  0  0
   -4.5024   -5.5122    2.3062 H   0  0  0  0  0  0  0  0  0  0  0  0
   -2.5993   -4.4611    0.5199 N   0  0  0  0  0  0  0  0  0  0  0  0
   -1.3809   -3.7109    0.1874 C   0  0  2  0  0  0  0  0  0  0  0  0
   -1.6650   -2.2005    0.0395 C   0  0  0  0  0  0  0  0  0  0  0  0
   -2.8235   -1.8130   -0.0042 O   0  0  0  0  0  0  0  0  0  0  0  0
   -0.8033   -4.2766   -1.1139 C   0  0  0  0  0  0  0  0  0  0  0  0
   -3.4871   -3.9786    0.3799 H   0  0  0  0  0  0  0  0  0  0  0  0
   -0.6459   -3.8290    0.9913 H   0  0  0  0  0  0  0  0  0  0  0  0
   -1.5222   -4.1636   -1.9320 H   0  0  0  0  0  0  0  0  0  0  0  0
    0.1195   -3.7552   -1.3855 H   0  0  0  0  0  0  0  0  0  0  0  0
   -0.5744   -5.3407   -0.9960 H   0  0  0  0  0  0  0  0  0  0  0  0
   -0.6141   -1.2999    0.0488 N   0  0  0  0  0  0  0  0  0  0  0  0
   -0.5975    0.1601   -0.2062 C   0  0  2  0  0  0  0  0  0  0  0  0
   -1.6393    0.7881   -1.1840 C   0  0  0  0  0  0  0  0  0  0  0  0
   -1.2652    1.4353   -2.1572 O   0  0  0  0  0  0  0  0  0  0  0  0
    0.8378    0.4605   -0.6766 C   0  0  0  0  0  0  0  0  0  0  0  0
    2.0356    0.1270    0.6811 S   0  0  0  0  0  0  0  0  0  0  0  0
    0.2997   -1.7137    0.2216 H   0  0  0  0  0  0  0  0  0  0  0  0
   -0.7624    0.6690    0.7488 H   0  0  0  0  0  0  0  0  0  0  0  0
    1.0793   -0.1369   -1.5624 H   0  0  0  0  0  0  0  0  0  0  0  0
    0.9267    1.5167   -0.9539 H   0  0  0  0  0  0  0  0  0  0  0  0
    3.1899    0.5404    0.1107 H   0  0  0  0  0  0  0  0  0  0  0  0
   -3.0004    0.7034   -0.9722 N   0  0  0  0  0  0  0  0  0  0  0  0
   -4.0358    1.2329   -1.8689 C   0  0  2  0  0  0  0  0  0  0  0  0
   -5.3624    1.5235   -1.1339 C   0  0  0  0  0  0  0  0  0  0  0  0
   -5.6063    1.0195   -0.0439 O   0  0  0  0  0  0  0  0  0  0  0  0
   -4.2652    0.2132   -2.9896 C   0  0  0  0  0  0  0  0  0  0  0  0
   -3.2994    0.0130   -0.2749 H   0  0  0  0  0  0  0  0  0  0  0  0
   -3.6928    2.1777   -2.3029 H   0  0  0  0  0  0  0  0  0  0  0  0
   -4.5933   -0.7442   -2.5711 H   0  0  0  0  0  0  0  0  0  0  0  0
   -5.0298    0.5710   -3.6853 H   0  0  0  0  0  0  0  0  0  0  0  0
   -3.3398    0.0490   -3.5506 H   0  0  0  0  0  0  0  0  0  0  0  0
   -6.3021    2.3615   -1.7072 N   0  0  0  0  0  0  0  0  0  0  0  0
   -7.5732    2.6914   -1.0734 C   0  0  0  0  0  0  0  0  0  0  0  0
   -6.0738    2.7813   -2.6033 H   0  0  0  0  0  0  0  0  0  0  0  0
   -8.1638    1.7847   -0.9039 H   0  0  0  0  0  0  0  0  0  0  0  0
   -7.4046    3.1864   -0.1110 H   0  0  0  0  0  0  0  0  0  0  0  0
   -8.1513    3.3656   -1.7127 H   0  0  0  0  0  0  0  0  0  0  0  0
  1  2  2  0  0  0  0
  1  3  1  0  0  0  0
  1  7  1  0  0  0  0
  3  4  1  0  0  0  0
  3  5  1  0  0  0  0
  3  6  1  0  0  0  0
  7  8  1  0  0  0  0
  7 12  1  0  0  0  0
  8  9  1  0  0  0  0
  8 11  1  0  0  0  0
  8 13  1  0  0  0  0
  9 10  2  0  0  0  0
  9 17  1  0  0  0  0
 11 14  1  0  0  0  0
 11 15  1  0  0  0  0
 11 16  1  0  0  0  0
 17 18  1  0  0  0  0
 17 23  1  0  0  0  0
 18 19  1  0  0  0  0
 18 21  1  0  0  0  0
 18 24  1  0  0  0  0
 19 20  2  0  0  0  0
 19 28  1  0  0  0  0
 21 22  1  0  0  0  0
 21 25  1  0  0  0  0
 21 26  1  0  0  0  0
 22 27  1  0  0  0  0
 28 29  1  0  0  0  0
 28 33  1  0  0  0  0
 29 30  1  0  0  0  0
 29 32  1  0  0  0  0
 29 34  1  0  0  0  0
 30 31  2  0  0  0  0
 30 38  1  0  0  0  0
 32 35  1  0  0  0  0
 32 36  1  0  0  0  0
 32 37  1  0  0  0  0
 38 39  1  0  0  0  0
 38 40  1  0  0  0  0
 39 41  1  0  0  0  0
 39 42  1  0  0  0  0
 39 43  1  0  0  0  0
M  END
$$$$

  -OEChem-05262216003D

 43 42  0     1  0  0  0  0  0999 V2000
   -2.8134   -5.4914    1.1779 C   0  0  0  0  0  0  0  0  0  0  0  0
   -1.7940   -6.0775    1.5063 O   0  0  0  0  0  0  0  0  0  0  0  0
   -4.1705   -6.0368    1.5815 C   0  0  0  0  0  0  0  0  0  0  0  0
   -4.7634   -6.2590    0.6908 H   0  0  0  0  0  0  0  0  0  0  0  0
   -4.0499   -6.9554    2.1629 H   0  0  0  0  0  0  0  0  0  0  0  0
   -4.7022   -5.3018    2.1908 H   0  0  0  0  0  0  0  0  0  0  0  0
   -2.7316   -4.3259    0.4459 N   0  0  0  0  0  0  0  0  0  0  0  0
   -1.4757   -3.6323    0.1309 C   0  0  2  0  0  0  0  0  0  0  0  0
   -1.6802   -2.1075    0.0020 C   0  0  0  0  0  0  0  0  0  0  0  0
   -2.8154   -1.6529   -0.0490 O   0  0  0  0  0  0  0  0  0  0  0  0
   -0.9152   -4.2105   -1.1722 C   0  0  0  0  0  0  0  0  0  0  0  0
   -3.5942   -3.8010    0.3033 H   0  0  0  0  0  0  0  0  0  0  0  0
   -0.7544   -3.7969    0.9388 H   0  0  0  0  0  0  0  0  0  0  0  0
   -1.6234   -4.0603   -1.9932 H   0  0  0  0  0  0  0  0  0  0  0  0
    0.0304   -3.7265   -1.4338 H   0  0  0  0  0  0  0  0  0  0  0  0
   -0.7323   -5.2841   -1.0621 H   0  0  0  0  0  0  0  0  0  0  0  0
   -0.5852   -1.2620    0.0386 N   0  0  0  0  0  0  0  0  0  0  0  0
   -0.5259    0.1973   -0.1962 C   0  0  2  0  0  0  0  0  0  0  0  0
   -1.5572    0.8252   -1.1776 C   0  0  0  0  0  0  0  0  0  0  0  0
   -1.1989    1.2726   -2.2628 O   0  0  0  0  0  0  0  0  0  0  0  0
    0.9098    0.4829   -0.6689 C   0  0  0  0  0  0  0  0  0  0  0  0
    2.1068    0.1066    0.6784 S   0  0  0  0  0  0  0  0  0  0  0  0
    0.3119   -1.7167    0.1940 H   0  0  0  0  0  0  0  0  0  0  0  0
   -0.6812    0.7055    0.7607 H   0  0  0  0  0  0  0  0  0  0  0  0
    1.1389   -0.1066   -1.5632 H   0  0  0  0  0  0  0  0  0  0  0  0
    1.0075    1.5413   -0.9349 H   0  0  0  0  0  0  0  0  0  0  0  0
    3.2666    0.5135    0.1153 H   0  0  0  0  0  0  0  0  0  0  0  0
   -2.8736    1.0046   -0.8036 N   0  0  0  0  0  0  0  0  0  0  0  0
   -3.9229    1.5716   -1.6596 C   0  0  2  0  0  0  0  0  0  0  0  0
   -5.1192    2.1060   -0.8424 C   0  0  0  0  0  0  0  0  0  0  0  0
   -5.2806    1.7802    0.3281 O   0  0  0  0  0  0  0  0  0  0  0  0
   -4.3941    0.4854   -2.6334 C   0  0  0  0  0  0  0  0  0  0  0  0
   -3.1863    0.4255   -0.0197 H   0  0  0  0  0  0  0  0  0  0  0  0
   -3.5129    2.4139   -2.2262 H   0  0  0  0  0  0  0  0  0  0  0  0
   -4.7839   -0.3764   -2.0820 H   0  0  0  0  0  0  0  0  0  0  0  0
   -5.1837    0.8690   -3.2860 H   0  0  0  0  0  0  0  0  0  0  0  0
   -3.5635    0.1487   -3.2613 H   0  0  0  0  0  0  0  0  0  0  0  0
   -6.0331    2.9626   -1.4296 N   0  0  0  0  0  0  0  0  0  0  0  0
   -7.1769    3.5212   -0.7186 C   0  0  0  0  0  0  0  0  0  0  0  0
   -5.8681    3.2383   -2.3930 H   0  0  0  0  0  0  0  0  0  0  0  0
   -7.7895    2.7217   -0.2882 H   0  0  0  0  0  0  0  0  0  0  0  0
   -6.8401    4.1799    0.0887 H   0  0  0  0  0  0  0  0  0  0  0  0
   -7.8022    4.1023   -1.4033 H   0  0  0  0  0  0  0  0  0  0  0  0
  1  2  2  0  0  0  0
  1  3  1  0  0  0  0
  1  7  1  0  0  0  0
  3  4  1  0  0  0  0
  3  5  1  0  0  0  0
  3  6  1  0  0  0  0
  7  8  1  0  0  0  0
  7 12  1  0  0  0  0
  8  9  1  0  0  0  0
  8 11  1  0  0  0  0
  8 13  1  0  0  0  0
  9 10  2  0  0  0  0
  9 17  1  0  0  0  0
 11 14  1  0  0  0  0
 11 15  1  0  0  0  0
 11 16  1  0  0  0  0
 17 18  1  0  0  0  0
 17 23  1  0  0  0  0
 18 19  1  0  0  0  0
 18 21  1  0  0  0  0
 18 24  1  0  0  0  0
 19 20  2  0  0  0  0
 19 28  1  0  0  0  0
 21 22  1  0  0  0  0
 21 25  1  0  0  0  0
 21 26  1  0  0  0  0
 22 27  1  0  0  0  0
 28 29  1  0  0  0  0
 28 33  1  0  0  0  0
 29 30  1  0  0  0  0
 29 32  1  0  0  0  0
 29 34  1  0  0  0  0
 30 31  2  0  0  0  0
 30 38  1  0  0  0  0
 32 35  1  0  0  0  0
 32 36  1  0  0  0  0
 32 37  1  0  0  0  0
 38 39  1  0  0  0  0
 38 40  1  0  0  0  0
 39 41  1  0  0  0  0
 39 42  1  0  0  0  0
 39 43  1  0  0  0  0
M  END
$$$$

  -OEChem-05262216003D

 43 42  0     1  0  0  0  0  0999 V2000
   -2.9850   -5.3583    1.0985 C   0  0  0  0  0  0  0  0  0  0  0  0
   -2.0027   -6.0016    1.4333 O   0  0  0  0  0  0  0  0  0  0  0  0
   -4.3752   -5.8346    1.4754 C   0  0  0  0  0  0  0  0  0  0  0  0
   -4.9605   -6.0270    0.5727 H   0  0  0  0  0  0  0  0  0  0  0  0
   -4.3125   -6.7577    2.0589 H   0  0  0  0  0  0  0  0  0  0  0  0
   -4.8815   -5.0730    2.0738 H   0  0  0  0  0  0  0  0  0  0  0  0
   -2.8329   -4.1901    0.3829 N   0  0  0  0  0  0  0  0  0  0  0  0
   -1.5400   -3.5523    0.1033 C   0  0  2  0  0  0  0  0  0  0  0  0
   -1.6698   -2.0164    0.0185 C   0  0  0  0  0  0  0  0  0  0  0  0
   -2.7809   -1.5014   -0.0101 O   0  0  0  0  0  0  0  0  0  0  0  0
   -0.9940   -4.1190   -1.2112 C   0  0  0  0  0  0  0  0  0  0  0  0
   -3.6649   -3.6183    0.2396 H   0  0  0  0  0  0  0  0  0  0  0  0
   -0.8369   -3.7767    0.9128 H   0  0  0  0  0  0  0  0  0  0  0  0
   -1.6770   -3.8960   -2.0373 H   0  0  0  0  0  0  0  0  0  0  0  0
   -0.0160   -3.6860   -1.4413 H   0  0  0  0  0  0  0  0  0  0  0  0
   -0.8798   -5.2053   -1.1370 H   0  0  0  0  0  0  0  0  0  0  0  0
   -0.5369   -1.2232    0.0614 N   0  0  0  0  0  0  0  0  0  0  0  0
   -0.4465    0.2315   -0.1764 C   0  0  2  0  0  0  0  0  0  0  0  0
   -1.4767    0.8448   -1.1623 C   0  0  0  0  0  0  0  0  0  0  0  0
   -1.1842    1.0308   -2.3396 O   0  0  0  0  0  0  0  0  0  0  0  0
    0.9812    0.4994   -0.6768 C   0  0  0  0  0  0  0  0  0  0  0  0
    2.2007    0.1063    0.6443 S   0  0  0  0  0  0  0  0  0  0  0  0
    0.3468   -1.7136    0.1773 H   0  0  0  0  0  0  0  0  0  0  0  0
   -0.5827    0.7503    0.7776 H   0  0  0  0  0  0  0  0  0  0  0  0
    1.1859   -0.0965   -1.5732 H   0  0  0  0  0  0  0  0  0  0  0  0
    1.0823    1.5554   -0.9501 H   0  0  0  0  0  0  0  0  0  0  0  0
    3.3528    0.4921    0.0517 H   0  0  0  0  0  0  0  0  0  0  0  0
   -2.6898    1.3145   -0.6988 N   0  0  0  0  0  0  0  0  0  0  0  0
   -3.7486    1.8779   -1.5445 C   0  0  2  0  0  0  0  0  0  0  0  0
   -4.7622    2.7083   -0.7279 C   0  0  0  0  0  0  0  0  0  0  0  0
   -4.8067    2.6198    0.4942 O   0  0  0  0  0  0  0  0  0  0  0  0
   -4.4669    0.7257   -2.2574 C   0  0  0  0  0  0  0  0  0  0  0  0
   -2.9712    0.9919    0.2276 H   0  0  0  0  0  0  0  0  0  0  0  0
   -3.3020    2.5443   -2.2894 H   0  0  0  0  0  0  0  0  0  0  0  0
   -4.8855    0.0277   -1.5249 H   0  0  0  0  0  0  0  0  0  0  0  0
   -5.2805    1.1048   -2.8828 H   0  0  0  0  0  0  0  0  0  0  0  0
   -3.7685    0.1779   -2.8977 H   0  0  0  0  0  0  0  0  0  0  0  0
   -5.6391    3.5633   -1.3711 N   0  0  0  0  0  0  0  0  0  0  0  0
   -6.6302    4.3697   -0.6687 C   0  0  0  0  0  0  0  0  0  0  0  0
   -5.5807    3.6237   -2.3834 H   0  0  0  0  0  0  0  0  0  0  0  0
   -7.2950    3.7302   -0.0783 H   0  0  0  0  0  0  0  0  0  0  0  0
   -6.1390    5.0821    0.0025 H   0  0  0  0  0  0  0  0  0  0  0  0
   -7.2381    4.9312   -1.3847 H   0  0  0  0  0  0  0  0  0  0  0  0
  1  2  2  0  0  0  0
  1  3  1  0  0  0  0
  1  7  1  0  0  0  0
  3  4  1  0  0  0  0
  3  5  1  0  0  0  0
  3  6  1  0  0  0  0
  7  8  1  0  0  0  0
  7 12  1  0  0  0  0
  8  9  1  0  0  0  0
  8 11  1  0  0  0  0
  8 13  1  0  0  0  0
  9 10  2  0  0  0  0
  9 17  1  0  0  0  0
 11 14  1  0  0  0  0
 11 15  1  0  0  0  0
 11 16  1  0  0  0  0
 17 18  1  0  0  0  0
 17 23  1  0  0  0  0
 18 19  1  0  0  0  0
 18 21  1  0  0  0  0
 18 24  1  0  0  0  0
 19 20  2  0  0  0  0
 19 28  1  0  0  0  0
 21 22  1  0  0  0  0
 21 25  1  0  0  0  0
 21 26  1  0  0  0  0
 22 27  1  0  0  0  0
 28 29  1  0  0  0  0
 28 33  1  0  0  0  0
 29 30  1  0  0  0  0
 29 32  1  0  0  0  0
 29 34  1  0  0  0  0
 30 31  2  0  0  0  0
 30 38  1  0  0  0  0
 32 35  1  0  0  0  0
 32 36  1  0  0  0  0
 32 37  1  0  0  0  0
 38 39  1  0  0  0  0
 38 40  1  0  0  0  0
 39 41  1  0  0  0  0
 39 42  1  0  0  0  0
 39 43  1  0  0  0  0
M  END
$$$$

  -OEChem-05262216003D

 43 42  0     1  0  0  0  0  0999 V2000
   -3.0901   -5.2737    1.0395 C   0  0  0  0  0  0  0  0  0  0  0  0
   -2.1291   -5.9538    1.3630 O   0  0  0  0  0  0  0  0  0  0  0  0
   -4.4950   -5.7142    1.4054 C   0  0  0  0  0  0  0  0  0  0  0  0
   -5.0854   -5.8671    0.4987 H   0  0  0  0  0  0  0  0  0  0  0  0
   -4.4626   -6.6518    1.9675 H   0  0  0  0  0  0  0  0  0  0  0  0
   -4.9767   -4.9507    2.0213 H   0  0  0  0  0  0  0  0  0  0  0  0
   -2.9005   -4.0959    0.3488 N   0  0  0  0  0  0  0  0  0  0  0  0
   -1.5878   -3.4916    0.0867 C   0  0  2  0  0  0  0  0  0  0  0  0
   -1.6669   -1.9507    0.0509 C   0  0  0  0  0  0  0  0  0  0  0  0
   -2.7608   -1.3970    0.0467 O   0  0  0  0  0  0  0  0  0  0  0  0
   -1.0641   -4.0322   -1.2472 C   0  0  0  0  0  0  0  0  0  0  0  0
   -3.7136   -3.4949    0.2172 H   0  0  0  0  0  0  0  0  0  0  0  0
   -0.8902   -3.7640    0.8862 H   0  0  0  0  0  0  0  0  0  0  0  0
   -1.7409   -3.7592   -2.0634 H   0  0  0  0  0  0  0  0  0  0  0  0
   -0.0725   -3.6246   -1.4653 H   0  0  0  0  0  0  0  0  0  0  0  0
   -0.9863   -5.1234   -1.2089 H   0  0  0  0  0  0  0  0  0  0  0  0
   -0.5080   -1.1957    0.1054 N   0  0  0  0  0  0  0  0  0  0  0  0
   -0.3932    0.2548   -0.1405 C   0  0  2  0  0  0  0  0  0  0  0  0
   -1.4143    0.8512   -1.1415 C   0  0  0  0  0  0  0  0  0  0  0  0
   -1.2274    0.7561   -2.3506 O   0  0  0  0  0  0  0  0  0  0  0  0
    1.0298    0.5106   -0.6571 C   0  0  0  0  0  0  0  0  0  0  0  0
    2.2622    0.1108    0.6500 S   0  0  0  0  0  0  0  0  0  0  0  0
    0.3641   -1.7140    0.1768 H   0  0  0  0  0  0  0  0  0  0  0  0
   -0.5228    0.7843    0.8082 H   0  0  0  0  0  0  0  0  0  0  0  0
    1.2199   -0.0916   -1.5525 H   0  0  0  0  0  0  0  0  0  0  0  0
    1.1340    1.5645   -0.9378 H   0  0  0  0  0  0  0  0  0  0  0  0
    3.4137    0.4597    0.0333 H   0  0  0  0  0  0  0  0  0  0  0  0
   -2.4796    1.6035   -0.6863 N   0  0  0  0  0  0  0  0  0  0  0  0
   -3.5323    2.1688   -1.5380 C   0  0  2  0  0  0  0  0  0  0  0  0
   -4.3062    3.2935   -0.8170 C   0  0  0  0  0  0  0  0  0  0  0  0
   -4.1786    3.4630    0.3910 O   0  0  0  0  0  0  0  0  0  0  0  0
   -4.4911    1.0406   -1.9409 C   0  0  0  0  0  0  0  0  0  0  0  0
   -2.6556    1.6033    0.3177 H   0  0  0  0  0  0  0  0  0  0  0  0
   -3.0797    2.6020   -2.4361 H   0  0  0  0  0  0  0  0  0  0  0  0
   -4.9308    0.5787   -1.0507 H   0  0  0  0  0  0  0  0  0  0  0  0
   -5.2988    1.4250   -2.5706 H   0  0  0  0  0  0  0  0  0  0  0  0
   -3.9572    0.2672   -2.5020 H   0  0  0  0  0  0  0  0  0  0  0  0
   -5.1526    4.1255   -1.5272 N   0  0  0  0  0  0  0  0  0  0  0  0
   -5.9218    5.1995   -0.9100 C   0  0  0  0  0  0  0  0  0  0  0  0
   -5.2384    3.9679   -2.5270 H   0  0  0  0  0  0  0  0  0  0  0  0
   -6.5695    4.8025   -0.1209 H   0  0  0  0  0  0  0  0  0  0  0  0
   -5.2523    5.9480   -0.4730 H   0  0  0  0  0  0  0  0  0  0  0  0
   -6.5510    5.6922   -1.6575 H   0  0  0  0  0  0  0  0  0  0  0  0
  1  2  2  0  0  0  0
  1  3  1  0  0  0  0
  1  7  1  0  0  0  0
  3  4  1  0  0  0  0
  3  5  1  0  0  0  0
  3  6  1  0  0  0  0
  7  8  1  0  0  0  0
  7 12  1  0  0  0  0
  8  9  1  0  0  0  0
  8 11  1  0  0  0  0
  8 13  1  0  0  0  0
  9 10  2  0  0  0  0
  9 17  1  0  0  0  0
 11 14  1  0  0  0  0
 11 15  1  0  0  0  0
 11 16  1  0  0  0  0
 17 18  1  0  0  0  0
 17 23  1  0  0  0  0
 18 19  1  0  0  0  0
 18 21  1  0  0  0  0
 18 24  1  0  0  0  0
 19 20  2  0  0  0  0
 19 28  1  0  0  0  0
 21 22  1  0  0  0  0
 21 25  1  0  0  0  0
 21 26  1  0  0  0  0
 22 27  1  0  0  0  0
 28 29  1  0  0  0  0
 28 33  1  0  0  0  0
 29 30  1  0  0  0  0
 29 32  1  0  0  0  0
 29 34  1  0  0  0  0
 30 31  2  0  0  0  0
 30 38  1  0  0  0  0
 32 35  1  0  0  0  0
 32 36  1  0  0  0  0
 32 37  1  0  0  0  0
 38 39  1  0  0  0  0
 38 40  1  0  0  0  0
 39 41  1  0  0  0  0
 39 42  1  0  0  0  0
 39 43  1  0  0  0  0
M  END
$$$$

  -OEChem-05262216003D

 43 42  0     1  0  0  0  0  0999 V2000
   -3.1434   -5.2369    0.9965 C   0  0  0  0  0  0  0  0  0  0  0  0
   -2.1928   -5.9513    1.2737 O   0  0  0  0  0  0  0  0  0  0  0  0
   -4.5519   -5.6647    1.3633 C   0  0  0  0  0  0  0  0  0  0  0  0
   -5.1553   -5.7743    0.4590 H   0  0  0  0  0  0  0  0  0  0  0  0
   -4.5302   -6.6225    1.8905 H   0  0  0  0  0  0  0  0  0  0  0  0
   -5.0129   -4.9161    2.0122 H   0  0  0  0  0  0  0  0  0  0  0  0
   -2.9389   -4.0341    0.3553 N   0  0  0  0  0  0  0  0  0  0  0  0
   -1.6183   -3.4474    0.0940 C   0  0  2  0  0  0  0  0  0  0  0  0
   -1.6659   -1.9050    0.1253 C   0  0  0  0  0  0  0  0  0  0  0  0
   -2.7468   -1.3270    0.1814 O   0  0  0  0  0  0  0  0  0  0  0  0
   -1.1303   -3.9402   -1.2720 C   0  0  0  0  0  0  0  0  0  0  0  0
   -3.7405   -3.4106    0.2632 H   0  0  0  0  0  0  0  0  0  0  0  0
   -0.9121   -3.7681    0.8677 H   0  0  0  0  0  0  0  0  0  0  0  0
   -1.8140   -3.6148   -2.0626 H   0  0  0  0  0  0  0  0  0  0  0  0
   -0.1333   -3.5466   -1.4908 H   0  0  0  0  0  0  0  0  0  0  0  0
   -1.0787   -5.0335   -1.2839 H   0  0  0  0  0  0  0  0  0  0  0  0
   -0.4909   -1.1746    0.1751 N   0  0  0  0  0  0  0  0  0  0  0  0
   -0.3660    0.2699   -0.0964 C   0  0  2  0  0  0  0  0  0  0  0  0
   -1.3843    0.8425   -1.1117 C   0  0  0  0  0  0  0  0  0  0  0  0
   -1.3277    0.5104   -2.2917 O   0  0  0  0  0  0  0  0  0  0  0  0
    1.0500    0.5124   -0.6350 C   0  0  0  0  0  0  0  0  0  0  0  0
    2.2988    0.1277    0.6601 S   0  0  0  0  0  0  0  0  0  0  0  0
    0.3719   -1.7123    0.1819 H   0  0  0  0  0  0  0  0  0  0  0  0
   -0.4900    0.8167    0.8430 H   0  0  0  0  0  0  0  0  0  0  0  0
    1.2260   -0.1041   -1.5234 H   0  0  0  0  0  0  0  0  0  0  0  0
    1.1543    1.5611   -0.9333 H   0  0  0  0  0  0  0  0  0  0  0  0
    3.4444    0.4473    0.0173 H   0  0  0  0  0  0  0  0  0  0  0  0
   -2.2606    1.8429   -0.7385 N   0  0  0  0  0  0  0  0  0  0  0  0
   -3.2808    2.4314   -1.6137 C   0  0  2  0  0  0  0  0  0  0  0  0
   -3.7874    3.7829   -1.0674 C   0  0  0  0  0  0  0  0  0  0  0  0
   -3.5179    4.1304    0.0775 O   0  0  0  0  0  0  0  0  0  0  0  0
   -4.4464    1.4421   -1.7435 C   0  0  0  0  0  0  0  0  0  0  0  0
   -2.3018    2.0940    0.2484 H   0  0  0  0  0  0  0  0  0  0  0  0
   -2.8486    2.6157   -2.6027 H   0  0  0  0  0  0  0  0  0  0  0  0
   -4.8808    1.2330   -0.7606 H   0  0  0  0  0  0  0  0  0  0  0  0
   -5.2281    1.8490   -2.3915 H   0  0  0  0  0  0  0  0  0  0  0  0
   -4.1011    0.4975   -2.1758 H   0  0  0  0  0  0  0  0  0  0  0  0
   -4.5476    4.6188   -1.8650 N   0  0  0  0  0  0  0  0  0  0  0  0
   -5.0755    5.8985   -1.4078 C   0  0  0  0  0  0  0  0  0  0  0  0
   -4.7595    4.3061   -2.8079 H   0  0  0  0  0  0  0  0  0  0  0  0
   -5.7232    5.7555   -0.5362 H   0  0  0  0  0  0  0  0  0  0  0  0
   -4.2590    6.5747   -1.1328 H   0  0  0  0  0  0  0  0  0  0  0  0
   -5.6632    6.3708   -2.2010 H   0  0  0  0  0  0  0  0  0  0  0  0
  1  2  2  0  0  0  0
  1  3  1  0  0  0  0
  1  7  1  0  0  0  0
  3  4  1  0  0  0  0
  3  5  1  0  0  0  0
  3  6  1  0  0  0  0
  7  8  1  0  0  0  0
  7 12  1  0  0  0  0
  8  9  1  0  0  0  0
  8 11  1  0  0  0  0
  8 13  1  0  0  0  0
  9 10  2  0  0  0  0
  9 17  1  0  0  0  0
 11 14  1  0  0  0  0
 11 15  1  0  0  0  0
 11 16  1  0  0  0  0
 17 18  1  0  0  0  0
 17 23  1  0  0  0  0
 18 19  1  0  0  0  0
 18 21  1  0  0  0  0
 18 24  1  0  0  0  0
 19 20  2  0  0  0  0
 19 28  1  0  0  0  0
 21 22  1  0  0  0  0
 21 25  1  0  0  0  0
 21 26  1  0  0  0  0
 22 27  1  0  0  0  0
 28 29  1  0  0  0  0
 28 33  1  0  0  0  0
 29 30  1  0  0  0  0
 29 32  1  0  0  0  0
 29 34  1  0  0  0  0
 30 31  2  0  0  0  0
 30 38  1  0  0  0  0
 32 35  1  0  0  0  0
 32 36  1  0  0  0  0
 32 37  1  0  0  0  0
 38 39  1  0  0  0  0
 38 40  1  0  0  0  0
 39 41  1  0  0  0  0
 39 42  1  0  0  0  0
 39 43  1  0  0  0  0
M  END
$$$$

  -OEChem-05262216003D

 43 42  0     1  0  0  0  0  0999 V2000
   -3.1326   -5.2686    0.9519 C   0  0  0  0  0  0  0  0  0  0  0  0
   -2.1721   -6.0010    1.1303 O   0  0  0  0  0  0  0  0  0  0  0  0
   -4.5249   -5.7306    1.3386 C   0  0  0  0  0  0  0  0  0  0  0  0
   -5.1738   -5.7366    0.4595 H   0  0  0  0  0  0  0  0  0  0  0  0
   -4.4849   -6.7417    1.7534 H   0  0  0  0  0  0  0  0  0  0  0  0
   -4.9457   -5.0577    2.0898 H   0  0  0  0  0  0  0  0  0  0  0  0
   -2.9530   -4.0165    0.4042 N   0  0  0  0  0  0  0  0  0  0  0  0
   -1.6446   -3.4158    0.1155 C   0  0  2  0  0  0  0  0  0  0  0  0
   -1.6838   -1.8774    0.2256 C   0  0  0  0  0  0  0  0  0  0  0  0
   -2.7572   -1.2957    0.3513 O   0  0  0  0  0  0  0  0  0  0  0  0
   -1.2201   -3.8342   -1.2956 C   0  0  0  0  0  0  0  0  0  0  0  0
   -3.7587   -3.3921    0.3800 H   0  0  0  0  0  0  0  0  0  0  0  0
   -0.9061   -3.7769    0.8394 H   0  0  0  0  0  0  0  0  0  0  0  0
   -1.9438   -3.4744   -2.0342 H   0  0  0  0  0  0  0  0  0  0  0  0
   -0.2378   -3.4203   -1.5420 H   0  0  0  0  0  0  0  0  0  0  0  0
   -1.1620   -4.9249   -1.3667 H   0  0  0  0  0  0  0  0  0  0  0  0
   -0.5043   -1.1540    0.2655 N   0  0  0  0  0  0  0  0  0  0  0  0
   -0.3887    0.2852   -0.0353 C   0  0  2  0  0  0  0  0  0  0  0  0
   -1.4094    0.8312   -1.0623 C   0  0  0  0  0  0  0  0  0  0  0  0
   -1.4884    0.3183   -2.1746 O   0  0  0  0  0  0  0  0  0  0  0  0
    1.0197    0.5283   -0.5927 C   0  0  0  0  0  0  0  0  0  0  0  0
    2.2861    0.1776    0.6945 S   0  0  0  0  0  0  0  0  0  0  0  0
    0.3523   -1.6979    0.2080 H   0  0  0  0  0  0  0  0  0  0  0  0
   -0.5148    0.8487    0.8941 H   0  0  0  0  0  0  0  0  0  0  0  0
    1.1897   -0.1031   -1.4720 H   0  0  0  0  0  0  0  0  0  0  0  0
    1.1137    1.5722   -0.9104 H   0  0  0  0  0  0  0  0  0  0  0  0
    3.4214    0.5073    0.0393 H   0  0  0  0  0  0  0  0  0  0  0  0
   -2.0745    2.0198   -0.8287 N   0  0  0  0  0  0  0  0  0  0  0  0
   -3.0161    2.6497   -1.7619 C   0  0  2  0  0  0  0  0  0  0  0  0
   -3.2077    4.1503   -1.4566 C   0  0  0  0  0  0  0  0  0  0  0  0
   -2.7814    4.6290   -0.4111 O   0  0  0  0  0  0  0  0  0  0  0  0
   -4.3573    1.9114   -1.6707 C   0  0  0  0  0  0  0  0  0  0  0  0
   -1.9585    2.4649    0.0809 H   0  0  0  0  0  0  0  0  0  0  0  0
   -2.6258    2.5694   -2.7818 H   0  0  0  0  0  0  0  0  0  0  0  0
   -4.7623    1.9798   -0.6558 H   0  0  0  0  0  0  0  0  0  0  0  0
   -5.0836    2.3420   -2.3664 H   0  0  0  0  0  0  0  0  0  0  0  0
   -4.2294    0.8530   -1.9207 H   0  0  0  0  0  0  0  0  0  0  0  0
   -3.8523    4.9716   -2.3636 N   0  0  0  0  0  0  0  0  0  0  0  0
   -4.0702    6.3959   -2.1411 C   0  0  0  0  0  0  0  0  0  0  0  0
   -4.1913    4.5494   -3.2231 H   0  0  0  0  0  0  0  0  0  0  0  0
   -4.6354    6.5578   -1.2171 H   0  0  0  0  0  0  0  0  0  0  0  0
   -3.1133    6.9229   -2.0660 H   0  0  0  0  0  0  0  0  0  0  0  0
   -4.6379    6.8261   -2.9719 H   0  0  0  0  0  0  0  0  0  0  0  0
  1  2  2  0  0  0  0
  1  3  1  0  0  0  0
  1  7  1  0  0  0  0
  3  4  1  0  0  0  0
  3  5  1  0  0  0  0
  3  6  1  0  0  0  0
  7  8  1  0  0  0  0
  7 12  1  0  0  0  0
  8  9  1  0  0  0  0
  8 11  1  0  0  0  0
  8 13  1  0  0  0  0
  9 10  2  0  0  0  0
  9 17  1  0  0  0  0
 11 14  1  0  0  0  0
 11 15  1  0  0  0  0
 11 16  1  0  0  0  0
 17 18  1  0  0  0  0
 17 23  1  0  0  0  0
 18 19  1  0  0  0  0
 18 21  1  0  0  0  0
 18 24  1  0  0  0  0
 19 20  2  0  0  0  0
 19 28  1  0  0  0  0
 21 22  1  0  0  0  0
 21 25  1  0  0  0  0
 21 26  1  0  0  0  0
 22 27  1  0  0  0  0
 28 29  1  0  0  0  0
 28 33  1  0  0  0  0
 29 30  1  0  0  0  0
 29 32  1  0  0  0  0
 29 34  1  0  0  0  0
 30 31  2  0  0  0  0
 30 38  1  0  0  0  0
 32 35  1  0  0  0  0
 32 36  1  0  0  0  0
 32 37  1  0  0  0  0
 38 39  1  0  0  0  0
 38 40  1  0  0  0  0
 39 41  1  0  0  0  0
 39 42  1  0  0  0  0
 39 43  1  0  0  0  0
M  END
$$$$

  -OEChem-05262216003D

 43 42  0     1  0  0  0  0  0999 V2000
   -3.1217   -5.2694    0.9626 C   0  0  0  0  0  0  0  0  0  0  0  0
   -2.1558   -5.9993    1.1222 O   0  0  0  0  0  0  0  0  0  0  0  0
   -4.5063   -5.7404    1.3645 C   0  0  0  0  0  0  0  0  0  0  0  0
   -5.1739   -5.7171    0.4997 H   0  0  0  0  0  0  0  0  0  0  0  0
   -4.4598   -6.7639    1.7471 H   0  0  0  0  0  0  0  0  0  0  0  0
   -4.9087   -5.0903    2.1450 H   0  0  0  0  0  0  0  0  0  0  0  0
   -2.9559   -4.0122    0.4229 N   0  0  0  0  0  0  0  0  0  0  0  0
   -1.6544   -3.4000    0.1286 C   0  0  2  0  0  0  0  0  0  0  0  0
   -1.7000   -1.8651    0.2762 C   0  0  0  0  0  0  0  0  0  0  0  0
   -2.7720   -1.2928    0.4500 O   0  0  0  0  0  0  0  0  0  0  0  0
   -1.2511   -3.7829   -1.2988 C   0  0  0  0  0  0  0  0  0  0  0  0
   -3.7630   -3.3891    0.4237 H   0  0  0  0  0  0  0  0  0  0  0  0
   -0.9027   -3.7741    0.8319 H   0  0  0  0  0  0  0  0  0  0  0  0
   -1.9824   -3.3988   -2.0176 H   0  0  0  0  0  0  0  0  0  0  0  0
   -0.2695   -3.3683   -1.5468 H   0  0  0  0  0  0  0  0  0  0  0  0
   -1.1998   -4.8716   -1.3999 H   0  0  0  0  0  0  0  0  0  0  0  0
   -0.5266   -1.1320    0.3110 N   0  0  0  0  0  0  0  0  0  0  0  0
   -0.4327    0.3035   -0.0156 C   0  0  2  0  0  0  0  0  0  0  0  0
   -1.4520    0.8274   -1.0567 C   0  0  0  0  0  0  0  0  0  0  0  0
   -1.6607    0.1915   -2.0857 O   0  0  0  0  0  0  0  0  0  0  0  0
    0.9733    0.5512   -0.5758 C   0  0  0  0  0  0  0  0  0  0  0  0
    2.2409    0.2393    0.7203 S   0  0  0  0  0  0  0  0  0  0  0  0
    0.3319   -1.6693    0.2284 H   0  0  0  0  0  0  0  0  0  0  0  0
   -0.5704    0.8802    0.9041 H   0  0  0  0  0  0  0  0  0  0  0  0
    1.1504   -0.0945   -1.4431 H   0  0  0  0  0  0  0  0  0  0  0  0
    1.0588    1.5901   -0.9122 H   0  0  0  0  0  0  0  0  0  0  0  0
    3.3745    0.5638    0.0596 H   0  0  0  0  0  0  0  0  0  0  0  0
   -1.8901    2.1369   -0.9960 N   0  0  0  0  0  0  0  0  0  0  0  0
   -2.7209    2.7961   -2.0112 C   0  0  2  0  0  0  0  0  0  0  0  0
   -2.5953    4.3329   -1.9354 C   0  0  0  0  0  0  0  0  0  0  0  0
   -1.9908    4.8575   -1.0058 O   0  0  0  0  0  0  0  0  0  0  0  0
   -4.1766    2.3637   -1.8011 C   0  0  0  0  0  0  0  0  0  0  0  0
   -1.6106    2.7002   -0.1936 H   0  0  0  0  0  0  0  0  0  0  0  0
   -2.3926    2.4894   -3.0099 H   0  0  0  0  0  0  0  0  0  0  0  0
   -4.5243    2.6619   -0.8068 H   0  0  0  0  0  0  0  0  0  0  0  0
   -4.8273    2.8223   -2.5513 H   0  0  0  0  0  0  0  0  0  0  0  0
   -4.2674    1.2761   -1.8878 H   0  0  0  0  0  0  0  0  0  0  0  0
   -3.1504    5.1333   -2.9171 N   0  0  0  0  0  0  0  0  0  0  0  0
   -3.0774    6.5896   -2.8983 C   0  0  0  0  0  0  0  0  0  0  0  0
   -3.6488    4.6743   -3.6741 H   0  0  0  0  0  0  0  0  0  0  0  0
   -3.5223    6.9834   -1.9782 H   0  0  0  0  0  0  0  0  0  0  0  0
   -2.0355    6.9220   -2.9561 H   0  0  0  0  0  0  0  0  0  0  0  0
   -3.6210    7.0080   -3.7511 H   0  0  0  0  0  0  0  0  0  0  0  0
  1  2  2  0  0  0  0
  1  3  1  0  0  0  0
  1  7  1  0  0  0  0
  3  4  1  0  0  0  0
  3  5  1  0  0  0  0
  3  6  1  0  0  0  0
  7  8  1  0  0  0  0
  7 12  1  0  0  0  0
  8  9  1  0  0  0  0
  8 11  1  0  0  0  0
  8 13  1  0  0  0  0
  9 10  2  0  0  0  0
  9 17  1  0  0  0  0
 11 14  1  0  0  0  0
 11 15  1  0  0  0  0
 11 16  1  0  0  0  0
 17 18  1  0  0  0  0
 17 23  1  0  0  0  0
 18 19  1  0  0  0  0
 18 21  1  0  0  0  0
 18 24  1  0  0  0  0
 19 20  2  0  0  0  0
 19 28  1  0  0  0  0
 21 22  1  0  0  0  0
 21 25  1  0  0  0  0
 21 26  1  0  0  0  0
 22 27  1  0  0  0  0
 28 29  1  0  0  0  0
 28 33  1  0  0  0  0
 29 30  1  0  0  0  0
 29 32  1  0  0  0  0
 29 34  1  0  0  0  0
 30 31  2  0  0  0  0
 30 38  1  0  0  0  0
 32 35  1  0  0  0  0
 32 36  1  0  0  0  0
 32 37  1  0  0  0  0
 38 39  1  0  0  0  0
 38 40  1  0  0  0  0
 39 41  1  0  0  0  0
 39 42  1  0  0  0  0
 39 43  1  0  0  0  0
M  END
$$$$

  -OEChem-05262216003D

 43 42  0     1  0  0  0  0  0999 V2000
   -3.0900   -5.2777    0.9582 C   0  0  0  0  0  0  0  0  0  0  0  0
   -2.1179   -6.0092    1.0647 O   0  0  0  0  0  0  0  0  0  0  0  0
   -4.4617   -5.7637    1.3869 C   0  0  0  0  0  0  0  0  0  0  0  0
   -5.1601   -5.6909    0.5498 H   0  0  0  0  0  0  0  0  0  0  0  0
   -4.4099   -6.8066    1.7117 H   0  0  0  0  0  0  0  0  0  0  0  0
   -4.8314   -5.1539    2.2150 H   0  0  0  0  0  0  0  0  0  0  0  0
   -2.9452   -4.0042    0.4521 N   0  0  0  0  0  0  0  0  0  0  0  0
   -1.6571   -3.3757    0.1357 C   0  0  2  0  0  0  0  0  0  0  0  0
   -1.7081   -1.8469    0.3368 C   0  0  0  0  0  0  0  0  0  0  0  0
   -2.7727   -1.2913    0.5920 O   0  0  0  0  0  0  0  0  0  0  0  0
   -1.3009   -3.7074   -1.3163 C   0  0  0  0  0  0  0  0  0  0  0  0
   -3.7529   -3.3838    0.5028 H   0  0  0  0  0  0  0  0  0  0  0  0
   -0.8805   -3.7694    0.8001 H   0  0  0  0  0  0  0  0  0  0  0  0
   -2.0563   -3.3000   -1.9963 H   0  0  0  0  0  0  0  0  0  0  0  0
   -0.3290   -3.2815   -1.5820 H   0  0  0  0  0  0  0  0  0  0  0  0
   -1.2525   -4.7918   -1.4564 H   0  0  0  0  0  0  0  0  0  0  0  0
   -0.5435   -1.0995    0.3451 N   0  0  0  0  0  0  0  0  0  0  0  0
   -0.4824    0.3338   -0.0031 C   0  0  2  0  0  0  0  0  0  0  0  0
   -1.5206    0.8437   -1.0360 C   0  0  0  0  0  0  0  0  0  0  0  0
   -1.8814    0.1240   -1.9625 O   0  0  0  0  0  0  0  0  0  0  0  0
    0.9156    0.5910   -0.5815 C   0  0  0  0  0  0  0  0  0  0  0  0
    2.2002    0.3180    0.7066 S   0  0  0  0  0  0  0  0  0  0  0  0
    0.3129   -1.6282    0.2068 H   0  0  0  0  0  0  0  0  0  0  0  0
   -0.6178    0.9187    0.9119 H   0  0  0  0  0  0  0  0  0  0  0  0
    1.0923   -0.0680   -1.4383 H   0  0  0  0  0  0  0  0  0  0  0  0
    0.9880    1.6244   -0.9374 H   0  0  0  0  0  0  0  0  0  0  0  0
    3.3223    0.6585    0.0342 H   0  0  0  0  0  0  0  0  0  0  0  0
   -1.7305    2.2044   -1.1693 N   0  0  0  0  0  0  0  0  0  0  0  0
   -2.4552    2.8466   -2.2738 C   0  0  2  0  0  0  0  0  0  0  0  0
   -2.0144    4.3150   -2.4568 C   0  0  0  0  0  0  0  0  0  0  0  0
   -1.2538    4.8346   -1.6465 O   0  0  0  0  0  0  0  0  0  0  0  0
   -3.9574    2.7630   -1.9791 C   0  0  0  0  0  0  0  0  0  0  0  0
   -1.2770    2.8250   -0.4993 H   0  0  0  0  0  0  0  0  0  0  0  0
   -2.2401    2.3218   -3.2109 H   0  0  0  0  0  0  0  0  0  0  0  0
   -4.1927    3.2853   -1.0463 H   0  0  0  0  0  0  0  0  0  0  0  0
   -4.5372    3.2158   -2.7888 H   0  0  0  0  0  0  0  0  0  0  0  0
   -4.2673    1.7176   -1.8795 H   0  0  0  0  0  0  0  0  0  0  0  0
   -2.4550    5.0528   -3.5404 N   0  0  0  0  0  0  0  0  0  0  0  0
   -2.0844    6.4448   -3.7661 C   0  0  0  0  0  0  0  0  0  0  0  0
   -3.0870    4.5988   -4.1936 H   0  0  0  0  0  0  0  0  0  0  0  0
   -2.4167    7.0698   -2.9305 H   0  0  0  0  0  0  0  0  0  0  0  0
   -0.9983    6.5410   -3.8684 H   0  0  0  0  0  0  0  0  0  0  0  0
   -2.5509    6.8176   -4.6831 H   0  0  0  0  0  0  0  0  0  0  0  0
  1  2  2  0  0  0  0
  1  3  1  0  0  0  0
  1  7  1  0  0  0  0
  3  4  1  0  0  0  0
  3  5  1  0  0  0  0
  3  6  1  0  0  0  0
  7  8  1  0  0  0  0
  7 12  1  0  0  0  0
  8  9  1  0  0  0  0
  8 11  1  0  0  0  0
  8 13  1  0  0  0  0
  9 10  2  0  0  0  0
  9 17  1  0  0  0  0
 11 14  1  0  0  0  0
 11 15  1  0  0  0  0
 11 16  1  0  0  0  0
 17 18  1  0  0  0  0
 17 23  1  0  0  0  0
 18 19  1  0  0  0  0
 18 21  1  0  0  0  0
 18 24  1  0  0  0  0
 19 20  2  0  0  0  0
 19 28  1  0  0  0  0
 21 22  1  0  0  0  0
 21 25  1  0  0  0  0
 21 26  1  0  0  0  0
 22 27  1  0  0  0  0
 28 29  1  0  0  0  0
 28 33  1  0  0  0  0
 29 30  1  0  0  0  0
 29 32  1  0  0  0  0
 29 34  1  0  0  0  0
 30 31  2  0  0  0  0
 30 38  1  0  0  0  0
 32 35  1  0  0  0  0
 32 36  1  0  0  0  0
 32 37  1  0  0  0  0
 38 39  1  0  0  0  0
 38 40  1  0  0  0  0
 39 41  1  0  0  0  0
 39 42  1  0  0  0  0
 39 43  1  0  0  0  0
M  END
$$$$

  -OEChem-05262216003D

 43 42  0     1  0  0  0  0  0999 V2000
   -2.9656   -5.3773    0.8418 C   0  0  0  0  0  0  0  0  0  0  0  0
   -1.9801   -6.0894    0.7262 O   0  0  0  0  0  0  0  0  0  0  0  0
   -4.2562   -5.9486    1.3977 C   0  0  0  0  0  0  0  0  0  0  0  0
   -5.0687   -5.8021    0.6817 H   0  0  0  0  0  0  0  0  0  0  0  0
   -4.1427   -7.0196    1.5876 H   0  0  0  0  0  0  0  0  0  0  0  0
   -4.5116   -5.4492    2.3355 H   0  0  0  0  0  0  0  0  0  0  0  0
   -2.9056   -4.0493    0.4792 N   0  0  0  0  0  0  0  0  0  0  0  0
   -1.6738   -3.3480    0.0979 C   0  0  2  0  0  0  0  0  0  0  0  0
   -1.7330   -1.8548    0.4825 C   0  0  0  0  0  0  0  0  0  0  0  0
   -2.7444   -1.3908    0.9990 O   0  0  0  0  0  0  0  0  0  0  0  0
   -1.4754   -3.4991   -1.4136 C   0  0  0  0  0  0  0  0  0  0  0  0
   -3.7025   -3.4610    0.7230 H   0  0  0  0  0  0  0  0  0  0  0  0
   -0.8201   -3.7888    0.6236 H   0  0  0  0  0  0  0  0  0  0  0  0
   -2.3118   -3.0444   -1.9548 H   0  0  0  0  0  0  0  0  0  0  0  0
   -0.5489   -3.0121   -1.7315 H   0  0  0  0  0  0  0  0  0  0  0  0
   -1.4179   -4.5578   -1.6850 H   0  0  0  0  0  0  0  0  0  0  0  0
   -0.5958   -1.0685    0.4342 N   0  0  0  0  0  0  0  0  0  0  0  0
   -0.5670    0.3672    0.0785 C   0  0  2  0  0  0  0  0  0  0  0  0
   -1.8028    1.0070   -0.6188 C   0  0  0  0  0  0  0  0  0  0  0  0
   -2.5644    0.3362   -1.3066 O   0  0  0  0  0  0  0  0  0  0  0  0
    0.6416    0.5203   -0.8617 C   0  0  0  0  0  0  0  0  0  0  0  0
    2.2018    0.1530    0.0421 S   0  0  0  0  0  0  0  0  0  0  0  0
    0.2506   -1.5778    0.1951 H   0  0  0  0  0  0  0  0  0  0  0  0
   -0.3972    0.9402    0.9949 H   0  0  0  0  0  0  0  0  0  0  0  0
    0.5335   -0.1481   -1.7230 H   0  0  0  0  0  0  0  0  0  0  0  0
    0.7015    1.5440   -1.2457 H   0  0  0  0  0  0  0  0  0  0  0  0
    3.1263    0.4508   -0.8985 H   0  0  0  0  0  0  0  0  0  0  0  0
   -1.7543    2.3549   -0.9334 N   0  0  0  0  0  0  0  0  0  0  0  0
   -2.5964    3.0327   -1.9294 C   0  0  2  0  0  0  0  0  0  0  0  0
   -1.8886    4.2802   -2.4995 C   0  0  0  0  0  0  0  0  0  0  0  0
   -0.8159    4.6457   -2.0291 O   0  0  0  0  0  0  0  0  0  0  0  0
   -3.9247    3.4112   -1.2655 C   0  0  0  0  0  0  0  0  0  0  0  0
   -0.9830    2.9011   -0.5505 H   0  0  0  0  0  0  0  0  0  0  0  0
   -2.7925    2.3602   -2.7713 H   0  0  0  0  0  0  0  0  0  0  0  0
   -3.7534    4.0978   -0.4303 H   0  0  0  0  0  0  0  0  0  0  0  0
   -4.5919    3.8953   -1.9846 H   0  0  0  0  0  0  0  0  0  0  0  0
   -4.4253    2.5160   -0.8826 H   0  0  0  0  0  0  0  0  0  0  0  0
   -2.4377    4.9806   -3.5576 N   0  0  0  0  0  0  0  0  0  0  0  0
   -1.8207    6.1675   -4.1378 C   0  0  0  0  0  0  0  0  0  0  0  0
   -3.3266    4.6559   -3.9274 H   0  0  0  0  0  0  0  0  0  0  0  0
   -1.7310    6.9585   -3.3859 H   0  0  0  0  0  0  0  0  0  0  0  0
   -0.8226    5.9325   -4.5223 H   0  0  0  0  0  0  0  0  0  0  0  0
   -2.4289    6.5451   -4.9655 H   0  0  0  0  0  0  0  0  0  0  0  0
  1  2  2  0  0  0  0
  1  3  1  0  0  0  0
  1  7  1  0  0  0  0
  3  4  1  0  0  0  0
  3  5  1  0  0  0  0
  3  6  1  0  0  0  0
  7  8  1  0  0  0  0
  7 12  1  0  0  0  0
  8  9  1  0  0  0  0
  8 11  1  0  0  0  0
  8 13  1  0  0  0  0
  9 10  2  0  0  0  0
  9 17  1  0  0  0  0
 11 14  1  0  0  0  0
 11 15  1  0  0  0  0
 11 16  1  0  0  0  0
 17 18  1  0  0  0  0
 17 23  1  0  0  0  0
 18 19  1  0  0  0  0
 18 21  1  0  0  0  0
 18 24  1  0  0  0  0
 19 20  2  0  0  0  0
 19 28  1  0  0  0  0
 21 22  1  0  0  0  0
 21 25  1  0  0  0  0
 21 26  1  0  0  0  0
 22 27  1  0  0  0  0
 28 29  1  0  0  0  0
 28 33  1  0  0  0  0
 29 30  1  0  0  0  0
 29 32  1  0  0  0  0
 29 34  1  0  0  0  0
 30 31  2  0  0  0  0
 30 38  1  0  0  0  0
 32 35  1  0  0  0  0
 32 36  1  0  0  0  0
 32 37  1  0  0  0  0
 38 39  1  0  0  0  0
 38 40  1  0  0  0  0
 39 41  1  0  0  0  0
 39 42  1  0  0  0  0
 39 43  1  0  0  0  0
M  END
$$$$

  -OEChem-05262216003D

 43 42  0     1  0  0  0  0  0999 V2000
   -2.9558   -5.3555    0.7705 C   0  0  0  0  0  0  0  0  0  0  0  0
   -1.9860   -6.0613    0.5403 O   0  0  0  0  0  0  0  0  0  0  0  0
   -4.2071   -5.9544    1.3845 C   0  0  0  0  0  0  0  0  0  0  0  0
   -5.0651   -5.7741    0.7324 H   0  0  0  0  0  0  0  0  0  0  0  0
   -4.0841   -7.0330    1.5152 H   0  0  0  0  0  0  0  0  0  0  0  0
   -4.3979   -5.5000    2.3598 H   0  0  0  0  0  0  0  0  0  0  0  0
   -2.9132   -4.0085    0.4841 N   0  0  0  0  0  0  0  0  0  0  0  0
   -1.7085   -3.2881    0.0546 C   0  0  2  0  0  0  0  0  0  0  0  0
   -1.7476   -1.8112    0.5008 C   0  0  0  0  0  0  0  0  0  0  0  0
   -2.7220   -1.3792    1.1068 O   0  0  0  0  0  0  0  0  0  0  0  0
   -1.6021   -3.3795   -1.4710 C   0  0  0  0  0  0  0  0  0  0  0  0
   -3.6852   -3.4329    0.8216 H   0  0  0  0  0  0  0  0  0  0  0  0
   -0.8238   -3.7466    0.5091 H   0  0  0  0  0  0  0  0  0  0  0  0
   -2.4729   -2.9117   -1.9422 H   0  0  0  0  0  0  0  0  0  0  0  0
   -0.7000   -2.8723   -1.8253 H   0  0  0  0  0  0  0  0  0  0  0  0
   -1.5548   -4.4265   -1.7872 H   0  0  0  0  0  0  0  0  0  0  0  0
   -0.6095   -1.0276    0.4444 N   0  0  0  0  0  0  0  0  0  0  0  0
   -0.5568    0.4076    0.0806 C   0  0  2  0  0  0  0  0  0  0  0  0
   -1.7716    1.0920   -0.6263 C   0  0  0  0  0  0  0  0  0  0  0  0
   -2.7302    0.4619   -1.0521 O   0  0  0  0  0  0  0  0  0  0  0  0
    0.6842    0.5123   -0.8303 C   0  0  0  0  0  0  0  0  0  0  0  0
    2.2093    0.1200    0.1215 S   0  0  0  0  0  0  0  0  0  0  0  0
    0.2279   -1.5465    0.1951 H   0  0  0  0  0  0  0  0  0  0  0  0
   -0.3862    0.9796    0.9978 H   0  0  0  0  0  0  0  0  0  0  0  0
    0.5815   -0.1657   -1.6847 H   0  0  0  0  0  0  0  0  0  0  0  0
    0.7952    1.5257   -1.2276 H   0  0  0  0  0  0  0  0  0  0  0  0
    3.1667    0.3661   -0.8010 H   0  0  0  0  0  0  0  0  0  0  0  0
   -1.5864    2.3297   -1.2224 N   0  0  0  0  0  0  0  0  0  0  0  0
   -2.4477    2.9294   -2.2521 C   0  0  2  0  0  0  0  0  0  0  0  0
   -1.6445    3.8884   -3.1566 C   0  0  0  0  0  0  0  0  0  0  0  0
   -0.4767    4.1519   -2.8859 O   0  0  0  0  0  0  0  0  0  0  0  0
   -3.5950    3.6678   -1.5552 C   0  0  0  0  0  0  0  0  0  0  0  0
   -0.7020    2.8060   -1.0495 H   0  0  0  0  0  0  0  0  0  0  0  0
   -2.8607    2.1468   -2.8972 H   0  0  0  0  0  0  0  0  0  0  0  0
   -3.2046    4.4683   -0.9187 H   0  0  0  0  0  0  0  0  0  0  0  0
   -4.2749    4.1067   -2.2912 H   0  0  0  0  0  0  0  0  0  0  0  0
   -4.1674    2.9742   -0.9306 H   0  0  0  0  0  0  0  0  0  0  0  0
   -2.2201    4.4413   -4.2859 N   0  0  0  0  0  0  0  0  0  0  0  0
   -1.5199    5.3617   -5.1740 C   0  0  0  0  0  0  0  0  0  0  0  0
   -3.1874    4.2039   -4.4867 H   0  0  0  0  0  0  0  0  0  0  0  0
   -1.2294    6.2693   -4.6342 H   0  0  0  0  0  0  0  0  0  0  0  0
   -0.6192    4.8907   -5.5819 H   0  0  0  0  0  0  0  0  0  0  0  0
   -2.1669    5.6488   -6.0087 H   0  0  0  0  0  0  0  0  0  0  0  0
  1  2  2  0  0  0  0
  1  3  1  0  0  0  0
  1  7  1  0  0  0  0
  3  4  1  0  0  0  0
  3  5  1  0  0  0  0
  3  6  1  0  0  0  0
  7  8  1  0  0  0  0
  7 12  1  0  0  0  0
  8  9  1  0  0  0  0
  8 11  1  0  0  0  0
  8 13  1  0  0  0  0
  9 10  2  0  0  0  0
  9 17  1  0  0  0  0
 11 14  1  0  0  0  0
 11 15  1  0  0  0  0
 11 16  1  0  0  0  0
 17 18  1  0  0  0  0
 17 23  1  0  0  0  0
 18 19  1  0  0  0  0
 18 21  1  0  0  0  0
 18 24  1  0  0  0  0
 19 20  2  0  0  0  0
 19 28  1  0  0  0  0
 21 22  1  0  0  0  0
 21 25  1  0  0  0  0
 21 26  1  0  0  0  0
 22 27  1  0  0  0  0
 28 29  1  0  0  0  0
 28 33  1  0  0  0  0
 29 30  1  0  0  0  0
 29 32  1  0  0  0  0
 29 34  1  0  0  0  0
 30 31  2  0  0  0  0
 30 38  1  0  0  0  0
 32 35  1  0  0  0  0
 32 36  1  0  0  0  0
 32 37  1  0  0  0  0
 38 39  1  0  0  0  0
 38 40  1  0  0  0  0
 39 41  1  0  0  0  0
 39 42  1  0  0  0  0
 39 43  1  0  0  0  0
M  END
$$$$

  -OEChem-05262216003D

 43 42  0     1  0  0  0  0  0999 V2000
   -3.5146   -4.8150    1.0027 C   0  0  0  0  0  0  0  0  0  0  0  0
   -2.9337   -5.1129    2.0348 O   0  0  0  0  0  0  0  0  0  0  0  0
   -4.9620   -5.2196    0.7981 C   0  0  0  0  0  0  0  0  0  0  0  0
   -5.0461   -5.8742   -0.0726 H   0  0  0  0  0  0  0  0  0  0  0  0
   -5.3331   -5.7521    1.6781 H   0  0  0  0  0  0  0  0  0  0  0  0
   -5.5781   -4.3313    0.6383 H   0  0  0  0  0  0  0  0  0  0  0  0
   -2.8598   -4.1025    0.0218 N   0  0  0  0  0  0  0  0  0  0  0  0
   -1.5390   -3.4847    0.1907 C   0  0  2  0  0  0  0  0  0  0  0  0
   -1.4501   -2.1451   -0.5706 C   0  0  0  0  0  0  0  0  0  0  0  0
   -2.2337   -1.9254   -1.4850 O   0  0  0  0  0  0  0  0  0  0  0  0
   -0.4778   -4.4703   -0.3084 C   0  0  0  0  0  0  0  0  0  0  0  0
   -3.4220   -3.7578   -0.7567 H   0  0  0  0  0  0  0  0  0  0  0  0
   -1.3631   -3.2688    1.2501 H   0  0  0  0  0  0  0  0  0  0  0  0
   -0.6262   -4.6858   -1.3714 H   0  0  0  0  0  0  0  0  0  0  0  0
    0.5263   -4.0580   -0.1729 H   0  0  0  0  0  0  0  0  0  0  0  0
   -0.5419   -5.4095    0.2501 H   0  0  0  0  0  0  0  0  0  0  0  0
   -0.3716   -1.3037   -0.3579 N   0  0  0  0  0  0  0  0  0  0  0  0
   -0.3427    0.1760   -0.4288 C   0  0  2  0  0  0  0  0  0  0  0  0
   -1.5212    0.9379   -1.1026 C   0  0  0  0  0  0  0  0  0  0  0  0
   -2.6619    0.7620   -0.6931 O   0  0  0  0  0  0  0  0  0  0  0  0
    1.0040    0.4925   -1.1036 C   0  0  0  0  0  0  0  0  0  0  0  0
    2.3850   -0.0474   -0.0101 S   0  0  0  0  0  0  0  0  0  0  0  0
    0.3261   -1.6952    0.2696 H   0  0  0  0  0  0  0  0  0  0  0  0
   -0.3173    0.5645    0.5941 H   0  0  0  0  0  0  0  0  0  0  0  0
    1.0643   -0.0102   -2.0757 H   0  0  0  0  0  0  0  0  0  0  0  0
    1.1150    1.5678   -1.2708 H   0  0  0  0  0  0  0  0  0  0  0  0
    3.4581    0.2974   -0.7569 H   0  0  0  0  0  0  0  0  0  0  0  0
   -1.3111    2.1487   -1.7423 N   0  0  0  0  0  0  0  0  0  0  0  0
   -2.3748    2.9405   -2.3741 C   0  0  2  0  0  0  0  0  0  0  0  0
   -1.8828    3.5532   -3.7017 C   0  0  0  0  0  0  0  0  0  0  0  0
   -0.6852    3.5469   -3.9716 O   0  0  0  0  0  0  0  0  0  0  0  0
   -2.8122    4.0355   -1.3971 C   0  0  0  0  0  0  0  0  0  0  0  0
   -0.3774    2.3089   -2.1169 H   0  0  0  0  0  0  0  0  0  0  0  0
   -3.2324    2.2998   -2.6074 H   0  0  0  0  0  0  0  0  0  0  0  0
   -1.9717    4.6953   -1.1596 H   0  0  0  0  0  0  0  0  0  0  0  0
   -3.6180    4.6367   -1.8283 H   0  0  0  0  0  0  0  0  0  0  0  0
   -3.1773    3.5874   -0.4676 H   0  0  0  0  0  0  0  0  0  0  0  0
   -2.7803    4.0946   -4.6029 N   0  0  0  0  0  0  0  0  0  0  0  0
   -2.3843    4.6477   -5.8925 C   0  0  0  0  0  0  0  0  0  0  0  0
   -3.7683    4.0420   -4.3717 H   0  0  0  0  0  0  0  0  0  0  0  0
   -1.6495    5.4487   -5.7579 H   0  0  0  0  0  0  0  0  0  0  0  0
   -1.9443    3.8689   -6.5242 H   0  0  0  0  0  0  0  0  0  0  0  0
   -3.2550    5.0627   -6.4094 H   0  0  0  0  0  0  0  0  0  0  0  0
  1  2  2  0  0  0  0
  1  3  1  0  0  0  0
  1  7  1  0  0  0  0
  3  4  1  0  0  0  0
  3  5  1  0  0  0  0
  3  6  1  0  0  0  0
  7  8  1  0  0  0  0
  7 12  1  0  0  0  0
  8  9  1  0  0  0  0
  8 11  1  0  0  0  0
  8 13  1  0  0  0  0
  9 10  2  0  0  0  0
  9 17  1  0  0  0  0
 11 14  1  0  0  0  0
 11 15  1  0  0  0  0
 11 16  1  0  0  0  0
 17 18  1  0  0  0  0
 17 23  1  0  0  0  0
 18 19  1  0  0  0  0
 18 21  1  0  0  0  0
 18 24  1  0  0  0  0
 19 20  2  0  0  0  0
 19 28  1  0  0  0  0
 21 22  1  0  0  0  0
 21 25  1  0  0  0  0
 21 26  1  0  0  0  0
 22 27  1  0  0  0  0
 28 29  1  0  0  0  0
 28 33  1  0  0  0  0
 29 30  1  0  0  0  0
 29 32  1  0  0  0  0
 29 34  1  0  0  0  0
 30 31  2  0  0  0  0
 30 38  1  0  0  0  0
 32 35  1  0  0  0  0
 32 36  1  0  0  0  0
 32 37  1  0  0  0  0
 38 39  1  0  0  0  0
 38 40  1  0  0  0  0
 39 41  1  0  0  0  0
 39 42  1  0  0  0  0
 39 43  1  0  0  0  0
M  END
$$$$

  -OEChem-05262216003D

 43 42  0     1  0  0  0  0  0999 V2000
   -3.4703   -4.8726    1.0233 C   0  0  0  0  0  0  0  0  0  0  0  0
   -2.8351   -5.2281    2.0039 O   0  0  0  0  0  0  0  0  0  0  0  0
   -4.9199   -5.2899    0.8614 C   0  0  0  0  0  0  0  0  0  0  0  0
   -5.0323   -5.9062   -0.0339 H   0  0  0  0  0  0  0  0  0  0  0  0
   -5.2453   -5.8678    1.7308 H   0  0  0  0  0  0  0  0  0  0  0  0
   -5.5552   -4.4054    0.7688 H   0  0  0  0  0  0  0  0  0  0  0  0
   -2.8723   -4.0874    0.0612 N   0  0  0  0  0  0  0  0  0  0  0  0
   -1.5407   -3.4834    0.1945 C   0  0  2  0  0  0  0  0  0  0  0  0
   -1.4752   -2.1087   -0.5049 C   0  0  0  0  0  0  0  0  0  0  0  0
   -2.3072   -1.8361   -1.3602 O   0  0  0  0  0  0  0  0  0  0  0  0
   -0.5122   -4.4495   -0.4018 C   0  0  0  0  0  0  0  0  0  0  0  0
   -3.4722   -3.7045   -0.6696 H   0  0  0  0  0  0  0  0  0  0  0  0
   -1.3133   -3.3212    1.2536 H   0  0  0  0  0  0  0  0  0  0  0  0
   -0.7146   -4.6148   -1.4649 H   0  0  0  0  0  0  0  0  0  0  0  0
    0.5002   -4.0486   -0.2974 H   0  0  0  0  0  0  0  0  0  0  0  0
   -0.5551   -5.4135    0.1151 H   0  0  0  0  0  0  0  0  0  0  0  0
   -0.3925   -1.2749   -0.2786 N   0  0  0  0  0  0  0  0  0  0  0  0
   -0.3392    0.2014   -0.3847 C   0  0  2  0  0  0  0  0  0  0  0  0
   -1.4937    0.9401   -1.1193 C   0  0  0  0  0  0  0  0  0  0  0  0
   -2.6068    0.9436   -0.6070 O   0  0  0  0  0  0  0  0  0  0  0  0
    1.0312    0.5022   -1.0145 C   0  0  0  0  0  0  0  0  0  0  0  0
    2.3704   -0.0185    0.1378 S   0  0  0  0  0  0  0  0  0  0  0  0
    0.3086   -1.6724    0.3417 H   0  0  0  0  0  0  0  0  0  0  0  0
   -0.3488    0.6153    0.6286 H   0  0  0  0  0  0  0  0  0  0  0  0
    1.1278   -0.0171   -1.9746 H   0  0  0  0  0  0  0  0  0  0  0  0
    1.1436    1.5763   -1.1940 H   0  0  0  0  0  0  0  0  0  0  0  0
    3.4693    0.3427   -0.5624 H   0  0  0  0  0  0  0  0  0  0  0  0
   -1.2452    1.9456   -2.0392 N   0  0  0  0  0  0  0  0  0  0  0  0
   -2.2975    2.6830   -2.7501 C   0  0  2  0  0  0  0  0  0  0  0  0
   -1.8795    2.9734   -4.2063 C   0  0  0  0  0  0  0  0  0  0  0  0
   -0.7087    2.8334   -4.5474 O   0  0  0  0  0  0  0  0  0  0  0  0
   -2.5710    3.9879   -1.9971 C   0  0  0  0  0  0  0  0  0  0  0  0
   -0.3427    1.9172   -2.5112 H   0  0  0  0  0  0  0  0  0  0  0  0
   -3.2146    2.0841   -2.7858 H   0  0  0  0  0  0  0  0  0  0  0  0
   -1.6667    4.6034   -1.9576 H   0  0  0  0  0  0  0  0  0  0  0  0
   -3.3614    4.5595   -2.4923 H   0  0  0  0  0  0  0  0  0  0  0  0
   -2.8919    3.7731   -0.9730 H   0  0  0  0  0  0  0  0  0  0  0  0
   -2.8159    3.3830   -5.1372 N   0  0  0  0  0  0  0  0  0  0  0  0
   -2.4942    3.6442   -6.5348 C   0  0  0  0  0  0  0  0  0  0  0  0
   -3.7832    3.4489   -4.8335 H   0  0  0  0  0  0  0  0  0  0  0  0
   -1.7290    4.4239   -6.6129 H   0  0  0  0  0  0  0  0  0  0  0  0
   -2.1220    2.7351   -7.0188 H   0  0  0  0  0  0  0  0  0  0  0  0
   -3.3860    3.9818   -7.0717 H   0  0  0  0  0  0  0  0  0  0  0  0
  1  2  2  0  0  0  0
  1  3  1  0  0  0  0
  1  7  1  0  0  0  0
  3  4  1  0  0  0  0
  3  5  1  0  0  0  0
  3  6  1  0  0  0  0
  7  8  1  0  0  0  0
  7 12  1  0  0  0  0
  8  9  1  0  0  0  0
  8 11  1  0  0  0  0
  8 13  1  0  0  0  0
  9 10  2  0  0  0  0
  9 17  1  0  0  0  0
 11 14  1  0  0  0  0
 11 15  1  0  0  0  0
 11 16  1  0  0  0  0
 17 18  1  0  0  0  0
 17 23  1  0  0  0  0
 18 19  1  0  0  0  0
 18 21  1  0  0  0  0
 18 24  1  0  0  0  0
 19 20  2  0  0  0  0
 19 28  1  0  0  0  0
 21 22  1  0  0  0  0
 21 25  1  0  0  0  0
 21 26  1  0  0  0  0
 22 27  1  0  0  0  0
 28 29  1  0  0  0  0
 28 33  1  0  0  0  0
 29 30  1  0  0  0  0
 29 32  1  0  0  0  0
 29 34  1  0  0  0  0
 30 31  2  0  0  0  0
 30 38  1  0  0  0  0
 32 35  1  0  0  0  0
 32 36  1  0  0  0  0
 32 37  1  0  0  0  0
 38 39  1  0  0  0  0
 38 40  1  0  0  0  0
 39 41  1  0  0  0  0
 39 42  1  0  0  0  0
 39 43  1  0  0  0  0
M  END
$$$$

  -OEChem-05262216003D

 43 42  0     1  0  0  0  0  0999 V2000
   -3.3839   -4.9618    1.0750 C   0  0  0  0  0  0  0  0  0  0  0  0
   -2.6706   -5.3692    1.9786 O   0  0  0  0  0  0  0  0  0  0  0  0
   -4.8378   -5.3893    0.9997 C   0  0  0  0  0  0  0  0  0  0  0  0
   -5.0082   -5.9719    0.0912 H   0  0  0  0  0  0  0  0  0  0  0  0
   -5.0955   -6.0039    1.8668 H   0  0  0  0  0  0  0  0  0  0  0  0
   -5.4863   -4.5097    0.9870 H   0  0  0  0  0  0  0  0  0  0  0  0
   -2.8711   -4.1071    0.1228 N   0  0  0  0  0  0  0  0  0  0  0  0
   -1.5399   -3.4912    0.1926 C   0  0  2  0  0  0  0  0  0  0  0  0
   -1.5410   -2.0749   -0.4224 C   0  0  0  0  0  0  0  0  0  0  0  0
   -2.4497   -1.7540   -1.1765 O   0  0  0  0  0  0  0  0  0  0  0  0
   -0.5476   -4.4004   -0.5396 C   0  0  0  0  0  0  0  0  0  0  0  0
   -3.5302   -3.6889   -0.5338 H   0  0  0  0  0  0  0  0  0  0  0  0
   -1.2341   -3.3917    1.2398 H   0  0  0  0  0  0  0  0  0  0  0  0
   -0.8290   -4.5045   -1.5924 H   0  0  0  0  0  0  0  0  0  0  0  0
    0.4645   -3.9879   -0.4885 H   0  0  0  0  0  0  0  0  0  0  0  0
   -0.5369   -5.3945   -0.0814 H   0  0  0  0  0  0  0  0  0  0  0  0
   -0.4603   -1.2366   -0.2014 N   0  0  0  0  0  0  0  0  0  0  0  0
   -0.3892    0.2341   -0.3509 C   0  0  2  0  0  0  0  0  0  0  0  0
   -1.5207    0.9551   -1.1337 C   0  0  0  0  0  0  0  0  0  0  0  0
   -2.5886    1.1592   -0.5689 O   0  0  0  0  0  0  0  0  0  0  0  0
    0.9924    0.5131   -0.9635 C   0  0  0  0  0  0  0  0  0  0  0  0
    2.3117    0.0213    0.2234 S   0  0  0  0  0  0  0  0  0  0  0  0
    0.2704   -1.6396    0.3804 H   0  0  0  0  0  0  0  0  0  0  0  0
   -0.4170    0.6774    0.6498 H   0  0  0  0  0  0  0  0  0  0  0  0
    1.1058   -0.0343   -1.9058 H   0  0  0  0  0  0  0  0  0  0  0  0
    1.1034    1.5823   -1.1732 H   0  0  0  0  0  0  0  0  0  0  0  0
    3.4226    0.3557   -0.4707 H   0  0  0  0  0  0  0  0  0  0  0  0
   -1.2611    1.6935   -2.2763 N   0  0  0  0  0  0  0  0  0  0  0  0
   -2.2948    2.3787   -3.0614 C   0  0  2  0  0  0  0  0  0  0  0  0
   -1.9618    2.3288   -4.5670 C   0  0  0  0  0  0  0  0  0  0  0  0
   -0.8324    2.0196   -4.9352 O   0  0  0  0  0  0  0  0  0  0  0  0
   -2.3976    3.8284   -2.5771 C   0  0  0  0  0  0  0  0  0  0  0  0
   -0.4131    1.4549   -2.7887 H   0  0  0  0  0  0  0  0  0  0  0  0
   -3.2599    1.8794   -2.9211 H   0  0  0  0  0  0  0  0  0  0  0  0
   -1.4443    4.3482   -2.7164 H   0  0  0  0  0  0  0  0  0  0  0  0
   -3.1722    4.3651   -3.1327 H   0  0  0  0  0  0  0  0  0  0  0  0
   -2.6568    3.8543   -1.5139 H   0  0  0  0  0  0  0  0  0  0  0  0
   -2.9285    2.6194   -5.5116 N   0  0  0  0  0  0  0  0  0  0  0  0
   -2.6902    2.5451   -6.9480 C   0  0  0  0  0  0  0  0  0  0  0  0
   -3.8673    2.8179   -5.1775 H   0  0  0  0  0  0  0  0  0  0  0  0
   -1.8524    3.1910   -7.2320 H   0  0  0  0  0  0  0  0  0  0  0  0
   -2.4587    1.5167   -7.2452 H   0  0  0  0  0  0  0  0  0  0  0  0
   -3.5785    2.8734   -7.4965 H   0  0  0  0  0  0  0  0  0  0  0  0
  1  2  2  0  0  0  0
  1  3  1  0  0  0  0
  1  7  1  0  0  0  0
  3  4  1  0  0  0  0
  3  5  1  0  0  0  0
  3  6  1  0  0  0  0
  7  8  1  0  0  0  0
  7 12  1  0  0  0  0
  8  9  1  0  0  0  0
  8 11  1  0  0  0  0
  8 13  1  0  0  0  0
  9 10  2  0  0  0  0
  9 17  1  0  0  0  0
 11 14  1  0  0  0  0
 11 15  1  0  0  0  0
 11 16  1  0  0  0  0
 17 18  1  0  0  0  0
 17 23  1  0  0  0  0
 18 19  1  0  0  0  0
 18 21  1  0  0  0  0
 18 24  1  0  0  0  0
 19 20  2  0  0  0  0
 19 28  1  0  0  0  0
 21 22  1  0  0  0  0
 21 25  1  0  0  0  0
 21 26  1  0  0  0  0
 22 27  1  0  0  0  0
 28 29  1  0  0  0  0
 28 33  1  0  0  0  0
 29 30  1  0  0  0  0
 29 32  1  0  0  0  0
 29 34  1  0  0  0  0
 30 31  2  0  0  0  0
 30 38  1  0  0  0  0
 32 35  1  0  0  0  0
 32 36  1  0  0  0  0
 32 37  1  0  0  0  0
 38 39  1  0  0  0  0
 38 40  1  0  0  0  0
 39 41  1  0  0  0  0
 39 42  1  0  0  0  0
 39 43  1  0  0  0  0
M  END
$$$$

  -OEChem-05262216003D

 43 42  0     1  0  0  0  0  0999 V2000
   -3.3044   -5.0219    1.1095 C   0  0  0  0  0  0  0  0  0  0  0  0
   -2.5149   -5.4758    1.9230 O   0  0  0  0  0  0  0  0  0  0  0  0
   -4.7587   -5.4535    1.1362 C   0  0  0  0  0  0  0  0  0  0  0  0
   -5.0012   -6.0049    0.2244 H   0  0  0  0  0  0  0  0  0  0  0  0
   -4.9444   -6.0987    1.9995 H   0  0  0  0  0  0  0  0  0  0  0  0
   -5.4074   -4.5769    1.2075 H   0  0  0  0  0  0  0  0  0  0  0  0
   -2.8764   -4.1087    0.1695 N   0  0  0  0  0  0  0  0  0  0  0  0
   -1.5456   -3.4876    0.1660 C   0  0  2  0  0  0  0  0  0  0  0  0
   -1.5960   -2.0353   -0.3546 C   0  0  0  0  0  0  0  0  0  0  0  0
   -2.5666   -1.6676   -1.0024 O   0  0  0  0  0  0  0  0  0  0  0  0
   -0.6162   -4.3403   -0.7029 C   0  0  0  0  0  0  0  0  0  0  0  0
   -3.5892   -3.6603   -0.4059 H   0  0  0  0  0  0  0  0  0  0  0  0
   -1.1531   -3.4528    1.1880 H   0  0  0  0  0  0  0  0  0  0  0  0
   -0.9888   -4.3844   -1.7313 H   0  0  0  0  0  0  0  0  0  0  0  0
    0.3940   -3.9199   -0.7157 H   0  0  0  0  0  0  0  0  0  0  0  0
   -0.5598   -5.3599   -0.3081 H   0  0  0  0  0  0  0  0  0  0  0  0
   -0.5114   -1.2008   -0.1370 N   0  0  0  0  0  0  0  0  0  0  0  0
   -0.4202    0.2645   -0.3181 C   0  0  2  0  0  0  0  0  0  0  0  0
   -1.5310    0.9746   -1.1358 C   0  0  0  0  0  0  0  0  0  0  0  0
   -2.5250    1.3893   -0.5520 O   0  0  0  0  0  0  0  0  0  0  0  0
    0.9669    0.5283   -0.9226 C   0  0  0  0  0  0  0  0  0  0  0  0
    2.2725    0.0544    0.2860 S   0  0  0  0  0  0  0  0  0  0  0  0
    0.2495   -1.6188    0.3938 H   0  0  0  0  0  0  0  0  0  0  0  0
   -0.4570    0.7292    0.6728 H   0  0  0  0  0  0  0  0  0  0  0  0
    1.0911   -0.0382   -1.8521 H   0  0  0  0  0  0  0  0  0  0  0  0
    1.0750    1.5935   -1.1555 H   0  0  0  0  0  0  0  0  0  0  0  0
    3.3908    0.4028   -0.3895 H   0  0  0  0  0  0  0  0  0  0  0  0
   -1.3081    1.4152   -2.4292 N   0  0  0  0  0  0  0  0  0  0  0  0
   -2.3469    2.0141   -3.2752 C   0  0  2  0  0  0  0  0  0  0  0  0
   -2.1496    1.6151   -4.7527 C   0  0  0  0  0  0  0  0  0  0  0  0
   -1.0851    1.1263   -5.1198 O   0  0  0  0  0  0  0  0  0  0  0  0
   -2.2951    3.5367   -3.1130 C   0  0  0  0  0  0  0  0  0  0  0  0
   -0.5400    0.9721   -2.9315 H   0  0  0  0  0  0  0  0  0  0  0  0
   -3.3323    1.6492   -2.9651 H   0  0  0  0  0  0  0  0  0  0  0  0
   -1.3203    3.9226   -3.4281 H   0  0  0  0  0  0  0  0  0  0  0  0
   -3.0719    4.0143   -3.7174 H   0  0  0  0  0  0  0  0  0  0  0  0
   -2.4571    3.8119   -2.0660 H   0  0  0  0  0  0  0  0  0  0  0  0
   -3.1670    1.7940   -5.6715 N   0  0  0  0  0  0  0  0  0  0  0  0
   -3.0603    1.3977   -7.0705 C   0  0  0  0  0  0  0  0  0  0  0  0
   -4.0524    2.1543   -5.3276 H   0  0  0  0  0  0  0  0  0  0  0  0
   -2.2115    1.8990   -7.5476 H   0  0  0  0  0  0  0  0  0  0  0  0
   -2.9214    0.3146   -7.1523 H   0  0  0  0  0  0  0  0  0  0  0  0
   -3.9704    1.6719   -7.6126 H   0  0  0  0  0  0  0  0  0  0  0  0
  1  2  2  0  0  0  0
  1  3  1  0  0  0  0
  1  7  1  0  0  0  0
  3  4  1  0  0  0  0
  3  5  1  0  0  0  0
  3  6  1  0  0  0  0
  7  8  1  0  0  0  0
  7 12  1  0  0  0  0
  8  9  1  0  0  0  0
  8 11  1  0  0  0  0
  8 13  1  0  0  0  0
  9 10  2  0  0  0  0
  9 17  1  0  0  0  0
 11 14  1  0  0  0  0
 11 15  1  0  0  0  0
 11 16  1  0  0  0  0
 17 18  1  0  0  0  0
 17 23  1  0  0  0  0
 18 19  1  0  0  0  0
 18 21  1  0  0  0  0
 18 24  1  0  0  0  0
 19 20  2  0  0  0  0
 19 28  1  0  0  0  0
 21 22  1  0  0  0  0
 21 25  1  0  0  0  0
 21 26  1  0  0  0  0
 22 27  1  0  0  0  0
 28 29  1  0  0  0  0
 28 33  1  0  0  0  0
 29 30  1  0  0  0  0
 29 32  1  0  0  0  0
 29 34  1  0  0  0  0
 30 31  2  0  0  0  0
 30 38  1  0  0  0  0
 32 35  1  0  0  0  0
 32 36  1  0  0  0  0
 32 37  1  0  0  0  0
 38 39  1  0  0  0  0
 38 40  1  0  0  0  0
 39 41  1  0  0  0  0
 39 42  1  0  0  0  0
 39 43  1  0  0  0  0
M  END
$$$$

  -OEChem-05262216003D

 43 42  0     1  0  0  0  0  0999 V2000
   -3.2427   -5.0402    1.1380 C   0  0  0  0  0  0  0  0  0  0  0  0
   -2.4118   -5.5082    1.9004 O   0  0  0  0  0  0  0  0  0  0  0  0
   -4.6922   -5.4777    1.2294 C   0  0  0  0  0  0  0  0  0  0  0  0
   -4.9860   -5.9868    0.3082 H   0  0  0  0  0  0  0  0  0  0  0  0
   -4.8268   -6.1640    2.0702 H   0  0  0  0  0  0  0  0  0  0  0  0
   -5.3368   -4.6078    1.3786 H   0  0  0  0  0  0  0  0  0  0  0  0
   -2.8661   -4.1088    0.1943 N   0  0  0  0  0  0  0  0  0  0  0  0
   -1.5359   -3.4907    0.1267 C   0  0  2  0  0  0  0  0  0  0  0  0
   -1.6188   -2.0134   -0.3126 C   0  0  0  0  0  0  0  0  0  0  0  0
   -2.6246   -1.6191   -0.8880 O   0  0  0  0  0  0  0  0  0  0  0  0
   -0.6826   -4.2981   -0.8557 C   0  0  0  0  0  0  0  0  0  0  0  0
   -3.6088   -3.6494   -0.3321 H   0  0  0  0  0  0  0  0  0  0  0  0
   -1.0660   -3.5117    1.1161 H   0  0  0  0  0  0  0  0  0  0  0  0
   -1.1287   -4.2783   -1.8553 H   0  0  0  0  0  0  0  0  0  0  0  0
    0.3289   -3.8853   -0.9165 H   0  0  0  0  0  0  0  0  0  0  0  0
   -0.6108   -5.3398   -0.5269 H   0  0  0  0  0  0  0  0  0  0  0  0
   -0.5388   -1.1749   -0.0857 N   0  0  0  0  0  0  0  0  0  0  0  0
   -0.4468    0.2873   -0.2878 C   0  0  2  0  0  0  0  0  0  0  0  0
   -1.5438    0.9725   -1.1392 C   0  0  0  0  0  0  0  0  0  0  0  0
   -2.4367    1.5967   -0.5790 O   0  0  0  0  0  0  0  0  0  0  0  0
    0.9408    0.5615   -0.8830 C   0  0  0  0  0  0  0  0  0  0  0  0
    2.2432    0.1171    0.3392 S   0  0  0  0  0  0  0  0  0  0  0  0
    0.2450   -1.5996    0.4052 H   0  0  0  0  0  0  0  0  0  0  0  0
   -0.5023    0.7668    0.6955 H   0  0  0  0  0  0  0  0  0  0  0  0
    1.0811   -0.0138   -1.8043 H   0  0  0  0  0  0  0  0  0  0  0  0
    1.0327    1.6249   -1.1303 H   0  0  0  0  0  0  0  0  0  0  0  0
    3.3597    0.4944   -0.3238 H   0  0  0  0  0  0  0  0  0  0  0  0
   -1.3991    1.1068   -2.5085 N   0  0  0  0  0  0  0  0  0  0  0  0
   -2.4539    1.6265   -3.3851 C   0  0  2  0  0  0  0  0  0  0  0  0
   -2.4477    0.8988   -4.7456 C   0  0  0  0  0  0  0  0  0  0  0  0
   -1.4762    0.2263   -5.0786 O   0  0  0  0  0  0  0  0  0  0  0  0
   -2.2327    3.1300   -3.5729 C   0  0  0  0  0  0  0  0  0  0  0  0
   -0.7458    0.4622   -2.9520 H   0  0  0  0  0  0  0  0  0  0  0  0
   -3.4346    1.4567   -2.9271 H   0  0  0  0  0  0  0  0  0  0  0  0
   -1.2573    3.3179   -4.0330 H   0  0  0  0  0  0  0  0  0  0  0  0
   -3.0098    3.5567   -4.2140 H   0  0  0  0  0  0  0  0  0  0  0  0
   -2.2663    3.6404   -2.6052 H   0  0  0  0  0  0  0  0  0  0  0  0
   -3.5312    0.9948   -5.5993 N   0  0  0  0  0  0  0  0  0  0  0  0
   -3.6020    0.3048   -6.8816 C   0  0  0  0  0  0  0  0  0  0  0  0
   -4.3388    1.5200   -5.2765 H   0  0  0  0  0  0  0  0  0  0  0  0
   -2.7705    0.6084   -7.5266 H   0  0  0  0  0  0  0  0  0  0  0  0
   -3.5578   -0.7796   -6.7356 H   0  0  0  0  0  0  0  0  0  0  0  0
   -4.5394    0.5474   -7.3910 H   0  0  0  0  0  0  0  0  0  0  0  0
  1  2  2  0  0  0  0
  1  3  1  0  0  0  0
  1  7  1  0  0  0  0
  3  4  1  0  0  0  0
  3  5  1  0  0  0  0
  3  6  1  0  0  0  0
  7  8  1  0  0  0  0
  7 12  1  0  0  0  0
  8  9  1  0  0  0  0
  8 11  1  0  0  0  0
  8 13  1  0  0  0  0
  9 10  2  0  0  0  0
  9 17  1  0  0  0  0
 11 14  1  0  0  0  0
 11 15  1  0  0  0  0
 11 16  1  0  0  0  0
 17 18  1  0  0  0  0
 17 23  1  0  0  0  0
 18 19  1  0  0  0  0
 18 21  1  0  0  0  0
 18 24  1  0  0  0  0
 19 20  2  0  0  0  0
 19 28  1  0  0  0  0
 21 22  1  0  0  0  0
 21 25  1  0  0  0  0
 21 26  1  0  0  0  0
 22 27  1  0  0  0  0
 28 29  1  0  0  0  0
 28 33  1  0  0  0  0
 29 30  1  0  0  0  0
 29 32  1  0  0  0  0
 29 34  1  0  0  0  0
 30 31  2  0  0  0  0
 30 38  1  0  0  0  0
 32 35  1  0  0  0  0
 32 36  1  0  0  0  0
 32 37  1  0  0  0  0
 38 39  1  0  0  0  0
 38 40  1  0  0  0  0
 39 41  1  0  0  0  0
 39 42  1  0  0  0  0
 39 43  1  0  0  0  0
M  END
$$$$

  -OEChem-05262216003D

 43 42  0     1  0  0  0  0  0999 V2000
   -3.1953   -5.0645    1.1289 C   0  0  0  0  0  0  0  0  0  0  0  0
   -2.3343   -5.5435    1.8499 O   0  0  0  0  0  0  0  0  0  0  0  0
   -4.6392   -5.5094    1.2671 C   0  0  0  0  0  0  0  0  0  0  0  0
   -4.9799   -5.9650    0.3343 H   0  0  0  0  0  0  0  0  0  0  0  0
   -4.7323   -6.2429    2.0729 H   0  0  0  0  0  0  0  0  0  0  0  0
   -5.2742   -4.6507    1.4981 H   0  0  0  0  0  0  0  0  0  0  0  0
   -2.8583   -4.1113    0.1917 N   0  0  0  0  0  0  0  0  0  0  0  0
   -1.5357   -3.4811    0.0903 C   0  0  2  0  0  0  0  0  0  0  0  0
   -1.6463   -1.9849   -0.2700 C   0  0  0  0  0  0  0  0  0  0  0  0
   -2.6825   -1.5665   -0.7696 O   0  0  0  0  0  0  0  0  0  0  0  0
   -0.7301   -4.2313   -0.9738 C   0  0  0  0  0  0  0  0  0  0  0  0
   -3.6232   -3.6456   -0.2959 H   0  0  0  0  0  0  0  0  0  0  0  0
   -1.0154   -3.5476    1.0520 H   0  0  0  0  0  0  0  0  0  0  0  0
   -1.2257   -4.1619   -1.9477 H   0  0  0  0  0  0  0  0  0  0  0  0
    0.2755   -3.8100   -1.0637 H   0  0  0  0  0  0  0  0  0  0  0  0
   -0.6389   -5.2881   -0.7031 H   0  0  0  0  0  0  0  0  0  0  0  0
   -0.5674   -1.1461   -0.0379 N   0  0  0  0  0  0  0  0  0  0  0  0
   -0.4648    0.3120   -0.2637 C   0  0  2  0  0  0  0  0  0  0  0  0
   -1.5422    0.9813   -1.1483 C   0  0  0  0  0  0  0  0  0  0  0  0
   -2.2948    1.8169   -0.6627 O   0  0  0  0  0  0  0  0  0  0  0  0
    0.9247    0.5792   -0.8557 C   0  0  0  0  0  0  0  0  0  0  0  0
    2.2222    0.1527    0.3780 S   0  0  0  0  0  0  0  0  0  0  0  0
    0.2361   -1.5801    0.4117 H   0  0  0  0  0  0  0  0  0  0  0  0
   -0.5322    0.8089    0.7100 H   0  0  0  0  0  0  0  0  0  0  0  0
    1.0700   -0.0055   -1.7702 H   0  0  0  0  0  0  0  0  0  0  0  0
    1.0145    1.6399   -1.1155 H   0  0  0  0  0  0  0  0  0  0  0  0
    3.3418    0.5315   -0.2786 H   0  0  0  0  0  0  0  0  0  0  0  0
   -1.5171    0.8145   -2.5207 N   0  0  0  0  0  0  0  0  0  0  0  0
   -2.6005    1.2586   -3.4026 C   0  0  2  0  0  0  0  0  0  0  0  0
   -2.8201    0.2507   -4.5503 C   0  0  0  0  0  0  0  0  0  0  0  0
   -1.9581   -0.5833   -4.8123 O   0  0  0  0  0  0  0  0  0  0  0  0
   -2.2402    2.6406   -3.9536 C   0  0  0  0  0  0  0  0  0  0  0  0
   -1.0017   -0.0009   -2.8513 H   0  0  0  0  0  0  0  0  0  0  0  0
   -3.5377    1.3227   -2.8384 H   0  0  0  0  0  0  0  0  0  0  0  0
   -1.3079    2.5926   -4.5253 H   0  0  0  0  0  0  0  0  0  0  0  0
   -3.0334    3.0124   -4.6087 H   0  0  0  0  0  0  0  0  0  0  0  0
   -2.1095    3.3522   -3.1323 H   0  0  0  0  0  0  0  0  0  0  0  0
   -3.9835    0.2804   -5.2968 N   0  0  0  0  0  0  0  0  0  0  0  0
   -4.2686   -0.6628   -6.3711 C   0  0  0  0  0  0  0  0  0  0  0  0
   -4.7000    0.9458   -5.0218 H   0  0  0  0  0  0  0  0  0  0  0  0
   -3.4897   -0.6162   -7.1395 H   0  0  0  0  0  0  0  0  0  0  0  0
   -4.3169   -1.6845   -5.9803 H   0  0  0  0  0  0  0  0  0  0  0  0
   -5.2285   -0.4243   -6.8390 H   0  0  0  0  0  0  0  0  0  0  0  0
  1  2  2  0  0  0  0
  1  3  1  0  0  0  0
  1  7  1  0  0  0  0
  3  4  1  0  0  0  0
  3  5  1  0  0  0  0
  3  6  1  0  0  0  0
  7  8  1  0  0  0  0
  7 12  1  0  0  0  0
  8  9  1  0  0  0  0
  8 11  1  0  0  0  0
  8 13  1  0  0  0  0
  9 10  2  0  0  0  0
  9 17  1  0  0  0  0
 11 14  1  0  0  0  0
 11 15  1  0  0  0  0
 11 16  1  0  0  0  0
 17 18  1  0  0  0  0
 17 23  1  0  0  0  0
 18 19  1  0  0  0  0
 18 21  1  0  0  0  0
 18 24  1  0  0  0  0
 19 20  2  0  0  0  0
 19 28  1  0  0  0  0
 21 22  1  0  0  0  0
 21 25  1  0  0  0  0
 21 26  1  0  0  0  0
 22 27  1  0  0  0  0
 28 29  1  0  0  0  0
 28 33  1  0  0  0  0
 29 30  1  0  0  0  0
 29 32  1  0  0  0  0
 29 34  1  0  0  0  0
 30 31  2  0  0  0  0
 30 38  1  0  0  0  0
 32 35  1  0  0  0  0
 32 36  1  0  0  0  0
 32 37  1  0  0  0  0
 38 39  1  0  0  0  0
 38 40  1  0  0  0  0
 39 41  1  0  0  0  0
 39 42  1  0  0  0  0
 39 43  1  0  0  0  0
M  END
$$$$

  -OEChem-05262216003D

 43 42  0     1  0  0  0  0  0999 V2000
   -3.1413   -5.1077    1.1031 C   0  0  0  0  0  0  0  0  0  0  0  0
   -2.2346   -5.6193    1.7409 O   0  0  0  0  0  0  0  0  0  0  0  0
   -4.5700   -5.5781    1.3014 C   0  0  0  0  0  0  0  0  0  0  0  0
   -4.9605   -5.9887    0.3671 H   0  0  0  0  0  0  0  0  0  0  0  0
   -4.6070   -6.3546    2.0709 H   0  0  0  0  0  0  0  0  0  0  0  0
   -5.1993   -4.7414    1.6149 H   0  0  0  0  0  0  0  0  0  0  0  0
   -2.8696   -4.0952    0.2079 N   0  0  0  0  0  0  0  0  0  0  0  0
   -1.5591   -3.4484    0.0635 C   0  0  2  0  0  0  0  0  0  0  0  0
   -1.6968   -1.9312   -0.1793 C   0  0  0  0  0  0  0  0  0  0  0  0
   -2.7689   -1.4793   -0.5597 O   0  0  0  0  0  0  0  0  0  0  0  0
   -0.8256   -4.1107   -1.1061 C   0  0  0  0  0  0  0  0  0  0  0  0
   -3.6659   -3.6087   -0.2029 H   0  0  0  0  0  0  0  0  0  0  0  0
   -0.9734   -3.5813    0.9797 H   0  0  0  0  0  0  0  0  0  0  0  0
   -1.3854   -3.9717   -2.0370 H   0  0  0  0  0  0  0  0  0  0  0  0
    0.1710   -3.6769   -1.2311 H   0  0  0  0  0  0  0  0  0  0  0  0
   -0.7138   -5.1841   -0.9227 H   0  0  0  0  0  0  0  0  0  0  0  0
   -0.6085   -1.1019    0.0426 N   0  0  0  0  0  0  0  0  0  0  0  0
   -0.4742    0.3448   -0.2377 C   0  0  2  0  0  0  0  0  0  0  0  0
   -1.5178    0.9978   -1.1718 C   0  0  0  0  0  0  0  0  0  0  0  0
   -2.0946    2.0220   -0.8289 O   0  0  0  0  0  0  0  0  0  0  0  0
    0.9202    0.5604   -0.8366 C   0  0  0  0  0  0  0  0  0  0  0  0
    2.2086    0.1529    0.4129 S   0  0  0  0  0  0  0  0  0  0  0  0
    0.2212   -1.5576    0.4171 H   0  0  0  0  0  0  0  0  0  0  0  0
   -0.5402    0.8838    0.7134 H   0  0  0  0  0  0  0  0  0  0  0  0
    1.0521   -0.0581   -1.7309 H   0  0  0  0  0  0  0  0  0  0  0  0
    1.0312    1.6092   -1.1339 H   0  0  0  0  0  0  0  0  0  0  0  0
    3.3344    0.5025   -0.2493 H   0  0  0  0  0  0  0  0  0  0  0  0
   -1.6561    0.5409   -2.4690 N   0  0  0  0  0  0  0  0  0  0  0  0
   -2.7819    0.9095   -3.3311 C   0  0  2  0  0  0  0  0  0  0  0  0
   -3.2317   -0.2966   -4.1835 C   0  0  0  0  0  0  0  0  0  0  0  0
   -2.4918   -1.2674   -4.3204 O   0  0  0  0  0  0  0  0  0  0  0  0
   -2.3509    2.0767   -4.2224 C   0  0  0  0  0  0  0  0  0  0  0  0
   -1.2897   -0.3967   -2.6314 H   0  0  0  0  0  0  0  0  0  0  0  0
   -3.6362    1.2150   -2.7170 H   0  0  0  0  0  0  0  0  0  0  0  0
   -1.5020    1.7855   -4.8493 H   0  0  0  0  0  0  0  0  0  0  0  0
   -3.1744    2.3889   -4.8714 H   0  0  0  0  0  0  0  0  0  0  0  0
   -2.0533    2.9315   -3.6068 H   0  0  0  0  0  0  0  0  0  0  0  0
   -4.4633   -0.2901   -4.8125 N   0  0  0  0  0  0  0  0  0  0  0  0
   -4.9557   -1.3984   -5.6214 C   0  0  0  0  0  0  0  0  0  0  0  0
   -5.0697    0.5083   -4.6487 H   0  0  0  0  0  0  0  0  0  0  0  0
   -4.2880   -1.5791   -6.4704 H   0  0  0  0  0  0  0  0  0  0  0  0
   -5.0195   -2.3125   -5.0217 H   0  0  0  0  0  0  0  0  0  0  0  0
   -5.9529   -1.1691   -6.0092 H   0  0  0  0  0  0  0  0  0  0  0  0
  1  2  2  0  0  0  0
  1  3  1  0  0  0  0
  1  7  1  0  0  0  0
  3  4  1  0  0  0  0
  3  5  1  0  0  0  0
  3  6  1  0  0  0  0
  7  8  1  0  0  0  0
  7 12  1  0  0  0  0
  8  9  1  0  0  0  0
  8 11  1  0  0  0  0
  8 13  1  0  0  0  0
  9 10  2  0  0  0  0
  9 17  1  0  0  0  0
 11 14  1  0  0  0  0
 11 15  1  0  0  0  0
 11 16  1  0  0  0  0
 17 18  1  0  0  0  0
 17 23  1  0  0  0  0
 18 19  1  0  0  0  0
 18 21  1  0  0  0  0
 18 24  1  0  0  0  0
 19 20  2  0  0  0  0
 19 28  1  0  0  0  0
 21 22  1  0  0  0  0
 21 25  1  0  0  0  0
 21 26  1  0  0  0  0
 22 27  1  0  0  0  0
 28 29  1  0  0  0  0
 28 33  1  0  0  0  0
 29 30  1  0  0  0  0
 29 32  1  0  0  0  0
 29 34  1  0  0  0  0
 30 31  2  0  0  0  0
 30 38  1  0  0  0  0
 32 35  1  0  0  0  0
 32 36  1  0  0  0  0
 32 37  1  0  0  0  0
 38 39  1  0  0  0  0
 38 40  1  0  0  0  0
 39 41  1  0  0  0  0
 39 42  1  0  0  0  0
 39 43  1  0  0  0  0
M  END
$$$$

  -OEChem-05262216003D

 43 42  0     1  0  0  0  0  0999 V2000
   -3.0472   -5.1941    1.1494 C   0  0  0  0  0  0  0  0  0  0  0  0
   -2.1159   -5.7014    1.7548 O   0  0  0  0  0  0  0  0  0  0  0  0
   -4.4594   -5.7098    1.3510 C   0  0  0  0  0  0  0  0  0  0  0  0
   -4.8548   -6.0906    0.4062 H   0  0  0  0  0  0  0  0  0  0  0  0
   -4.4650   -6.5185    2.0872 H   0  0  0  0  0  0  0  0  0  0  0  0
   -5.1034   -4.9029    1.7094 H   0  0  0  0  0  0  0  0  0  0  0  0
   -2.8198   -4.1457    0.2842 N   0  0  0  0  0  0  0  0  0  0  0  0
   -1.5321   -3.4563    0.1359 C   0  0  2  0  0  0  0  0  0  0  0  0
   -1.7163   -1.9331   -0.0225 C   0  0  0  0  0  0  0  0  0  0  0  0
   -2.8213   -1.4837   -0.2952 O   0  0  0  0  0  0  0  0  0  0  0  0
   -0.8286   -4.0359   -1.0941 C   0  0  0  0  0  0  0  0  0  0  0  0
   -3.6369   -3.6749   -0.1037 H   0  0  0  0  0  0  0  0  0  0  0  0
   -0.9112   -3.6226    1.0228 H   0  0  0  0  0  0  0  0  0  0  0  0
   -1.4263   -3.8591   -1.9949 H   0  0  0  0  0  0  0  0  0  0  0  0
    0.1534   -3.5735   -1.2309 H   0  0  0  0  0  0  0  0  0  0  0  0
   -0.6886   -5.1150   -0.9756 H   0  0  0  0  0  0  0  0  0  0  0  0
   -0.6382   -1.0806    0.1524 N   0  0  0  0  0  0  0  0  0  0  0  0
   -0.5164    0.3452   -0.2324 C   0  0  2  0  0  0  0  0  0  0  0  0
   -1.5422    0.9414   -1.2260 C   0  0  0  0  0  0  0  0  0  0  0  0
   -1.9141    2.1004   -1.0933 O   0  0  0  0  0  0  0  0  0  0  0  0
    0.8787    0.5227   -0.8421 C   0  0  0  0  0  0  0  0  0  0  0  0
    2.1672    0.2157    0.4357 S   0  0  0  0  0  0  0  0  0  0  0  0
    0.2221   -1.5236    0.4689 H   0  0  0  0  0  0  0  0  0  0  0  0
   -0.5910    0.9501    0.6779 H   0  0  0  0  0  0  0  0  0  0  0  0
    1.0137   -0.1575   -1.6899 H   0  0  0  0  0  0  0  0  0  0  0  0
    0.9874    1.5475   -1.2147 H   0  0  0  0  0  0  0  0  0  0  0  0
    3.2909    0.5418   -0.2423 H   0  0  0  0  0  0  0  0  0  0  0  0
   -1.8934    0.2464   -2.3682 N   0  0  0  0  0  0  0  0  0  0  0  0
   -3.0086    0.6267   -3.2381 C   0  0  2  0  0  0  0  0  0  0  0  0
   -3.7196   -0.6304   -3.7840 C   0  0  0  0  0  0  0  0  0  0  0  0
   -3.1419   -1.7142   -3.7938 O   0  0  0  0  0  0  0  0  0  0  0  0
   -2.4669    1.4841   -4.3844 C   0  0  0  0  0  0  0  0  0  0  0  0
   -1.7240   -0.7581   -2.3175 H   0  0  0  0  0  0  0  0  0  0  0  0
   -3.7448    1.2028   -2.6676 H   0  0  0  0  0  0  0  0  0  0  0  0
   -1.7314    0.9216   -4.9683 H   0  0  0  0  0  0  0  0  0  0  0  0
   -3.2791    1.7925   -5.0493 H   0  0  0  0  0  0  0  0  0  0  0  0
   -1.9848    2.3833   -3.9883 H   0  0  0  0  0  0  0  0  0  0  0  0
   -5.0080   -0.5466   -4.2788 N   0  0  0  0  0  0  0  0  0  0  0  0
   -5.7469   -1.6977   -4.7828 C   0  0  0  0  0  0  0  0  0  0  0  0
   -5.4787    0.3510   -4.2118 H   0  0  0  0  0  0  0  0  0  0  0  0
   -5.2195   -2.1514   -5.6286 H   0  0  0  0  0  0  0  0  0  0  0  0
   -5.8658   -2.4508   -3.9969 H   0  0  0  0  0  0  0  0  0  0  0  0
   -6.7411   -1.3904   -5.1210 H   0  0  0  0  0  0  0  0  0  0  0  0
  1  2  2  0  0  0  0
  1  3  1  0  0  0  0
  1  7  1  0  0  0  0
  3  4  1  0  0  0  0
  3  5  1  0  0  0  0
  3  6  1  0  0  0  0
  7  8  1  0  0  0  0
  7 12  1  0  0  0  0
  8  9  1  0  0  0  0
  8 11  1  0  0  0  0
  8 13  1  0  0  0  0
  9 10  2  0  0  0  0
  9 17  1  0  0  0  0
 11 14  1  0  0  0  0
 11 15  1  0  0  0  0
 11 16  1  0  0  0  0
 17 18  1  0  0  0  0
 17 23  1  0  0  0  0
 18 19  1  0  0  0  0
 18 21  1  0  0  0  0
 18 24  1  0  0  0  0
 19 20  2  0  0  0  0
 19 28  1  0  0  0  0
 21 22  1  0  0  0  0
 21 25  1  0  0  0  0
 21 26  1  0  0  0  0
 22 27  1  0  0  0  0
 28 29  1  0  0  0  0
 28 33  1  0  0  0  0
 29 30  1  0  0  0  0
 29 32  1  0  0  0  0
 29 34  1  0  0  0  0
 30 31  2  0  0  0  0
 30 38  1  0  0  0  0
 32 35  1  0  0  0  0
 32 36  1  0  0  0  0
 32 37  1  0  0  0  0
 38 39  1  0  0  0  0
 38 40  1  0  0  0  0
 39 41  1  0  0  0  0
 39 42  1  0  0  0  0
 39 43  1  0  0  0  0
M  END
$$$$

  -OEChem-05262216003D

 43 42  0     1  0  0  0  0  0999 V2000
   -2.8040   -5.4374    1.3184 C   0  0  0  0  0  0  0  0  0  0  0  0
   -1.8688   -5.8904    1.9599 O   0  0  0  0  0  0  0  0  0  0  0  0
   -4.1643   -6.1063    1.3777 C   0  0  0  0  0  0  0  0  0  0  0  0
   -4.4382   -6.4815    0.3885 H   0  0  0  0  0  0  0  0  0  0  0  0
   -4.1414   -6.9445    2.0798 H   0  0  0  0  0  0  0  0  0  0  0  0
   -4.9193   -5.3896    1.7096 H   0  0  0  0  0  0  0  0  0  0  0  0
   -2.6234   -4.3146    0.5394 N   0  0  0  0  0  0  0  0  0  0  0  0
   -1.3900   -3.5181    0.5045 C   0  0  2  0  0  0  0  0  0  0  0  0
   -1.6722   -2.0373    0.1695 C   0  0  0  0  0  0  0  0  0  0  0  0
   -2.8136   -1.6792   -0.0818 O   0  0  0  0  0  0  0  0  0  0  0  0
   -0.4509   -4.1382   -0.5367 C   0  0  0  0  0  0  0  0  0  0  0  0
   -3.4513   -3.9026    0.1084 H   0  0  0  0  0  0  0  0  0  0  0  0
   -0.9083   -3.5435    1.4882 H   0  0  0  0  0  0  0  0  0  0  0  0
   -0.9141   -4.1178   -1.5287 H   0  0  0  0  0  0  0  0  0  0  0  0
    0.4955   -3.5912   -0.5807 H   0  0  0  0  0  0  0  0  0  0  0  0
   -0.2315   -5.1788   -0.2767 H   0  0  0  0  0  0  0  0  0  0  0  0
   -0.6427   -1.1129    0.1892 N   0  0  0  0  0  0  0  0  0  0  0  0
   -0.6070    0.2817   -0.3125 C   0  0  2  0  0  0  0  0  0  0  0  0
   -1.6919    0.8229   -1.2819 C   0  0  0  0  0  0  0  0  0  0  0  0
   -1.8206    2.0365   -1.3896 O   0  0  0  0  0  0  0  0  0  0  0  0
    0.7447    0.4253   -1.0236 C   0  0  0  0  0  0  0  0  0  0  0  0
    2.1174    0.2519    0.1909 S   0  0  0  0  0  0  0  0  0  0  0  0
    0.2565   -1.4807    0.4942 H   0  0  0  0  0  0  0  0  0  0  0  0
   -0.6324    0.9493    0.5549 H   0  0  0  0  0  0  0  0  0  0  0  0
    0.8381   -0.3249   -1.8160 H   0  0  0  0  0  0  0  0  0  0  0  0
    0.8130    1.4141   -1.4918 H   0  0  0  0  0  0  0  0  0  0  0  0
    3.1874    0.5321   -0.5864 H   0  0  0  0  0  0  0  0  0  0  0  0
   -2.3510    0.0139   -2.1878 N   0  0  0  0  0  0  0  0  0  0  0  0
   -3.3755    0.4875   -3.1250 C   0  0  2  0  0  0  0  0  0  0  0  0
   -4.4182   -0.6095   -3.4268 C   0  0  0  0  0  0  0  0  0  0  0  0
   -4.1278   -1.7962   -3.3164 O   0  0  0  0  0  0  0  0  0  0  0  0
   -2.6853    0.9328   -4.4182 C   0  0  0  0  0  0  0  0  0  0  0  0
   -2.4455   -0.9608   -1.8893 H   0  0  0  0  0  0  0  0  0  0  0  0
   -3.9106    1.3367   -2.6871 H   0  0  0  0  0  0  0  0  0  0  0  0
   -2.1451    0.0946   -4.8703 H   0  0  0  0  0  0  0  0  0  0  0  0
   -3.4212    1.3027   -5.1386 H   0  0  0  0  0  0  0  0  0  0  0  0
   -1.9721    1.7366   -4.2104 H   0  0  0  0  0  0  0  0  0  0  0  0
   -5.6900   -0.2613   -3.8437 N   0  0  0  0  0  0  0  0  0  0  0  0
   -6.7379   -1.2382   -4.1115 C   0  0  0  0  0  0  0  0  0  0  0  0
   -5.9153    0.7283   -3.8867 H   0  0  0  0  0  0  0  0  0  0  0  0
   -6.4281   -1.9223   -4.9085 H   0  0  0  0  0  0  0  0  0  0  0  0
   -6.9562   -1.8210   -3.2103 H   0  0  0  0  0  0  0  0  0  0  0  0
   -7.6554   -0.7327   -4.4276 H   0  0  0  0  0  0  0  0  0  0  0  0
  1  2  2  0  0  0  0
  1  3  1  0  0  0  0
  1  7  1  0  0  0  0
  3  4  1  0  0  0  0
  3  5  1  0  0  0  0
  3  6  1  0  0  0  0
  7  8  1  0  0  0  0
  7 12  1  0  0  0  0
  8  9  1  0  0  0  0
  8 11  1  0  0  0  0
  8 13  1  0  0  0  0
  9 10  2  0  0  0  0
  9 17  1  0  0  0  0
 11 14  1  0  0  0  0
 11 15  1  0  0  0  0
 11 16  1  0  0  0  0
 17 18  1  0  0  0  0
 17 23  1  0  0  0  0
 18 19  1  0  0  0  0
 18 21  1  0  0  0  0
 18 24  1  0  0  0  0
 19 20  2  0  0  0  0
 19 28  1  0  0  0  0
 21 22  1  0  0  0  0
 21 25  1  0  0  0  0
 21 26  1  0  0  0  0
 22 27  1  0  0  0  0
 28 29  1  0  0  0  0
 28 33  1  0  0  0  0
 29 30  1  0  0  0  0
 29 32  1  0  0  0  0
 29 34  1  0  0  0  0
 30 31  2  0  0  0  0
 30 38  1  0  0  0  0
 32 35  1  0  0  0  0
 32 36  1  0  0  0  0
 32 37  1  0  0  0  0
 38 39  1  0  0  0  0
 38 40  1  0  0  0  0
 39 41  1  0  0  0  0
 39 42  1  0  0  0  0
 39 43  1  0  0  0  0
M  END
$$$$

  -OEChem-05262216003D

 43 42  0     1  0  0  0  0  0999 V2000
   -3.2075   -4.9673    0.3363 C   0  0  0  0  0  0  0  0  0  0  0  0
   -2.6162   -5.7482    1.0666 O   0  0  0  0  0  0  0  0  0  0  0  0
   -4.5440   -5.3471   -0.2721 C   0  0  0  0  0  0  0  0  0  0  0  0
   -4.4603   -5.3793   -1.3613 H   0  0  0  0  0  0  0  0  0  0  0  0
   -4.8603   -6.3291    0.0897 H   0  0  0  0  0  0  0  0  0  0  0  0
   -5.3003   -4.6075    0.0027 H   0  0  0  0  0  0  0  0  0  0  0  0
   -2.6647   -3.7335    0.0551 N   0  0  0  0  0  0  0  0  0  0  0  0
   -1.4729   -3.1798    0.7204 C   0  0  2  0  0  0  0  0  0  0  0  0
   -1.5260   -1.6357    0.7293 C   0  0  0  0  0  0  0  0  0  0  0  0
   -2.6049   -1.0764    0.8600 O   0  0  0  0  0  0  0  0  0  0  0  0
   -0.2258   -3.7204    0.0053 C   0  0  0  0  0  0  0  0  0  0  0  0
   -3.2848   -3.0873   -0.4463 H   0  0  0  0  0  0  0  0  0  0  0  0
   -1.4499   -3.5048    1.7667 H   0  0  0  0  0  0  0  0  0  0  0  0
   -0.1999   -3.3784   -1.0342 H   0  0  0  0  0  0  0  0  0  0  0  0
    0.6856   -3.3889    0.5117 H   0  0  0  0  0  0  0  0  0  0  0  0
   -0.2329   -4.8150    0.0079 H   0  0  0  0  0  0  0  0  0  0  0  0
   -0.4208   -0.8479    0.4567 N   0  0  0  0  0  0  0  0  0  0  0  0
   -0.3740    0.3731   -0.3914 C   0  0  2  0  0  0  0  0  0  0  0  0
   -1.5405    0.7080   -1.3692 C   0  0  0  0  0  0  0  0  0  0  0  0
   -1.5499    1.7873   -1.9471 O   0  0  0  0  0  0  0  0  0  0  0  0
    0.8995    0.2326   -1.2391 C   0  0  0  0  0  0  0  0  0  0  0  0
    2.3918    0.2678   -0.1629 S   0  0  0  0  0  0  0  0  0  0  0  0
    0.4656   -1.3433    0.5180 H   0  0  0  0  0  0  0  0  0  0  0  0
   -0.2793    1.2414    0.2689 H   0  0  0  0  0  0  0  0  0  0  0  0
    0.8687   -0.6948   -1.8208 H   0  0  0  0  0  0  0  0  0  0  0  0
    0.9665    1.0663   -1.9474 H   0  0  0  0  0  0  0  0  0  0  0  0
    3.3779    0.2959   -1.0875 H   0  0  0  0  0  0  0  0  0  0  0  0
   -2.4931   -0.2261   -1.7231 N   0  0  0  0  0  0  0  0  0  0  0  0
   -3.6711    0.0057   -2.5588 C   0  0  2  0  0  0  0  0  0  0  0  0
   -4.7513   -1.0553   -2.2428 C   0  0  0  0  0  0  0  0  0  0  0  0
   -4.4413   -2.1239   -1.7158 O   0  0  0  0  0  0  0  0  0  0  0  0
   -3.2690   -0.0697   -4.0354 C   0  0  0  0  0  0  0  0  0  0  0  0
   -2.6057   -0.9730   -1.0363 H   0  0  0  0  0  0  0  0  0  0  0  0
   -4.0859    0.9952   -2.3397 H   0  0  0  0  0  0  0  0  0  0  0  0
   -2.8439   -1.0520   -4.2655 H   0  0  0  0  0  0  0  0  0  0  0  0
   -4.1390    0.0932   -4.6785 H   0  0  0  0  0  0  0  0  0  0  0  0
   -2.5220    0.6958   -4.2676 H   0  0  0  0  0  0  0  0  0  0  0  0
   -6.0787   -0.8137   -2.5435 N   0  0  0  0  0  0  0  0  0  0  0  0
   -7.1561   -1.7368   -2.2062 C   0  0  0  0  0  0  0  0  0  0  0  0
   -6.3151    0.1006   -2.9185 H   0  0  0  0  0  0  0  0  0  0  0  0
   -6.9790   -2.7175   -2.6606 H   0  0  0  0  0  0  0  0  0  0  0  0
   -7.2301   -1.8602   -1.1204 H   0  0  0  0  0  0  0  0  0  0  0  0
   -8.1118   -1.3535   -2.5771 H   0  0  0  0  0  0  0  0  0  0  0  0
  1  2  2  0  0  0  0
  1  3  1  0  0  0  0
  1  7  1  0  0  0  0
  3  4  1  0  0  0  0
  3  5  1  0  0  0  0
  3  6  1  0  0  0  0
  7  8  1  0  0  0  0
  7 12  1  0  0  0  0
  8  9  1  0  0  0  0
  8 11  1  0  0  0  0
  8 13  1  0  0  0  0
  9 10  2  0  0  0  0
  9 17  1  0  0  0  0
 11 14  1  0  0  0  0
 11 15  1  0  0  0  0
 11 16  1  0  0  0  0
 17 18  1  0  0  0  0
 17 23  1  0  0  0  0
 18 19  1  0  0  0  0
 18 21  1  0  0  0  0
 18 24  1  0  0  0  0
 19 20  2  0  0  0  0
 19 28  1  0  0  0  0
 21 22  1  0  0  0  0
 21 25  1  0  0  0  0
 21 26  1  0  0  0  0
 22 27  1  0  0  0  0
 28 29  1  0  0  0  0
 28 33  1  0  0  0  0
 29 30  1  0  0  0  0
 29 32  1  0  0  0  0
 29 34  1  0  0  0  0
 30 31  2  0  0  0  0
 30 38  1  0  0  0  0
 32 35  1  0  0  0  0
 32 36  1  0  0  0  0
 32 37  1  0  0  0  0
 38 39  1  0  0  0  0
 38 40  1  0  0  0  0
 39 41  1  0  0  0  0
 39 42  1  0  0  0  0
 39 43  1  0  0  0  0
M  END
$$$$

  -OEChem-05262216003D

 43 42  0     1  0  0  0  0  0999 V2000
   -3.2994   -4.9718    0.4834 C   0  0  0  0  0  0  0  0  0  0  0  0
   -2.6353   -5.8196    1.0607 O   0  0  0  0  0  0  0  0  0  0  0  0
   -4.7317   -5.2636    0.0790 C   0  0  0  0  0  0  0  0  0  0  0  0
   -4.8358   -5.1793   -1.0055 H   0  0  0  0  0  0  0  0  0  0  0  0
   -5.0141   -6.2742    0.3861 H   0  0  0  0  0  0  0  0  0  0  0  0
   -5.4047   -4.5465    0.5556 H   0  0  0  0  0  0  0  0  0  0  0  0
   -2.7496   -3.7443    0.1880 N   0  0  0  0  0  0  0  0  0  0  0  0
   -1.4421   -3.2828    0.6836 C   0  0  2  0  0  0  0  0  0  0  0  0
   -1.4296   -1.7474    0.8513 C   0  0  0  0  0  0  0  0  0  0  0  0
   -2.4417   -1.1742    1.2284 O   0  0  0  0  0  0  0  0  0  0  0  0
   -0.3624   -3.7763   -0.2900 C   0  0  0  0  0  0  0  0  0  0  0  0
   -3.4040   -3.0454   -0.1816 H   0  0  0  0  0  0  0  0  0  0  0  0
   -1.2493   -3.7121    1.6731 H   0  0  0  0  0  0  0  0  0  0  0  0
   -0.4988   -3.3232   -1.2772 H   0  0  0  0  0  0  0  0  0  0  0  0
    0.6366   -3.5276    0.0803 H   0  0  0  0  0  0  0  0  0  0  0  0
   -0.4204   -4.8643   -0.3983 H   0  0  0  0  0  0  0  0  0  0  0  0
   -0.3394   -0.9651    0.5146 N   0  0  0  0  0  0  0  0  0  0  0  0
   -0.3413    0.2942   -0.2780 C   0  0  2  0  0  0  0  0  0  0  0  0
   -1.5791    0.7086   -1.1376 C   0  0  0  0  0  0  0  0  0  0  0  0
   -1.5067    1.7027   -1.8489 O   0  0  0  0  0  0  0  0  0  0  0  0
    0.8656    0.1574   -1.2237 C   0  0  0  0  0  0  0  0  0  0  0  0
    2.4341    0.1161   -0.2623 S   0  0  0  0  0  0  0  0  0  0  0  0
    0.5266   -1.4924    0.4332 H   0  0  0  0  0  0  0  0  0  0  0  0
   -0.1707    1.1270    0.4119 H   0  0  0  0  0  0  0  0  0  0  0  0
    0.7682   -0.7442   -1.8374 H   0  0  0  0  0  0  0  0  0  0  0  0
    0.9093    1.0158   -1.9031 H   0  0  0  0  0  0  0  0  0  0  0  0
    3.3476    0.1624   -1.2579 H   0  0  0  0  0  0  0  0  0  0  0  0
   -2.7284   -0.0502   -1.2213 N   0  0  0  0  0  0  0  0  0  0  0  0
   -3.8967    0.1496   -2.0829 C   0  0  2  0  0  0  0  0  0  0  0  0
   -4.9907   -0.8804   -1.7153 C   0  0  0  0  0  0  0  0  0  0  0  0
   -4.6890   -1.9469   -1.1801 O   0  0  0  0  0  0  0  0  0  0  0  0
   -3.5137   -0.0329   -3.5583 C   0  0  0  0  0  0  0  0  0  0  0  0
   -2.8543   -0.7210   -0.4603 H   0  0  0  0  0  0  0  0  0  0  0  0
   -4.2952    1.1570   -1.9261 H   0  0  0  0  0  0  0  0  0  0  0  0
   -3.0666   -1.0193   -3.7163 H   0  0  0  0  0  0  0  0  0  0  0  0
   -4.3979    0.0548   -4.1968 H   0  0  0  0  0  0  0  0  0  0  0  0
   -2.7941    0.7287   -3.8716 H   0  0  0  0  0  0  0  0  0  0  0  0
   -6.3187   -0.6262   -2.0029 N   0  0  0  0  0  0  0  0  0  0  0  0
   -7.4009   -1.5452   -1.6704 C   0  0  0  0  0  0  0  0  0  0  0  0
   -6.5460    0.2681   -2.4284 H   0  0  0  0  0  0  0  0  0  0  0  0
   -7.2692   -2.4976   -2.1947 H   0  0  0  0  0  0  0  0  0  0  0  0
   -7.4251   -1.7364   -0.5922 H   0  0  0  0  0  0  0  0  0  0  0  0
   -8.3642   -1.1184   -1.9663 H   0  0  0  0  0  0  0  0  0  0  0  0
  1  2  2  0  0  0  0
  1  3  1  0  0  0  0
  1  7  1  0  0  0  0
  3  4  1  0  0  0  0
  3  5  1  0  0  0  0
  3  6  1  0  0  0  0
  7  8  1  0  0  0  0
  7 12  1  0  0  0  0
  8  9  1  0  0  0  0
  8 11  1  0  0  0  0
  8 13  1  0  0  0  0
  9 10  2  0  0  0  0
  9 17  1  0  0  0  0
 11 14  1  0  0  0  0
 11 15  1  0  0  0  0
 11 16  1  0  0  0  0
 17 18  1  0  0  0  0
 17 23  1  0  0  0  0
 18 19  1  0  0  0  0
 18 21  1  0  0  0  0
 18 24  1  0  0  0  0
 19 20  2  0  0  0  0
 19 28  1  0  0  0  0
 21 22  1  0  0  0  0
 21 25  1  0  0  0  0
 21 26  1  0  0  0  0
 22 27  1  0  0  0  0
 28 29  1  0  0  0  0
 28 33  1  0  0  0  0
 29 30  1  0  0  0  0
 29 32  1  0  0  0  0
 29 34  1  0  0  0  0
 30 31  2  0  0  0  0
 30 38  1  0  0  0  0
 32 35  1  0  0  0  0
 32 36  1  0  0  0  0
 32 37  1  0  0  0  0
 38 39  1  0  0  0  0
 38 40  1  0  0  0  0
 39 41  1  0  0  0  0
 39 42  1  0  0  0  0
 39 43  1  0  0  0  0
M  END
$$$$

  -OEChem-05262216003D

 43 42  0     1  0  0  0  0  0999 V2000
   -2.4006   -5.9336    1.3659 C   0  0  0  0  0  0  0  0  0  0  0  0
   -1.3441   -6.3677    1.7977 O   0  0  0  0  0  0  0  0  0  0  0  0
   -3.7033   -6.6457    1.6765 C   0  0  0  0  0  0  0  0  0  0  0  0
   -4.2008   -6.9356    0.7477 H   0  0  0  0  0  0  0  0  0  0  0  0
   -3.5098   -7.5449    2.2682 H   0  0  0  0  0  0  0  0  0  0  0  0
   -4.3630   -5.9849    2.2442 H   0  0  0  0  0  0  0  0  0  0  0  0
   -2.4122   -4.7862    0.6023 N   0  0  0  0  0  0  0  0  0  0  0  0
   -1.2415   -3.9263    0.3841 C   0  0  2  0  0  0  0  0  0  0  0  0
   -1.6494   -2.4522    0.1734 C   0  0  0  0  0  0  0  0  0  0  0  0
   -2.8334   -2.1699    0.1007 O   0  0  0  0  0  0  0  0  0  0  0  0
   -0.4725   -4.4521   -0.8329 C   0  0  0  0  0  0  0  0  0  0  0  0
   -3.3234   -4.3811    0.3840 H   0  0  0  0  0  0  0  0  0  0  0  0
   -0.5917   -3.9616    1.2652 H   0  0  0  0  0  0  0  0  0  0  0  0
   -1.1011   -4.4135   -1.7284 H   0  0  0  0  0  0  0  0  0  0  0  0
    0.4263   -3.8540   -1.0106 H   0  0  0  0  0  0  0  0  0  0  0  0
   -0.1655   -5.4899   -0.6684 H   0  0  0  0  0  0  0  0  0  0  0  0
   -0.6760   -1.4700    0.1673 N   0  0  0  0  0  0  0  0  0  0  0  0
   -0.6978   -0.0329   -0.2079 C   0  0  2  0  0  0  0  0  0  0  0  0
   -1.8414    0.6466   -1.0326 C   0  0  0  0  0  0  0  0  0  0  0  0
   -1.6234    1.7571   -1.5054 O   0  0  0  0  0  0  0  0  0  0  0  0
    0.6382    0.1396   -0.9587 C   0  0  0  0  0  0  0  0  0  0  0  0
    2.0504   -0.1390    0.1908 S   0  0  0  0  0  0  0  0  0  0  0  0
    0.2585   -1.8243    0.3636 H   0  0  0  0  0  0  0  0  0  0  0  0
   -0.6604    0.5441    0.7214 H   0  0  0  0  0  0  0  0  0  0  0  0
    0.6881   -0.5507   -1.8075 H   0  0  0  0  0  0  0  0  0  0  0  0
    0.7307    1.1562   -1.3555 H   0  0  0  0  0  0  0  0  0  0  0  0
    3.0938    0.1999   -0.6000 H   0  0  0  0  0  0  0  0  0  0  0  0
   -3.0975    0.1275   -1.2811 N   0  0  0  0  0  0  0  0  0  0  0  0
   -4.1642    0.7966   -2.0407 C   0  0  2  0  0  0  0  0  0  0  0  0
   -5.5761    0.3834   -1.5750 C   0  0  0  0  0  0  0  0  0  0  0  0
   -5.7905   -0.7381   -1.1328 O   0  0  0  0  0  0  0  0  0  0  0  0
   -3.9810    0.4602   -3.5235 C   0  0  0  0  0  0  0  0  0  0  0  0
   -3.3342   -0.7571   -0.8197 H   0  0  0  0  0  0  0  0  0  0  0  0
   -4.0860    1.8802   -1.9059 H   0  0  0  0  0  0  0  0  0  0  0  0
   -4.0535   -0.6210   -3.6804 H   0  0  0  0  0  0  0  0  0  0  0  0
   -4.7504    0.9528   -4.1257 H   0  0  0  0  0  0  0  0  0  0  0  0
   -3.0002    0.7991   -3.8719 H   0  0  0  0  0  0  0  0  0  0  0  0
   -6.6296    1.2733   -1.6847 N   0  0  0  0  0  0  0  0  0  0  0  0
   -7.9862    0.9632   -1.2501 C   0  0  0  0  0  0  0  0  0  0  0  0
   -6.4237    2.2058   -2.0308 H   0  0  0  0  0  0  0  0  0  0  0  0
   -8.3811    0.1078   -1.8084 H   0  0  0  0  0  0  0  0  0  0  0  0
   -8.0008    0.7236   -0.1815 H   0  0  0  0  0  0  0  0  0  0  0  0
   -8.6439    1.8209   -1.4211 H   0  0  0  0  0  0  0  0  0  0  0  0
  1  2  2  0  0  0  0
  1  3  1  0  0  0  0
  1  7  1  0  0  0  0
  3  4  1  0  0  0  0
  3  5  1  0  0  0  0
  3  6  1  0  0  0  0
  7  8  1  0  0  0  0
  7 12  1  0  0  0  0
  8  9  1  0  0  0  0
  8 11  1  0  0  0  0
  8 13  1  0  0  0  0
  9 10  2  0  0  0  0
  9 17  1  0  0  0  0
 11 14  1  0  0  0  0
 11 15  1  0  0  0  0
 11 16  1  0  0  0  0
 17 18  1  0  0  0  0
 17 23  1  0  0  0  0
 18 19  1  0  0  0  0
 18 21  1  0  0  0  0
 18 24  1  0  0  0  0
 19 20  2  0  0  0  0
 19 28  1  0  0  0  0
 21 22  1  0  0  0  0
 21 25  1  0  0  0  0
 21 26  1  0  0  0  0
 22 27  1  0  0  0  0
 28 29  1  0  0  0  0
 28 33  1  0  0  0  0
 29 30  1  0  0  0  0
 29 32  1  0  0  0  0
 29 34  1  0  0  0  0
 30 31  2  0  0  0  0
 30 38  1  0  0  0  0
 32 35  1  0  0  0  0
 32 36  1  0  0  0  0
 32 37  1  0  0  0  0
 38 39  1  0  0  0  0
 38 40  1  0  0  0  0
 39 41  1  0  0  0  0
 39 42  1  0  0  0  0
 39 43  1  0  0  0  0
M  END
$$$$

  -OEChem-05262216003D

 43 42  0     1  0  0  0  0  0999 V2000
   -2.3349   -3.5250    1.3458 C   0  0  0  0  0  0  0  0  0  0  0  0
   -1.1775   -3.6317    1.7254 O   0  0  0  0  0  0  0  0  0  0  0  0
   -3.4204   -3.0838    2.3086 C   0  0  0  0  0  0  0  0  0  0  0  0
   -4.2540   -3.7895    2.2795 H   0  0  0  0  0  0  0  0  0  0  0  0
   -3.0278   -3.0431    3.3284 H   0  0  0  0  0  0  0  0  0  0  0  0
   -3.7843   -2.0919    2.0294 H   0  0  0  0  0  0  0  0  0  0  0  0
   -2.6212   -3.6860    0.0072 N   0  0  0  0  0  0  0  0  0  0  0  0
   -1.5817   -3.8770   -1.0165 C   0  0  2  0  0  0  0  0  0  0  0  0
   -0.9396   -2.5225   -1.3944 C   0  0  0  0  0  0  0  0  0  0  0  0
   -1.0931   -2.0389   -2.5075 O   0  0  0  0  0  0  0  0  0  0  0  0
   -2.2378   -4.5876   -2.2063 C   0  0  0  0  0  0  0  0  0  0  0  0
   -3.5193   -3.2927   -0.2945 H   0  0  0  0  0  0  0  0  0  0  0  0
   -0.7879   -4.5280   -0.6342 H   0  0  0  0  0  0  0  0  0  0  0  0
   -3.0492   -3.9796   -2.6196 H   0  0  0  0  0  0  0  0  0  0  0  0
   -1.5005   -4.7656   -2.9957 H   0  0  0  0  0  0  0  0  0  0  0  0
   -2.6491   -5.5519   -1.8929 H   0  0  0  0  0  0  0  0  0  0  0  0
   -0.3279   -1.7707   -0.4099 N   0  0  0  0  0  0  0  0  0  0  0  0
   -0.7246   -0.4113    0.0379 C   0  0  2  0  0  0  0  0  0  0  0  0
   -1.6944    0.4927   -0.7819 C   0  0  0  0  0  0  0  0  0  0  0  0
   -1.8570    1.6513   -0.4173 O   0  0  0  0  0  0  0  0  0  0  0  0
    0.6065    0.3280    0.2604 C   0  0  0  0  0  0  0  0  0  0  0  0
    1.5444   -0.4522    1.6405 S   0  0  0  0  0  0  0  0  0  0  0  0
   -0.0930   -2.3639    0.3918 H   0  0  0  0  0  0  0  0  0  0  0  0
   -1.2211   -0.5247    1.0066 H   0  0  0  0  0  0  0  0  0  0  0  0
    1.1993    0.3087   -0.6601 H   0  0  0  0  0  0  0  0  0  0  0  0
    0.4280    1.3766    0.5199 H   0  0  0  0  0  0  0  0  0  0  0  0
    2.6580    0.3122    1.6521 H   0  0  0  0  0  0  0  0  0  0  0  0
   -2.6851   -0.0381   -1.5833 N   0  0  0  0  0  0  0  0  0  0  0  0
   -4.0813    0.4088   -1.6269 C   0  0  2  0  0  0  0  0  0  0  0  0
   -5.0218   -0.5899   -0.9122 C   0  0  0  0  0  0  0  0  0  0  0  0
   -4.6528   -1.7329   -0.6445 O   0  0  0  0  0  0  0  0  0  0  0  0
   -4.4660    0.5595   -3.0996 C   0  0  0  0  0  0  0  0  0  0  0  0
   -2.4906   -0.9788   -1.9301 H   0  0  0  0  0  0  0  0  0  0  0  0
   -4.1905    1.3809   -1.1351 H   0  0  0  0  0  0  0  0  0  0  0  0
   -4.3799   -0.4009   -3.6183 H   0  0  0  0  0  0  0  0  0  0  0  0
   -5.4956    0.9171   -3.1946 H   0  0  0  0  0  0  0  0  0  0  0  0
   -3.8029    1.2800   -3.5894 H   0  0  0  0  0  0  0  0  0  0  0  0
   -6.2994   -0.2034   -0.5522 N   0  0  0  0  0  0  0  0  0  0  0  0
   -7.2387   -1.0739    0.1452 C   0  0  0  0  0  0  0  0  0  0  0  0
   -6.5763    0.7525   -0.7593 H   0  0  0  0  0  0  0  0  0  0  0  0
   -7.4413   -1.9733   -0.4461 H   0  0  0  0  0  0  0  0  0  0  0  0
   -6.8336   -1.3742    1.1174 H   0  0  0  0  0  0  0  0  0  0  0  0
   -8.1855   -0.5510    0.3123 H   0  0  0  0  0  0  0  0  0  0  0  0
  1  2  2  0  0  0  0
  1  3  1  0  0  0  0
  1  7  1  0  0  0  0
  3  4  1  0  0  0  0
  3  5  1  0  0  0  0
  3  6  1  0  0  0  0
  7  8  1  0  0  0  0
  7 12  1  0  0  0  0
  8  9  1  0  0  0  0
  8 11  1  0  0  0  0
  8 13  1  0  0  0  0
  9 10  2  0  0  0  0
  9 17  1  0  0  0  0
 11 14  1  0  0  0  0
 11 15  1  0  0  0  0
 11 16  1  0  0  0  0
 17 18  1  0  0  0  0
 17 23  1  0  0  0  0
 18 19  1  0  0  0  0
 18 21  1  0  0  0  0
 18 24  1  0  0  0  0
 19 20  2  0  0  0  0
 19 28  1  0  0  0  0
 21 22  1  0  0  0  0
 21 25  1  0  0  0  0
 21 26  1  0  0  0  0
 22 27  1  0  0  0  0
 28 29  1  0  0  0  0
 28 33  1  0  0  0  0
 29 30  1  0  0  0  0
 29 32  1  0  0  0  0
 29 34  1  0  0  0  0
 30 31  2  0  0  0  0
 30 38  1  0  0  0  0
 32 35  1  0  0  0  0
 32 36  1  0  0  0  0
 32 37  1  0  0  0  0
 38 39  1  0  0  0  0
 38 40  1  0  0  0  0
 39 41  1  0  0  0  0
 39 42  1  0  0  0  0
 39 43  1  0  0  0  0
M  END
$$$$

  -OEChem-05262216003D

 43 42  0     1  0  0  0  0  0999 V2000
   -2.5282   -5.3037    1.4198 C   0  0  0  0  0  0  0  0  0  0  0  0
   -1.5893   -5.3659    2.1978 O   0  0  0  0  0  0  0  0  0  0  0  0
   -3.9003   -5.7911    1.8454 C   0  0  0  0  0  0  0  0  0  0  0  0
   -4.2538   -6.5621    1.1569 H   0  0  0  0  0  0  0  0  0  0  0  0
   -3.8554   -6.2119    2.8540 H   0  0  0  0  0  0  0  0  0  0  0  0
   -4.6080   -4.9583    1.8423 H   0  0  0  0  0  0  0  0  0  0  0  0
   -2.3580   -4.7594    0.1634 N   0  0  0  0  0  0  0  0  0  0  0  0
   -1.1839   -3.9595   -0.2177 C   0  0  2  0  0  0  0  0  0  0  0  0
   -1.5527   -2.4685   -0.3676 C   0  0  0  0  0  0  0  0  0  0  0  0
   -2.6901   -2.1822   -0.7066 O   0  0  0  0  0  0  0  0  0  0  0  0
   -0.6391   -4.5165   -1.5348 C   0  0  0  0  0  0  0  0  0  0  0  0
   -3.2201   -4.5475   -0.3363 H   0  0  0  0  0  0  0  0  0  0  0  0
   -0.3978   -4.0367    0.5407 H   0  0  0  0  0  0  0  0  0  0  0  0
   -1.3901   -4.4355   -2.3273 H   0  0  0  0  0  0  0  0  0  0  0  0
    0.2534   -3.9637   -1.8441 H   0  0  0  0  0  0  0  0  0  0  0  0
   -0.3693   -5.5708   -1.4157 H   0  0  0  0  0  0  0  0  0  0  0  0
   -0.5919   -1.5016   -0.1238 N   0  0  0  0  0  0  0  0  0  0  0  0
   -0.6463   -0.0173   -0.1059 C   0  0  2  0  0  0  0  0  0  0  0  0
   -1.8387    0.7864   -0.7177 C   0  0  0  0  0  0  0  0  0  0  0  0
   -1.6285    1.8272   -1.3321 O   0  0  0  0  0  0  0  0  0  0  0  0
    0.6880    0.4027   -0.7531 C   0  0  0  0  0  0  0  0  0  0  0  0
    2.0962   -0.1277    0.3100 S   0  0  0  0  0  0  0  0  0  0  0  0
    0.3073   -1.8814    0.1668 H   0  0  0  0  0  0  0  0  0  0  0  0
   -0.6322    0.2934    0.9432 H   0  0  0  0  0  0  0  0  0  0  0  0
    0.7744   -0.0264   -1.7570 H   0  0  0  0  0  0  0  0  0  0  0  0
    0.7406    1.4922   -0.8518 H   0  0  0  0  0  0  0  0  0  0  0  0
    3.1365    0.4277   -0.3513 H   0  0  0  0  0  0  0  0  0  0  0  0
   -3.1604    0.4508   -0.5045 N   0  0  0  0  0  0  0  0  0  0  0  0
   -4.3224    1.1675   -1.0451 C   0  0  2  0  0  0  0  0  0  0  0  0
   -5.5895    0.9713   -0.1845 C   0  0  0  0  0  0  0  0  0  0  0  0
   -5.6892    0.0289    0.5931 O   0  0  0  0  0  0  0  0  0  0  0  0
   -4.5722    0.6671   -2.4716 C   0  0  0  0  0  0  0  0  0  0  0  0
   -3.3256   -0.4996   -0.1591 H   0  0  0  0  0  0  0  0  0  0  0  0
   -4.1102    2.2414   -1.0691 H   0  0  0  0  0  0  0  0  0  0  0  0
   -4.7754   -0.4089   -2.4668 H   0  0  0  0  0  0  0  0  0  0  0  0
   -5.4292    1.1821   -2.9154 H   0  0  0  0  0  0  0  0  0  0  0  0
   -3.6954    0.8521   -3.0997 H   0  0  0  0  0  0  0  0  0  0  0  0
   -6.6427    1.8616   -0.2943 N   0  0  0  0  0  0  0  0  0  0  0  0
   -7.8727    1.7473    0.4798 C   0  0  0  0  0  0  0  0  0  0  0  0
   -6.5343    2.6407   -0.9367 H   0  0  0  0  0  0  0  0  0  0  0  0
   -8.3829    0.8060    0.2507 H   0  0  0  0  0  0  0  0  0  0  0  0
   -7.6547    1.7771    1.5525 H   0  0  0  0  0  0  0  0  0  0  0  0
   -8.5479    2.5747    0.2414 H   0  0  0  0  0  0  0  0  0  0  0  0
  1  2  2  0  0  0  0
  1  3  1  0  0  0  0
  1  7  1  0  0  0  0
  3  4  1  0  0  0  0
  3  5  1  0  0  0  0
  3  6  1  0  0  0  0
  7  8  1  0  0  0  0
  7 12  1  0  0  0  0
  8  9  1  0  0  0  0
  8 11  1  0  0  0  0
  8 13  1  0  0  0  0
  9 10  2  0  0  0  0
  9 17  1  0  0  0  0
 11 14  1  0  0  0  0
 11 15  1  0  0  0  0
 11 16  1  0  0  0  0
 17 18  1  0  0  0  0
 17 23  1  0  0  0  0
 18 19  1  0  0  0  0
 18 21  1  0  0  0  0
 18 24  1  0  0  0  0
 19 20  2  0  0  0  0
 19 28  1  0  0  0  0
 21 22  1  0  0  0  0
 21 25  1  0  0  0  0
 21 26  1  0  0  0  0
 22 27  1  0  0  0  0
 28 29  1  0  0  0  0
 28 33  1  0  0  0  0
 29 30  1  0  0  0  0
 29 32  1  0  0  0  0
 29 34  1  0  0  0  0
 30 31  2  0  0  0  0
 30 38  1  0  0  0  0
 32 35  1  0  0  0  0
 32 36  1  0  0  0  0
 32 37  1  0  0  0  0
 38 39  1  0  0  0  0
 38 40  1  0  0  0  0
 39 41  1  0  0  0  0
 39 42  1  0  0  0  0
 39 43  1  0  0  0  0
M  END
$$$$

  -OEChem-05262216003D

 43 42  0     1  0  0  0  0  0999 V2000
   -2.6292   -5.6707    1.1083 C   0  0  0  0  0  0  0  0  0  0  0  0
   -1.5808   -6.1929    1.4530 O   0  0  0  0  0  0  0  0  0  0  0  0
   -3.9567   -6.2836    1.5127 C   0  0  0  0  0  0  0  0  0  0  0  0
   -4.5425   -6.5255    0.6226 H   0  0  0  0  0  0  0  0  0  0  0  0
   -3.7905   -7.2007    2.0848 H   0  0  0  0  0  0  0  0  0  0  0  0
   -4.5197   -5.5801    2.1312 H   0  0  0  0  0  0  0  0  0  0  0  0
   -2.6074   -4.5154    0.3565 N   0  0  0  0  0  0  0  0  0  0  0  0
   -1.3911   -3.7526    0.0456 C   0  0  2  0  0  0  0  0  0  0  0  0
   -1.6771   -2.2394   -0.0613 C   0  0  0  0  0  0  0  0  0  0  0  0
   -2.8341   -1.8588   -0.1605 O   0  0  0  0  0  0  0  0  0  0  0  0
   -0.8099   -4.2828   -1.2686 C   0  0  0  0  0  0  0  0  0  0  0  0
   -3.4977   -4.0443    0.1966 H   0  0  0  0  0  0  0  0  0  0  0  0
   -0.6561   -3.8901    0.8464 H   0  0  0  0  0  0  0  0  0  0  0  0
   -1.5282   -4.1530   -2.0846 H   0  0  0  0  0  0  0  0  0  0  0  0
    0.1107   -3.7505   -1.5262 H   0  0  0  0  0  0  0  0  0  0  0  0
   -0.5766   -5.3482   -1.1759 H   0  0  0  0  0  0  0  0  0  0  0  0
   -0.6242   -1.3435    0.0137 N   0  0  0  0  0  0  0  0  0  0  0  0
   -0.5827    0.1291   -0.1522 C   0  0  2  0  0  0  0  0  0  0  0  0
   -1.7788    0.8890   -0.8033 C   0  0  0  0  0  0  0  0  0  0  0  0
   -1.5969    1.6450   -1.7527 O   0  0  0  0  0  0  0  0  0  0  0  0
    0.7219    0.3920   -0.9264 C   0  0  0  0  0  0  0  0  0  0  0  0
    2.1710   -0.0937    0.1017 S   0  0  0  0  0  0  0  0  0  0  0  0
    0.2864   -1.7755    0.1591 H   0  0  0  0  0  0  0  0  0  0  0  0
   -0.4861    0.5720    0.8438 H   0  0  0  0  0  0  0  0  0  0  0  0
    0.7178   -0.1552   -1.8751 H   0  0  0  0  0  0  0  0  0  0  0  0
    0.8135    1.4589   -1.1579 H   0  0  0  0  0  0  0  0  0  0  0  0
    3.1919    0.3010   -0.6922 H   0  0  0  0  0  0  0  0  0  0  0  0
   -3.0457    0.8498   -0.2561 N   0  0  0  0  0  0  0  0  0  0  0  0
   -4.2232    1.5289   -0.8118 C   0  0  2  0  0  0  0  0  0  0  0  0
   -5.3375    1.7272    0.2386 C   0  0  0  0  0  0  0  0  0  0  0  0
   -5.3708    1.0514    1.2607 O   0  0  0  0  0  0  0  0  0  0  0  0
   -4.7531    0.6996   -1.9875 C   0  0  0  0  0  0  0  0  0  0  0  0
   -3.2288    0.0498    0.3560 H   0  0  0  0  0  0  0  0  0  0  0  0
   -3.9329    2.5219   -1.1700 H   0  0  0  0  0  0  0  0  0  0  0  0
   -5.0355   -0.3027   -1.6486 H   0  0  0  0  0  0  0  0  0  0  0  0
   -5.6305    1.1784   -2.4324 H   0  0  0  0  0  0  0  0  0  0  0  0
   -3.9863    0.6007   -2.7622 H   0  0  0  0  0  0  0  0  0  0  0  0
   -6.3274    2.6702    0.0264 N   0  0  0  0  0  0  0  0  0  0  0  0
   -7.4317    2.8950    0.9514 C   0  0  0  0  0  0  0  0  0  0  0  0
   -6.2842    3.2118   -0.8316 H   0  0  0  0  0  0  0  0  0  0  0  0
   -8.0540    1.9973    1.0285 H   0  0  0  0  0  0  0  0  0  0  0  0
   -7.0536    3.1484    1.9476 H   0  0  0  0  0  0  0  0  0  0  0  0
   -8.0573    3.7211    0.5999 H   0  0  0  0  0  0  0  0  0  0  0  0
  1  2  2  0  0  0  0
  1  3  1  0  0  0  0
  1  7  1  0  0  0  0
  3  4  1  0  0  0  0
  3  5  1  0  0  0  0
  3  6  1  0  0  0  0
  7  8  1  0  0  0  0
  7 12  1  0  0  0  0
  8  9  1  0  0  0  0
  8 11  1  0  0  0  0
  8 13  1  0  0  0  0
  9 10  2  0  0  0  0
  9 17  1  0  0  0  0
 11 14  1  0  0  0  0
 11 15  1  0  0  0  0
 11 16  1  0  0  0  0
 17 18  1  0  0  0  0
 17 23  1  0  0  0  0
 18 19  1  0  0  0  0
 18 21  1  0  0  0  0
 18 24  1  0  0  0  0
 19 20  2  0  0  0  0
 19 28  1  0  0  0  0
 21 22  1  0  0  0  0
 21 25  1  0  0  0  0
 21 26  1  0  0  0  0
 22 27  1  0  0  0  0
 28 29  1  0  0  0  0
 28 33  1  0  0  0  0
 29 30  1  0  0  0  0
 29 32  1  0  0  0  0
 29 34  1  0  0  0  0
 30 31  2  0  0  0  0
 30 38  1  0  0  0  0
 32 35  1  0  0  0  0
 32 36  1  0  0  0  0
 32 37  1  0  0  0  0
 38 39  1  0  0  0  0
 38 40  1  0  0  0  0
 39 41  1  0  0  0  0
 39 42  1  0  0  0  0
 39 43  1  0  0  0  0
M  END
$$$$

  -OEChem-05262216003D

 43 42  0     1  0  0  0  0  0999 V2000
   -2.8164   -5.5459    1.0350 C   0  0  0  0  0  0  0  0  0  0  0  0
   -1.7983   -6.1368    1.3594 O   0  0  0  0  0  0  0  0  0  0  0  0
   -4.1760   -6.0944    1.4263 C   0  0  0  0  0  0  0  0  0  0  0  0
   -4.7565   -6.3273    0.5302 H   0  0  0  0  0  0  0  0  0  0  0  0
   -4.0592   -7.0068    2.0180 H   0  0  0  0  0  0  0  0  0  0  0  0
   -4.7185   -5.3564    2.0222 H   0  0  0  0  0  0  0  0  0  0  0  0
   -2.7317   -4.3707    0.3194 N   0  0  0  0  0  0  0  0  0  0  0  0
   -1.4767   -3.6626    0.0344 C   0  0  2  0  0  0  0  0  0  0  0  0
   -1.6841   -2.1333   -0.0165 C   0  0  0  0  0  0  0  0  0  0  0  0
   -2.8210   -1.6838   -0.0564 O   0  0  0  0  0  0  0  0  0  0  0  0
   -0.9268   -4.1752   -1.3000 C   0  0  0  0  0  0  0  0  0  0  0  0
   -3.5942   -3.8447    0.1810 H   0  0  0  0  0  0  0  0  0  0  0  0
   -0.7490   -3.8678    0.8272 H   0  0  0  0  0  0  0  0  0  0  0  0
   -1.6346   -3.9680   -2.1091 H   0  0  0  0  0  0  0  0  0  0  0  0
    0.0256   -3.6912   -1.5363 H   0  0  0  0  0  0  0  0  0  0  0  0
   -0.7605   -5.2563   -1.2507 H   0  0  0  0  0  0  0  0  0  0  0  0
   -0.5860   -1.2925    0.0457 N   0  0  0  0  0  0  0  0  0  0  0  0
   -0.5080    0.1733   -0.1445 C   0  0  2  0  0  0  0  0  0  0  0  0
   -1.7074    0.9123   -0.8045 C   0  0  0  0  0  0  0  0  0  0  0  0
   -1.5984    1.4198   -1.9168 O   0  0  0  0  0  0  0  0  0  0  0  0
    0.7784    0.4066   -0.9538 C   0  0  0  0  0  0  0  0  0  0  0  0
    2.2473   -0.0924    0.0374 S   0  0  0  0  0  0  0  0  0  0  0  0
    0.3120   -1.7630    0.1392 H   0  0  0  0  0  0  0  0  0  0  0  0
   -0.3860    0.6378    0.8388 H   0  0  0  0  0  0  0  0  0  0  0  0
    0.7399   -0.1530   -1.8947 H   0  0  0  0  0  0  0  0  0  0  0  0
    0.8724    1.4695   -1.2027 H   0  0  0  0  0  0  0  0  0  0  0  0
    3.2497    0.2796   -0.7902 H   0  0  0  0  0  0  0  0  0  0  0  0
   -2.8709    1.1393   -0.0949 N   0  0  0  0  0  0  0  0  0  0  0  0
   -4.0625    1.8074   -0.6344 C   0  0  2  0  0  0  0  0  0  0  0  0
   -4.9954    2.3295    0.4797 C   0  0  0  0  0  0  0  0  0  0  0  0
   -4.9053    1.9035    1.6257 O   0  0  0  0  0  0  0  0  0  0  0  0
   -4.8180    0.8134   -1.5251 C   0  0  0  0  0  0  0  0  0  0  0  0
   -3.0140    0.5438    0.7216 H   0  0  0  0  0  0  0  0  0  0  0  0
   -3.7532    2.6694   -1.2345 H   0  0  0  0  0  0  0  0  0  0  0  0
   -5.1353   -0.0563   -0.9404 H   0  0  0  0  0  0  0  0  0  0  0  0
   -5.7040    1.2831   -1.9619 H   0  0  0  0  0  0  0  0  0  0  0  0
   -4.1767    0.4658   -2.3409 H   0  0  0  0  0  0  0  0  0  0  0  0
   -5.9588    3.2797    0.1906 N   0  0  0  0  0  0  0  0  0  0  0  0
   -6.9017    3.7914    1.1779 C   0  0  0  0  0  0  0  0  0  0  0  0
   -6.0177    3.6131   -0.7669 H   0  0  0  0  0  0  0  0  0  0  0  0
   -7.5588    2.9896    1.5305 H   0  0  0  0  0  0  0  0  0  0  0  0
   -6.3683    4.2130    2.0362 H   0  0  0  0  0  0  0  0  0  0  0  0
   -7.5213    4.5785    0.7378 H   0  0  0  0  0  0  0  0  0  0  0  0
  1  2  2  0  0  0  0
  1  3  1  0  0  0  0
  1  7  1  0  0  0  0
  3  4  1  0  0  0  0
  3  5  1  0  0  0  0
  3  6  1  0  0  0  0
  7  8  1  0  0  0  0
  7 12  1  0  0  0  0
  8  9  1  0  0  0  0
  8 11  1  0  0  0  0
  8 13  1  0  0  0  0
  9 10  2  0  0  0  0
  9 17  1  0  0  0  0
 11 14  1  0  0  0  0
 11 15  1  0  0  0  0
 11 16  1  0  0  0  0
 17 18  1  0  0  0  0
 17 23  1  0  0  0  0
 18 19  1  0  0  0  0
 18 21  1  0  0  0  0
 18 24  1  0  0  0  0
 19 20  2  0  0  0  0
 19 28  1  0  0  0  0
 21 22  1  0  0  0  0
 21 25  1  0  0  0  0
 21 26  1  0  0  0  0
 22 27  1  0  0  0  0
 28 29  1  0  0  0  0
 28 33  1  0  0  0  0
 29 30  1  0  0  0  0
 29 32  1  0  0  0  0
 29 34  1  0  0  0  0
 30 31  2  0  0  0  0
 30 38  1  0  0  0  0
 32 35  1  0  0  0  0
 32 36  1  0  0  0  0
 32 37  1  0  0  0  0
 38 39  1  0  0  0  0
 38 40  1  0  0  0  0
 39 41  1  0  0  0  0
 39 42  1  0  0  0  0
 39 43  1  0  0  0  0
M  END
$$$$

  -OEChem-05262216003D

 43 42  0     1  0  0  0  0  0999 V2000
   -2.9200   -5.4769    0.9758 C   0  0  0  0  0  0  0  0  0  0  0  0
   -1.9128   -6.1093    1.2520 O   0  0  0  0  0  0  0  0  0  0  0  0
   -4.2855   -6.0080    1.3688 C   0  0  0  0  0  0  0  0  0  0  0  0
   -4.8836   -6.1955    0.4739 H   0  0  0  0  0  0  0  0  0  0  0  0
   -4.1799   -6.9436    1.9249 H   0  0  0  0  0  0  0  0  0  0  0  0
   -4.8028   -5.2801    1.9987 H   0  0  0  0  0  0  0  0  0  0  0  0
   -2.8177   -4.2719    0.3143 N   0  0  0  0  0  0  0  0  0  0  0  0
   -1.5482   -3.5936    0.0222 C   0  0  2  0  0  0  0  0  0  0  0  0
   -1.7029   -2.0582    0.0325 C   0  0  0  0  0  0  0  0  0  0  0  0
   -2.8235   -1.5648    0.0418 O   0  0  0  0  0  0  0  0  0  0  0  0
   -1.0486   -4.0717   -1.3448 C   0  0  0  0  0  0  0  0  0  0  0  0
   -3.6671   -3.7161    0.2171 H   0  0  0  0  0  0  0  0  0  0  0  0
   -0.8081   -3.8516    0.7876 H   0  0  0  0  0  0  0  0  0  0  0  0
   -1.7714   -3.8173   -2.1269 H   0  0  0  0  0  0  0  0  0  0  0  0
   -0.0903   -3.6041   -1.5902 H   0  0  0  0  0  0  0  0  0  0  0  0
   -0.9095   -5.1577   -1.3391 H   0  0  0  0  0  0  0  0  0  0  0  0
   -0.5745   -1.2590    0.1052 N   0  0  0  0  0  0  0  0  0  0  0  0
   -0.4702    0.2003   -0.1050 C   0  0  2  0  0  0  0  0  0  0  0  0
   -1.6622    0.9158   -0.7949 C   0  0  0  0  0  0  0  0  0  0  0  0
   -1.6411    1.1529   -1.9988 O   0  0  0  0  0  0  0  0  0  0  0  0
    0.8158    0.4168   -0.9170 C   0  0  0  0  0  0  0  0  0  0  0  0
    2.2817   -0.0856    0.0773 S   0  0  0  0  0  0  0  0  0  0  0  0
    0.3113   -1.7582    0.1523 H   0  0  0  0  0  0  0  0  0  0  0  0
   -0.3495    0.6824    0.8700 H   0  0  0  0  0  0  0  0  0  0  0  0
    0.7740   -0.1546   -1.8509 H   0  0  0  0  0  0  0  0  0  0  0  0
    0.9113    1.4759   -1.1803 H   0  0  0  0  0  0  0  0  0  0  0  0
    3.2878    0.2511   -0.7607 H   0  0  0  0  0  0  0  0  0  0  0  0
   -2.6991    1.4251   -0.0368 N   0  0  0  0  0  0  0  0  0  0  0  0
   -3.8841    2.0990   -0.5811 C   0  0  2  0  0  0  0  0  0  0  0  0
   -4.5919    2.9685    0.4801 C   0  0  0  0  0  0  0  0  0  0  0  0
   -4.3107    2.8570    1.6686 O   0  0  0  0  0  0  0  0  0  0  0  0
   -4.8466    1.0336   -1.1196 C   0  0  0  0  0  0  0  0  0  0  0  0
   -2.7434    1.1368    0.9396 H   0  0  0  0  0  0  0  0  0  0  0  0
   -3.5816    2.7608   -1.3991 H   0  0  0  0  0  0  0  0  0  0  0  0
   -5.1543    0.3572   -0.3153 H   0  0  0  0  0  0  0  0  0  0  0  0
   -5.7400    1.4992   -1.5463 H   0  0  0  0  0  0  0  0  0  0  0  0
   -4.3612    0.4415   -1.9019 H   0  0  0  0  0  0  0  0  0  0  0  0
   -5.5491    3.8916    0.0992 N   0  0  0  0  0  0  0  0  0  0  0  0
   -6.2393    4.7642    1.0417 C   0  0  0  0  0  0  0  0  0  0  0  0
   -5.7515    3.9773   -0.8926 H   0  0  0  0  0  0  0  0  0  0  0  0
   -6.7291    4.1741    1.8238 H   0  0  0  0  0  0  0  0  0  0  0  0
   -5.5310    5.4538    1.5131 H   0  0  0  0  0  0  0  0  0  0  0  0
   -7.0039    5.3516    0.5242 H   0  0  0  0  0  0  0  0  0  0  0  0
  1  2  2  0  0  0  0
  1  3  1  0  0  0  0
  1  7  1  0  0  0  0
  3  4  1  0  0  0  0
  3  5  1  0  0  0  0
  3  6  1  0  0  0  0
  7  8  1  0  0  0  0
  7 12  1  0  0  0  0
  8  9  1  0  0  0  0
  8 11  1  0  0  0  0
  8 13  1  0  0  0  0
  9 10  2  0  0  0  0
  9 17  1  0  0  0  0
 11 14  1  0  0  0  0
 11 15  1  0  0  0  0
 11 16  1  0  0  0  0
 17 18  1  0  0  0  0
 17 23  1  0  0  0  0
 18 19  1  0  0  0  0
 18 21  1  0  0  0  0
 18 24  1  0  0  0  0
 19 20  2  0  0  0  0
 19 28  1  0  0  0  0
 21 22  1  0  0  0  0
 21 25  1  0  0  0  0
 21 26  1  0  0  0  0
 22 27  1  0  0  0  0
 28 29  1  0  0  0  0
 28 33  1  0  0  0  0
 29 30  1  0  0  0  0
 29 32  1  0  0  0  0
 29 34  1  0  0  0  0
 30 31  2  0  0  0  0
 30 38  1  0  0  0  0
 32 35  1  0  0  0  0
 32 36  1  0  0  0  0
 32 37  1  0  0  0  0
 38 39  1  0  0  0  0
 38 40  1  0  0  0  0
 39 41  1  0  0  0  0
 39 42  1  0  0  0  0
 39 43  1  0  0  0  0
M  END
$$$$

  -OEChem-05262216003D

 43 42  0     1  0  0  0  0  0999 V2000
   -3.0284   -5.3878    0.9561 C   0  0  0  0  0  0  0  0  0  0  0  0
   -2.0447   -6.0679    1.2019 O   0  0  0  0  0  0  0  0  0  0  0  0
   -4.4109   -5.8789    1.3415 C   0  0  0  0  0  0  0  0  0  0  0  0
   -5.0286   -5.9924    0.4474 H   0  0  0  0  0  0  0  0  0  0  0  0
   -4.3402   -6.8464    1.8465 H   0  0  0  0  0  0  0  0  0  0  0  0
   -4.8865   -5.1629    2.0163 H   0  0  0  0  0  0  0  0  0  0  0  0
   -2.8841   -4.1663    0.3343 N   0  0  0  0  0  0  0  0  0  0  0  0
   -1.5930   -3.5261    0.0529 C   0  0  2  0  0  0  0  0  0  0  0  0
   -1.6944   -1.9870    0.1148 C   0  0  0  0  0  0  0  0  0  0  0  0
   -2.7956   -1.4555    0.1996 O   0  0  0  0  0  0  0  0  0  0  0  0
   -1.1244   -3.9762   -1.3345 C   0  0  0  0  0  0  0  0  0  0  0  0
   -3.7111   -3.5735    0.2687 H   0  0  0  0  0  0  0  0  0  0  0  0
   -0.8560   -3.8352    0.8022 H   0  0  0  0  0  0  0  0  0  0  0  0
   -1.8454   -3.6691   -2.0991 H   0  0  0  0  0  0  0  0  0  0  0  0
   -0.1522   -3.5363   -1.5755 H   0  0  0  0  0  0  0  0  0  0  0  0
   -1.0256   -5.0660   -1.3665 H   0  0  0  0  0  0  0  0  0  0  0  0
   -0.5394   -1.2240    0.1632 N   0  0  0  0  0  0  0  0  0  0  0  0
   -0.4136    0.2260   -0.0895 C   0  0  2  0  0  0  0  0  0  0  0  0
   -1.6064    0.9219   -0.7930 C   0  0  0  0  0  0  0  0  0  0  0  0
   -1.7128    0.8870   -2.0152 O   0  0  0  0  0  0  0  0  0  0  0  0
    0.8531    0.4107   -0.9369 C   0  0  0  0  0  0  0  0  0  0  0  0
    2.3392   -0.0840    0.0297 S   0  0  0  0  0  0  0  0  0  0  0  0
    0.3322   -1.7486    0.1522 H   0  0  0  0  0  0  0  0  0  0  0  0
   -0.2711    0.7351    0.8683 H   0  0  0  0  0  0  0  0  0  0  0  0
    0.7822   -0.1823   -1.8554 H   0  0  0  0  0  0  0  0  0  0  0  0
    0.9500    1.4624   -1.2276 H   0  0  0  0  0  0  0  0  0  0  0  0
    3.3258    0.2165   -0.8445 H   0  0  0  0  0  0  0  0  0  0  0  0
   -2.4694    1.7232   -0.0703 N   0  0  0  0  0  0  0  0  0  0  0  0
   -3.6493    2.3952   -0.6268 C   0  0  2  0  0  0  0  0  0  0  0  0
   -4.1506    3.5268    0.2953 C   0  0  0  0  0  0  0  0  0  0  0  0
   -3.7486    3.6130    1.4509 O   0  0  0  0  0  0  0  0  0  0  0  0
   -4.7550    1.3522   -0.8312 C   0  0  0  0  0  0  0  0  0  0  0  0
   -2.3912    1.7020    0.9454 H   0  0  0  0  0  0  0  0  0  0  0  0
   -3.3901    2.8440   -1.5913 H   0  0  0  0  0  0  0  0  0  0  0  0
   -5.0184    0.8837    0.1226 H   0  0  0  0  0  0  0  0  0  0  0  0
   -5.6512    1.8172   -1.2519 H   0  0  0  0  0  0  0  0  0  0  0  0
   -4.4203    0.5688   -1.5186 H   0  0  0  0  0  0  0  0  0  0  0  0
   -5.0580    4.4589   -0.1743 N   0  0  0  0  0  0  0  0  0  0  0  0
   -5.5813    5.5490    0.6400 C   0  0  0  0  0  0  0  0  0  0  0  0
   -5.3765    4.3632   -1.1340 H   0  0  0  0  0  0  0  0  0  0  0  0
   -6.0989    5.1544    1.5208 H   0  0  0  0  0  0  0  0  0  0  0  0
   -4.7690    6.2042    0.9723 H   0  0  0  0  0  0  0  0  0  0  0  0
   -6.2918    6.1467    0.0609 H   0  0  0  0  0  0  0  0  0  0  0  0
  1  2  2  0  0  0  0
  1  3  1  0  0  0  0
  1  7  1  0  0  0  0
  3  4  1  0  0  0  0
  3  5  1  0  0  0  0
  3  6  1  0  0  0  0
  7  8  1  0  0  0  0
  7 12  1  0  0  0  0
  8  9  1  0  0  0  0
  8 11  1  0  0  0  0
  8 13  1  0  0  0  0
  9 10  2  0  0  0  0
  9 17  1  0  0  0  0
 11 14  1  0  0  0  0
 11 15  1  0  0  0  0
 11 16  1  0  0  0  0
 17 18  1  0  0  0  0
 17 23  1  0  0  0  0
 18 19  1  0  0  0  0
 18 21  1  0  0  0  0
 18 24  1  0  0  0  0
 19 20  2  0  0  0  0
 19 28  1  0  0  0  0
 21 22  1  0  0  0  0
 21 25  1  0  0  0  0
 21 26  1  0  0  0  0
 22 27  1  0  0  0  0
 28 29  1  0  0  0  0
 28 33  1  0  0  0  0
 29 30  1  0  0  0  0
 29 32  1  0  0  0  0
 29 34  1  0  0  0  0
 30 31  2  0  0  0  0
 30 38  1  0  0  0  0
 32 35  1  0  0  0  0
 32 36  1  0  0  0  0
 32 37  1  0  0  0  0
 38 39  1  0  0  0  0
 38 40  1  0  0  0  0
 39 41  1  0  0  0  0
 39 42  1  0  0  0  0
 39 43  1  0  0  0  0
M  END
$$$$

  -OEChem-05262216003D

 43 42  0     1  0  0  0  0  0999 V2000
   -3.0422   -5.3983    0.9105 C   0  0  0  0  0  0  0  0  0  0  0  0
   -2.0581   -6.1056    1.0590 O   0  0  0  0  0  0  0  0  0  0  0  0
   -4.4128   -5.9035    1.3196 C   0  0  0  0  0  0  0  0  0  0  0  0
   -5.0827   -5.9037    0.4562 H   0  0  0  0  0  0  0  0  0  0  0  0
   -4.3382   -6.9231    1.7081 H   0  0  0  0  0  0  0  0  0  0  0  0
   -4.8313   -5.2598    2.0969 H   0  0  0  0  0  0  0  0  0  0  0  0
   -2.9090   -4.1357    0.3741 N   0  0  0  0  0  0  0  0  0  0  0  0
   -1.6234   -3.4933    0.0734 C   0  0  2  0  0  0  0  0  0  0  0  0
   -1.7038   -1.9592    0.2187 C   0  0  0  0  0  0  0  0  0  0  0  0
   -2.7928   -1.4194    0.3820 O   0  0  0  0  0  0  0  0  0  0  0  0
   -1.2160   -3.8701   -1.3548 C   0  0  0  0  0  0  0  0  0  0  0  0
   -3.7301   -3.5310    0.3833 H   0  0  0  0  0  0  0  0  0  0  0  0
   -0.8602   -3.8493    0.7738 H   0  0  0  0  0  0  0  0  0  0  0  0
   -1.9597   -3.5082   -2.0722 H   0  0  0  0  0  0  0  0  0  0  0  0
   -0.2464   -3.4313   -1.6082 H   0  0  0  0  0  0  0  0  0  0  0  0
   -1.1371   -4.9575   -1.4529 H   0  0  0  0  0  0  0  0  0  0  0  0
   -0.5405   -1.2091    0.2606 N   0  0  0  0  0  0  0  0  0  0  0  0
   -0.4207    0.2343   -0.0269 C   0  0  2  0  0  0  0  0  0  0  0  0
   -1.6133    0.9038   -0.7536 C   0  0  0  0  0  0  0  0  0  0  0  0
   -1.8395    0.6425   -1.9313 O   0  0  0  0  0  0  0  0  0  0  0  0
    0.8382    0.4123   -0.8855 C   0  0  0  0  0  0  0  0  0  0  0  0
    2.3348   -0.0496    0.0804 S   0  0  0  0  0  0  0  0  0  0  0  0
    0.3235   -1.7420    0.1958 H   0  0  0  0  0  0  0  0  0  0  0  0
   -0.2826    0.7636    0.9200 H   0  0  0  0  0  0  0  0  0  0  0  0
    0.7673   -0.2033   -1.7891 H   0  0  0  0  0  0  0  0  0  0  0  0
    0.9236    1.4577   -1.2018 H   0  0  0  0  0  0  0  0  0  0  0  0
    3.3120    0.2315   -0.8108 H   0  0  0  0  0  0  0  0  0  0  0  0
   -2.2996    1.9451   -0.1582 N   0  0  0  0  0  0  0  0  0  0  0  0
   -3.4243    2.6650   -0.7670 C   0  0  2  0  0  0  0  0  0  0  0  0
   -3.6589    4.0333   -0.0920 C   0  0  0  0  0  0  0  0  0  0  0  0
   -3.0888    4.3134    0.9573 O   0  0  0  0  0  0  0  0  0  0  0  0
   -4.6796    1.7915   -0.6512 C   0  0  0  0  0  0  0  0  0  0  0  0
   -2.0752    2.1749    0.8089 H   0  0  0  0  0  0  0  0  0  0  0  0
   -3.2076    2.8513   -1.8240 H   0  0  0  0  0  0  0  0  0  0  0  0
   -4.9108    1.5936    0.4004 H   0  0  0  0  0  0  0  0  0  0  0  0
   -5.5392    2.2879   -1.1105 H   0  0  0  0  0  0  0  0  0  0  0  0
   -4.5271    0.8327   -1.1569 H   0  0  0  0  0  0  0  0  0  0  0  0
   -4.5077    4.9609   -0.6681 N   0  0  0  0  0  0  0  0  0  0  0  0
   -4.7782    6.2704   -0.0869 C   0  0  0  0  0  0  0  0  0  0  0  0
   -4.9671    4.7025   -1.5364 H   0  0  0  0  0  0  0  0  0  0  0  0
   -5.1698    6.1655    0.9306 H   0  0  0  0  0  0  0  0  0  0  0  0
   -3.8631    6.8710   -0.0525 H   0  0  0  0  0  0  0  0  0  0  0  0
   -5.5203    6.8045   -0.6882 H   0  0  0  0  0  0  0  0  0  0  0  0
  1  2  2  0  0  0  0
  1  3  1  0  0  0  0
  1  7  1  0  0  0  0
  3  4  1  0  0  0  0
  3  5  1  0  0  0  0
  3  6  1  0  0  0  0
  7  8  1  0  0  0  0
  7 12  1  0  0  0  0
  8  9  1  0  0  0  0
  8 11  1  0  0  0  0
  8 13  1  0  0  0  0
  9 10  2  0  0  0  0
  9 17  1  0  0  0  0
 11 14  1  0  0  0  0
 11 15  1  0  0  0  0
 11 16  1  0  0  0  0
 17 18  1  0  0  0  0
 17 23  1  0  0  0  0
 18 19  1  0  0  0  0
 18 21  1  0  0  0  0
 18 24  1  0  0  0  0
 19 20  2  0  0  0  0
 19 28  1  0  0  0  0
 21 22  1  0  0  0  0
 21 25  1  0  0  0  0
 21 26  1  0  0  0  0
 22 27  1  0  0  0  0
 28 29  1  0  0  0  0
 28 33  1  0  0  0  0
 29 30  1  0  0  0  0
 29 32  1  0  0  0  0
 29 34  1  0  0  0  0
 30 31  2  0  0  0  0
 30 38  1  0  0  0  0
 32 35  1  0  0  0  0
 32 36  1  0  0  0  0
 32 37  1  0  0  0  0
 38 39  1  0  0  0  0
 38 40  1  0  0  0  0
 39 41  1  0  0  0  0
 39 42  1  0  0  0  0
 39 43  1  0  0  0  0
M  END
$$$$

  -OEChem-05262216003D

 43 42  0     1  0  0  0  0  0999 V2000
   -3.0713   -5.3676    0.9241 C   0  0  0  0  0  0  0  0  0  0  0  0
   -2.0931   -6.0841    1.0683 O   0  0  0  0  0  0  0  0  0  0  0  0
   -4.4436   -5.8577    1.3467 C   0  0  0  0  0  0  0  0  0  0  0  0
   -5.1187   -5.8637    0.4873 H   0  0  0  0  0  0  0  0  0  0  0  0
   -4.3748   -6.8726    1.7484 H   0  0  0  0  0  0  0  0  0  0  0  0
   -4.8526   -5.2010    2.1184 H   0  0  0  0  0  0  0  0  0  0  0  0
   -2.9294   -4.1071    0.3848 N   0  0  0  0  0  0  0  0  0  0  0  0
   -1.6377   -3.4686    0.1010 C   0  0  2  0  0  0  0  0  0  0  0  0
   -1.7087   -1.9365    0.2729 C   0  0  0  0  0  0  0  0  0  0  0  0
   -2.7869   -1.3963    0.4975 O   0  0  0  0  0  0  0  0  0  0  0  0
   -1.2235   -3.8243   -1.3302 C   0  0  0  0  0  0  0  0  0  0  0  0
   -3.7434   -3.4933    0.4100 H   0  0  0  0  0  0  0  0  0  0  0  0
   -0.8810   -3.8408    0.8002 H   0  0  0  0  0  0  0  0  0  0  0  0
   -1.9587   -3.4427   -2.0464 H   0  0  0  0  0  0  0  0  0  0  0  0
   -0.2476   -3.3909   -1.5683 H   0  0  0  0  0  0  0  0  0  0  0  0
   -1.1545   -4.9104   -1.4462 H   0  0  0  0  0  0  0  0  0  0  0  0
   -0.5437   -1.1882    0.2997 N   0  0  0  0  0  0  0  0  0  0  0  0
   -0.4342    0.2506   -0.0150 C   0  0  2  0  0  0  0  0  0  0  0  0
   -1.6299    0.9036   -0.7503 C   0  0  0  0  0  0  0  0  0  0  0  0
   -1.9697    0.4861   -1.8534 O   0  0  0  0  0  0  0  0  0  0  0  0
    0.8133    0.4213   -0.8907 C   0  0  0  0  0  0  0  0  0  0  0  0
    2.3236   -0.0153    0.0653 S   0  0  0  0  0  0  0  0  0  0  0  0
    0.3145   -1.7232    0.1945 H   0  0  0  0  0  0  0  0  0  0  0  0
   -0.2937    0.7964    0.9226 H   0  0  0  0  0  0  0  0  0  0  0  0
    0.7346   -0.2091   -1.7835 H   0  0  0  0  0  0  0  0  0  0  0  0
    0.8897    1.4617   -1.2247 H   0  0  0  0  0  0  0  0  0  0  0  0
    3.2912    0.2680   -0.8355 H   0  0  0  0  0  0  0  0  0  0  0  0
   -2.1186    2.1271   -0.3327 N   0  0  0  0  0  0  0  0  0  0  0  0
   -3.1759    2.8860   -1.0118 C   0  0  2  0  0  0  0  0  0  0  0  0
   -3.1801    4.3668   -0.5765 C   0  0  0  0  0  0  0  0  0  0  0  0
   -2.5069    4.7309    0.3821 O   0  0  0  0  0  0  0  0  0  0  0  0
   -4.5273    2.2337   -0.6942 C   0  0  0  0  0  0  0  0  0  0  0  0
   -1.7652    2.5129    0.5421 H   0  0  0  0  0  0  0  0  0  0  0  0
   -3.0051    2.8601   -2.0930 H   0  0  0  0  0  0  0  0  0  0  0  0
   -4.7173    2.2549    0.3838 H   0  0  0  0  0  0  0  0  0  0  0  0
   -5.3391    2.7618   -1.2027 H   0  0  0  0  0  0  0  0  0  0  0  0
   -4.5371    1.1905   -1.0264 H   0  0  0  0  0  0  0  0  0  0  0  0
   -3.9332    5.2992   -1.2664 N   0  0  0  0  0  0  0  0  0  0  0  0
   -3.9989    6.7076   -0.8954 C   0  0  0  0  0  0  0  0  0  0  0  0
   -4.4862    4.9699   -2.0523 H   0  0  0  0  0  0  0  0  0  0  0  0
   -4.4201    6.8197    0.1092 H   0  0  0  0  0  0  0  0  0  0  0  0
   -2.9996    7.1550   -0.9104 H   0  0  0  0  0  0  0  0  0  0  0  0
   -4.6326    7.2558   -1.5992 H   0  0  0  0  0  0  0  0  0  0  0  0
  1  2  2  0  0  0  0
  1  3  1  0  0  0  0
  1  7  1  0  0  0  0
  3  4  1  0  0  0  0
  3  5  1  0  0  0  0
  3  6  1  0  0  0  0
  7  8  1  0  0  0  0
  7 12  1  0  0  0  0
  8  9  1  0  0  0  0
  8 11  1  0  0  0  0
  8 13  1  0  0  0  0
  9 10  2  0  0  0  0
  9 17  1  0  0  0  0
 11 14  1  0  0  0  0
 11 15  1  0  0  0  0
 11 16  1  0  0  0  0
 17 18  1  0  0  0  0
 17 23  1  0  0  0  0
 18 19  1  0  0  0  0
 18 21  1  0  0  0  0
 18 24  1  0  0  0  0
 19 20  2  0  0  0  0
 19 28  1  0  0  0  0
 21 22  1  0  0  0  0
 21 25  1  0  0  0  0
 21 26  1  0  0  0  0
 22 27  1  0  0  0  0
 28 29  1  0  0  0  0
 28 33  1  0  0  0  0
 29 30  1  0  0  0  0
 29 32  1  0  0  0  0
 29 34  1  0  0  0  0
 30 31  2  0  0  0  0
 30 38  1  0  0  0  0
 32 35  1  0  0  0  0
 32 36  1  0  0  0  0
 32 37  1  0  0  0  0
 38 39  1  0  0  0  0
 38 40  1  0  0  0  0
 39 41  1  0  0  0  0
 39 42  1  0  0  0  0
 39 43  1  0  0  0  0
M  END
$$$$

  -OEChem-05262216003D

 43 42  0     1  0  0  0  0  0999 V2000
   -3.0281   -5.3975    0.9002 C   0  0  0  0  0  0  0  0  0  0  0  0
   -2.0413   -6.1154    0.9449 O   0  0  0  0  0  0  0  0  0  0  0  0
   -4.3755   -5.9241    1.3579 C   0  0  0  0  0  0  0  0  0  0  0  0
   -5.1010   -5.8502    0.5440 H   0  0  0  0  0  0  0  0  0  0  0  0
   -4.2884   -6.9720    1.6586 H   0  0  0  0  0  0  0  0  0  0  0  0
   -4.7333   -5.3413    2.2103 H   0  0  0  0  0  0  0  0  0  0  0  0
   -2.9186   -4.1021    0.4429 N   0  0  0  0  0  0  0  0  0  0  0  0
   -1.6486   -3.4394    0.1213 C   0  0  2  0  0  0  0  0  0  0  0  0
   -1.7249   -1.9176    0.3652 C   0  0  0  0  0  0  0  0  0  0  0  0
   -2.7922   -1.3991    0.6769 O   0  0  0  0  0  0  0  0  0  0  0  0
   -1.3083   -3.7269   -1.3447 C   0  0  0  0  0  0  0  0  0  0  0  0
   -3.7334   -3.4971    0.5446 H   0  0  0  0  0  0  0  0  0  0  0  0
   -0.8539   -3.8349    0.7629 H   0  0  0  0  0  0  0  0  0  0  0  0
   -2.0822   -3.3187   -2.0031 H   0  0  0  0  0  0  0  0  0  0  0  0
   -0.3489   -3.2752   -1.6138 H   0  0  0  0  0  0  0  0  0  0  0  0
   -1.2401   -4.8063   -1.5142 H   0  0  0  0  0  0  0  0  0  0  0  0
   -0.5697   -1.1548    0.3758 N   0  0  0  0  0  0  0  0  0  0  0  0
   -0.4944    0.2817    0.0396 C   0  0  2  0  0  0  0  0  0  0  0  0
   -1.7041    0.9093   -0.6971 C   0  0  0  0  0  0  0  0  0  0  0  0
   -2.1602    0.3663   -1.6989 O   0  0  0  0  0  0  0  0  0  0  0  0
    0.7386    0.4629   -0.8549 C   0  0  0  0  0  0  0  0  0  0  0  0
    2.2703    0.0702    0.0859 S   0  0  0  0  0  0  0  0  0  0  0  0
    0.2882   -1.6789    0.2254 H   0  0  0  0  0  0  0  0  0  0  0  0
   -0.3566    0.8423    0.9689 H   0  0  0  0  0  0  0  0  0  0  0  0
    0.6599   -0.1801   -1.7386 H   0  0  0  0  0  0  0  0  0  0  0  0
    0.7929    1.5002   -1.2030 H   0  0  0  0  0  0  0  0  0  0  0  0
    3.2211    0.3595   -0.8308 H   0  0  0  0  0  0  0  0  0  0  0  0
   -2.0069    2.2435   -0.4985 N   0  0  0  0  0  0  0  0  0  0  0  0
   -2.9620    3.0217   -1.2975 C   0  0  2  0  0  0  0  0  0  0  0  0
   -2.6864    4.5365   -1.1867 C   0  0  0  0  0  0  0  0  0  0  0  0
   -1.8688    4.9554   -0.3738 O   0  0  0  0  0  0  0  0  0  0  0  0
   -4.3804    2.6941   -0.8150 C   0  0  0  0  0  0  0  0  0  0  0  0
   -1.5073    2.7452    0.2350 H   0  0  0  0  0  0  0  0  0  0  0  0
   -2.8659    2.7476   -2.3534 H   0  0  0  0  0  0  0  0  0  0  0  0
   -4.4965    2.9631    0.2397 H   0  0  0  0  0  0  0  0  0  0  0  0
   -5.1247    3.2431   -1.3991 H   0  0  0  0  0  0  0  0  0  0  0  0
   -4.5823    1.6234   -0.9238 H   0  0  0  0  0  0  0  0  0  0  0  0
   -3.3421    5.4336   -2.0098 N   0  0  0  0  0  0  0  0  0  0  0  0
   -3.1394    6.8758   -1.9435 C   0  0  0  0  0  0  0  0  0  0  0  0
   -4.0151    5.0602   -2.6728 H   0  0  0  0  0  0  0  0  0  0  0  0
   -3.4248    7.2570   -0.9573 H   0  0  0  0  0  0  0  0  0  0  0  0
   -2.0889    7.1246   -2.1275 H   0  0  0  0  0  0  0  0  0  0  0  0
   -3.7501    7.3796   -2.6988 H   0  0  0  0  0  0  0  0  0  0  0  0
  1  2  2  0  0  0  0
  1  3  1  0  0  0  0
  1  7  1  0  0  0  0
  3  4  1  0  0  0  0
  3  5  1  0  0  0  0
  3  6  1  0  0  0  0
  7  8  1  0  0  0  0
  7 12  1  0  0  0  0
  8  9  1  0  0  0  0
  8 11  1  0  0  0  0
  8 13  1  0  0  0  0
  9 10  2  0  0  0  0
  9 17  1  0  0  0  0
 11 14  1  0  0  0  0
 11 15  1  0  0  0  0
 11 16  1  0  0  0  0
 17 18  1  0  0  0  0
 17 23  1  0  0  0  0
 18 19  1  0  0  0  0
 18 21  1  0  0  0  0
 18 24  1  0  0  0  0
 19 20  2  0  0  0  0
 19 28  1  0  0  0  0
 21 22  1  0  0  0  0
 21 25  1  0  0  0  0
 21 26  1  0  0  0  0
 22 27  1  0  0  0  0
 28 29  1  0  0  0  0
 28 33  1  0  0  0  0
 29 30  1  0  0  0  0
 29 32  1  0  0  0  0
 29 34  1  0  0  0  0
 30 31  2  0  0  0  0
 30 38  1  0  0  0  0
 32 35  1  0  0  0  0
 32 36  1  0  0  0  0
 32 37  1  0  0  0  0
 38 39  1  0  0  0  0
 38 40  1  0  0  0  0
 39 41  1  0  0  0  0
 39 42  1  0  0  0  0
 39 43  1  0  0  0  0
M  END
$$$$

  -OEChem-05262216003D

 43 42  0     1  0  0  0  0  0999 V2000
   -3.0048   -5.3847    0.9074 C   0  0  0  0  0  0  0  0  0  0  0  0
   -2.0122   -6.0961    0.9088 O   0  0  0  0  0  0  0  0  0  0  0  0
   -4.3362   -5.9322    1.3854 C   0  0  0  0  0  0  0  0  0  0  0  0
   -5.0849   -5.8315    0.5960 H   0  0  0  0  0  0  0  0  0  0  0  0
   -4.2375   -6.9899    1.6451 H   0  0  0  0  0  0  0  0  0  0  0  0
   -4.6707   -5.3814    2.2680 H   0  0  0  0  0  0  0  0  0  0  0  0
   -2.9173   -4.0791    0.4757 N   0  0  0  0  0  0  0  0  0  0  0  0
   -1.6615   -3.3994    0.1361 C   0  0  2  0  0  0  0  0  0  0  0  0
   -1.7377   -1.8861    0.4270 C   0  0  0  0  0  0  0  0  0  0  0  0
   -2.7883   -1.3853    0.8154 O   0  0  0  0  0  0  0  0  0  0  0  0
   -1.3650   -3.6402   -1.3473 C   0  0  0  0  0  0  0  0  0  0  0  0
   -3.7317   -3.4820    0.6183 H   0  0  0  0  0  0  0  0  0  0  0  0
   -0.8454   -3.8090    0.7408 H   0  0  0  0  0  0  0  0  0  0  0  0
   -2.1618   -3.2182   -1.9687 H   0  0  0  0  0  0  0  0  0  0  0  0
   -0.4179   -3.1728   -1.6320 H   0  0  0  0  0  0  0  0  0  0  0  0
   -1.2941   -4.7135   -1.5511 H   0  0  0  0  0  0  0  0  0  0  0  0
   -0.5898   -1.1133    0.4141 N   0  0  0  0  0  0  0  0  0  0  0  0
   -0.5350    0.3189    0.0524 C   0  0  2  0  0  0  0  0  0  0  0  0
   -1.7491    0.9419   -0.6856 C   0  0  0  0  0  0  0  0  0  0  0  0
   -2.3400    0.3091   -1.5552 O   0  0  0  0  0  0  0  0  0  0  0  0
    0.6895    0.4820   -0.8593 C   0  0  0  0  0  0  0  0  0  0  0  0
    2.2322    0.1150    0.0737 S   0  0  0  0  0  0  0  0  0  0  0  0
    0.2647   -1.6326    0.2313 H   0  0  0  0  0  0  0  0  0  0  0  0
   -0.3920    0.8962    0.9709 H   0  0  0  0  0  0  0  0  0  0  0  0
    0.6021   -0.1825   -1.7259 H   0  0  0  0  0  0  0  0  0  0  0  0
    0.7423    1.5098   -1.2349 H   0  0  0  0  0  0  0  0  0  0  0  0
    3.1729    0.3888   -0.8580 H   0  0  0  0  0  0  0  0  0  0  0  0
   -1.8555    2.3201   -0.7441 N   0  0  0  0  0  0  0  0  0  0  0  0
   -2.7408    3.0684   -1.6461 C   0  0  2  0  0  0  0  0  0  0  0  0
   -2.2426    4.5160   -1.8463 C   0  0  0  0  0  0  0  0  0  0  0  0
   -1.2848    4.9316   -1.2022 O   0  0  0  0  0  0  0  0  0  0  0  0
   -4.1559    3.0567   -1.0566 C   0  0  0  0  0  0  0  0  0  0  0  0
   -1.2173    2.8724   -0.1719 H   0  0  0  0  0  0  0  0  0  0  0  0
   -2.7548    2.5892   -2.6308 H   0  0  0  0  0  0  0  0  0  0  0  0
   -4.1624    3.5318   -0.0704 H   0  0  0  0  0  0  0  0  0  0  0  0
   -4.8510    3.5939   -1.7083 H   0  0  0  0  0  0  0  0  0  0  0  0
   -4.5141    2.0277   -0.9489 H   0  0  0  0  0  0  0  0  0  0  0  0
   -2.8555    5.3526   -2.7610 N   0  0  0  0  0  0  0  0  0  0  0  0
   -2.4401    6.7313   -2.9921 C   0  0  0  0  0  0  0  0  0  0  0  0
   -3.6458    4.9825   -3.2811 H   0  0  0  0  0  0  0  0  0  0  0  0
   -2.4827    7.3067   -2.0609 H   0  0  0  0  0  0  0  0  0  0  0  0
   -1.4163    6.7637   -3.3796 H   0  0  0  0  0  0  0  0  0  0  0  0
   -3.1018    7.2080   -3.7221 H   0  0  0  0  0  0  0  0  0  0  0  0
  1  2  2  0  0  0  0
  1  3  1  0  0  0  0
  1  7  1  0  0  0  0
  3  4  1  0  0  0  0
  3  5  1  0  0  0  0
  3  6  1  0  0  0  0
  7  8  1  0  0  0  0
  7 12  1  0  0  0  0
  8  9  1  0  0  0  0
  8 11  1  0  0  0  0
  8 13  1  0  0  0  0
  9 10  2  0  0  0  0
  9 17  1  0  0  0  0
 11 14  1  0  0  0  0
 11 15  1  0  0  0  0
 11 16  1  0  0  0  0
 17 18  1  0  0  0  0
 17 23  1  0  0  0  0
 18 19  1  0  0  0  0
 18 21  1  0  0  0  0
 18 24  1  0  0  0  0
 19 20  2  0  0  0  0
 19 28  1  0  0  0  0
 21 22  1  0  0  0  0
 21 25  1  0  0  0  0
 21 26  1  0  0  0  0
 22 27  1  0  0  0  0
 28 29  1  0  0  0  0
 28 33  1  0  0  0  0
 29 30  1  0  0  0  0
 29 32  1  0  0  0  0
 29 34  1  0  0  0  0
 30 31  2  0  0  0  0
 30 38  1  0  0  0  0
 32 35  1  0  0  0  0
 32 36  1  0  0  0  0
 32 37  1  0  0  0  0
 38 39  1  0  0  0  0
 38 40  1  0  0  0  0
 39 41  1  0  0  0  0
 39 42  1  0  0  0  0
 39 43  1  0  0  0  0
M  END
$$$$

  -OEChem-05262216003D

 43 42  0     1  0  0  0  0  0999 V2000
   -2.8587   -5.4823    0.6775 C   0  0  0  0  0  0  0  0  0  0  0  0
   -1.8674   -6.1368    0.3938 O   0  0  0  0  0  0  0  0  0  0  0  0
   -4.0608   -6.1566    1.3118 C   0  0  0  0  0  0  0  0  0  0  0  0
   -4.9535   -5.9742    0.7087 H   0  0  0  0  0  0  0  0  0  0  0  0
   -3.8959   -7.2357    1.3798 H   0  0  0  0  0  0  0  0  0  0  0  0
   -4.2224   -5.7603    2.3172 H   0  0  0  0  0  0  0  0  0  0  0  0
   -2.8796   -4.1246    0.4431 N   0  0  0  0  0  0  0  0  0  0  0  0
   -1.7085   -3.3374    0.0383 C   0  0  2  0  0  0  0  0  0  0  0  0
   -1.7782   -1.8976    0.5885 C   0  0  0  0  0  0  0  0  0  0  0  0
   -2.7525   -1.5372    1.2389 O   0  0  0  0  0  0  0  0  0  0  0  0
   -1.6382   -3.3179   -1.4916 C   0  0  0  0  0  0  0  0  0  0  0  0
   -3.6639   -3.5973    0.8274 H   0  0  0  0  0  0  0  0  0  0  0  0
   -0.7982   -3.7976    0.4372 H   0  0  0  0  0  0  0  0  0  0  0  0
   -2.5285   -2.8354   -1.9088 H   0  0  0  0  0  0  0  0  0  0  0  0
   -0.7538   -2.7699   -1.8295 H   0  0  0  0  0  0  0  0  0  0  0  0
   -1.5794   -4.3391   -1.8816 H   0  0  0  0  0  0  0  0  0  0  0  0
   -0.6586   -1.0863    0.5735 N   0  0  0  0  0  0  0  0  0  0  0  0
   -0.6335    0.3544    0.2330 C   0  0  2  0  0  0  0  0  0  0  0  0
   -1.9375    1.1065   -0.1660 C   0  0  0  0  0  0  0  0  0  0  0  0
   -2.8792    0.5305   -0.6960 O   0  0  0  0  0  0  0  0  0  0  0  0
    0.3502    0.4513   -0.9474 C   0  0  0  0  0  0  0  0  0  0  0  0
    2.0440   -0.0177   -0.4025 S   0  0  0  0  0  0  0  0  0  0  0  0
    0.1827   -1.5777    0.2823 H   0  0  0  0  0  0  0  0  0  0  0  0
   -0.2277    0.8929    1.0947 H   0  0  0  0  0  0  0  0  0  0  0  0
    0.0193   -0.1971   -1.7661 H   0  0  0  0  0  0  0  0  0  0  0  0
    0.3879    1.4747   -1.3347 H   0  0  0  0  0  0  0  0  0  0  0  0
    2.7577    0.2337   -1.5235 H   0  0  0  0  0  0  0  0  0  0  0  0
   -1.8414    2.4562   -0.4628 N   0  0  0  0  0  0  0  0  0  0  0  0
   -2.8043    3.2335   -1.2560 C   0  0  2  0  0  0  0  0  0  0  0  0
   -2.1163    4.4393   -1.9315 C   0  0  0  0  0  0  0  0  0  0  0  0
   -0.9389    4.6865   -1.6895 O   0  0  0  0  0  0  0  0  0  0  0  0
   -3.9364    3.6922   -0.3305 C   0  0  0  0  0  0  0  0  0  0  0  0
   -0.9604    2.9227   -0.2480 H   0  0  0  0  0  0  0  0  0  0  0  0
   -3.2212    2.6103   -2.0544 H   0  0  0  0  0  0  0  0  0  0  0  0
   -3.5446    4.3341    0.4649 H   0  0  0  0  0  0  0  0  0  0  0  0
   -4.6913    4.2513   -0.8911 H   0  0  0  0  0  0  0  0  0  0  0  0
   -4.4239    2.8264    0.1297 H   0  0  0  0  0  0  0  0  0  0  0  0
   -2.8023    5.2335   -2.8318 N   0  0  0  0  0  0  0  0  0  0  0  0
   -2.2071    6.3870   -3.4963 C   0  0  0  0  0  0  0  0  0  0  0  0
   -3.7763    5.0082   -3.0132 H   0  0  0  0  0  0  0  0  0  0  0  0
   -1.9037    7.1385   -2.7598 H   0  0  0  0  0  0  0  0  0  0  0  0
   -1.3273    6.0855   -4.0747 H   0  0  0  0  0  0  0  0  0  0  0  0
   -2.9283    6.8448   -4.1801 H   0  0  0  0  0  0  0  0  0  0  0  0
  1  2  2  0  0  0  0
  1  3  1  0  0  0  0
  1  7  1  0  0  0  0
  3  4  1  0  0  0  0
  3  5  1  0  0  0  0
  3  6  1  0  0  0  0
  7  8  1  0  0  0  0
  7 12  1  0  0  0  0
  8  9  1  0  0  0  0
  8 11  1  0  0  0  0
  8 13  1  0  0  0  0
  9 10  2  0  0  0  0
  9 17  1  0  0  0  0
 11 14  1  0  0  0  0
 11 15  1  0  0  0  0
 11 16  1  0  0  0  0
 17 18  1  0  0  0  0
 17 23  1  0  0  0  0
 18 19  1  0  0  0  0
 18 21  1  0  0  0  0
 18 24  1  0  0  0  0
 19 20  2  0  0  0  0
 19 28  1  0  0  0  0
 21 22  1  0  0  0  0
 21 25  1  0  0  0  0
 21 26  1  0  0  0  0
 22 27  1  0  0  0  0
 28 29  1  0  0  0  0
 28 33  1  0  0  0  0
 29 30  1  0  0  0  0
 29 32  1  0  0  0  0
 29 34  1  0  0  0  0
 30 31  2  0  0  0  0
 30 38  1  0  0  0  0
 32 35  1  0  0  0  0
 32 36  1  0  0  0  0
 32 37  1  0  0  0  0
 38 39  1  0  0  0  0
 38 40  1  0  0  0  0
 39 41  1  0  0  0  0
 39 42  1  0  0  0  0
 39 43  1  0  0  0  0
M  END
$$$$

  -OEChem-05262216003D

 43 42  0     1  0  0  0  0  0999 V2000
   -3.5556   -4.6995    0.9670 C   0  0  0  0  0  0  0  0  0  0  0  0
   -2.9389   -5.0679    1.9548 O   0  0  0  0  0  0  0  0  0  0  0  0
   -5.0340   -5.0118    0.8315 C   0  0  0  0  0  0  0  0  0  0  0  0
   -5.2042   -5.6363   -0.0487 H   0  0  0  0  0  0  0  0  0  0  0  0
   -5.3887   -5.5464    1.7169 H   0  0  0  0  0  0  0  0  0  0  0  0
   -5.6034   -4.0848    0.7277 H   0  0  0  0  0  0  0  0  0  0  0  0
   -2.9109   -3.9946   -0.0264 N   0  0  0  0  0  0  0  0  0  0  0  0
   -1.5419   -3.4761    0.0806 C   0  0  2  0  0  0  0  0  0  0  0  0
   -1.4060   -2.1202   -0.6417 C   0  0  0  0  0  0  0  0  0  0  0  0
   -2.1535   -1.8576   -1.5767 O   0  0  0  0  0  0  0  0  0  0  0  0
   -0.5859   -4.5114   -0.5191 C   0  0  0  0  0  0  0  0  0  0  0  0
   -3.4871   -3.6012   -0.7705 H   0  0  0  0  0  0  0  0  0  0  0  0
   -1.2872   -3.3129    1.1333 H   0  0  0  0  0  0  0  0  0  0  0  0
   -0.8255   -4.6865   -1.5728 H   0  0  0  0  0  0  0  0  0  0  0  0
    0.4499   -4.1661   -0.4500 H   0  0  0  0  0  0  0  0  0  0  0  0
   -0.6703   -5.4603    0.0201 H   0  0  0  0  0  0  0  0  0  0  0  0
   -0.3170   -1.3028   -0.3946 N   0  0  0  0  0  0  0  0  0  0  0  0
   -0.3045    0.1793   -0.4005 C   0  0  2  0  0  0  0  0  0  0  0  0
   -1.6166    0.9629   -0.6986 C   0  0  0  0  0  0  0  0  0  0  0  0
   -2.6833    0.5880   -0.2270 O   0  0  0  0  0  0  0  0  0  0  0  0
    0.8020    0.5499   -1.4035 C   0  0  0  0  0  0  0  0  0  0  0  0
    2.4355   -0.0168   -0.7678 S   0  0  0  0  0  0  0  0  0  0  0  0
    0.3733   -1.7219    0.2218 H   0  0  0  0  0  0  0  0  0  0  0  0
   -0.0005    0.5196    0.5940 H   0  0  0  0  0  0  0  0  0  0  0  0
    0.5912    0.0874   -2.3745 H   0  0  0  0  0  0  0  0  0  0  0  0
    0.8541    1.6320   -1.5524 H   0  0  0  0  0  0  0  0  0  0  0  0
    3.2480    0.3522   -1.7833 H   0  0  0  0  0  0  0  0  0  0  0  0
   -1.5602    2.3097   -1.0175 N   0  0  0  0  0  0  0  0  0  0  0  0
   -2.7383    3.1417   -1.2982 C   0  0  2  0  0  0  0  0  0  0  0  0
   -2.4569    4.1164   -2.4613 C   0  0  0  0  0  0  0  0  0  0  0  0
   -1.3077    4.2709   -2.8639 O   0  0  0  0  0  0  0  0  0  0  0  0
   -3.1076    3.9062   -0.0241 C   0  0  0  0  0  0  0  0  0  0  0  0
   -0.6859    2.6500   -1.4146 H   0  0  0  0  0  0  0  0  0  0  0  0
   -3.5818    2.5099   -1.5975 H   0  0  0  0  0  0  0  0  0  0  0  0
   -2.2865    4.5630    0.2802 H   0  0  0  0  0  0  0  0  0  0  0  0
   -4.0014    4.5160   -0.1862 H   0  0  0  0  0  0  0  0  0  0  0  0
   -3.3133    3.2043    0.7905 H   0  0  0  0  0  0  0  0  0  0  0  0
   -3.4886    4.8071   -3.0700 N   0  0  0  0  0  0  0  0  0  0  0  0
   -3.2912    5.7029   -4.2036 C   0  0  0  0  0  0  0  0  0  0  0  0
   -4.4333    4.6299   -2.7403 H   0  0  0  0  0  0  0  0  0  0  0  0
   -2.5783    6.4941   -3.9485 H   0  0  0  0  0  0  0  0  0  0  0  0
   -2.9082    5.1485   -5.0668 H   0  0  0  0  0  0  0  0  0  0  0  0
   -4.2385    6.1721   -4.4859 H   0  0  0  0  0  0  0  0  0  0  0  0
  1  2  2  0  0  0  0
  1  3  1  0  0  0  0
  1  7  1  0  0  0  0
  3  4  1  0  0  0  0
  3  5  1  0  0  0  0
  3  6  1  0  0  0  0
  7  8  1  0  0  0  0
  7 12  1  0  0  0  0
  8  9  1  0  0  0  0
  8 11  1  0  0  0  0
  8 13  1  0  0  0  0
  9 10  2  0  0  0  0
  9 17  1  0  0  0  0
 11 14  1  0  0  0  0
 11 15  1  0  0  0  0
 11 16  1  0  0  0  0
 17 18  1  0  0  0  0
 17 23  1  0  0  0  0
 18 19  1  0  0  0  0
 18 21  1  0  0  0  0
 18 24  1  0  0  0  0
 19 20  2  0  0  0  0
 19 28  1  0  0  0  0
 21 22  1  0  0  0  0
 21 25  1  0  0  0  0
 21 26  1  0  0  0  0
 22 27  1  0  0  0  0
 28 29  1  0  0  0  0
 28 33  1  0  0  0  0
 29 30  1  0  0  0  0
 29 32  1  0  0  0  0
 29 34  1  0  0  0  0
 30 31  2  0  0  0  0
 30 38  1  0  0  0  0
 32 35  1  0  0  0  0
 32 36  1  0  0  0  0
 32 37  1  0  0  0  0
 38 39  1  0  0  0  0
 38 40  1  0  0  0  0
 39 41  1  0  0  0  0
 39 42  1  0  0  0  0
 39 43  1  0  0  0  0
M  END
$$$$

  -OEChem-05262216003D

 43 42  0     1  0  0  0  0  0999 V2000
   -3.5648   -4.7001    0.9268 C   0  0  0  0  0  0  0  0  0  0  0  0
   -2.9606   -5.0906    1.9137 O   0  0  0  0  0  0  0  0  0  0  0  0
   -5.0445   -4.9965    0.7709 C   0  0  0  0  0  0  0  0  0  0  0  0
   -5.2104   -5.6094   -0.1183 H   0  0  0  0  0  0  0  0  0  0  0  0
   -5.4160   -5.5361    1.6465 H   0  0  0  0  0  0  0  0  0  0  0  0
   -5.6027   -4.0624    0.6705 H   0  0  0  0  0  0  0  0  0  0  0  0
   -2.9057   -3.9819   -0.0473 N   0  0  0  0  0  0  0  0  0  0  0  0
   -1.5418   -3.4585    0.0930 C   0  0  2  0  0  0  0  0  0  0  0  0
   -1.4027   -2.0838   -0.5929 C   0  0  0  0  0  0  0  0  0  0  0  0
   -2.1845   -1.7734   -1.4849 O   0  0  0  0  0  0  0  0  0  0  0  0
   -0.5710   -4.4734   -0.5172 C   0  0  0  0  0  0  0  0  0  0  0  0
   -3.4758   -3.5626   -0.7818 H   0  0  0  0  0  0  0  0  0  0  0  0
   -1.3037   -3.3197    1.1532 H   0  0  0  0  0  0  0  0  0  0  0  0
   -0.7937   -4.6245   -1.5785 H   0  0  0  0  0  0  0  0  0  0  0  0
    0.4615   -4.1239   -0.4239 H   0  0  0  0  0  0  0  0  0  0  0  0
   -0.6574   -5.4354   -0.0021 H   0  0  0  0  0  0  0  0  0  0  0  0
   -0.2970   -1.2892   -0.3430 N   0  0  0  0  0  0  0  0  0  0  0  0
   -0.2492    0.1910   -0.3723 C   0  0  2  0  0  0  0  0  0  0  0  0
   -1.5558    0.9672   -0.7059 C   0  0  0  0  0  0  0  0  0  0  0  0
   -2.5722    0.7245   -0.0647 O   0  0  0  0  0  0  0  0  0  0  0  0
    0.8872    0.5310   -1.3521 C   0  0  0  0  0  0  0  0  0  0  0  0
    2.4951   -0.0572   -0.6722 S   0  0  0  0  0  0  0  0  0  0  0  0
    0.3904   -1.7209    0.2683 H   0  0  0  0  0  0  0  0  0  0  0  0
    0.0366    0.5446    0.6231 H   0  0  0  0  0  0  0  0  0  0  0  0
    0.6910    0.0661   -2.3250 H   0  0  0  0  0  0  0  0  0  0  0  0
    0.9630    1.6120   -1.5017 H   0  0  0  0  0  0  0  0  0  0  0  0
    3.3374    0.2850   -1.6728 H   0  0  0  0  0  0  0  0  0  0  0  0
   -1.5207    2.1958   -1.3438 N   0  0  0  0  0  0  0  0  0  0  0  0
   -2.7162    2.9758   -1.6877 C   0  0  2  0  0  0  0  0  0  0  0  0
   -2.5456    3.6601   -3.0602 C   0  0  0  0  0  0  0  0  0  0  0  0
   -1.4384    3.7031   -3.5885 O   0  0  0  0  0  0  0  0  0  0  0  0
   -2.9527    4.0134   -0.5867 C   0  0  0  0  0  0  0  0  0  0  0  0
   -0.7001    2.3893   -1.9159 H   0  0  0  0  0  0  0  0  0  0  0  0
   -3.5873    2.3148   -1.7563 H   0  0  0  0  0  0  0  0  0  0  0  0
   -2.1016    4.6983   -0.5178 H   0  0  0  0  0  0  0  0  0  0  0  0
   -3.8549    4.5962   -0.7940 H   0  0  0  0  0  0  0  0  0  0  0  0
   -3.0792    3.5163    0.3804 H   0  0  0  0  0  0  0  0  0  0  0  0
   -3.6317    4.2115   -3.7139 N   0  0  0  0  0  0  0  0  0  0  0  0
   -3.5445    4.8170   -5.0373 C   0  0  0  0  0  0  0  0  0  0  0  0
   -4.5430    4.1163   -3.2750 H   0  0  0  0  0  0  0  0  0  0  0  0
   -2.7994    5.6197   -5.0447 H   0  0  0  0  0  0  0  0  0  0  0  0
   -3.2611    4.0669   -5.7832 H   0  0  0  0  0  0  0  0  0  0  0  0
   -4.5109    5.2428   -5.3236 H   0  0  0  0  0  0  0  0  0  0  0  0
  1  2  2  0  0  0  0
  1  3  1  0  0  0  0
  1  7  1  0  0  0  0
  3  4  1  0  0  0  0
  3  5  1  0  0  0  0
  3  6  1  0  0  0  0
  7  8  1  0  0  0  0
  7 12  1  0  0  0  0
  8  9  1  0  0  0  0
  8 11  1  0  0  0  0
  8 13  1  0  0  0  0
  9 10  2  0  0  0  0
  9 17  1  0  0  0  0
 11 14  1  0  0  0  0
 11 15  1  0  0  0  0
 11 16  1  0  0  0  0
 17 18  1  0  0  0  0
 17 23  1  0  0  0  0
 18 19  1  0  0  0  0
 18 21  1  0  0  0  0
 18 24  1  0  0  0  0
 19 20  2  0  0  0  0
 19 28  1  0  0  0  0
 21 22  1  0  0  0  0
 21 25  1  0  0  0  0
 21 26  1  0  0  0  0
 22 27  1  0  0  0  0
 28 29  1  0  0  0  0
 28 33  1  0  0  0  0
 29 30  1  0  0  0  0
 29 32  1  0  0  0  0
 29 34  1  0  0  0  0
 30 31  2  0  0  0  0
 30 38  1  0  0  0  0
 32 35  1  0  0  0  0
 32 36  1  0  0  0  0
 32 37  1  0  0  0  0
 38 39  1  0  0  0  0
 38 40  1  0  0  0  0
 39 41  1  0  0  0  0
 39 42  1  0  0  0  0
 39 43  1  0  0  0  0
M  END
$$$$

  -OEChem-05262216003D

 43 42  0     1  0  0  0  0  0999 V2000
   -3.4678   -4.8103    0.9887 C   0  0  0  0  0  0  0  0  0  0  0  0
   -2.7672   -5.2623    1.8809 O   0  0  0  0  0  0  0  0  0  0  0  0
   -4.9497   -5.1319    0.9472 C   0  0  0  0  0  0  0  0  0  0  0  0
   -5.1776   -5.7226    0.0568 H   0  0  0  0  0  0  0  0  0  0  0  0
   -5.2355   -5.7041    1.8341 H   0  0  0  0  0  0  0  0  0  0  0  0
   -5.5323   -4.2076    0.9228 H   0  0  0  0  0  0  0  0  0  0  0  0
   -2.9143   -3.9997    0.0209 N   0  0  0  0  0  0  0  0  0  0  0  0
   -1.5465   -3.4691    0.0728 C   0  0  2  0  0  0  0  0  0  0  0  0
   -1.4715   -2.0503   -0.5275 C   0  0  0  0  0  0  0  0  0  0  0  0
   -2.3214   -1.6968   -1.3364 O   0  0  0  0  0  0  0  0  0  0  0  0
   -0.6269   -4.4271   -0.6899 C   0  0  0  0  0  0  0  0  0  0  0  0
   -3.5534   -3.5457   -0.6317 H   0  0  0  0  0  0  0  0  0  0  0  0
   -1.2151   -3.4010    1.1147 H   0  0  0  0  0  0  0  0  0  0  0  0
   -0.9380   -4.5027   -1.7368 H   0  0  0  0  0  0  0  0  0  0  0  0
    0.4083   -4.0742   -0.6584 H   0  0  0  0  0  0  0  0  0  0  0  0
   -0.6649   -5.4249   -0.2414 H   0  0  0  0  0  0  0  0  0  0  0  0
   -0.3642   -1.2565   -0.2772 N   0  0  0  0  0  0  0  0  0  0  0  0
   -0.2852    0.2206   -0.3375 C   0  0  2  0  0  0  0  0  0  0  0  0
   -1.5746    1.0005   -0.7154 C   0  0  0  0  0  0  0  0  0  0  0  0
   -2.5485    0.9223    0.0249 O   0  0  0  0  0  0  0  0  0  0  0  0
    0.8793    0.5270   -1.2937 C   0  0  0  0  0  0  0  0  0  0  0  0
    2.4598   -0.0735   -0.5629 S   0  0  0  0  0  0  0  0  0  0  0  0
    0.3477   -1.6999    0.2970 H   0  0  0  0  0  0  0  0  0  0  0  0
   -0.0184    0.5914    0.6572 H   0  0  0  0  0  0  0  0  0  0  0  0
    0.7022    0.0501   -2.2645 H   0  0  0  0  0  0  0  0  0  0  0  0
    0.9705    1.6059   -1.4546 H   0  0  0  0  0  0  0  0  0  0  0  0
    3.3351    0.2455   -1.5426 H   0  0  0  0  0  0  0  0  0  0  0  0
   -1.5607    2.0383   -1.6310 N   0  0  0  0  0  0  0  0  0  0  0  0
   -2.7644    2.7496   -2.0752 C   0  0  2  0  0  0  0  0  0  0  0  0
   -2.6461    3.1421   -3.5628 C   0  0  0  0  0  0  0  0  0  0  0  0
   -1.5586    3.0766   -4.1288 O   0  0  0  0  0  0  0  0  0  0  0  0
   -2.9547    3.9907   -1.1983 C   0  0  0  0  0  0  0  0  0  0  0  0
   -0.7818    2.0555   -2.2876 H   0  0  0  0  0  0  0  0  0  0  0  0
   -3.6384    2.0966   -1.9759 H   0  0  0  0  0  0  0  0  0  0  0  0
   -2.0939    4.6603   -1.2904 H   0  0  0  0  0  0  0  0  0  0  0  0
   -3.8556    4.5360   -1.4947 H   0  0  0  0  0  0  0  0  0  0  0  0
   -3.0587    3.7000   -0.1481 H   0  0  0  0  0  0  0  0  0  0  0  0
   -3.7577    3.5517   -4.2757 N   0  0  0  0  0  0  0  0  0  0  0  0
   -3.7179    3.8846   -5.6948 C   0  0  0  0  0  0  0  0  0  0  0  0
   -4.6521    3.5526   -3.7936 H   0  0  0  0  0  0  0  0  0  0  0  0
   -3.0110    4.7009   -5.8774 H   0  0  0  0  0  0  0  0  0  0  0  0
   -3.4104    3.0142   -6.2841 H   0  0  0  0  0  0  0  0  0  0  0  0
   -4.7074    4.2027   -6.0372 H   0  0  0  0  0  0  0  0  0  0  0  0
  1  2  2  0  0  0  0
  1  3  1  0  0  0  0
  1  7  1  0  0  0  0
  3  4  1  0  0  0  0
  3  5  1  0  0  0  0
  3  6  1  0  0  0  0
  7  8  1  0  0  0  0
  7 12  1  0  0  0  0
  8  9  1  0  0  0  0
  8 11  1  0  0  0  0
  8 13  1  0  0  0  0
  9 10  2  0  0  0  0
  9 17  1  0  0  0  0
 11 14  1  0  0  0  0
 11 15  1  0  0  0  0
 11 16  1  0  0  0  0
 17 18  1  0  0  0  0
 17 23  1  0  0  0  0
 18 19  1  0  0  0  0
 18 21  1  0  0  0  0
 18 24  1  0  0  0  0
 19 20  2  0  0  0  0
 19 28  1  0  0  0  0
 21 22  1  0  0  0  0
 21 25  1  0  0  0  0
 21 26  1  0  0  0  0
 22 27  1  0  0  0  0
 28 29  1  0  0  0  0
 28 33  1  0  0  0  0
 29 30  1  0  0  0  0
 29 32  1  0  0  0  0
 29 34  1  0  0  0  0
 30 31  2  0  0  0  0
 30 38  1  0  0  0  0
 32 35  1  0  0  0  0
 32 36  1  0  0  0  0
 32 37  1  0  0  0  0
 38 39  1  0  0  0  0
 38 40  1  0  0  0  0
 39 41  1  0  0  0  0
 39 42  1  0  0  0  0
 39 43  1  0  0  0  0
M  END
$$$$

  -OEChem-05262216003D

 43 42  0     1  0  0  0  0  0999 V2000
   -3.4451   -4.9034    0.9562 C   0  0  0  0  0  0  0  0  0  0  0  0
   -2.7330   -5.3867    1.8223 O   0  0  0  0  0  0  0  0  0  0  0  0
   -4.9142   -5.2744    0.8825 C   0  0  0  0  0  0  0  0  0  0  0  0
   -5.1231   -5.7837   -0.0614 H   0  0  0  0  0  0  0  0  0  0  0  0
   -5.1769   -5.9406    1.7091 H   0  0  0  0  0  0  0  0  0  0  0  0
   -5.5301   -4.3741    0.9473 H   0  0  0  0  0  0  0  0  0  0  0  0
   -2.9172   -4.0113    0.0478 N   0  0  0  0  0  0  0  0  0  0  0  0
   -1.5649   -3.4457    0.1322 C   0  0  2  0  0  0  0  0  0  0  0  0
   -1.5188   -2.0102   -0.4336 C   0  0  0  0  0  0  0  0  0  0  0  0
   -2.4237   -1.6258   -1.1650 O   0  0  0  0  0  0  0  0  0  0  0  0
   -0.6070   -4.3624   -0.6358 C   0  0  0  0  0  0  0  0  0  0  0  0
   -3.5703   -3.5358   -0.5747 H   0  0  0  0  0  0  0  0  0  0  0  0
   -1.2527   -3.3931    1.1810 H   0  0  0  0  0  0  0  0  0  0  0  0
   -0.8969   -4.4216   -1.6899 H   0  0  0  0  0  0  0  0  0  0  0  0
    0.4185   -3.9858   -0.5767 H   0  0  0  0  0  0  0  0  0  0  0  0
   -0.6273   -5.3714   -0.2116 H   0  0  0  0  0  0  0  0  0  0  0  0
   -0.4012   -1.2218   -0.2101 N   0  0  0  0  0  0  0  0  0  0  0  0
   -0.2899    0.2494   -0.3257 C   0  0  2  0  0  0  0  0  0  0  0  0
   -1.5600    1.0385   -0.7407 C   0  0  0  0  0  0  0  0  0  0  0  0
   -2.4589    1.1739    0.0813 O   0  0  0  0  0  0  0  0  0  0  0  0
    0.8854    0.5100   -1.2800 C   0  0  0  0  0  0  0  0  0  0  0  0
    2.4514   -0.0873   -0.5173 S   0  0  0  0  0  0  0  0  0  0  0  0
    0.3367   -1.6719    0.3253 H   0  0  0  0  0  0  0  0  0  0  0  0
   -0.0239    0.6485    0.6586 H   0  0  0  0  0  0  0  0  0  0  0  0
    0.7129    0.0043   -2.2367 H   0  0  0  0  0  0  0  0  0  0  0  0
    0.9845    1.5833   -1.4737 H   0  0  0  0  0  0  0  0  0  0  0  0
    3.3457    0.2345   -1.4788 H   0  0  0  0  0  0  0  0  0  0  0  0
   -1.6052    1.8159   -1.8853 N   0  0  0  0  0  0  0  0  0  0  0  0
   -2.8197    2.4881   -2.3611 C   0  0  2  0  0  0  0  0  0  0  0  0
   -2.8766    2.4957   -3.9027 C   0  0  0  0  0  0  0  0  0  0  0  0
   -1.8672    2.2483   -4.5558 O   0  0  0  0  0  0  0  0  0  0  0  0
   -2.8351    3.9177   -1.8117 C   0  0  0  0  0  0  0  0  0  0  0  0
   -0.9160    1.6032   -2.6053 H   0  0  0  0  0  0  0  0  0  0  0  0
   -3.7052    1.9511   -2.0036 H   0  0  0  0  0  0  0  0  0  0  0  0
   -1.9617    4.4739   -2.1669 H   0  0  0  0  0  0  0  0  0  0  0  0
   -3.7388    4.4436   -2.1337 H   0  0  0  0  0  0  0  0  0  0  0  0
   -2.8173    3.9025   -0.7174 H   0  0  0  0  0  0  0  0  0  0  0  0
   -4.0602    2.7748   -4.5603 N   0  0  0  0  0  0  0  0  0  0  0  0
   -4.1895    2.7662   -6.0123 C   0  0  0  0  0  0  0  0  0  0  0  0
   -4.8884    2.9293   -3.9923 H   0  0  0  0  0  0  0  0  0  0  0  0
   -3.5108    3.4988   -6.4617 H   0  0  0  0  0  0  0  0  0  0  0  0
   -3.9525    1.7744   -6.4117 H   0  0  0  0  0  0  0  0  0  0  0  0
   -5.2134    3.0207   -6.3028 H   0  0  0  0  0  0  0  0  0  0  0  0
  1  2  2  0  0  0  0
  1  3  1  0  0  0  0
  1  7  1  0  0  0  0
  3  4  1  0  0  0  0
  3  5  1  0  0  0  0
  3  6  1  0  0  0  0
  7  8  1  0  0  0  0
  7 12  1  0  0  0  0
  8  9  1  0  0  0  0
  8 11  1  0  0  0  0
  8 13  1  0  0  0  0
  9 10  2  0  0  0  0
  9 17  1  0  0  0  0
 11 14  1  0  0  0  0
 11 15  1  0  0  0  0
 11 16  1  0  0  0  0
 17 18  1  0  0  0  0
 17 23  1  0  0  0  0
 18 19  1  0  0  0  0
 18 21  1  0  0  0  0
 18 24  1  0  0  0  0
 19 20  2  0  0  0  0
 19 28  1  0  0  0  0
 21 22  1  0  0  0  0
 21 25  1  0  0  0  0
 21 26  1  0  0  0  0
 22 27  1  0  0  0  0
 28 29  1  0  0  0  0
 28 33  1  0  0  0  0
 29 30  1  0  0  0  0
 29 32  1  0  0  0  0
 29 34  1  0  0  0  0
 30 31  2  0  0  0  0
 30 38  1  0  0  0  0
 32 35  1  0  0  0  0
 32 36  1  0  0  0  0
 32 37  1  0  0  0  0
 38 39  1  0  0  0  0
 38 40  1  0  0  0  0
 39 41  1  0  0  0  0
 39 42  1  0  0  0  0
 39 43  1  0  0  0  0
M  END
$$$$

  -OEChem-05262216003D

 43 42  0     1  0  0  0  0  0999 V2000
   -3.3294   -4.9646    1.0552 C   0  0  0  0  0  0  0  0  0  0  0  0
   -2.5402   -5.4401    1.8565 O   0  0  0  0  0  0  0  0  0  0  0  0
   -4.7957   -5.3499    1.1092 C   0  0  0  0  0  0  0  0  0  0  0  0
   -5.0783   -5.8696    0.1905 H   0  0  0  0  0  0  0  0  0  0  0  0
   -4.9813   -6.0110    1.9604 H   0  0  0  0  0  0  0  0  0  0  0  0
   -5.4126   -4.4544    1.2185 H   0  0  0  0  0  0  0  0  0  0  0  0
   -2.8914   -4.0695    0.1027 N   0  0  0  0  0  0  0  0  0  0  0  0
   -1.5439   -3.4873    0.0735 C   0  0  2  0  0  0  0  0  0  0  0  0
   -1.5740   -2.0154   -0.3888 C   0  0  0  0  0  0  0  0  0  0  0  0
   -2.5367   -1.6103   -1.0284 O   0  0  0  0  0  0  0  0  0  0  0  0
   -0.6772   -4.3316   -0.8650 C   0  0  0  0  0  0  0  0  0  0  0  0
   -3.6024   -3.5979   -0.4558 H   0  0  0  0  0  0  0  0  0  0  0  0
   -1.1098   -3.5041    1.0791 H   0  0  0  0  0  0  0  0  0  0  0  0
   -1.0857   -4.3162   -1.8805 H   0  0  0  0  0  0  0  0  0  0  0  0
    0.3462   -3.9462   -0.8947 H   0  0  0  0  0  0  0  0  0  0  0  0
   -0.6447   -5.3693   -0.5181 H   0  0  0  0  0  0  0  0  0  0  0  0
   -0.4762   -1.2047   -0.1477 N   0  0  0  0  0  0  0  0  0  0  0  0
   -0.3696    0.2641   -0.2871 C   0  0  2  0  0  0  0  0  0  0  0  0
   -1.6254    1.0403   -0.7587 C   0  0  0  0  0  0  0  0  0  0  0  0
   -2.4567    1.3833    0.0737 O   0  0  0  0  0  0  0  0  0  0  0  0
    0.8297    0.5234   -1.2102 C   0  0  0  0  0  0  0  0  0  0  0  0
    2.3776   -0.0463   -0.3916 S   0  0  0  0  0  0  0  0  0  0  0  0
    0.2953   -1.6550    0.3386 H   0  0  0  0  0  0  0  0  0  0  0  0
   -0.1376    0.6801    0.6990 H   0  0  0  0  0  0  0  0  0  0  0  0
    0.6940    0.0000   -2.1630 H   0  0  0  0  0  0  0  0  0  0  0  0
    0.9154    1.5955   -1.4195 H   0  0  0  0  0  0  0  0  0  0  0  0
    3.3003    0.2827   -1.3232 H   0  0  0  0  0  0  0  0  0  0  0  0
   -1.7328    1.5371   -2.0457 N   0  0  0  0  0  0  0  0  0  0  0  0
   -2.9565    2.1470   -2.5767 C   0  0  2  0  0  0  0  0  0  0  0  0
   -3.1257    1.8272   -4.0767 C   0  0  0  0  0  0  0  0  0  0  0  0
   -2.1803    1.3825   -4.7210 O   0  0  0  0  0  0  0  0  0  0  0  0
   -2.8866    3.6599   -2.3506 C   0  0  0  0  0  0  0  0  0  0  0  0
   -1.1225    1.1123   -2.7430 H   0  0  0  0  0  0  0  0  0  0  0  0
   -3.8295    1.7403   -2.0545 H   0  0  0  0  0  0  0  0  0  0  0  0
   -2.0222    4.0842   -2.8711 H   0  0  0  0  0  0  0  0  0  0  0  0
   -3.7928    4.1468   -2.7232 H   0  0  0  0  0  0  0  0  0  0  0  0
   -2.7930    3.8790   -1.2822 H   0  0  0  0  0  0  0  0  0  0  0  0
   -4.3385    2.0359   -4.7073 N   0  0  0  0  0  0  0  0  0  0  0  0
   -4.5776    1.7092   -6.1079 C   0  0  0  0  0  0  0  0  0  0  0  0
   -5.1152    2.3572   -4.1366 H   0  0  0  0  0  0  0  0  0  0  0  0
   -3.8623    2.2322   -6.7515 H   0  0  0  0  0  0  0  0  0  0  0  0
   -4.4766    0.6311   -6.2720 H   0  0  0  0  0  0  0  0  0  0  0  0
   -5.5880    2.0114   -6.3999 H   0  0  0  0  0  0  0  0  0  0  0  0
  1  2  2  0  0  0  0
  1  3  1  0  0  0  0
  1  7  1  0  0  0  0
  3  4  1  0  0  0  0
  3  5  1  0  0  0  0
  3  6  1  0  0  0  0
  7  8  1  0  0  0  0
  7 12  1  0  0  0  0
  8  9  1  0  0  0  0
  8 11  1  0  0  0  0
  8 13  1  0  0  0  0
  9 10  2  0  0  0  0
  9 17  1  0  0  0  0
 11 14  1  0  0  0  0
 11 15  1  0  0  0  0
 11 16  1  0  0  0  0
 17 18  1  0  0  0  0
 17 23  1  0  0  0  0
 18 19  1  0  0  0  0
 18 21  1  0  0  0  0
 18 24  1  0  0  0  0
 19 20  2  0  0  0  0
 19 28  1  0  0  0  0
 21 22  1  0  0  0  0
 21 25  1  0  0  0  0
 21 26  1  0  0  0  0
 22 27  1  0  0  0  0
 28 29  1  0  0  0  0
 28 33  1  0  0  0  0
 29 30  1  0  0  0  0
 29 32  1  0  0  0  0
 29 34  1  0  0  0  0
 30 31  2  0  0  0  0
 30 38  1  0  0  0  0
 32 35  1  0  0  0  0
 32 36  1  0  0  0  0
 32 37  1  0  0  0  0
 38 39  1  0  0  0  0
 38 40  1  0  0  0  0
 39 41  1  0  0  0  0
 39 42  1  0  0  0  0
 39 43  1  0  0  0  0
M  END
$$$$

  -OEChem-05262216003D

 43 42  0     1  0  0  0  0  0999 V2000
   -3.2709   -5.0457    1.0539 C   0  0  0  0  0  0  0  0  0  0  0  0
   -2.4355   -5.5615    1.7798 O   0  0  0  0  0  0  0  0  0  0  0  0
   -4.7270   -5.4595    1.1527 C   0  0  0  0  0  0  0  0  0  0  0  0
   -5.0480   -5.9184    0.2144 H   0  0  0  0  0  0  0  0  0  0  0  0
   -4.8602   -6.1816    1.9632 H   0  0  0  0  0  0  0  0  0  0  0  0
   -5.3508   -4.5854    1.3552 H   0  0  0  0  0  0  0  0  0  0  0  0
   -2.8946   -4.0769    0.1483 N   0  0  0  0  0  0  0  0  0  0  0  0
   -1.5572   -3.4740    0.0885 C   0  0  2  0  0  0  0  0  0  0  0  0
   -1.6248   -1.9839   -0.3091 C   0  0  0  0  0  0  0  0  0  0  0  0
   -2.6332   -1.5569   -0.8571 O   0  0  0  0  0  0  0  0  0  0  0  0
   -0.7180   -4.2648   -0.9195 C   0  0  0  0  0  0  0  0  0  0  0  0
   -3.6383   -3.5853   -0.3465 H   0  0  0  0  0  0  0  0  0  0  0  0
   -1.0828   -3.5277    1.0744 H   0  0  0  0  0  0  0  0  0  0  0  0
   -1.1714   -4.2171   -1.9148 H   0  0  0  0  0  0  0  0  0  0  0  0
    0.2969   -3.8603   -0.9780 H   0  0  0  0  0  0  0  0  0  0  0  0
   -0.6526   -5.3146   -0.6161 H   0  0  0  0  0  0  0  0  0  0  0  0
   -0.5246   -1.1712   -0.0863 N   0  0  0  0  0  0  0  0  0  0  0  0
   -0.3983    0.2912   -0.2712 C   0  0  2  0  0  0  0  0  0  0  0  0
   -1.6342    1.0737   -0.7800 C   0  0  0  0  0  0  0  0  0  0  0  0
   -2.3473    1.6587    0.0264 O   0  0  0  0  0  0  0  0  0  0  0  0
    0.8011    0.5104   -1.2030 C   0  0  0  0  0  0  0  0  0  0  0  0
    2.3449   -0.0522   -0.3721 S   0  0  0  0  0  0  0  0  0  0  0  0
    0.2773   -1.6312    0.3388 H   0  0  0  0  0  0  0  0  0  0  0  0
   -0.1622    0.7333    0.7024 H   0  0  0  0  0  0  0  0  0  0  0  0
    0.6603   -0.0380   -2.1405 H   0  0  0  0  0  0  0  0  0  0  0  0
    0.8940    1.5751   -1.4443 H   0  0  0  0  0  0  0  0  0  0  0  0
    3.2715    0.2749   -1.3004 H   0  0  0  0  0  0  0  0  0  0  0  0
   -1.8550    1.2614   -2.1328 N   0  0  0  0  0  0  0  0  0  0  0  0
   -3.0975    1.8180   -2.6780 C   0  0  2  0  0  0  0  0  0  0  0  0
   -3.4396    1.1677   -4.0348 C   0  0  0  0  0  0  0  0  0  0  0  0
   -2.5756    0.5626   -4.6625 O   0  0  0  0  0  0  0  0  0  0  0  0
   -2.9330    3.3329   -2.8310 C   0  0  0  0  0  0  0  0  0  0  0  0
   -1.3620    0.6208   -2.7539 H   0  0  0  0  0  0  0  0  0  0  0  0
   -3.9273    1.6084   -1.9944 H   0  0  0  0  0  0  0  0  0  0  0  0
   -2.1095    3.5607   -3.5153 H   0  0  0  0  0  0  0  0  0  0  0  0
   -3.8494    3.7811   -3.2266 H   0  0  0  0  0  0  0  0  0  0  0  0
   -2.7169    3.7903   -1.8603 H   0  0  0  0  0  0  0  0  0  0  0  0
   -4.7156    1.2626   -4.5590 N   0  0  0  0  0  0  0  0  0  0  0  0
   -5.1111    0.6349   -5.8142 C   0  0  0  0  0  0  0  0  0  0  0  0
   -5.4216    1.7281   -3.9960 H   0  0  0  0  0  0  0  0  0  0  0  0
   -4.4942    1.0065   -6.6393 H   0  0  0  0  0  0  0  0  0  0  0  0
   -4.9972   -0.4526   -5.7513 H   0  0  0  0  0  0  0  0  0  0  0  0
   -6.1580    0.8613   -6.0381 H   0  0  0  0  0  0  0  0  0  0  0  0
  1  2  2  0  0  0  0
  1  3  1  0  0  0  0
  1  7  1  0  0  0  0
  3  4  1  0  0  0  0
  3  5  1  0  0  0  0
  3  6  1  0  0  0  0
  7  8  1  0  0  0  0
  7 12  1  0  0  0  0
  8  9  1  0  0  0  0
  8 11  1  0  0  0  0
  8 13  1  0  0  0  0
  9 10  2  0  0  0  0
  9 17  1  0  0  0  0
 11 14  1  0  0  0  0
 11 15  1  0  0  0  0
 11 16  1  0  0  0  0
 17 18  1  0  0  0  0
 17 23  1  0  0  0  0
 18 19  1  0  0  0  0
 18 21  1  0  0  0  0
 18 24  1  0  0  0  0
 19 20  2  0  0  0  0
 19 28  1  0  0  0  0
 21 22  1  0  0  0  0
 21 25  1  0  0  0  0
 21 26  1  0  0  0  0
 22 27  1  0  0  0  0
 28 29  1  0  0  0  0
 28 33  1  0  0  0  0
 29 30  1  0  0  0  0
 29 32  1  0  0  0  0
 29 34  1  0  0  0  0
 30 31  2  0  0  0  0
 30 38  1  0  0  0  0
 32 35  1  0  0  0  0
 32 36  1  0  0  0  0
 32 37  1  0  0  0  0
 38 39  1  0  0  0  0
 38 40  1  0  0  0  0
 39 41  1  0  0  0  0
 39 42  1  0  0  0  0
 39 43  1  0  0  0  0
M  END
$$$$

  -OEChem-05262216003D

 43 42  0     1  0  0  0  0  0999 V2000
   -3.1808   -5.1247    1.0869 C   0  0  0  0  0  0  0  0  0  0  0  0
   -2.3084   -5.6213    1.7818 O   0  0  0  0  0  0  0  0  0  0  0  0
   -4.6199   -5.5840    1.2271 C   0  0  0  0  0  0  0  0  0  0  0  0
   -4.9643   -6.0236    0.2879 H   0  0  0  0  0  0  0  0  0  0  0  0
   -4.7010   -6.3346    2.0184 H   0  0  0  0  0  0  0  0  0  0  0  0
   -5.2599   -4.7353    1.4806 H   0  0  0  0  0  0  0  0  0  0  0  0
   -2.8613   -4.1375    0.1794 N   0  0  0  0  0  0  0  0  0  0  0  0
   -1.5460   -3.4906    0.0913 C   0  0  2  0  0  0  0  0  0  0  0  0
   -1.6733   -1.9852   -0.2232 C   0  0  0  0  0  0  0  0  0  0  0  0
   -2.7239   -1.5585   -0.6839 O   0  0  0  0  0  0  0  0  0  0  0  0
   -0.7357   -4.2016   -0.9964 C   0  0  0  0  0  0  0  0  0  0  0  0
   -3.6348   -3.6603   -0.2826 H   0  0  0  0  0  0  0  0  0  0  0  0
   -1.0216   -3.5802    1.0489 H   0  0  0  0  0  0  0  0  0  0  0  0
   -1.2246   -4.0933   -1.9701 H   0  0  0  0  0  0  0  0  0  0  0  0
    0.2724   -3.7813   -1.0629 H   0  0  0  0  0  0  0  0  0  0  0  0
   -0.6490   -5.2684   -0.7668 H   0  0  0  0  0  0  0  0  0  0  0  0
   -0.5888   -1.1508   -0.0027 N   0  0  0  0  0  0  0  0  0  0  0  0
   -0.4657    0.3050   -0.2383 C   0  0  2  0  0  0  0  0  0  0  0  0
   -1.6832    1.0688   -0.8116 C   0  0  0  0  0  0  0  0  0  0  0  0
   -2.2483    1.9103   -0.1240 O   0  0  0  0  0  0  0  0  0  0  0  0
    0.7452    0.5058   -1.1581 C   0  0  0  0  0  0  0  0  0  0  0  0
    2.2827   -0.0144   -0.2890 S   0  0  0  0  0  0  0  0  0  0  0  0
    0.2415   -1.6066    0.3699 H   0  0  0  0  0  0  0  0  0  0  0  0
   -0.2528    0.7812    0.7246 H   0  0  0  0  0  0  0  0  0  0  0  0
    0.6226   -0.0705   -2.0814 H   0  0  0  0  0  0  0  0  0  0  0  0
    0.8291    1.5638   -1.4303 H   0  0  0  0  0  0  0  0  0  0  0  0
    3.2217    0.3057   -1.2075 H   0  0  0  0  0  0  0  0  0  0  0  0
   -2.0230    0.9459   -2.1464 N   0  0  0  0  0  0  0  0  0  0  0  0
   -3.2585    1.4911   -2.7163 C   0  0  2  0  0  0  0  0  0  0  0  0
   -3.8102    0.5627   -3.8184 C   0  0  0  0  0  0  0  0  0  0  0  0
   -3.0773   -0.2605   -4.3586 O   0  0  0  0  0  0  0  0  0  0  0  0
   -2.9618    2.8837   -3.2790 C   0  0  0  0  0  0  0  0  0  0  0  0
   -1.6793    0.1003   -2.6019 H   0  0  0  0  0  0  0  0  0  0  0  0
   -4.0247    1.5671   -1.9370 H   0  0  0  0  0  0  0  0  0  0  0  0
   -2.1932    2.8247   -4.0563 H   0  0  0  0  0  0  0  0  0  0  0  0
   -3.8644    3.3245   -3.7123 H   0  0  0  0  0  0  0  0  0  0  0  0
   -2.6036    3.5444   -2.4832 H   0  0  0  0  0  0  0  0  0  0  0  0
   -5.1313    0.6570   -4.2152 N   0  0  0  0  0  0  0  0  0  0  0  0
   -5.7289   -0.2168   -5.2173 C   0  0  0  0  0  0  0  0  0  0  0  0
   -5.7245    1.3135   -3.7163 H   0  0  0  0  0  0  0  0  0  0  0  0
   -5.1986   -0.1270   -6.1713 H   0  0  0  0  0  0  0  0  0  0  0  0
   -5.6877   -1.2604   -4.8882 H   0  0  0  0  0  0  0  0  0  0  0  0
   -6.7765    0.0545   -5.3788 H   0  0  0  0  0  0  0  0  0  0  0  0
  1  2  2  0  0  0  0
  1  3  1  0  0  0  0
  1  7  1  0  0  0  0
  3  4  1  0  0  0  0
  3  5  1  0  0  0  0
  3  6  1  0  0  0  0
  7  8  1  0  0  0  0
  7 12  1  0  0  0  0
  8  9  1  0  0  0  0
  8 11  1  0  0  0  0
  8 13  1  0  0  0  0
  9 10  2  0  0  0  0
  9 17  1  0  0  0  0
 11 14  1  0  0  0  0
 11 15  1  0  0  0  0
 11 16  1  0  0  0  0
 17 18  1  0  0  0  0
 17 23  1  0  0  0  0
 18 19  1  0  0  0  0
 18 21  1  0  0  0  0
 18 24  1  0  0  0  0
 19 20  2  0  0  0  0
 19 28  1  0  0  0  0
 21 22  1  0  0  0  0
 21 25  1  0  0  0  0
 21 26  1  0  0  0  0
 22 27  1  0  0  0  0
 28 29  1  0  0  0  0
 28 33  1  0  0  0  0
 29 30  1  0  0  0  0
 29 32  1  0  0  0  0
 29 34  1  0  0  0  0
 30 31  2  0  0  0  0
 30 38  1  0  0  0  0
 32 35  1  0  0  0  0
 32 36  1  0  0  0  0
 32 37  1  0  0  0  0
 38 39  1  0  0  0  0
 38 40  1  0  0  0  0
 39 41  1  0  0  0  0
 39 42  1  0  0  0  0
 39 43  1  0  0  0  0
M  END
$$$$

  -OEChem-05262216003D

 43 42  0     1  0  0  0  0  0999 V2000
   -3.0223   -5.3323    1.1133 C   0  0  0  0  0  0  0  0  0  0  0  0
   -2.1188   -5.8337    1.7639 O   0  0  0  0  0  0  0  0  0  0  0  0
   -4.4196   -5.9205    1.1686 C   0  0  0  0  0  0  0  0  0  0  0  0
   -4.7198   -6.2609    0.1747 H   0  0  0  0  0  0  0  0  0  0  0  0
   -4.4438   -6.7713    1.8551 H   0  0  0  0  0  0  0  0  0  0  0  0
   -5.1289   -5.1661    1.5175 H   0  0  0  0  0  0  0  0  0  0  0  0
   -2.7750   -4.2228    0.3333 N   0  0  0  0  0  0  0  0  0  0  0  0
   -1.5008   -3.4936    0.3066 C   0  0  2  0  0  0  0  0  0  0  0  0
   -1.7010   -2.0020   -0.0378 C   0  0  0  0  0  0  0  0  0  0  0  0
   -2.7934   -1.6171   -0.4299 O   0  0  0  0  0  0  0  0  0  0  0  0
   -0.5825   -4.1631   -0.7218 C   0  0  0  0  0  0  0  0  0  0  0  0
   -3.5754   -3.7653   -0.1031 H   0  0  0  0  0  0  0  0  0  0  0  0
   -1.0319   -3.5399    1.2956 H   0  0  0  0  0  0  0  0  0  0  0  0
   -1.0337   -4.1257   -1.7187 H   0  0  0  0  0  0  0  0  0  0  0  0
    0.3885   -3.6602   -0.7590 H   0  0  0  0  0  0  0  0  0  0  0  0
   -0.4152   -5.2115   -0.4549 H   0  0  0  0  0  0  0  0  0  0  0  0
   -0.6401   -1.1226    0.0994 N   0  0  0  0  0  0  0  0  0  0  0  0
   -0.5425    0.3104   -0.2619 C   0  0  2  0  0  0  0  0  0  0  0  0
   -1.7523    1.0374   -0.8985 C   0  0  0  0  0  0  0  0  0  0  0  0
   -2.1049    2.1175   -0.4410 O   0  0  0  0  0  0  0  0  0  0  0  0
    0.6492    0.4348   -1.2178 C   0  0  0  0  0  0  0  0  0  0  0  0
    2.2061    0.0040   -0.3344 S   0  0  0  0  0  0  0  0  0  0  0  0
    0.2249   -1.5432    0.4329 H   0  0  0  0  0  0  0  0  0  0  0  0
   -0.3188    0.8679    0.6542 H   0  0  0  0  0  0  0  0  0  0  0  0
    0.5105   -0.2202   -2.0847 H   0  0  0  0  0  0  0  0  0  0  0  0
    0.7219    1.4652   -1.5839 H   0  0  0  0  0  0  0  0  0  0  0  0
    3.1256    0.2572   -1.2924 H   0  0  0  0  0  0  0  0  0  0  0  0
   -2.2883    0.6124   -2.1005 N   0  0  0  0  0  0  0  0  0  0  0  0
   -3.4717    1.2185   -2.7195 C   0  0  2  0  0  0  0  0  0  0  0  0
   -4.2960    0.1712   -3.4976 C   0  0  0  0  0  0  0  0  0  0  0  0
   -3.7663   -0.8554   -3.9107 O   0  0  0  0  0  0  0  0  0  0  0  0
   -3.0138    2.3411   -3.6552 C   0  0  0  0  0  0  0  0  0  0  0  0
   -2.1624   -0.3834   -2.2910 H   0  0  0  0  0  0  0  0  0  0  0  0
   -4.1207    1.6348   -1.9417 H   0  0  0  0  0  0  0  0  0  0  0  0
   -2.3655    1.9419   -4.4418 H   0  0  0  0  0  0  0  0  0  0  0  0
   -3.8756    2.8244   -4.1249 H   0  0  0  0  0  0  0  0  0  0  0  0
   -2.4566    3.0986   -3.0952 H   0  0  0  0  0  0  0  0  0  0  0  0
   -5.6388    0.3870   -3.7485 N   0  0  0  0  0  0  0  0  0  0  0  0
   -6.4891   -0.5808   -4.4307 C   0  0  0  0  0  0  0  0  0  0  0  0
   -6.0620    1.2203   -3.3507 H   0  0  0  0  0  0  0  0  0  0  0  0
   -6.1040   -0.7902   -5.4344 H   0  0  0  0  0  0  0  0  0  0  0  0
   -6.5303   -1.5184   -3.8664 H   0  0  0  0  0  0  0  0  0  0  0  0
   -7.5066   -0.1894   -4.5269 H   0  0  0  0  0  0  0  0  0  0  0  0
  1  2  2  0  0  0  0
  1  3  1  0  0  0  0
  1  7  1  0  0  0  0
  3  4  1  0  0  0  0
  3  5  1  0  0  0  0
  3  6  1  0  0  0  0
  7  8  1  0  0  0  0
  7 12  1  0  0  0  0
  8  9  1  0  0  0  0
  8 11  1  0  0  0  0
  8 13  1  0  0  0  0
  9 10  2  0  0  0  0
  9 17  1  0  0  0  0
 11 14  1  0  0  0  0
 11 15  1  0  0  0  0
 11 16  1  0  0  0  0
 17 18  1  0  0  0  0
 17 23  1  0  0  0  0
 18 19  1  0  0  0  0
 18 21  1  0  0  0  0
 18 24  1  0  0  0  0
 19 20  2  0  0  0  0
 19 28  1  0  0  0  0
 21 22  1  0  0  0  0
 21 25  1  0  0  0  0
 21 26  1  0  0  0  0
 22 27  1  0  0  0  0
 28 29  1  0  0  0  0
 28 33  1  0  0  0  0
 29 30  1  0  0  0  0
 29 32  1  0  0  0  0
 29 34  1  0  0  0  0
 30 31  2  0  0  0  0
 30 38  1  0  0  0  0
 32 35  1  0  0  0  0
 32 36  1  0  0  0  0
 32 37  1  0  0  0  0
 38 39  1  0  0  0  0
 38 40  1  0  0  0  0
 39 41  1  0  0  0  0
 39 42  1  0  0  0  0
 39 43  1  0  0  0  0
M  END
$$$$

  -OEChem-05262216003D

 43 42  0     1  0  0  0  0  0999 V2000
   -2.7839   -5.5054    1.2314 C   0  0  0  0  0  0  0  0  0  0  0  0
   -1.8546   -5.9493    1.8873 O   0  0  0  0  0  0  0  0  0  0  0  0
   -4.1498   -6.1614    1.2994 C   0  0  0  0  0  0  0  0  0  0  0  0
   -4.4566   -6.4869    0.3025 H   0  0  0  0  0  0  0  0  0  0  0  0
   -4.1178   -7.0318    1.9605 H   0  0  0  0  0  0  0  0  0  0  0  0
   -4.8854   -5.4518    1.6860 H   0  0  0  0  0  0  0  0  0  0  0  0
   -2.5963   -4.3972    0.4338 N   0  0  0  0  0  0  0  0  0  0  0  0
   -1.3699   -3.5899    0.4102 C   0  0  2  0  0  0  0  0  0  0  0  0
   -1.6699   -2.1122    0.0769 C   0  0  0  0  0  0  0  0  0  0  0  0
   -2.8068   -1.7857   -0.2291 O   0  0  0  0  0  0  0  0  0  0  0  0
   -0.4141   -4.1964   -0.6233 C   0  0  0  0  0  0  0  0  0  0  0  0
   -3.4254   -3.9820    0.0078 H   0  0  0  0  0  0  0  0  0  0  0  0
   -0.8958   -3.6118    1.3977 H   0  0  0  0  0  0  0  0  0  0  0  0
   -0.8620   -4.1682   -1.6217 H   0  0  0  0  0  0  0  0  0  0  0  0
    0.5306   -3.6456   -0.6483 H   0  0  0  0  0  0  0  0  0  0  0  0
   -0.1952   -5.2387   -0.3703 H   0  0  0  0  0  0  0  0  0  0  0  0
   -0.6564   -1.1726    0.1486 N   0  0  0  0  0  0  0  0  0  0  0  0
   -0.6264    0.2487   -0.2722 C   0  0  2  0  0  0  0  0  0  0  0  0
   -1.8523    0.9459   -0.9184 C   0  0  0  0  0  0  0  0  0  0  0  0
   -2.0267    2.1367   -0.6891 O   0  0  0  0  0  0  0  0  0  0  0  0
    0.5381    0.3633   -1.2628 C   0  0  0  0  0  0  0  0  0  0  0  0
    2.1296    0.0224   -0.4011 S   0  0  0  0  0  0  0  0  0  0  0  0
    0.2458   -1.5478    0.4346 H   0  0  0  0  0  0  0  0  0  0  0  0
   -0.3963    0.8457    0.6167 H   0  0  0  0  0  0  0  0  0  0  0  0
    0.3977   -0.3340   -2.0960 H   0  0  0  0  0  0  0  0  0  0  0  0
    0.5715    1.3775   -1.6774 H   0  0  0  0  0  0  0  0  0  0  0  0
    3.0182    0.2959   -1.3827 H   0  0  0  0  0  0  0  0  0  0  0  0
   -2.6045    0.3535   -1.9153 N   0  0  0  0  0  0  0  0  0  0  0  0
   -3.7607    0.9896   -2.5578 C   0  0  2  0  0  0  0  0  0  0  0  0
   -4.7990   -0.0502   -3.0296 C   0  0  0  0  0  0  0  0  0  0  0  0
   -4.4584   -1.1965   -3.3013 O   0  0  0  0  0  0  0  0  0  0  0  0
   -3.2666    1.8158   -3.7496 C   0  0  0  0  0  0  0  0  0  0  0  0
   -2.6342   -0.6694   -1.8665 H   0  0  0  0  0  0  0  0  0  0  0  0
   -4.2602    1.6487   -1.8401 H   0  0  0  0  0  0  0  0  0  0  0  0
   -2.7627    1.1713   -4.4771 H   0  0  0  0  0  0  0  0  0  0  0  0
   -4.1062    2.3122   -4.2456 H   0  0  0  0  0  0  0  0  0  0  0  0
   -2.5611    2.5832   -3.4154 H   0  0  0  0  0  0  0  0  0  0  0  0
   -6.1254    0.3123   -3.1788 N   0  0  0  0  0  0  0  0  0  0  0  0
   -7.1644   -0.6156   -3.6078 C   0  0  0  0  0  0  0  0  0  0  0  0
   -6.3863    1.2586   -2.9178 H   0  0  0  0  0  0  0  0  0  0  0  0
   -6.9313   -1.0211   -4.5981 H   0  0  0  0  0  0  0  0  0  0  0  0
   -7.2525   -1.4457   -2.8988 H   0  0  0  0  0  0  0  0  0  0  0  0
   -8.1300   -0.1036   -3.6635 H   0  0  0  0  0  0  0  0  0  0  0  0
  1  2  2  0  0  0  0
  1  3  1  0  0  0  0
  1  7  1  0  0  0  0
  3  4  1  0  0  0  0
  3  5  1  0  0  0  0
  3  6  1  0  0  0  0
  7  8  1  0  0  0  0
  7 12  1  0  0  0  0
  8  9  1  0  0  0  0
  8 11  1  0  0  0  0
  8 13  1  0  0  0  0
  9 10  2  0  0  0  0
  9 17  1  0  0  0  0
 11 14  1  0  0  0  0
 11 15  1  0  0  0  0
 11 16  1  0  0  0  0
 17 18  1  0  0  0  0
 17 23  1  0  0  0  0
 18 19  1  0  0  0  0
 18 21  1  0  0  0  0
 18 24  1  0  0  0  0
 19 20  2  0  0  0  0
 19 28  1  0  0  0  0
 21 22  1  0  0  0  0
 21 25  1  0  0  0  0
 21 26  1  0  0  0  0
 22 27  1  0  0  0  0
 28 29  1  0  0  0  0
 28 33  1  0  0  0  0
 29 30  1  0  0  0  0
 29 32  1  0  0  0  0
 29 34  1  0  0  0  0
 30 31  2  0  0  0  0
 30 38  1  0  0  0  0
 32 35  1  0  0  0  0
 32 36  1  0  0  0  0
 32 37  1  0  0  0  0
 38 39  1  0  0  0  0
 38 40  1  0  0  0  0
 39 41  1  0  0  0  0
 39 42  1  0  0  0  0
 39 43  1  0  0  0  0
M  END
$$$$

  -OEChem-05262216003D

 43 42  0     1  0  0  0  0  0999 V2000
   -2.5578   -5.6564    1.2740 C   0  0  0  0  0  0  0  0  0  0  0  0
   -1.5755   -6.0811    1.8621 O   0  0  0  0  0  0  0  0  0  0  0  0
   -3.8865   -6.3804    1.3840 C   0  0  0  0  0  0  0  0  0  0  0  0
   -4.2146   -6.7092    0.3949 H   0  0  0  0  0  0  0  0  0  0  0  0
   -3.7868   -7.2560    2.0315 H   0  0  0  0  0  0  0  0  0  0  0  0
   -4.6415   -5.7134    1.8070 H   0  0  0  0  0  0  0  0  0  0  0  0
   -2.4623   -4.5118    0.5120 N   0  0  0  0  0  0  0  0  0  0  0  0
   -1.2748   -3.6485    0.4573 C   0  0  2  0  0  0  0  0  0  0  0  0
   -1.6529   -2.1755    0.1881 C   0  0  0  0  0  0  0  0  0  0  0  0
   -2.8248   -1.8816    0.0127 O   0  0  0  0  0  0  0  0  0  0  0  0
   -0.3445   -4.1777   -0.6405 C   0  0  0  0  0  0  0  0  0  0  0  0
   -3.3318   -4.1188    0.1501 H   0  0  0  0  0  0  0  0  0  0  0  0
   -0.7530   -3.6804    1.4201 H   0  0  0  0  0  0  0  0  0  0  0  0
   -0.8398   -4.1313   -1.6157 H   0  0  0  0  0  0  0  0  0  0  0  0
    0.5760   -3.5881   -0.6874 H   0  0  0  0  0  0  0  0  0  0  0  0
   -0.0727   -5.2186   -0.4377 H   0  0  0  0  0  0  0  0  0  0  0  0
   -0.6711   -1.2005    0.2008 N   0  0  0  0  0  0  0  0  0  0  0  0
   -0.6798    0.2069   -0.2711 C   0  0  2  0  0  0  0  0  0  0  0  0
   -1.9126    0.8903   -0.9272 C   0  0  0  0  0  0  0  0  0  0  0  0
   -1.9582    2.1145   -0.9098 O   0  0  0  0  0  0  0  0  0  0  0  0
    0.4668    0.2874   -1.2881 C   0  0  0  0  0  0  0  0  0  0  0  0
    2.0780   -0.0001   -0.4448 S   0  0  0  0  0  0  0  0  0  0  0  0
    0.2578   -1.5556    0.4200 H   0  0  0  0  0  0  0  0  0  0  0  0
   -0.4387    0.8368    0.5916 H   0  0  0  0  0  0  0  0  0  0  0  0
    0.3167   -0.4455   -2.0881 H   0  0  0  0  0  0  0  0  0  0  0  0
    0.4862    1.2824   -1.7475 H   0  0  0  0  0  0  0  0  0  0  0  0
    2.9422    0.2356   -1.4575 H   0  0  0  0  0  0  0  0  0  0  0  0
   -2.8657    0.2237   -1.6724 N   0  0  0  0  0  0  0  0  0  0  0  0
   -4.0361    0.8568   -2.2927 C   0  0  2  0  0  0  0  0  0  0  0  0
   -5.2065   -0.1369   -2.4532 C   0  0  0  0  0  0  0  0  0  0  0  0
   -4.9927   -1.3294   -2.6406 O   0  0  0  0  0  0  0  0  0  0  0  0
   -3.6295    1.4078   -3.6634 C   0  0  0  0  0  0  0  0  0  0  0  0
   -2.9475   -0.7787   -1.4742 H   0  0  0  0  0  0  0  0  0  0  0  0
   -4.3839    1.6792   -1.6589 H   0  0  0  0  0  0  0  0  0  0  0  0
   -3.2714    0.5986   -4.3080 H   0  0  0  0  0  0  0  0  0  0  0  0
   -4.4825    1.8898   -4.1501 H   0  0  0  0  0  0  0  0  0  0  0  0
   -2.8307    2.1480   -3.5565 H   0  0  0  0  0  0  0  0  0  0  0  0
   -6.5138    0.3143   -2.4220 N   0  0  0  0  0  0  0  0  0  0  0  0
   -7.6661   -0.5700   -2.5478 C   0  0  0  0  0  0  0  0  0  0  0  0
   -6.6671    1.3003   -2.2327 H   0  0  0  0  0  0  0  0  0  0  0  0
   -7.6392   -1.0999   -3.5059 H   0  0  0  0  0  0  0  0  0  0  0  0
   -7.6733   -1.3069   -1.7376 H   0  0  0  0  0  0  0  0  0  0  0  0
   -8.5944    0.0073   -2.4984 H   0  0  0  0  0  0  0  0  0  0  0  0
  1  2  2  0  0  0  0
  1  3  1  0  0  0  0
  1  7  1  0  0  0  0
  3  4  1  0  0  0  0
  3  5  1  0  0  0  0
  3  6  1  0  0  0  0
  7  8  1  0  0  0  0
  7 12  1  0  0  0  0
  8  9  1  0  0  0  0
  8 11  1  0  0  0  0
  8 13  1  0  0  0  0
  9 10  2  0  0  0  0
  9 17  1  0  0  0  0
 11 14  1  0  0  0  0
 11 15  1  0  0  0  0
 11 16  1  0  0  0  0
 17 18  1  0  0  0  0
 17 23  1  0  0  0  0
 18 19  1  0  0  0  0
 18 21  1  0  0  0  0
 18 24  1  0  0  0  0
 19 20  2  0  0  0  0
 19 28  1  0  0  0  0
 21 22  1  0  0  0  0
 21 25  1  0  0  0  0
 21 26  1  0  0  0  0
 22 27  1  0  0  0  0
 28 29  1  0  0  0  0
 28 33  1  0  0  0  0
 29 30  1  0  0  0  0
 29 32  1  0  0  0  0
 29 34  1  0  0  0  0
 30 31  2  0  0  0  0
 30 38  1  0  0  0  0
 32 35  1  0  0  0  0
 32 36  1  0  0  0  0
 32 37  1  0  0  0  0
 38 39  1  0  0  0  0
 38 40  1  0  0  0  0
 39 41  1  0  0  0  0
 39 42  1  0  0  0  0
 39 43  1  0  0  0  0
M  END
$$$$

  -OEChem-05262216003D

 43 42  0     1  0  0  0  0  0999 V2000
   -3.2618   -5.0086    0.3928 C   0  0  0  0  0  0  0  0  0  0  0  0
   -2.5462   -5.8987    0.8270 O   0  0  0  0  0  0  0  0  0  0  0  0
   -4.7267   -5.2745    0.1024 C   0  0  0  0  0  0  0  0  0  0  0  0
   -4.9486   -5.0345   -0.9404 H   0  0  0  0  0  0  0  0  0  0  0  0
   -4.9639   -6.3264    0.2829 H   0  0  0  0  0  0  0  0  0  0  0  0
   -5.3515   -4.6532    0.7490 H   0  0  0  0  0  0  0  0  0  0  0  0
   -2.7446   -3.7524    0.1674 N   0  0  0  0  0  0  0  0  0  0  0  0
   -1.4045   -3.3200    0.6002 C   0  0  2  0  0  0  0  0  0  0  0  0
   -1.3956   -1.8074    0.9134 C   0  0  0  0  0  0  0  0  0  0  0  0
   -2.4004   -1.2841    1.3722 O   0  0  0  0  0  0  0  0  0  0  0  0
   -0.4028   -3.6998   -0.4987 C   0  0  0  0  0  0  0  0  0  0  0  0
   -3.4324   -3.0297   -0.0737 H   0  0  0  0  0  0  0  0  0  0  0  0
   -1.1283   -3.8378    1.5254 H   0  0  0  0  0  0  0  0  0  0  0  0
   -0.6418   -3.1802   -1.4318 H   0  0  0  0  0  0  0  0  0  0  0  0
    0.6180   -3.4436   -0.2004 H   0  0  0  0  0  0  0  0  0  0  0  0
   -0.4393   -4.7781   -0.6846 H   0  0  0  0  0  0  0  0  0  0  0  0
   -0.3295   -0.9787    0.6135 N   0  0  0  0  0  0  0  0  0  0  0  0
   -0.3687    0.2709   -0.1943 C   0  0  2  0  0  0  0  0  0  0  0  0
   -1.6886    0.8052   -0.8311 C   0  0  0  0  0  0  0  0  0  0  0  0
   -1.6858    1.9056   -1.3673 O   0  0  0  0  0  0  0  0  0  0  0  0
    0.6257    0.0351   -1.3423 C   0  0  0  0  0  0  0  0  0  0  0  0
    2.3345   -0.1320   -0.6799 S   0  0  0  0  0  0  0  0  0  0  0  0
    0.5441   -1.4874    0.4974 H   0  0  0  0  0  0  0  0  0  0  0  0
   -0.0040    1.0857    0.4395 H   0  0  0  0  0  0  0  0  0  0  0  0
    0.3463   -0.8571   -1.9123 H   0  0  0  0  0  0  0  0  0  0  0  0
    0.6067    0.8871   -2.0314 H   0  0  0  0  0  0  0  0  0  0  0  0
    3.0554   -0.1540   -1.8236 H   0  0  0  0  0  0  0  0  0  0  0  0
   -2.8225    0.0293   -0.9560 N   0  0  0  0  0  0  0  0  0  0  0  0
   -4.0911    0.3720   -1.6022 C   0  0  2  0  0  0  0  0  0  0  0  0
   -5.1460   -0.7097   -1.2670 C   0  0  0  0  0  0  0  0  0  0  0  0
   -4.7964   -1.8326   -0.9020 O   0  0  0  0  0  0  0  0  0  0  0  0
   -3.9105    0.4538   -3.1241 C   0  0  0  0  0  0  0  0  0  0  0  0
   -2.8727   -0.7516   -0.2986 H   0  0  0  0  0  0  0  0  0  0  0  0
   -4.4435    1.3357   -1.2205 H   0  0  0  0  0  0  0  0  0  0  0  0
   -3.5219   -0.4925   -3.5137 H   0  0  0  0  0  0  0  0  0  0  0  0
   -4.8671    0.6648   -3.6120 H   0  0  0  0  0  0  0  0  0  0  0  0
   -3.2117    1.2525   -3.3895 H   0  0  0  0  0  0  0  0  0  0  0  0
   -6.4952   -0.4332   -1.3886 N   0  0  0  0  0  0  0  0  0  0  0  0
   -7.5431   -1.3990   -1.0807 C   0  0  0  0  0  0  0  0  0  0  0  0
   -6.7594    0.5068   -1.6697 H   0  0  0  0  0  0  0  0  0  0  0  0
   -7.4647   -2.2719   -1.7371 H   0  0  0  0  0  0  0  0  0  0  0  0
   -7.4650   -1.7320   -0.0404 H   0  0  0  0  0  0  0  0  0  0  0  0
   -8.5287   -0.9463   -1.2246 H   0  0  0  0  0  0  0  0  0  0  0  0
  1  2  2  0  0  0  0
  1  3  1  0  0  0  0
  1  7  1  0  0  0  0
  3  4  1  0  0  0  0
  3  5  1  0  0  0  0
  3  6  1  0  0  0  0
  7  8  1  0  0  0  0
  7 12  1  0  0  0  0
  8  9  1  0  0  0  0
  8 11  1  0  0  0  0
  8 13  1  0  0  0  0
  9 10  2  0  0  0  0
  9 17  1  0  0  0  0
 11 14  1  0  0  0  0
 11 15  1  0  0  0  0
 11 16  1  0  0  0  0
 17 18  1  0  0  0  0
 17 23  1  0  0  0  0
 18 19  1  0  0  0  0
 18 21  1  0  0  0  0
 18 24  1  0  0  0  0
 19 20  2  0  0  0  0
 19 28  1  0  0  0  0
 21 22  1  0  0  0  0
 21 25  1  0  0  0  0
 21 26  1  0  0  0  0
 22 27  1  0  0  0  0
 28 29  1  0  0  0  0
 28 33  1  0  0  0  0
 29 30  1  0  0  0  0
 29 32  1  0  0  0  0
 29 34  1  0  0  0  0
 30 31  2  0  0  0  0
 30 38  1  0  0  0  0
 32 35  1  0  0  0  0
 32 36  1  0  0  0  0
 32 37  1  0  0  0  0
 38 39  1  0  0  0  0
 38 40  1  0  0  0  0
 39 41  1  0  0  0  0
 39 42  1  0  0  0  0
 39 43  1  0  0  0  0
M  END
$$$$

  -OEChem-05262216003D

 43 42  0     1  0  0  0  0  0999 V2000
   -3.1189   -4.8662    1.4994 C   0  0  0  0  0  0  0  0  0  0  0  0
   -2.5290   -4.3712    2.4465 O   0  0  0  0  0  0  0  0  0  0  0  0
   -4.4546   -5.5546    1.7060 C   0  0  0  0  0  0  0  0  0  0  0  0
   -4.4173   -6.5714    1.3072 H   0  0  0  0  0  0  0  0  0  0  0  0
   -4.6917   -5.6040    2.7725 H   0  0  0  0  0  0  0  0  0  0  0  0
   -5.2440   -4.9980    1.1950 H   0  0  0  0  0  0  0  0  0  0  0  0
   -2.5871   -4.7611    0.2304 N   0  0  0  0  0  0  0  0  0  0  0  0
   -1.4356   -3.8974   -0.0674 C   0  0  2  0  0  0  0  0  0  0  0  0
   -1.8466   -2.4283   -0.3105 C   0  0  0  0  0  0  0  0  0  0  0  0
   -2.9137   -2.1976   -0.8628 O   0  0  0  0  0  0  0  0  0  0  0  0
   -0.7272   -4.4647   -1.2992 C   0  0  0  0  0  0  0  0  0  0  0  0
   -3.2133   -4.9938   -0.5355 H   0  0  0  0  0  0  0  0  0  0  0  0
   -0.7303   -3.9223    0.7709 H   0  0  0  0  0  0  0  0  0  0  0  0
   -1.3928   -4.4477   -2.1683 H   0  0  0  0  0  0  0  0  0  0  0  0
    0.1642   -3.8740   -1.5325 H   0  0  0  0  0  0  0  0  0  0  0  0
   -0.4177   -5.4985   -1.1160 H   0  0  0  0  0  0  0  0  0  0  0  0
   -1.0048   -1.4179    0.1243 N   0  0  0  0  0  0  0  0  0  0  0  0
   -0.9580    0.0547   -0.0839 C   0  0  2  0  0  0  0  0  0  0  0  0
   -1.9647    0.8792   -0.9423 C   0  0  0  0  0  0  0  0  0  0  0  0
   -1.8590    2.0973   -0.9102 O   0  0  0  0  0  0  0  0  0  0  0  0
    0.4503    0.2972   -0.6525 C   0  0  0  0  0  0  0  0  0  0  0  0
    1.7201   -0.1381    0.6090 S   0  0  0  0  0  0  0  0  0  0  0  0
   -0.2009   -1.7688    0.6438 H   0  0  0  0  0  0  0  0  0  0  0  0
   -1.0230    0.5139    0.9082 H   0  0  0  0  0  0  0  0  0  0  0  0
    0.5984   -0.2883   -1.5659 H   0  0  0  0  0  0  0  0  0  0  0  0
    0.5763    1.3545   -0.9121 H   0  0  0  0  0  0  0  0  0  0  0  0
    2.8461    0.3008    0.0025 H   0  0  0  0  0  0  0  0  0  0  0  0
   -3.0390    0.3593   -1.6334 N   0  0  0  0  0  0  0  0  0  0  0  0
   -4.2554    1.0988   -2.0083 C   0  0  2  0  0  0  0  0  0  0  0  0
   -5.4824    0.6470   -1.1850 C   0  0  0  0  0  0  0  0  0  0  0  0
   -6.5326    1.2717   -1.2536 O   0  0  0  0  0  0  0  0  0  0  0  0
   -4.4905    0.8761   -3.5040 C   0  0  0  0  0  0  0  0  0  0  0  0
   -3.0981   -0.6577   -1.6346 H   0  0  0  0  0  0  0  0  0  0  0  0
   -4.1301    2.1729   -1.8334 H   0  0  0  0  0  0  0  0  0  0  0  0
   -4.6447   -0.1863   -3.7166 H   0  0  0  0  0  0  0  0  0  0  0  0
   -5.3753    1.4295   -3.8352 H   0  0  0  0  0  0  0  0  0  0  0  0
   -3.6283    1.2281   -4.0787 H   0  0  0  0  0  0  0  0  0  0  0  0
   -5.4333   -0.4993   -0.4083 N   0  0  0  0  0  0  0  0  0  0  0  0
   -6.5518   -0.9788    0.3922 C   0  0  0  0  0  0  0  0  0  0  0  0
   -4.5620   -1.0308   -0.4095 H   0  0  0  0  0  0  0  0  0  0  0  0
   -6.8456   -0.2243    1.1294 H   0  0  0  0  0  0  0  0  0  0  0  0
   -7.4127   -1.2025   -0.2463 H   0  0  0  0  0  0  0  0  0  0  0  0
   -6.2691   -1.8912    0.9259 H   0  0  0  0  0  0  0  0  0  0  0  0
  1  2  2  0  0  0  0
  1  3  1  0  0  0  0
  1  7  1  0  0  0  0
  3  4  1  0  0  0  0
  3  5  1  0  0  0  0
  3  6  1  0  0  0  0
  7  8  1  0  0  0  0
  7 12  1  0  0  0  0
  8  9  1  0  0  0  0
  8 11  1  0  0  0  0
  8 13  1  0  0  0  0
  9 10  2  0  0  0  0
  9 17  1  0  0  0  0
 11 14  1  0  0  0  0
 11 15  1  0  0  0  0
 11 16  1  0  0  0  0
 17 18  1  0  0  0  0
 17 23  1  0  0  0  0
 18 19  1  0  0  0  0
 18 21  1  0  0  0  0
 18 24  1  0  0  0  0
 19 20  2  0  0  0  0
 19 28  1  0  0  0  0
 21 22  1  0  0  0  0
 21 25  1  0  0  0  0
 21 26  1  0  0  0  0
 22 27  1  0  0  0  0
 28 29  1  0  0  0  0
 28 33  1  0  0  0  0
 29 30  1  0  0  0  0
 29 32  1  0  0  0  0
 29 34  1  0  0  0  0
 30 31  2  0  0  0  0
 30 38  1  0  0  0  0
 32 35  1  0  0  0  0
 32 36  1  0  0  0  0
 32 37  1  0  0  0  0
 38 39  1  0  0  0  0
 38 40  1  0  0  0  0
 39 41  1  0  0  0  0
 39 42  1  0  0  0  0
 39 43  1  0  0  0  0
M  END
$$$$

  -OEChem-05262216003D

 43 42  0     1  0  0  0  0  0999 V2000
   -2.2159   -3.6923    1.3390 C   0  0  0  0  0  0  0  0  0  0  0  0
   -1.0268   -3.7854    1.6091 O   0  0  0  0  0  0  0  0  0  0  0  0
   -3.2260   -3.3740    2.4241 C   0  0  0  0  0  0  0  0  0  0  0  0
   -3.5874   -2.3494    2.3062 H   0  0  0  0  0  0  0  0  0  0  0  0
   -4.0742   -4.0595    2.3566 H   0  0  0  0  0  0  0  0  0  0  0  0
   -2.7660   -3.4770    3.4106 H   0  0  0  0  0  0  0  0  0  0  0  0
   -2.6141   -3.7565    0.0212 N   0  0  0  0  0  0  0  0  0  0  0  0
   -1.6684   -3.8379   -1.1032 C   0  0  2  0  0  0  0  0  0  0  0  0
   -1.0699   -2.4468   -1.4140 C   0  0  0  0  0  0  0  0  0  0  0  0
   -1.3122   -1.8712   -2.4666 O   0  0  0  0  0  0  0  0  0  0  0  0
   -2.4256   -4.4481   -2.2889 C   0  0  0  0  0  0  0  0  0  0  0  0
   -3.5503   -3.3819   -0.1677 H   0  0  0  0  0  0  0  0  0  0  0  0
   -0.8395   -4.5086   -0.8522 H   0  0  0  0  0  0  0  0  0  0  0  0
   -3.2719   -3.8141   -2.5731 H   0  0  0  0  0  0  0  0  0  0  0  0
   -1.7612   -4.5489   -3.1530 H   0  0  0  0  0  0  0  0  0  0  0  0
   -2.8059   -5.4404   -2.0274 H   0  0  0  0  0  0  0  0  0  0  0  0
   -0.3866   -1.7727   -0.4210 N   0  0  0  0  0  0  0  0  0  0  0  0
   -0.6831   -0.4164    0.1077 C   0  0  2  0  0  0  0  0  0  0  0  0
   -1.8661    0.4486   -0.4213 C   0  0  0  0  0  0  0  0  0  0  0  0
   -2.0748    1.5253    0.1251 O   0  0  0  0  0  0  0  0  0  0  0  0
    0.6220    0.3782   -0.0588 C   0  0  0  0  0  0  0  0  0  0  0  0
    1.9484   -0.3322    1.0043 S   0  0  0  0  0  0  0  0  0  0  0  0
   -0.1176   -2.4187    0.3275 H   0  0  0  0  0  0  0  0  0  0  0  0
   -0.8855   -0.5271    1.1778 H   0  0  0  0  0  0  0  0  0  0  0  0
    0.9314    0.3619   -1.1093 H   0  0  0  0  0  0  0  0  0  0  0  0
    0.4715    1.4242    0.2290 H   0  0  0  0  0  0  0  0  0  0  0  0
    2.9838    0.4768    0.6906 H   0  0  0  0  0  0  0  0  0  0  0  0
   -2.8955   -0.0632   -1.1860 N   0  0  0  0  0  0  0  0  0  0  0  0
   -4.3059    0.3301   -1.1064 C   0  0  2  0  0  0  0  0  0  0  0  0
   -5.1422   -0.7007   -0.3149 C   0  0  0  0  0  0  0  0  0  0  0  0
   -4.7878   -1.8758   -0.2320 O   0  0  0  0  0  0  0  0  0  0  0  0
   -4.8262    0.4578   -2.5388 C   0  0  0  0  0  0  0  0  0  0  0  0
   -2.6769   -0.9287   -1.6818 H   0  0  0  0  0  0  0  0  0  0  0  0
   -4.4066    1.3017   -0.6123 H   0  0  0  0  0  0  0  0  0  0  0  0
   -4.7485   -0.5011   -3.0621 H   0  0  0  0  0  0  0  0  0  0  0  0
   -5.8743    0.7720   -2.5399 H   0  0  0  0  0  0  0  0  0  0  0  0
   -4.2406    1.2020   -3.0881 H   0  0  0  0  0  0  0  0  0  0  0  0
   -6.3149   -0.3132    0.3057 N   0  0  0  0  0  0  0  0  0  0  0  0
   -7.1547   -1.2198    1.0794 C   0  0  0  0  0  0  0  0  0  0  0  0
   -6.5690    0.6696    0.2555 H   0  0  0  0  0  0  0  0  0  0  0  0
   -7.5114   -2.0424    0.4507 H   0  0  0  0  0  0  0  0  0  0  0  0
   -6.5942   -1.6370    1.9226 H   0  0  0  0  0  0  0  0  0  0  0  0
   -8.0244   -0.6854    1.4739 H   0  0  0  0  0  0  0  0  0  0  0  0
  1  2  2  0  0  0  0
  1  3  1  0  0  0  0
  1  7  1  0  0  0  0
  3  4  1  0  0  0  0
  3  5  1  0  0  0  0
  3  6  1  0  0  0  0
  7  8  1  0  0  0  0
  7 12  1  0  0  0  0
  8  9  1  0  0  0  0
  8 11  1  0  0  0  0
  8 13  1  0  0  0  0
  9 10  2  0  0  0  0
  9 17  1  0  0  0  0
 11 14  1  0  0  0  0
 11 15  1  0  0  0  0
 11 16  1  0  0  0  0
 17 18  1  0  0  0  0
 17 23  1  0  0  0  0
 18 19  1  0  0  0  0
 18 21  1  0  0  0  0
 18 24  1  0  0  0  0
 19 20  2  0  0  0  0
 19 28  1  0  0  0  0
 21 22  1  0  0  0  0
 21 25  1  0  0  0  0
 21 26  1  0  0  0  0
 22 27  1  0  0  0  0
 28 29  1  0  0  0  0
 28 33  1  0  0  0  0
 29 30  1  0  0  0  0
 29 32  1  0  0  0  0
 29 34  1  0  0  0  0
 30 31  2  0  0  0  0
 30 38  1  0  0  0  0
 32 35  1  0  0  0  0
 32 36  1  0  0  0  0
 32 37  1  0  0  0  0
 38 39  1  0  0  0  0
 38 40  1  0  0  0  0
 39 41  1  0  0  0  0
 39 42  1  0  0  0  0
 39 43  1  0  0  0  0
M  END
$$$$

  -OEChem-05262216003D

 43 42  0     1  0  0  0  0  0999 V2000
   -2.2139   -3.4737    1.5202 C   0  0  0  0  0  0  0  0  0  0  0  0
   -1.0153   -3.5847    1.7370 O   0  0  0  0  0  0  0  0  0  0  0  0
   -3.1654   -3.1004    2.6400 C   0  0  0  0  0  0  0  0  0  0  0  0
   -2.6922   -3.2691    3.6110 H   0  0  0  0  0  0  0  0  0  0  0  0
   -3.4405   -2.0460    2.5566 H   0  0  0  0  0  0  0  0  0  0  0  0
   -4.0712   -3.7086    2.5794 H   0  0  0  0  0  0  0  0  0  0  0  0
   -2.6763   -3.5853    0.2265 N   0  0  0  0  0  0  0  0  0  0  0  0
   -1.7883   -3.7479   -0.9358 C   0  0  2  0  0  0  0  0  0  0  0  0
   -1.1613   -2.3924   -1.3329 C   0  0  0  0  0  0  0  0  0  0  0  0
   -1.5890   -1.7638   -2.2915 O   0  0  0  0  0  0  0  0  0  0  0  0
   -2.6168   -4.3797   -2.0607 C   0  0  0  0  0  0  0  0  0  0  0  0
   -3.6322   -3.2480    0.0681 H   0  0  0  0  0  0  0  0  0  0  0  0
   -0.9709   -4.4359   -0.6943 H   0  0  0  0  0  0  0  0  0  0  0  0
   -3.4687   -3.7419   -2.3193 H   0  0  0  0  0  0  0  0  0  0  0  0
   -2.0006   -4.5149   -2.9551 H   0  0  0  0  0  0  0  0  0  0  0  0
   -2.9963   -5.3578   -1.7495 H   0  0  0  0  0  0  0  0  0  0  0  0
   -0.2868   -1.7695   -0.4628 N   0  0  0  0  0  0  0  0  0  0  0  0
   -0.4510   -0.4129    0.1225 C   0  0  2  0  0  0  0  0  0  0  0  0
   -1.6980    0.4586   -0.2154 C   0  0  0  0  0  0  0  0  0  0  0  0
   -1.7217    1.6420    0.1008 O   0  0  0  0  0  0  0  0  0  0  0  0
    0.8359    0.3494   -0.2351 C   0  0  0  0  0  0  0  0  0  0  0  0
    2.2886   -0.4181    0.5985 S   0  0  0  0  0  0  0  0  0  0  0  0
    0.0613   -2.4352    0.2322 H   0  0  0  0  0  0  0  0  0  0  0  0
   -0.4878   -0.5309    1.2099 H   0  0  0  0  0  0  0  0  0  0  0  0
    0.9771    0.3467   -1.3210 H   0  0  0  0  0  0  0  0  0  0  0  0
    0.7662    1.3924    0.0903 H   0  0  0  0  0  0  0  0  0  0  0  0
    3.2840    0.3767    0.1487 H   0  0  0  0  0  0  0  0  0  0  0  0
   -2.9092   -0.1330   -0.5113 N   0  0  0  0  0  0  0  0  0  0  0  0
   -4.2440    0.4561   -0.3959 C   0  0  2  0  0  0  0  0  0  0  0  0
   -5.2649   -0.5916    0.1053 C   0  0  0  0  0  0  0  0  0  0  0  0
   -4.9808   -1.7892    0.1324 O   0  0  0  0  0  0  0  0  0  0  0  0
   -4.6434    1.0012   -1.7691 C   0  0  0  0  0  0  0  0  0  0  0  0
   -2.8445   -1.0464   -0.9603 H   0  0  0  0  0  0  0  0  0  0  0  0
   -4.2283    1.2776    0.3279 H   0  0  0  0  0  0  0  0  0  0  0  0
   -4.6597    0.1958   -2.5108 H   0  0  0  0  0  0  0  0  0  0  0  0
   -5.6355    1.4602   -1.7284 H   0  0  0  0  0  0  0  0  0  0  0  0
   -3.9253    1.7599   -2.0965 H   0  0  0  0  0  0  0  0  0  0  0  0
   -6.5045   -0.1902    0.5671 N   0  0  0  0  0  0  0  0  0  0  0  0
   -7.4962   -1.1093    1.1126 C   0  0  0  0  0  0  0  0  0  0  0  0
   -6.7086    0.8054    0.5599 H   0  0  0  0  0  0  0  0  0  0  0  0
   -7.7379   -1.8913    0.3852 H   0  0  0  0  0  0  0  0  0  0  0  0
   -7.1182   -1.5811    2.0254 H   0  0  0  0  0  0  0  0  0  0  0  0
   -8.4171   -0.5710    1.3570 H   0  0  0  0  0  0  0  0  0  0  0  0
  1  2  2  0  0  0  0
  1  3  1  0  0  0  0
  1  7  1  0  0  0  0
  3  4  1  0  0  0  0
  3  5  1  0  0  0  0
  3  6  1  0  0  0  0
  7  8  1  0  0  0  0
  7 12  1  0  0  0  0
  8  9  1  0  0  0  0
  8 11  1  0  0  0  0
  8 13  1  0  0  0  0
  9 10  2  0  0  0  0
  9 17  1  0  0  0  0
 11 14  1  0  0  0  0
 11 15  1  0  0  0  0
 11 16  1  0  0  0  0
 17 18  1  0  0  0  0
 17 23  1  0  0  0  0
 18 19  1  0  0  0  0
 18 21  1  0  0  0  0
 18 24  1  0  0  0  0
 19 20  2  0  0  0  0
 19 28  1  0  0  0  0
 21 22  1  0  0  0  0
 21 25  1  0  0  0  0
 21 26  1  0  0  0  0
 22 27  1  0  0  0  0
 28 29  1  0  0  0  0
 28 33  1  0  0  0  0
 29 30  1  0  0  0  0
 29 32  1  0  0  0  0
 29 34  1  0  0  0  0
 30 31  2  0  0  0  0
 30 38  1  0  0  0  0
 32 35  1  0  0  0  0
 32 36  1  0  0  0  0
 32 37  1  0  0  0  0
 38 39  1  0  0  0  0
 38 40  1  0  0  0  0
 39 41  1  0  0  0  0
 39 42  1  0  0  0  0
 39 43  1  0  0  0  0
M  END
$$$$

  -OEChem-05262216003D

 43 42  0     1  0  0  0  0  0999 V2000
   -2.2048   -3.4604    1.5349 C   0  0  0  0  0  0  0  0  0  0  0  0
   -1.0002   -3.6682    1.5515 O   0  0  0  0  0  0  0  0  0  0  0  0
   -2.9622   -3.2164    2.8254 C   0  0  0  0  0  0  0  0  0  0  0  0
   -3.8461   -3.8577    2.8663 H   0  0  0  0  0  0  0  0  0  0  0  0
   -2.3247   -3.4397    3.6854 H   0  0  0  0  0  0  0  0  0  0  0  0
   -3.2792   -2.1718    2.8803 H   0  0  0  0  0  0  0  0  0  0  0  0
   -2.8464   -3.3501    0.3197 N   0  0  0  0  0  0  0  0  0  0  0  0
   -2.1630   -3.4771   -0.9785 C   0  0  2  0  0  0  0  0  0  0  0  0
   -1.4158   -2.1735   -1.3418 C   0  0  0  0  0  0  0  0  0  0  0  0
   -1.8811   -1.3937   -2.1610 O   0  0  0  0  0  0  0  0  0  0  0  0
   -3.2242   -3.8662   -2.0147 C   0  0  0  0  0  0  0  0  0  0  0  0
   -3.8111   -3.0014    0.3412 H   0  0  0  0  0  0  0  0  0  0  0  0
   -1.4234   -4.2841   -0.9368 H   0  0  0  0  0  0  0  0  0  0  0  0
   -4.0031   -3.0990   -2.0776 H   0  0  0  0  0  0  0  0  0  0  0  0
   -2.7669   -3.9769   -3.0030 H   0  0  0  0  0  0  0  0  0  0  0  0
   -3.6923   -4.8166   -1.7410 H   0  0  0  0  0  0  0  0  0  0  0  0
   -0.3339   -1.7668   -0.5815 N   0  0  0  0  0  0  0  0  0  0  0  0
   -0.2530   -0.4765    0.1503 C   0  0  2  0  0  0  0  0  0  0  0  0
   -1.4658    0.4943    0.0735 C   0  0  0  0  0  0  0  0  0  0  0  0
   -1.3367    1.7129    0.0825 O   0  0  0  0  0  0  0  0  0  0  0  0
    1.0347    0.2092   -0.3337 C   0  0  0  0  0  0  0  0  0  0  0  0
    2.5085   -0.7747    0.1702 S   0  0  0  0  0  0  0  0  0  0  0  0
    0.0250   -2.5409   -0.0175 H   0  0  0  0  0  0  0  0  0  0  0  0
   -0.1385   -0.7020    1.2150 H   0  0  0  0  0  0  0  0  0  0  0  0
    1.0052    0.3210   -1.4231 H   0  0  0  0  0  0  0  0  0  0  0  0
    1.1214    1.2092    0.1035 H   0  0  0  0  0  0  0  0  0  0  0  0
    3.5003   -0.0376   -0.3754 H   0  0  0  0  0  0  0  0  0  0  0  0
   -2.7341   -0.0307    0.2337 N   0  0  0  0  0  0  0  0  0  0  0  0
   -4.0011    0.6969    0.1545 C   0  0  2  0  0  0  0  0  0  0  0  0
   -5.1627   -0.2055    0.6283 C   0  0  0  0  0  0  0  0  0  0  0  0
   -5.0119   -1.4250    0.7161 O   0  0  0  0  0  0  0  0  0  0  0  0
   -4.2428    1.1362   -1.2949 C   0  0  0  0  0  0  0  0  0  0  0  0
   -2.7978   -1.0393    0.1200 H   0  0  0  0  0  0  0  0  0  0  0  0
   -3.9568    1.5776    0.8033 H   0  0  0  0  0  0  0  0  0  0  0  0
   -4.2692    0.2654   -1.9585 H   0  0  0  0  0  0  0  0  0  0  0  0
   -5.1930    1.6708   -1.3821 H   0  0  0  0  0  0  0  0  0  0  0  0
   -3.4435    1.8027   -1.6334 H   0  0  0  0  0  0  0  0  0  0  0  0
   -6.3813    0.3489    0.9720 N   0  0  0  0  0  0  0  0  0  0  0  0
   -7.5226   -0.4343    1.4299 C   0  0  0  0  0  0  0  0  0  0  0  0
   -6.4799    1.3568    0.8845 H   0  0  0  0  0  0  0  0  0  0  0  0
   -7.8334   -1.1469    0.6585 H   0  0  0  0  0  0  0  0  0  0  0  0
   -7.2679   -0.9875    2.3401 H   0  0  0  0  0  0  0  0  0  0  0  0
   -8.3682    0.2242    1.6522 H   0  0  0  0  0  0  0  0  0  0  0  0
  1  2  2  0  0  0  0
  1  3  1  0  0  0  0
  1  7  1  0  0  0  0
  3  4  1  0  0  0  0
  3  5  1  0  0  0  0
  3  6  1  0  0  0  0
  7  8  1  0  0  0  0
  7 12  1  0  0  0  0
  8  9  1  0  0  0  0
  8 11  1  0  0  0  0
  8 13  1  0  0  0  0
  9 10  2  0  0  0  0
  9 17  1  0  0  0  0
 11 14  1  0  0  0  0
 11 15  1  0  0  0  0
 11 16  1  0  0  0  0
 17 18  1  0  0  0  0
 17 23  1  0  0  0  0
 18 19  1  0  0  0  0
 18 21  1  0  0  0  0
 18 24  1  0  0  0  0
 19 20  2  0  0  0  0
 19 28  1  0  0  0  0
 21 22  1  0  0  0  0
 21 25  1  0  0  0  0
 21 26  1  0  0  0  0
 22 27  1  0  0  0  0
 28 29  1  0  0  0  0
 28 33  1  0  0  0  0
 29 30  1  0  0  0  0
 29 32  1  0  0  0  0
 29 34  1  0  0  0  0
 30 31  2  0  0  0  0
 30 38  1  0  0  0  0
 32 35  1  0  0  0  0
 32 36  1  0  0  0  0
 32 37  1  0  0  0  0
 38 39  1  0  0  0  0
 38 40  1  0  0  0  0
 39 41  1  0  0  0  0
 39 42  1  0  0  0  0
 39 43  1  0  0  0  0
M  END
$$$$

  -OEChem-05262216003D

 43 42  0     1  0  0  0  0  0999 V2000
   -2.7883   -5.5104    1.0285 C   0  0  0  0  0  0  0  0  0  0  0  0
   -1.7744   -6.0225    1.4759 O   0  0  0  0  0  0  0  0  0  0  0  0
   -4.1514   -6.0313    1.4427 C   0  0  0  0  0  0  0  0  0  0  0  0
   -4.7235   -6.3257    0.5597 H   0  0  0  0  0  0  0  0  0  0  0  0
   -4.0398   -6.9011    2.0961 H   0  0  0  0  0  0  0  0  0  0  0  0
   -4.6997   -5.2543    1.9809 H   0  0  0  0  0  0  0  0  0  0  0  0
   -2.6976   -4.4468    0.1558 N   0  0  0  0  0  0  0  0  0  0  0  0
   -1.4501   -3.7334   -0.1484 C   0  0  2  0  0  0  0  0  0  0  0  0
   -1.6699   -2.2075   -0.2142 C   0  0  0  0  0  0  0  0  0  0  0  0
   -2.8002   -1.7767   -0.3893 O   0  0  0  0  0  0  0  0  0  0  0  0
   -0.9123   -4.2573   -1.4825 C   0  0  0  0  0  0  0  0  0  0  0  0
   -3.5655   -3.9654   -0.0772 H   0  0  0  0  0  0  0  0  0  0  0  0
   -0.7092   -3.9219    0.6363 H   0  0  0  0  0  0  0  0  0  0  0  0
   -1.6286   -4.0621   -2.2873 H   0  0  0  0  0  0  0  0  0  0  0  0
    0.0350   -3.7703   -1.7329 H   0  0  0  0  0  0  0  0  0  0  0  0
   -0.7401   -5.3368   -1.4230 H   0  0  0  0  0  0  0  0  0  0  0  0
   -0.5855   -1.3600   -0.0618 N   0  0  0  0  0  0  0  0  0  0  0  0
   -0.4999    0.1178   -0.1340 C   0  0  2  0  0  0  0  0  0  0  0  0
   -1.7766    0.9604   -0.4229 C   0  0  0  0  0  0  0  0  0  0  0  0
   -1.7852    1.8145   -1.3037 O   0  0  0  0  0  0  0  0  0  0  0  0
    0.5985    0.3976   -1.1742 C   0  0  0  0  0  0  0  0  0  0  0  0
    2.2191   -0.2203   -0.5528 S   0  0  0  0  0  0  0  0  0  0  0  0
    0.3082   -1.8329    0.0590 H   0  0  0  0  0  0  0  0  0  0  0  0
   -0.1501    0.4773    0.8386 H   0  0  0  0  0  0  0  0  0  0  0  0
    0.3438   -0.0747   -2.1291 H   0  0  0  0  0  0  0  0  0  0  0  0
    0.6877    1.4754   -1.3491 H   0  0  0  0  0  0  0  0  0  0  0  0
    3.0450    0.1985   -1.5382 H   0  0  0  0  0  0  0  0  0  0  0  0
   -2.8619    0.9002    0.4297 N   0  0  0  0  0  0  0  0  0  0  0  0
   -4.1096    1.6552    0.2591 C   0  0  2  0  0  0  0  0  0  0  0  0
   -4.9312    1.7129    1.5646 C   0  0  0  0  0  0  0  0  0  0  0  0
   -4.7318    0.9082    2.4684 O   0  0  0  0  0  0  0  0  0  0  0  0
   -4.9390    0.9968   -0.8504 C   0  0  0  0  0  0  0  0  0  0  0  0
   -2.9138    0.0669    1.0161 H   0  0  0  0  0  0  0  0  0  0  0  0
   -3.8724    2.6848   -0.0276 H   0  0  0  0  0  0  0  0  0  0  0  0
   -5.1738   -0.0396   -0.5865 H   0  0  0  0  0  0  0  0  0  0  0  0
   -5.8767    1.5389   -1.0037 H   0  0  0  0  0  0  0  0  0  0  0  0
   -4.3849    0.9962   -1.7941 H   0  0  0  0  0  0  0  0  0  0  0  0
   -5.9112    2.6756    1.7270 N   0  0  0  0  0  0  0  0  0  0  0  0
   -6.7278    2.7909    2.9292 C   0  0  0  0  0  0  0  0  0  0  0  0
   -6.0531    3.3362    0.9687 H   0  0  0  0  0  0  0  0  0  0  0  0
   -7.3000    1.8718    3.0928 H   0  0  0  0  0  0  0  0  0  0  0  0
   -6.0966    2.9734    3.8052 H   0  0  0  0  0  0  0  0  0  0  0  0
   -7.4318    3.6229    2.8318 H   0  0  0  0  0  0  0  0  0  0  0  0
  1  2  2  0  0  0  0
  1  3  1  0  0  0  0
  1  7  1  0  0  0  0
  3  4  1  0  0  0  0
  3  5  1  0  0  0  0
  3  6  1  0  0  0  0
  7  8  1  0  0  0  0
  7 12  1  0  0  0  0
  8  9  1  0  0  0  0
  8 11  1  0  0  0  0
  8 13  1  0  0  0  0
  9 10  2  0  0  0  0
  9 17  1  0  0  0  0
 11 14  1  0  0  0  0
 11 15  1  0  0  0  0
 11 16  1  0  0  0  0
 17 18  1  0  0  0  0
 17 23  1  0  0  0  0
 18 19  1  0  0  0  0
 18 21  1  0  0  0  0
 18 24  1  0  0  0  0
 19 20  2  0  0  0  0
 19 28  1  0  0  0  0
 21 22  1  0  0  0  0
 21 25  1  0  0  0  0
 21 26  1  0  0  0  0
 22 27  1  0  0  0  0
 28 29  1  0  0  0  0
 28 33  1  0  0  0  0
 29 30  1  0  0  0  0
 29 32  1  0  0  0  0
 29 34  1  0  0  0  0
 30 31  2  0  0  0  0
 30 38  1  0  0  0  0
 32 35  1  0  0  0  0
 32 36  1  0  0  0  0
 32 37  1  0  0  0  0
 38 39  1  0  0  0  0
 38 40  1  0  0  0  0
 39 41  1  0  0  0  0
 39 42  1  0  0  0  0
 39 43  1  0  0  0  0
M  END
$$$$

  -OEChem-05262216003D

 43 42  0     1  0  0  0  0  0999 V2000
   -2.9202   -5.4871    0.9300 C   0  0  0  0  0  0  0  0  0  0  0  0
   -1.9218   -6.0875    1.2946 O   0  0  0  0  0  0  0  0  0  0  0  0
   -4.2981   -5.9989    1.3046 C   0  0  0  0  0  0  0  0  0  0  0  0
   -4.8788   -6.2023    0.4017 H   0  0  0  0  0  0  0  0  0  0  0  0
   -4.2128   -6.9224    1.8842 H   0  0  0  0  0  0  0  0  0  0  0  0
   -4.8220   -5.2520    1.9063 H   0  0  0  0  0  0  0  0  0  0  0  0
   -2.7973   -4.3315    0.1889 N   0  0  0  0  0  0  0  0  0  0  0  0
   -1.5243   -3.6479   -0.0744 C   0  0  2  0  0  0  0  0  0  0  0  0
   -1.6951   -2.1142   -0.0948 C   0  0  0  0  0  0  0  0  0  0  0  0
   -2.8201   -1.6410   -0.1757 O   0  0  0  0  0  0  0  0  0  0  0  0
   -0.9795   -4.1468   -1.4160 C   0  0  0  0  0  0  0  0  0  0  0  0
   -3.6465   -3.7925    0.0219 H   0  0  0  0  0  0  0  0  0  0  0  0
   -0.8052   -3.8847    0.7176 H   0  0  0  0  0  0  0  0  0  0  0  0
   -1.6823   -3.9169   -2.2233 H   0  0  0  0  0  0  0  0  0  0  0  0
   -0.0197   -3.6731   -1.6434 H   0  0  0  0  0  0  0  0  0  0  0  0
   -0.8293   -5.2307   -1.3822 H   0  0  0  0  0  0  0  0  0  0  0  0
   -0.5758   -1.3052    0.0149 N   0  0  0  0  0  0  0  0  0  0  0  0
   -0.4585    0.1638   -0.1243 C   0  0  2  0  0  0  0  0  0  0  0  0
   -1.7372    0.9863   -0.4409 C   0  0  0  0  0  0  0  0  0  0  0  0
   -1.8677    1.5757   -1.5094 O   0  0  0  0  0  0  0  0  0  0  0  0
    0.6152    0.3848   -1.2017 C   0  0  0  0  0  0  0  0  0  0  0  0
    2.2422   -0.2367   -0.6027 S   0  0  0  0  0  0  0  0  0  0  0  0
    0.3100   -1.8041    0.0691 H   0  0  0  0  0  0  0  0  0  0  0  0
   -0.0838    0.5674    0.8213 H   0  0  0  0  0  0  0  0  0  0  0  0
    0.3280   -0.1208   -2.1301 H   0  0  0  0  0  0  0  0  0  0  0  0
    0.7084    1.4543   -1.4203 H   0  0  0  0  0  0  0  0  0  0  0  0
    3.0414    0.1104   -1.6366 H   0  0  0  0  0  0  0  0  0  0  0  0
   -2.6694    1.2099    0.5544 N   0  0  0  0  0  0  0  0  0  0  0  0
   -3.9243    1.9502    0.3785 C   0  0  2  0  0  0  0  0  0  0  0  0
   -4.5214    2.3941    1.7307 C   0  0  0  0  0  0  0  0  0  0  0  0
   -4.1470    1.8794    2.7791 O   0  0  0  0  0  0  0  0  0  0  0  0
   -4.9251    1.0592   -0.3677 C   0  0  0  0  0  0  0  0  0  0  0  0
   -2.5948    0.6306    1.3894 H   0  0  0  0  0  0  0  0  0  0  0  0
   -3.7320    2.8521   -0.2114 H   0  0  0  0  0  0  0  0  0  0  0  0
   -5.1266    0.1488    0.2063 H   0  0  0  0  0  0  0  0  0  0  0  0
   -5.8690    1.5887   -0.5260 H   0  0  0  0  0  0  0  0  0  0  0  0
   -4.5261    0.7694   -1.3447 H   0  0  0  0  0  0  0  0  0  0  0  0
   -5.4908    3.3796    1.7723 N   0  0  0  0  0  0  0  0  0  0  0  0
   -6.1094    3.8449    3.0076 C   0  0  0  0  0  0  0  0  0  0  0  0
   -5.7887    3.7829    0.8891 H   0  0  0  0  0  0  0  0  0  0  0  0
   -6.6660    3.0326    3.4868 H   0  0  0  0  0  0  0  0  0  0  0  0
   -5.3474    4.2100    3.7046 H   0  0  0  0  0  0  0  0  0  0  0  0
   -6.8042    4.6637    2.7972 H   0  0  0  0  0  0  0  0  0  0  0  0
  1  2  2  0  0  0  0
  1  3  1  0  0  0  0
  1  7  1  0  0  0  0
  3  4  1  0  0  0  0
  3  5  1  0  0  0  0
  3  6  1  0  0  0  0
  7  8  1  0  0  0  0
  7 12  1  0  0  0  0
  8  9  1  0  0  0  0
  8 11  1  0  0  0  0
  8 13  1  0  0  0  0
  9 10  2  0  0  0  0
  9 17  1  0  0  0  0
 11 14  1  0  0  0  0
 11 15  1  0  0  0  0
 11 16  1  0  0  0  0
 17 18  1  0  0  0  0
 17 23  1  0  0  0  0
 18 19  1  0  0  0  0
 18 21  1  0  0  0  0
 18 24  1  0  0  0  0
 19 20  2  0  0  0  0
 19 28  1  0  0  0  0
 21 22  1  0  0  0  0
 21 25  1  0  0  0  0
 21 26  1  0  0  0  0
 22 27  1  0  0  0  0
 28 29  1  0  0  0  0
 28 33  1  0  0  0  0
 29 30  1  0  0  0  0
 29 32  1  0  0  0  0
 29 34  1  0  0  0  0
 30 31  2  0  0  0  0
 30 38  1  0  0  0  0
 32 35  1  0  0  0  0
 32 36  1  0  0  0  0
 32 37  1  0  0  0  0
 38 39  1  0  0  0  0
 38 40  1  0  0  0  0
 39 41  1  0  0  0  0
 39 42  1  0  0  0  0
 39 43  1  0  0  0  0
M  END
$$$$

  -OEChem-05262216003D

 43 42  0     1  0  0  0  0  0999 V2000
   -3.0106   -5.4267    0.9177 C   0  0  0  0  0  0  0  0  0  0  0  0
   -2.0256   -6.0692    1.2458 O   0  0  0  0  0  0  0  0  0  0  0  0
   -4.3973   -5.9078    1.3013 C   0  0  0  0  0  0  0  0  0  0  0  0
   -4.9893   -6.0970    0.4024 H   0  0  0  0  0  0  0  0  0  0  0  0
   -4.3282   -6.8330    1.8802 H   0  0  0  0  0  0  0  0  0  0  0  0
   -4.8998   -5.1504    1.9080 H   0  0  0  0  0  0  0  0  0  0  0  0
   -2.8648   -4.2529    0.2100 N   0  0  0  0  0  0  0  0  0  0  0  0
   -1.5762   -3.5932   -0.0382 C   0  0  2  0  0  0  0  0  0  0  0  0
   -1.7065   -2.0556   -0.0019 C   0  0  0  0  0  0  0  0  0  0  0  0
   -2.8212   -1.5494    0.0133 O   0  0  0  0  0  0  0  0  0  0  0  0
   -1.0512   -4.0571   -1.3999 C   0  0  0  0  0  0  0  0  0  0  0  0
   -3.6990   -3.6803    0.0836 H   0  0  0  0  0  0  0  0  0  0  0  0
   -0.8592   -3.8766    0.7398 H   0  0  0  0  0  0  0  0  0  0  0  0
   -1.7466   -3.7714   -2.1957 H   0  0  0  0  0  0  0  0  0  0  0  0
   -0.0759   -3.6080   -1.6107 H   0  0  0  0  0  0  0  0  0  0  0  0
   -0.9382   -5.1460   -1.4099 H   0  0  0  0  0  0  0  0  0  0  0  0
   -0.5617   -1.2792    0.0803 N   0  0  0  0  0  0  0  0  0  0  0  0
   -0.4220    0.1807   -0.1107 C   0  0  2  0  0  0  0  0  0  0  0  0
   -1.6970    0.9958   -0.4524 C   0  0  0  0  0  0  0  0  0  0  0  0
   -1.9463    1.3239   -1.6085 O   0  0  0  0  0  0  0  0  0  0  0  0
    0.6335    0.3575   -1.2125 C   0  0  0  0  0  0  0  0  0  0  0  0
    2.2637   -0.2662   -0.6263 S   0  0  0  0  0  0  0  0  0  0  0  0
    0.3125   -1.8008    0.0742 H   0  0  0  0  0  0  0  0  0  0  0  0
   -0.0292    0.6125    0.8148 H   0  0  0  0  0  0  0  0  0  0  0  0
    0.3245   -0.1733   -2.1200 H   0  0  0  0  0  0  0  0  0  0  0  0
    0.7296    1.4192   -1.4648 H   0  0  0  0  0  0  0  0  0  0  0  0
    3.0515    0.0555   -1.6769 H   0  0  0  0  0  0  0  0  0  0  0  0
   -2.4642    1.5264    0.5674 N   0  0  0  0  0  0  0  0  0  0  0  0
   -3.7085    2.2806    0.3747 C   0  0  2  0  0  0  0  0  0  0  0  0
   -4.1110    3.0468    1.6526 C   0  0  0  0  0  0  0  0  0  0  0  0
   -3.5793    2.7870    2.7270 O   0  0  0  0  0  0  0  0  0  0  0  0
   -4.8225    1.3034   -0.0231 C   0  0  0  0  0  0  0  0  0  0  0  0
   -2.2663    1.2078    1.5148 H   0  0  0  0  0  0  0  0  0  0  0  0
   -3.5669    3.0161   -0.4239 H   0  0  0  0  0  0  0  0  0  0  0  0
   -4.9707    0.5547    0.7618 H   0  0  0  0  0  0  0  0  0  0  0  0
   -5.7649    1.8355   -0.1814 H   0  0  0  0  0  0  0  0  0  0  0  0
   -4.5634    0.7831   -0.9507 H   0  0  0  0  0  0  0  0  0  0  0  0
   -5.0758    4.0363    1.6006 N   0  0  0  0  0  0  0  0  0  0  0  0
   -5.5138    4.7887    2.7702 C   0  0  0  0  0  0  0  0  0  0  0  0
   -5.5071    4.2265    0.7007 H   0  0  0  0  0  0  0  0  0  0  0  0
   -5.9576    4.1175    3.5134 H   0  0  0  0  0  0  0  0  0  0  0  0
   -4.6673    5.3117    3.2280 H   0  0  0  0  0  0  0  0  0  0  0  0
   -6.2641    5.5319    2.4835 H   0  0  0  0  0  0  0  0  0  0  0  0
  1  2  2  0  0  0  0
  1  3  1  0  0  0  0
  1  7  1  0  0  0  0
  3  4  1  0  0  0  0
  3  5  1  0  0  0  0
  3  6  1  0  0  0  0
  7  8  1  0  0  0  0
  7 12  1  0  0  0  0
  8  9  1  0  0  0  0
  8 11  1  0  0  0  0
  8 13  1  0  0  0  0
  9 10  2  0  0  0  0
  9 17  1  0  0  0  0
 11 14  1  0  0  0  0
 11 15  1  0  0  0  0
 11 16  1  0  0  0  0
 17 18  1  0  0  0  0
 17 23  1  0  0  0  0
 18 19  1  0  0  0  0
 18 21  1  0  0  0  0
 18 24  1  0  0  0  0
 19 20  2  0  0  0  0
 19 28  1  0  0  0  0
 21 22  1  0  0  0  0
 21 25  1  0  0  0  0
 21 26  1  0  0  0  0
 22 27  1  0  0  0  0
 28 29  1  0  0  0  0
 28 33  1  0  0  0  0
 29 30  1  0  0  0  0
 29 32  1  0  0  0  0
 29 34  1  0  0  0  0
 30 31  2  0  0  0  0
 30 38  1  0  0  0  0
 32 35  1  0  0  0  0
 32 36  1  0  0  0  0
 32 37  1  0  0  0  0
 38 39  1  0  0  0  0
 38 40  1  0  0  0  0
 39 41  1  0  0  0  0
 39 42  1  0  0  0  0
 39 43  1  0  0  0  0
M  END
$$$$

  -OEChem-05262216003D

 43 42  0     1  0  0  0  0  0999 V2000
   -3.0306   -5.4426    0.8851 C   0  0  0  0  0  0  0  0  0  0  0  0
   -2.0414   -6.1216    1.1112 O   0  0  0  0  0  0  0  0  0  0  0  0
   -4.4062   -5.9416    1.2852 C   0  0  0  0  0  0  0  0  0  0  0  0
   -5.0310   -6.0615    0.3968 H   0  0  0  0  0  0  0  0  0  0  0  0
   -4.3243   -6.9072    1.7920 H   0  0  0  0  0  0  0  0  0  0  0  0
   -4.8808   -5.2280    1.9633 H   0  0  0  0  0  0  0  0  0  0  0  0
   -2.8991   -4.2157    0.2711 N   0  0  0  0  0  0  0  0  0  0  0  0
   -1.6136   -3.5610   -0.0046 C   0  0  2  0  0  0  0  0  0  0  0  0
   -1.7186   -2.0244    0.1051 C   0  0  0  0  0  0  0  0  0  0  0  0
   -2.8224   -1.5044    0.2141 O   0  0  0  0  0  0  0  0  0  0  0  0
   -1.1582   -3.9674   -1.4093 C   0  0  0  0  0  0  0  0  0  0  0  0
   -3.7298   -3.6263    0.2230 H   0  0  0  0  0  0  0  0  0  0  0  0
   -0.8673   -3.8903    0.7268 H   0  0  0  0  0  0  0  0  0  0  0  0
   -1.8862   -3.6369   -2.1571 H   0  0  0  0  0  0  0  0  0  0  0  0
   -0.1882   -3.5198   -1.6452 H   0  0  0  0  0  0  0  0  0  0  0  0
   -1.0602   -5.0557   -1.4756 H   0  0  0  0  0  0  0  0  0  0  0  0
   -0.5619   -1.2640    0.1752 N   0  0  0  0  0  0  0  0  0  0  0  0
   -0.4162    0.1889   -0.0584 C   0  0  2  0  0  0  0  0  0  0  0  0
   -1.6877    0.9922   -0.4326 C   0  0  0  0  0  0  0  0  0  0  0  0
   -2.0518    1.0733   -1.6020 O   0  0  0  0  0  0  0  0  0  0  0  0
    0.6339    0.3430   -1.1682 C   0  0  0  0  0  0  0  0  0  0  0  0
    2.2692   -0.2631   -0.5792 S   0  0  0  0  0  0  0  0  0  0  0  0
    0.3035   -1.7967    0.1210 H   0  0  0  0  0  0  0  0  0  0  0  0
   -0.0234    0.6449    0.8552 H   0  0  0  0  0  0  0  0  0  0  0  0
    0.3225   -0.2099   -2.0613 H   0  0  0  0  0  0  0  0  0  0  0  0
    0.7243    1.3987   -1.4463 H   0  0  0  0  0  0  0  0  0  0  0  0
    3.0480    0.0288   -1.6454 H   0  0  0  0  0  0  0  0  0  0  0  0
   -2.2905    1.8083    0.5057 N   0  0  0  0  0  0  0  0  0  0  0  0
   -3.5019    2.6018    0.2686 C   0  0  2  0  0  0  0  0  0  0  0  0
   -3.6973    3.6780    1.3578 C   0  0  0  0  0  0  0  0  0  0  0  0
   -3.0310    3.6477    2.3873 O   0  0  0  0  0  0  0  0  0  0  0  0
   -4.7088    1.6548    0.2382 C   0  0  0  0  0  0  0  0  0  0  0  0
   -1.9703    1.7396    1.4706 H   0  0  0  0  0  0  0  0  0  0  0  0
   -3.4172    3.1151   -0.6948 H   0  0  0  0  0  0  0  0  0  0  0  0
   -4.7948    1.1171    1.1879 H   0  0  0  0  0  0  0  0  0  0  0  0
   -5.6339    2.2127    0.0665 H   0  0  0  0  0  0  0  0  0  0  0  0
   -4.5992    0.9191   -0.5652 H   0  0  0  0  0  0  0  0  0  0  0  0
   -4.6236    4.6901    1.1844 N   0  0  0  0  0  0  0  0  0  0  0  0
   -4.8698    5.7290    2.1773 C   0  0  0  0  0  0  0  0  0  0  0  0
   -5.1687    4.6877    0.3272 H   0  0  0  0  0  0  0  0  0  0  0  0
   -5.2096    5.2857    3.1194 H   0  0  0  0  0  0  0  0  0  0  0  0
   -3.9562    6.3025    2.3668 H   0  0  0  0  0  0  0  0  0  0  0  0
   -5.6421    6.4174    1.8212 H   0  0  0  0  0  0  0  0  0  0  0  0
  1  2  2  0  0  0  0
  1  3  1  0  0  0  0
  1  7  1  0  0  0  0
  3  4  1  0  0  0  0
  3  5  1  0  0  0  0
  3  6  1  0  0  0  0
  7  8  1  0  0  0  0
  7 12  1  0  0  0  0
  8  9  1  0  0  0  0
  8 11  1  0  0  0  0
  8 13  1  0  0  0  0
  9 10  2  0  0  0  0
  9 17  1  0  0  0  0
 11 14  1  0  0  0  0
 11 15  1  0  0  0  0
 11 16  1  0  0  0  0
 17 18  1  0  0  0  0
 17 23  1  0  0  0  0
 18 19  1  0  0  0  0
 18 21  1  0  0  0  0
 18 24  1  0  0  0  0
 19 20  2  0  0  0  0
 19 28  1  0  0  0  0
 21 22  1  0  0  0  0
 21 25  1  0  0  0  0
 21 26  1  0  0  0  0
 22 27  1  0  0  0  0
 28 29  1  0  0  0  0
 28 33  1  0  0  0  0
 29 30  1  0  0  0  0
 29 32  1  0  0  0  0
 29 34  1  0  0  0  0
 30 31  2  0  0  0  0
 30 38  1  0  0  0  0
 32 35  1  0  0  0  0
 32 36  1  0  0  0  0
 32 37  1  0  0  0  0
 38 39  1  0  0  0  0
 38 40  1  0  0  0  0
 39 41  1  0  0  0  0
 39 42  1  0  0  0  0
 39 43  1  0  0  0  0
M  END
$$$$

  -OEChem-05262216003D

 43 42  0     1  0  0  0  0  0999 V2000
   -3.0161   -5.4771    0.8500 C   0  0  0  0  0  0  0  0  0  0  0  0
   -2.0210   -6.1721    0.9823 O   0  0  0  0  0  0  0  0  0  0  0  0
   -4.3747   -6.0024    1.2736 C   0  0  0  0  0  0  0  0  0  0  0  0
   -5.0452   -6.0393    0.4117 H   0  0  0  0  0  0  0  0  0  0  0  0
   -4.2771   -7.0098    1.6876 H   0  0  0  0  0  0  0  0  0  0  0  0
   -4.8069   -5.3487    2.0352 H   0  0  0  0  0  0  0  0  0  0  0  0
   -2.9060   -4.2079    0.3244 N   0  0  0  0  0  0  0  0  0  0  0  0
   -1.6312   -3.5396    0.0338 C   0  0  2  0  0  0  0  0  0  0  0  0
   -1.7307   -2.0115    0.2260 C   0  0  0  0  0  0  0  0  0  0  0  0
   -2.8240   -1.5006    0.4394 O   0  0  0  0  0  0  0  0  0  0  0  0
   -1.2292   -3.8719   -1.4062 C   0  0  0  0  0  0  0  0  0  0  0  0
   -3.7337   -3.6130    0.3592 H   0  0  0  0  0  0  0  0  0  0  0  0
   -0.8585   -3.9054    0.7187 H   0  0  0  0  0  0  0  0  0  0  0  0
   -1.9831   -3.5017   -2.1087 H   0  0  0  0  0  0  0  0  0  0  0  0
   -0.2671   -3.4136   -1.6536 H   0  0  0  0  0  0  0  0  0  0  0  0
   -1.1371   -4.9554   -1.5323 H   0  0  0  0  0  0  0  0  0  0  0  0
   -0.5739   -1.2508    0.2815 N   0  0  0  0  0  0  0  0  0  0  0  0
   -0.4467    0.1959    0.0065 C   0  0  2  0  0  0  0  0  0  0  0  0
   -1.7251    0.9732   -0.3945 C   0  0  0  0  0  0  0  0  0  0  0  0
   -2.1957    0.8429   -1.5206 O   0  0  0  0  0  0  0  0  0  0  0  0
    0.5917    0.3364   -1.1143 C   0  0  0  0  0  0  0  0  0  0  0  0
    2.2386   -0.2324   -0.5208 S   0  0  0  0  0  0  0  0  0  0  0  0
    0.2865   -1.7817    0.1675 H   0  0  0  0  0  0  0  0  0  0  0  0
   -0.0564    0.6783    0.9075 H   0  0  0  0  0  0  0  0  0  0  0  0
    0.2819   -0.2440   -1.9908 H   0  0  0  0  0  0  0  0  0  0  0  0
    0.6642    1.3859   -1.4199 H   0  0  0  0  0  0  0  0  0  0  0  0
    3.0097    0.0508   -1.5949 H   0  0  0  0  0  0  0  0  0  0  0  0
   -2.1663    2.0282    0.3812 N   0  0  0  0  0  0  0  0  0  0  0  0
   -3.3144    2.8846    0.0615 C   0  0  2  0  0  0  0  0  0  0  0  0
   -3.2898    4.1903    0.8842 C   0  0  0  0  0  0  0  0  0  0  0  0
   -2.5031    4.3193    1.8166 O   0  0  0  0  0  0  0  0  0  0  0  0
   -4.6046    2.1023    0.3414 C   0  0  0  0  0  0  0  0  0  0  0  0
   -1.7187    2.1795    1.2841 H   0  0  0  0  0  0  0  0  0  0  0  0
   -3.2796    3.1598   -0.9977 H   0  0  0  0  0  0  0  0  0  0  0  0
   -4.6541    1.8110    1.3956 H   0  0  0  0  0  0  0  0  0  0  0  0
   -5.4837    2.7091    0.1050 H   0  0  0  0  0  0  0  0  0  0  0  0
   -4.6419    1.1942   -0.2693 H   0  0  0  0  0  0  0  0  0  0  0  0
   -4.1471    5.2303    0.5754 N   0  0  0  0  0  0  0  0  0  0  0  0
   -4.1864    6.4828    1.3206 C   0  0  0  0  0  0  0  0  0  0  0  0
   -4.7905    5.0962   -0.1992 H   0  0  0  0  0  0  0  0  0  0  0  0
   -4.4273    6.2951    2.3724 H   0  0  0  0  0  0  0  0  0  0  0  0
   -3.2182    6.9917    1.2662 H   0  0  0  0  0  0  0  0  0  0  0  0
   -4.9498    7.1471    0.9047 H   0  0  0  0  0  0  0  0  0  0  0  0
  1  2  2  0  0  0  0
  1  3  1  0  0  0  0
  1  7  1  0  0  0  0
  3  4  1  0  0  0  0
  3  5  1  0  0  0  0
  3  6  1  0  0  0  0
  7  8  1  0  0  0  0
  7 12  1  0  0  0  0
  8  9  1  0  0  0  0
  8 11  1  0  0  0  0
  8 13  1  0  0  0  0
  9 10  2  0  0  0  0
  9 17  1  0  0  0  0
 11 14  1  0  0  0  0
 11 15  1  0  0  0  0
 11 16  1  0  0  0  0
 17 18  1  0  0  0  0
 17 23  1  0  0  0  0
 18 19  1  0  0  0  0
 18 21  1  0  0  0  0
 18 24  1  0  0  0  0
 19 20  2  0  0  0  0
 19 28  1  0  0  0  0
 21 22  1  0  0  0  0
 21 25  1  0  0  0  0
 21 26  1  0  0  0  0
 22 27  1  0  0  0  0
 28 29  1  0  0  0  0
 28 33  1  0  0  0  0
 29 30  1  0  0  0  0
 29 32  1  0  0  0  0
 29 34  1  0  0  0  0
 30 31  2  0  0  0  0
 30 38  1  0  0  0  0
 32 35  1  0  0  0  0
 32 36  1  0  0  0  0
 32 37  1  0  0  0  0
 38 39  1  0  0  0  0
 38 40  1  0  0  0  0
 39 41  1  0  0  0  0
 39 42  1  0  0  0  0
 39 43  1  0  0  0  0
M  END
$$$$

  -OEChem-05262216003D

 43 42  0     1  0  0  0  0  0999 V2000
   -2.9799   -5.5028    0.8323 C   0  0  0  0  0  0  0  0  0  0  0  0
   -1.9746   -6.1933    0.8934 O   0  0  0  0  0  0  0  0  0  0  0  0
   -4.3135   -6.0576    1.2965 C   0  0  0  0  0  0  0  0  0  0  0  0
   -5.0302   -6.0457    0.4717 H   0  0  0  0  0  0  0  0  0  0  0  0
   -4.1927   -7.0877    1.6437 H   0  0  0  0  0  0  0  0  0  0  0  0
   -4.7040   -5.4523    2.1184 H   0  0  0  0  0  0  0  0  0  0  0  0
   -2.9030   -4.2134    0.3514 N   0  0  0  0  0  0  0  0  0  0  0  0
   -1.6452   -3.5175    0.0517 C   0  0  2  0  0  0  0  0  0  0  0  0
   -1.7498   -2.0039    0.3330 C   0  0  0  0  0  0  0  0  0  0  0  0
   -2.8308   -1.5170    0.6438 O   0  0  0  0  0  0  0  0  0  0  0  0
   -1.2934   -3.7631   -1.4189 C   0  0  0  0  0  0  0  0  0  0  0  0
   -3.7323   -3.6278    0.4502 H   0  0  0  0  0  0  0  0  0  0  0  0
   -0.8450   -3.9126    0.6868 H   0  0  0  0  0  0  0  0  0  0  0  0
   -2.0709   -3.3517   -2.0708 H   0  0  0  0  0  0  0  0  0  0  0  0
   -0.3401   -3.2897   -1.6724 H   0  0  0  0  0  0  0  0  0  0  0  0
   -1.2065   -4.8368   -1.6139 H   0  0  0  0  0  0  0  0  0  0  0  0
   -0.6011   -1.2318    0.3792 N   0  0  0  0  0  0  0  0  0  0  0  0
   -0.5020    0.2116    0.0776 C   0  0  2  0  0  0  0  0  0  0  0  0
   -1.7888    0.9661   -0.3409 C   0  0  0  0  0  0  0  0  0  0  0  0
   -2.3591    0.6686   -1.3862 O   0  0  0  0  0  0  0  0  0  0  0  0
    0.5245    0.3495   -1.0540 C   0  0  0  0  0  0  0  0  0  0  0  0
    2.1863   -0.1793   -0.4656 S   0  0  0  0  0  0  0  0  0  0  0  0
    0.2583   -1.7531    0.2231 H   0  0  0  0  0  0  0  0  0  0  0  0
   -0.1189    0.7154    0.9699 H   0  0  0  0  0  0  0  0  0  0  0  0
    0.2166   -0.2522   -1.9164 H   0  0  0  0  0  0  0  0  0  0  0  0
    0.5770    1.3943   -1.3796 H   0  0  0  0  0  0  0  0  0  0  0  0
    2.9425    0.0911   -1.5538 H   0  0  0  0  0  0  0  0  0  0  0  0
   -2.0734    2.1982    0.2178 N   0  0  0  0  0  0  0  0  0  0  0  0
   -3.1420    3.1022   -0.2260 C   0  0  2  0  0  0  0  0  0  0  0  0
   -2.9028    4.5439    0.2728 C   0  0  0  0  0  0  0  0  0  0  0  0
   -2.0046    4.7774    1.0752 O   0  0  0  0  0  0  0  0  0  0  0  0
   -4.4819    2.5689    0.2956 C   0  0  0  0  0  0  0  0  0  0  0  0
   -1.5051    2.5119    1.0038 H   0  0  0  0  0  0  0  0  0  0  0  0
   -3.1647    3.1312   -1.3205 H   0  0  0  0  0  0  0  0  0  0  0  0
   -4.4789    2.5334    1.3897 H   0  0  0  0  0  0  0  0  0  0  0  0
   -5.3059    3.2096   -0.0313 H   0  0  0  0  0  0  0  0  0  0  0  0
   -4.6643    1.5580   -0.0831 H   0  0  0  0  0  0  0  0  0  0  0  0
   -3.6867    5.5877   -0.1845 N   0  0  0  0  0  0  0  0  0  0  0  0
   -3.5203    6.9671    0.2583 C   0  0  0  0  0  0  0  0  0  0  0  0
   -4.4276    5.3673   -0.8438 H   0  0  0  0  0  0  0  0  0  0  0  0
   -3.6685    7.0432    1.3407 H   0  0  0  0  0  0  0  0  0  0  0  0
   -2.5162    7.3295    0.0142 H   0  0  0  0  0  0  0  0  0  0  0  0
   -4.2504    7.6146   -0.2366 H   0  0  0  0  0  0  0  0  0  0  0  0
  1  2  2  0  0  0  0
  1  3  1  0  0  0  0
  1  7  1  0  0  0  0
  3  4  1  0  0  0  0
  3  5  1  0  0  0  0
  3  6  1  0  0  0  0
  7  8  1  0  0  0  0
  7 12  1  0  0  0  0
  8  9  1  0  0  0  0
  8 11  1  0  0  0  0
  8 13  1  0  0  0  0
  9 10  2  0  0  0  0
  9 17  1  0  0  0  0
 11 14  1  0  0  0  0
 11 15  1  0  0  0  0
 11 16  1  0  0  0  0
 17 18  1  0  0  0  0
 17 23  1  0  0  0  0
 18 19  1  0  0  0  0
 18 21  1  0  0  0  0
 18 24  1  0  0  0  0
 19 20  2  0  0  0  0
 19 28  1  0  0  0  0
 21 22  1  0  0  0  0
 21 25  1  0  0  0  0
 21 26  1  0  0  0  0
 22 27  1  0  0  0  0
 28 29  1  0  0  0  0
 28 33  1  0  0  0  0
 29 30  1  0  0  0  0
 29 32  1  0  0  0  0
 29 34  1  0  0  0  0
 30 31  2  0  0  0  0
 30 38  1  0  0  0  0
 32 35  1  0  0  0  0
 32 36  1  0  0  0  0
 32 37  1  0  0  0  0
 38 39  1  0  0  0  0
 38 40  1  0  0  0  0
 39 41  1  0  0  0  0
 39 42  1  0  0  0  0
 39 43  1  0  0  0  0
M  END
$$$$

  -OEChem-05262216003D

 43 42  0     1  0  0  0  0  0999 V2000
   -2.9409   -5.5216    0.7884 C   0  0  0  0  0  0  0  0  0  0  0  0
   -1.9359   -6.2126    0.7266 O   0  0  0  0  0  0  0  0  0  0  0  0
   -4.2470   -6.1189    1.2769 C   0  0  0  0  0  0  0  0  0  0  0  0
   -5.0236   -5.9864    0.5196 H   0  0  0  0  0  0  0  0  0  0  0  0
   -4.1231   -7.1881    1.4711 H   0  0  0  0  0  0  0  0  0  0  0  0
   -4.5603   -5.6262    2.2006 H   0  0  0  0  0  0  0  0  0  0  0  0
   -2.8885   -4.1935    0.4239 N   0  0  0  0  0  0  0  0  0  0  0  0
   -1.6528   -3.4734    0.0936 C   0  0  2  0  0  0  0  0  0  0  0  0
   -1.7554   -1.9743    0.4456 C   0  0  0  0  0  0  0  0  0  0  0  0
   -2.8115   -1.5172    0.8680 O   0  0  0  0  0  0  0  0  0  0  0  0
   -1.3706   -3.6508   -1.4019 C   0  0  0  0  0  0  0  0  0  0  0  0
   -3.7082   -3.6198    0.6226 H   0  0  0  0  0  0  0  0  0  0  0  0
   -0.8208   -3.8894    0.6717 H   0  0  0  0  0  0  0  0  0  0  0  0
   -2.1894   -3.2328   -1.9966 H   0  0  0  0  0  0  0  0  0  0  0  0
   -0.4423   -3.1444   -1.6829 H   0  0  0  0  0  0  0  0  0  0  0  0
   -1.2696   -4.7132   -1.6453 H   0  0  0  0  0  0  0  0  0  0  0  0
   -0.6170   -1.1872    0.4603 N   0  0  0  0  0  0  0  0  0  0  0  0
   -0.5534    0.2540    0.1361 C   0  0  2  0  0  0  0  0  0  0  0  0
   -1.8543    0.9924   -0.2701 C   0  0  0  0  0  0  0  0  0  0  0  0
   -2.5400    0.5628   -1.1927 O   0  0  0  0  0  0  0  0  0  0  0  0
    0.4363    0.3855   -1.0288 C   0  0  0  0  0  0  0  0  0  0  0  0
    2.1233   -0.1091   -0.4851 S   0  0  0  0  0  0  0  0  0  0  0  0
    0.2382   -1.6966    0.2509 H   0  0  0  0  0  0  0  0  0  0  0  0
   -0.1562    0.7768    1.0112 H   0  0  0  0  0  0  0  0  0  0  0  0
    0.1106   -0.2351   -1.8711 H   0  0  0  0  0  0  0  0  0  0  0  0
    0.4652    1.4246   -1.3748 H   0  0  0  0  0  0  0  0  0  0  0  0
    2.8422    0.1585   -1.5991 H   0  0  0  0  0  0  0  0  0  0  0  0
   -1.9841    2.3370    0.0289 N   0  0  0  0  0  0  0  0  0  0  0  0
   -2.9965    3.2386   -0.5375 C   0  0  2  0  0  0  0  0  0  0  0  0
   -2.5665    4.7167   -0.4187 C   0  0  0  0  0  0  0  0  0  0  0  0
   -1.5717    5.0177    0.2329 O   0  0  0  0  0  0  0  0  0  0  0  0
   -4.3241    3.0012    0.1922 C   0  0  0  0  0  0  0  0  0  0  0  0
   -1.2965    2.7576    0.6533 H   0  0  0  0  0  0  0  0  0  0  0  0
   -3.1253    3.0212   -1.6029 H   0  0  0  0  0  0  0  0  0  0  0  0
   -4.2203    3.2297    1.2577 H   0  0  0  0  0  0  0  0  0  0  0  0
   -5.1134    3.6333   -0.2252 H   0  0  0  0  0  0  0  0  0  0  0  0
   -4.6335    1.9557    0.0903 H   0  0  0  0  0  0  0  0  0  0  0  0
   -3.2820    5.7116   -1.0601 N   0  0  0  0  0  0  0  0  0  0  0  0
   -2.9332    7.1255   -0.9852 C   0  0  0  0  0  0  0  0  0  0  0  0
   -4.1044    5.4346   -1.5883 H   0  0  0  0  0  0  0  0  0  0  0  0
   -2.9999    7.4823    0.0480 H   0  0  0  0  0  0  0  0  0  0  0  0
   -1.9134    7.2895   -1.3493 H   0  0  0  0  0  0  0  0  0  0  0  0
   -3.6175    7.7179   -1.6004 H   0  0  0  0  0  0  0  0  0  0  0  0
  1  2  2  0  0  0  0
  1  3  1  0  0  0  0
  1  7  1  0  0  0  0
  3  4  1  0  0  0  0
  3  5  1  0  0  0  0
  3  6  1  0  0  0  0
  7  8  1  0  0  0  0
  7 12  1  0  0  0  0
  8  9  1  0  0  0  0
  8 11  1  0  0  0  0
  8 13  1  0  0  0  0
  9 10  2  0  0  0  0
  9 17  1  0  0  0  0
 11 14  1  0  0  0  0
 11 15  1  0  0  0  0
 11 16  1  0  0  0  0
 17 18  1  0  0  0  0
 17 23  1  0  0  0  0
 18 19  1  0  0  0  0
 18 21  1  0  0  0  0
 18 24  1  0  0  0  0
 19 20  2  0  0  0  0
 19 28  1  0  0  0  0
 21 22  1  0  0  0  0
 21 25  1  0  0  0  0
 21 26  1  0  0  0  0
 22 27  1  0  0  0  0
 28 29  1  0  0  0  0
 28 33  1  0  0  0  0
 29 30  1  0  0  0  0
 29 32  1  0  0  0  0
 29 34  1  0  0  0  0
 30 31  2  0  0  0  0
 30 38  1  0  0  0  0
 32 35  1  0  0  0  0
 32 36  1  0  0  0  0
 32 37  1  0  0  0  0
 38 39  1  0  0  0  0
 38 40  1  0  0  0  0
 39 41  1  0  0  0  0
 39 42  1  0  0  0  0
 39 43  1  0  0  0  0
M  END
$$$$

  -OEChem-05262216003D

 43 42  0     1  0  0  0  0  0999 V2000
   -2.8965   -5.5135    0.7488 C   0  0  0  0  0  0  0  0  0  0  0  0
   -1.8954   -6.1904    0.5723 O   0  0  0  0  0  0  0  0  0  0  0  0
   -4.1563   -6.1493    1.3063 C   0  0  0  0  0  0  0  0  0  0  0  0
   -4.9975   -5.9636    0.6342 H   0  0  0  0  0  0  0  0  0  0  0  0
   -4.0202   -7.2295    1.4100 H   0  0  0  0  0  0  0  0  0  0  0  0
   -4.3833   -5.7264    2.2879 H   0  0  0  0  0  0  0  0  0  0  0  0
   -2.8792   -4.1666    0.4571 N   0  0  0  0  0  0  0  0  0  0  0  0
   -1.6741   -3.4153    0.0850 C   0  0  2  0  0  0  0  0  0  0  0  0
   -1.7667   -1.9393    0.5259 C   0  0  0  0  0  0  0  0  0  0  0  0
   -2.7868   -1.5238    1.0639 O   0  0  0  0  0  0  0  0  0  0  0  0
   -1.4904   -3.5048   -1.4335 C   0  0  0  0  0  0  0  0  0  0  0  0
   -3.6845   -3.6127    0.7496 H   0  0  0  0  0  0  0  0  0  0  0  0
   -0.8015   -3.8521    0.5822 H   0  0  0  0  0  0  0  0  0  0  0  0
   -2.3468   -3.0568   -1.9480 H   0  0  0  0  0  0  0  0  0  0  0  0
   -0.5836   -2.9775   -1.7444 H   0  0  0  0  0  0  0  0  0  0  0  0
   -1.4039   -4.5508   -1.7449 H   0  0  0  0  0  0  0  0  0  0  0  0
   -0.6387   -1.1382    0.5178 N   0  0  0  0  0  0  0  0  0  0  0  0
   -0.6025    0.3016    0.1802 C   0  0  2  0  0  0  0  0  0  0  0  0
   -1.9101    1.0373   -0.2176 C   0  0  0  0  0  0  0  0  0  0  0  0
   -2.7186    0.5106   -0.9743 O   0  0  0  0  0  0  0  0  0  0  0  0
    0.3720    0.4237   -1.0006 C   0  0  0  0  0  0  0  0  0  0  0  0
    2.0709   -0.0462   -0.4722 S   0  0  0  0  0  0  0  0  0  0  0  0
    0.2093   -1.6369    0.2598 H   0  0  0  0  0  0  0  0  0  0  0  0
   -0.1993    0.8367    1.0450 H   0  0  0  0  0  0  0  0  0  0  0  0
    0.0398   -0.2119   -1.8289 H   0  0  0  0  0  0  0  0  0  0  0  0
    0.3927    1.4565   -1.3649 H   0  0  0  0  0  0  0  0  0  0  0  0
    2.7793    0.2309   -1.5902 H   0  0  0  0  0  0  0  0  0  0  0  0
   -1.9081    2.4216   -0.2107 N   0  0  0  0  0  0  0  0  0  0  0  0
   -2.8853    3.2814   -0.8927 C   0  0  2  0  0  0  0  0  0  0  0  0
   -2.2954    4.6795   -1.1774 C   0  0  0  0  0  0  0  0  0  0  0  0
   -1.1968    4.9863   -0.7255 O   0  0  0  0  0  0  0  0  0  0  0  0
   -4.1365    3.3870   -0.0131 C   0  0  0  0  0  0  0  0  0  0  0  0
   -1.1116    2.8936    0.2166 H   0  0  0  0  0  0  0  0  0  0  0  0
   -3.1578    2.8406   -1.8576 H   0  0  0  0  0  0  0  0  0  0  0  0
   -3.8895    3.8452    0.9500 H   0  0  0  0  0  0  0  0  0  0  0  0
   -4.9031    3.9944   -0.5030 H   0  0  0  0  0  0  0  0  0  0  0  0
   -4.5553    2.3926    0.1724 H   0  0  0  0  0  0  0  0  0  0  0  0
   -2.9817    5.5898   -1.9600 N   0  0  0  0  0  0  0  0  0  0  0  0
   -2.4795    6.9249   -2.2628 C   0  0  0  0  0  0  0  0  0  0  0  0
   -3.8869    5.3093   -2.3262 H   0  0  0  0  0  0  0  0  0  0  0  0
   -2.3320    7.4977   -1.3411 H   0  0  0  0  0  0  0  0  0  0  0  0
   -1.5251    6.8646   -2.7964 H   0  0  0  0  0  0  0  0  0  0  0  0
   -3.1937    7.4634   -2.8931 H   0  0  0  0  0  0  0  0  0  0  0  0
  1  2  2  0  0  0  0
  1  3  1  0  0  0  0
  1  7  1  0  0  0  0
  3  4  1  0  0  0  0
  3  5  1  0  0  0  0
  3  6  1  0  0  0  0
  7  8  1  0  0  0  0
  7 12  1  0  0  0  0
  8  9  1  0  0  0  0
  8 11  1  0  0  0  0
  8 13  1  0  0  0  0
  9 10  2  0  0  0  0
  9 17  1  0  0  0  0
 11 14  1  0  0  0  0
 11 15  1  0  0  0  0
 11 16  1  0  0  0  0
 17 18  1  0  0  0  0
 17 23  1  0  0  0  0
 18 19  1  0  0  0  0
 18 21  1  0  0  0  0
 18 24  1  0  0  0  0
 19 20  2  0  0  0  0
 19 28  1  0  0  0  0
 21 22  1  0  0  0  0
 21 25  1  0  0  0  0
 21 26  1  0  0  0  0
 22 27  1  0  0  0  0
 28 29  1  0  0  0  0
 28 33  1  0  0  0  0
 29 30  1  0  0  0  0
 29 32  1  0  0  0  0
 29 34  1  0  0  0  0
 30 31  2  0  0  0  0
 30 38  1  0  0  0  0
 32 35  1  0  0  0  0
 32 36  1  0  0  0  0
 32 37  1  0  0  0  0
 38 39  1  0  0  0  0
 38 40  1  0  0  0  0
 39 41  1  0  0  0  0
 39 42  1  0  0  0  0
 39 43  1  0  0  0  0
M  END
$$$$

  -OEChem-05262216003D

 43 42  0     1  0  0  0  0  0999 V2000
   -3.5747   -4.6564    0.9593 C   0  0  0  0  0  0  0  0  0  0  0  0
   -2.9165   -5.1101    1.8828 O   0  0  0  0  0  0  0  0  0  0  0  0
   -5.0721   -4.8926    0.9033 C   0  0  0  0  0  0  0  0  0  0  0  0
   -5.3303   -5.4368   -0.0081 H   0  0  0  0  0  0  0  0  0  0  0  0
   -5.3943   -5.4799    1.7674 H   0  0  0  0  0  0  0  0  0  0  0  0
   -5.6002   -3.9359    0.9110 H   0  0  0  0  0  0  0  0  0  0  0  0
   -2.9608   -3.9211   -0.0314 N   0  0  0  0  0  0  0  0  0  0  0  0
   -1.5682   -3.4613    0.0243 C   0  0  2  0  0  0  0  0  0  0  0  0
   -1.4190   -2.0739   -0.6315 C   0  0  0  0  0  0  0  0  0  0  0  0
   -2.1954   -1.7340   -1.5180 O   0  0  0  0  0  0  0  0  0  0  0  0
   -0.6862   -4.4937   -0.6835 C   0  0  0  0  0  0  0  0  0  0  0  0
   -3.5645   -3.4538   -0.7078 H   0  0  0  0  0  0  0  0  0  0  0  0
   -1.2503   -3.3663    1.0680 H   0  0  0  0  0  0  0  0  0  0  0  0
   -0.9904   -4.6025   -1.7295 H   0  0  0  0  0  0  0  0  0  0  0  0
    0.3639   -4.1873   -0.6555 H   0  0  0  0  0  0  0  0  0  0  0  0
   -0.7747   -5.4674   -0.1917 H   0  0  0  0  0  0  0  0  0  0  0  0
   -0.3062   -1.2913   -0.3793 N   0  0  0  0  0  0  0  0  0  0  0  0
   -0.2833    0.1900   -0.3558 C   0  0  2  0  0  0  0  0  0  0  0  0
   -1.6173    0.9870   -0.2681 C   0  0  0  0  0  0  0  0  0  0  0  0
   -2.6337    0.4985    0.2107 O   0  0  0  0  0  0  0  0  0  0  0  0
    0.4867    0.6041   -1.6208 C   0  0  0  0  0  0  0  0  0  0  0  0
    2.2354    0.0359   -1.5100 S   0  0  0  0  0  0  0  0  0  0  0  0
    0.3808   -1.7380    0.2198 H   0  0  0  0  0  0  0  0  0  0  0  0
    0.2921    0.5041    0.5201 H   0  0  0  0  0  0  0  0  0  0  0  0
    0.0041    0.1664   -2.5022 H   0  0  0  0  0  0  0  0  0  0  0  0
    0.4822    1.6912   -1.7449 H   0  0  0  0  0  0  0  0  0  0  0  0
    2.7078    0.4310   -2.7130 H   0  0  0  0  0  0  0  0  0  0  0  0
   -1.5631    2.3705   -0.2531 N   0  0  0  0  0  0  0  0  0  0  0  0
   -2.7399    3.2456   -0.1628 C   0  0  2  0  0  0  0  0  0  0  0  0
   -2.5771    4.4814   -1.0726 C   0  0  0  0  0  0  0  0  0  0  0  0
   -1.4871    4.7271   -1.5803 O   0  0  0  0  0  0  0  0  0  0  0  0
   -2.9217    3.6635    1.2993 C   0  0  0  0  0  0  0  0  0  0  0  0
   -0.7269    2.8023   -0.6450 H   0  0  0  0  0  0  0  0  0  0  0  0
   -3.6335    2.7083   -0.4990 H   0  0  0  0  0  0  0  0  0  0  0  0
   -2.0457    4.2176    1.6513 H   0  0  0  0  0  0  0  0  0  0  0  0
   -3.8051    4.2991    1.4112 H   0  0  0  0  0  0  0  0  0  0  0  0
   -3.0520    2.7787    1.9310 H   0  0  0  0  0  0  0  0  0  0  0  0
   -3.6528    5.3076   -1.3404 N   0  0  0  0  0  0  0  0  0  0  0  0
   -3.5703    6.4690   -2.2183 C   0  0  0  0  0  0  0  0  0  0  0  0
   -4.5504    5.0598   -0.9336 H   0  0  0  0  0  0  0  0  0  0  0  0
   -2.8114    7.1709   -1.8565 H   0  0  0  0  0  0  0  0  0  0  0  0
   -3.3091    6.1618   -3.2366 H   0  0  0  0  0  0  0  0  0  0  0  0
   -4.5326    6.9891   -2.2497 H   0  0  0  0  0  0  0  0  0  0  0  0
  1  2  2  0  0  0  0
  1  3  1  0  0  0  0
  1  7  1  0  0  0  0
  3  4  1  0  0  0  0
  3  5  1  0  0  0  0
  3  6  1  0  0  0  0
  7  8  1  0  0  0  0
  7 12  1  0  0  0  0
  8  9  1  0  0  0  0
  8 11  1  0  0  0  0
  8 13  1  0  0  0  0
  9 10  2  0  0  0  0
  9 17  1  0  0  0  0
 11 14  1  0  0  0  0
 11 15  1  0  0  0  0
 11 16  1  0  0  0  0
 17 18  1  0  0  0  0
 17 23  1  0  0  0  0
 18 19  1  0  0  0  0
 18 21  1  0  0  0  0
 18 24  1  0  0  0  0
 19 20  2  0  0  0  0
 19 28  1  0  0  0  0
 21 22  1  0  0  0  0
 21 25  1  0  0  0  0
 21 26  1  0  0  0  0
 22 27  1  0  0  0  0
 28 29  1  0  0  0  0
 28 33  1  0  0  0  0
 29 30  1  0  0  0  0
 29 32  1  0  0  0  0
 29 34  1  0  0  0  0
 30 31  2  0  0  0  0
 30 38  1  0  0  0  0
 32 35  1  0  0  0  0
 32 36  1  0  0  0  0
 32 37  1  0  0  0  0
 38 39  1  0  0  0  0
 38 40  1  0  0  0  0
 39 41  1  0  0  0  0
 39 42  1  0  0  0  0
 39 43  1  0  0  0  0
M  END
$$$$

  -OEChem-05262216003D

 43 42  0     1  0  0  0  0  0999 V2000
   -3.5936   -4.6274    0.9233 C   0  0  0  0  0  0  0  0  0  0  0  0
   -2.9401   -5.1266    1.8262 O   0  0  0  0  0  0  0  0  0  0  0  0
   -5.0947   -4.8380    0.8628 C   0  0  0  0  0  0  0  0  0  0  0  0
   -5.3626   -5.3479   -0.0658 H   0  0  0  0  0  0  0  0  0  0  0  0
   -5.4236   -5.4477    1.7089 H   0  0  0  0  0  0  0  0  0  0  0  0
   -5.6082   -3.8742    0.9027 H   0  0  0  0  0  0  0  0  0  0  0  0
   -2.9704   -3.8639   -0.0399 N   0  0  0  0  0  0  0  0  0  0  0  0
   -1.5716   -3.4261    0.0311 C   0  0  2  0  0  0  0  0  0  0  0  0
   -1.3985   -2.0307   -0.6014 C   0  0  0  0  0  0  0  0  0  0  0  0
   -2.1935   -1.6445   -1.4526 O   0  0  0  0  0  0  0  0  0  0  0  0
   -0.7005   -4.4602   -0.6878 C   0  0  0  0  0  0  0  0  0  0  0  0
   -3.5675   -3.3634   -0.6983 H   0  0  0  0  0  0  0  0  0  0  0  0
   -1.2594   -3.3521    1.0785 H   0  0  0  0  0  0  0  0  0  0  0  0
   -0.9960   -4.5441   -1.7385 H   0  0  0  0  0  0  0  0  0  0  0  0
    0.3541   -4.1727   -0.6441 H   0  0  0  0  0  0  0  0  0  0  0  0
   -0.8104   -5.4413   -0.2149 H   0  0  0  0  0  0  0  0  0  0  0  0
   -0.2647   -1.2790   -0.3464 N   0  0  0  0  0  0  0  0  0  0  0  0
   -0.2026    0.2008   -0.3418 C   0  0  2  0  0  0  0  0  0  0  0  0
   -1.5392    0.9957   -0.2792 C   0  0  0  0  0  0  0  0  0  0  0  0
   -2.4728    0.5838    0.4009 O   0  0  0  0  0  0  0  0  0  0  0  0
    0.6008    0.5726   -1.6004 C   0  0  0  0  0  0  0  0  0  0  0  0
    2.3301   -0.0429   -1.4509 S   0  0  0  0  0  0  0  0  0  0  0  0
    0.4148   -1.7417    0.2497 H   0  0  0  0  0  0  0  0  0  0  0  0
    0.3618    0.5208    0.5393 H   0  0  0  0  0  0  0  0  0  0  0  0
    0.1207    0.1383   -2.4848 H   0  0  0  0  0  0  0  0  0  0  0  0
    0.6370    1.6567   -1.7382 H   0  0  0  0  0  0  0  0  0  0  0  0
    2.8303    0.3133   -2.6553 H   0  0  0  0  0  0  0  0  0  0  0  0
   -1.5634    2.3456   -0.5852 N   0  0  0  0  0  0  0  0  0  0  0  0
   -2.7775    3.1717   -0.5717 C   0  0  2  0  0  0  0  0  0  0  0  0
   -2.7660    4.1817   -1.7383 C   0  0  0  0  0  0  0  0  0  0  0  0
   -1.7354    4.3626   -2.3799 O   0  0  0  0  0  0  0  0  0  0  0  0
   -2.8584    3.8959    0.7752 C   0  0  0  0  0  0  0  0  0  0  0  0
   -0.8028    2.6997   -1.1634 H   0  0  0  0  0  0  0  0  0  0  0  0
   -3.6622    2.5378   -0.6967 H   0  0  0  0  0  0  0  0  0  0  0  0
   -1.9865    4.5427    0.9152 H   0  0  0  0  0  0  0  0  0  0  0  0
   -3.7617    4.5106    0.8286 H   0  0  0  0  0  0  0  0  0  0  0  0
   -2.8882    3.1693    1.5932 H   0  0  0  0  0  0  0  0  0  0  0  0
   -3.9107    4.8767   -2.0826 N   0  0  0  0  0  0  0  0  0  0  0  0
   -3.9703    5.8152   -3.1967 C   0  0  0  0  0  0  0  0  0  0  0  0
   -4.7579    4.6801   -1.5573 H   0  0  0  0  0  0  0  0  0  0  0  0
   -3.2327    6.6139   -3.0647 H   0  0  0  0  0  0  0  0  0  0  0  0
   -3.7672    5.3008   -4.1419 H   0  0  0  0  0  0  0  0  0  0  0  0
   -4.9636    6.2701   -3.2571 H   0  0  0  0  0  0  0  0  0  0  0  0
  1  2  2  0  0  0  0
  1  3  1  0  0  0  0
  1  7  1  0  0  0  0
  3  4  1  0  0  0  0
  3  5  1  0  0  0  0
  3  6  1  0  0  0  0
  7  8  1  0  0  0  0
  7 12  1  0  0  0  0
  8  9  1  0  0  0  0
  8 11  1  0  0  0  0
  8 13  1  0  0  0  0
  9 10  2  0  0  0  0
  9 17  1  0  0  0  0
 11 14  1  0  0  0  0
 11 15  1  0  0  0  0
 11 16  1  0  0  0  0
 17 18  1  0  0  0  0
 17 23  1  0  0  0  0
 18 19  1  0  0  0  0
 18 21  1  0  0  0  0
 18 24  1  0  0  0  0
 19 20  2  0  0  0  0
 19 28  1  0  0  0  0
 21 22  1  0  0  0  0
 21 25  1  0  0  0  0
 21 26  1  0  0  0  0
 22 27  1  0  0  0  0
 28 29  1  0  0  0  0
 28 33  1  0  0  0  0
 29 30  1  0  0  0  0
 29 32  1  0  0  0  0
 29 34  1  0  0  0  0
 30 31  2  0  0  0  0
 30 38  1  0  0  0  0
 32 35  1  0  0  0  0
 32 36  1  0  0  0  0
 32 37  1  0  0  0  0
 38 39  1  0  0  0  0
 38 40  1  0  0  0  0
 39 41  1  0  0  0  0
 39 42  1  0  0  0  0
 39 43  1  0  0  0  0
M  END
$$$$

  -OEChem-05262216003D

 43 42  0     1  0  0  0  0  0999 V2000
   -3.5986   -4.6323    0.8973 C   0  0  0  0  0  0  0  0  0  0  0  0
   -2.9520   -5.1365    1.8025 O   0  0  0  0  0  0  0  0  0  0  0  0
   -5.0968   -4.8546    0.8141 C   0  0  0  0  0  0  0  0  0  0  0  0
   -5.3481   -5.3541   -0.1246 H   0  0  0  0  0  0  0  0  0  0  0  0
   -5.4321   -5.4785    1.6473 H   0  0  0  0  0  0  0  0  0  0  0  0
   -5.6191   -3.8956    0.8592 H   0  0  0  0  0  0  0  0  0  0  0  0
   -2.9716   -3.8521   -0.0499 N   0  0  0  0  0  0  0  0  0  0  0  0
   -1.5770   -3.4041    0.0415 C   0  0  2  0  0  0  0  0  0  0  0  0
   -1.4070   -1.9952   -0.5627 C   0  0  0  0  0  0  0  0  0  0  0  0
   -2.2299   -1.5773   -1.3715 O   0  0  0  0  0  0  0  0  0  0  0  0
   -0.6921   -4.4195   -0.6876 C   0  0  0  0  0  0  0  0  0  0  0  0
   -3.5674   -3.3431   -0.7028 H   0  0  0  0  0  0  0  0  0  0  0  0
   -1.2750   -3.3473    1.0929 H   0  0  0  0  0  0  0  0  0  0  0  0
   -0.9765   -4.4867   -1.7425 H   0  0  0  0  0  0  0  0  0  0  0  0
    0.3603   -4.1264   -0.6286 H   0  0  0  0  0  0  0  0  0  0  0  0
   -0.8001   -5.4098   -0.2338 H   0  0  0  0  0  0  0  0  0  0  0  0
   -0.2606   -1.2598   -0.3125 N   0  0  0  0  0  0  0  0  0  0  0  0
   -0.1636    0.2172   -0.3381 C   0  0  2  0  0  0  0  0  0  0  0  0
   -1.4984    1.0139   -0.3063 C   0  0  0  0  0  0  0  0  0  0  0  0
   -2.3496    0.7202    0.5266 O   0  0  0  0  0  0  0  0  0  0  0  0
    0.6814    0.5572   -1.5777 C   0  0  0  0  0  0  0  0  0  0  0  0
    2.3931   -0.0890   -1.3675 S   0  0  0  0  0  0  0  0  0  0  0  0
    0.4240   -1.7321    0.2703 H   0  0  0  0  0  0  0  0  0  0  0  0
    0.3826    0.5455    0.5514 H   0  0  0  0  0  0  0  0  0  0  0  0
    0.2188    0.1244   -2.4720 H   0  0  0  0  0  0  0  0  0  0  0  0
    0.7458    1.6399   -1.7198 H   0  0  0  0  0  0  0  0  0  0  0  0
    2.9455    0.2607   -2.5506 H   0  0  0  0  0  0  0  0  0  0  0  0
   -1.6189    2.2515   -0.9138 N   0  0  0  0  0  0  0  0  0  0  0  0
   -2.8670    3.0218   -0.9607 C   0  0  2  0  0  0  0  0  0  0  0  0
   -3.0048    3.7584   -2.3097 C   0  0  0  0  0  0  0  0  0  0  0  0
   -2.0436    3.8286   -3.0699 O   0  0  0  0  0  0  0  0  0  0  0  0
   -2.8712    4.0132    0.2064 C   0  0  0  0  0  0  0  0  0  0  0  0
   -0.9494    2.4660   -1.6513 H   0  0  0  0  0  0  0  0  0  0  0  0
   -3.7248    2.3468   -0.8659 H   0  0  0  0  0  0  0  0  0  0  0  0
   -2.0293    4.7077    0.1219 H   0  0  0  0  0  0  0  0  0  0  0  0
   -3.8007    4.5899    0.2178 H   0  0  0  0  0  0  0  0  0  0  0  0
   -2.7869    3.4779    1.1577 H   0  0  0  0  0  0  0  0  0  0  0  0
   -4.2081    4.3286   -2.6815 N   0  0  0  0  0  0  0  0  0  0  0  0
   -4.4203    4.9803   -3.9683 C   0  0  0  0  0  0  0  0  0  0  0  0
   -4.9985    4.2081   -2.0547 H   0  0  0  0  0  0  0  0  0  0  0  0
   -3.6680    5.7587   -4.1349 H   0  0  0  0  0  0  0  0  0  0  0  0
   -4.3568    4.2496   -4.7815 H   0  0  0  0  0  0  0  0  0  0  0  0
   -5.4094    5.4476   -3.9972 H   0  0  0  0  0  0  0  0  0  0  0  0
  1  2  2  0  0  0  0
  1  3  1  0  0  0  0
  1  7  1  0  0  0  0
  3  4  1  0  0  0  0
  3  5  1  0  0  0  0
  3  6  1  0  0  0  0
  7  8  1  0  0  0  0
  7 12  1  0  0  0  0
  8  9  1  0  0  0  0
  8 11  1  0  0  0  0
  8 13  1  0  0  0  0
  9 10  2  0  0  0  0
  9 17  1  0  0  0  0
 11 14  1  0  0  0  0
 11 15  1  0  0  0  0
 11 16  1  0  0  0  0
 17 18  1  0  0  0  0
 17 23  1  0  0  0  0
 18 19  1  0  0  0  0
 18 21  1  0  0  0  0
 18 24  1  0  0  0  0
 19 20  2  0  0  0  0
 19 28  1  0  0  0  0
 21 22  1  0  0  0  0
 21 25  1  0  0  0  0
 21 26  1  0  0  0  0
 22 27  1  0  0  0  0
 28 29  1  0  0  0  0
 28 33  1  0  0  0  0
 29 30  1  0  0  0  0
 29 32  1  0  0  0  0
 29 34  1  0  0  0  0
 30 31  2  0  0  0  0
 30 38  1  0  0  0  0
 32 35  1  0  0  0  0
 32 36  1  0  0  0  0
 32 37  1  0  0  0  0
 38 39  1  0  0  0  0
 38 40  1  0  0  0  0
 39 41  1  0  0  0  0
 39 42  1  0  0  0  0
 39 43  1  0  0  0  0
M  END
$$$$

  -OEChem-05262216003D

 43 42  0     1  0  0  0  0  0999 V2000
   -3.5622   -4.7266    0.8905 C   0  0  0  0  0  0  0  0  0  0  0  0
   -2.8881   -5.2500    1.7637 O   0  0  0  0  0  0  0  0  0  0  0  0
   -5.0557   -4.9854    0.8212 C   0  0  0  0  0  0  0  0  0  0  0  0
   -5.3104   -5.4524   -0.1331 H   0  0  0  0  0  0  0  0  0  0  0  0
   -5.3611   -5.6518    1.6324 H   0  0  0  0  0  0  0  0  0  0  0  0
   -5.6017   -4.0436    0.9152 H   0  0  0  0  0  0  0  0  0  0  0  0
   -2.9706   -3.8868   -0.0281 N   0  0  0  0  0  0  0  0  0  0  0  0
   -1.5873   -3.4029    0.0631 C   0  0  2  0  0  0  0  0  0  0  0  0
   -1.4610   -1.9653   -0.4842 C   0  0  0  0  0  0  0  0  0  0  0  0
   -2.3321   -1.5233   -1.2264 O   0  0  0  0  0  0  0  0  0  0  0  0
   -0.6856   -4.3631   -0.7189 C   0  0  0  0  0  0  0  0  0  0  0  0
   -3.5892   -3.3715   -0.6539 H   0  0  0  0  0  0  0  0  0  0  0  0
   -1.2711   -3.3812    1.1116 H   0  0  0  0  0  0  0  0  0  0  0  0
   -0.9797   -4.3903   -1.7729 H   0  0  0  0  0  0  0  0  0  0  0  0
    0.3602   -4.0477   -0.6566 H   0  0  0  0  0  0  0  0  0  0  0  0
   -0.7647   -5.3749   -0.3087 H   0  0  0  0  0  0  0  0  0  0  0  0
   -0.3088   -1.2311   -0.2534 N   0  0  0  0  0  0  0  0  0  0  0  0
   -0.1786    0.2415   -0.3249 C   0  0  2  0  0  0  0  0  0  0  0  0
   -1.5006    1.0571   -0.3274 C   0  0  0  0  0  0  0  0  0  0  0  0
   -2.2721    0.9288    0.6169 O   0  0  0  0  0  0  0  0  0  0  0  0
    0.6882    0.5350   -1.5602 C   0  0  0  0  0  0  0  0  0  0  0  0
    2.3854   -0.1353   -1.3110 S   0  0  0  0  0  0  0  0  0  0  0  0
    0.4062   -1.7122    0.2846 H   0  0  0  0  0  0  0  0  0  0  0  0
    0.3632    0.5844    0.5618 H   0  0  0  0  0  0  0  0  0  0  0  0
    0.2307    0.0890   -2.4506 H   0  0  0  0  0  0  0  0  0  0  0  0
    0.7704    1.6144   -1.7227 H   0  0  0  0  0  0  0  0  0  0  0  0
    2.9664    0.1936   -2.4866 H   0  0  0  0  0  0  0  0  0  0  0  0
   -1.7194    2.1085   -1.2005 N   0  0  0  0  0  0  0  0  0  0  0  0
   -2.9918    2.8322   -1.3022 C   0  0  2  0  0  0  0  0  0  0  0  0
   -3.2709    3.2533   -2.7598 C   0  0  0  0  0  0  0  0  0  0  0  0
   -2.3704    3.2142   -3.5929 O   0  0  0  0  0  0  0  0  0  0  0  0
   -2.9316    4.0592   -0.3882 C   0  0  0  0  0  0  0  0  0  0  0  0
   -1.1354    2.1370   -2.0349 H   0  0  0  0  0  0  0  0  0  0  0  0
   -3.8146    2.1822   -0.9853 H   0  0  0  0  0  0  0  0  0  0  0  0
   -2.1196    4.7255   -0.6958 H   0  0  0  0  0  0  0  0  0  0  0  0
   -3.8729    4.6152   -0.4276 H   0  0  0  0  0  0  0  0  0  0  0  0
   -2.7570    3.7519    0.6476 H   0  0  0  0  0  0  0  0  0  0  0  0
   -4.5331    3.6692   -3.1414 N   0  0  0  0  0  0  0  0  0  0  0  0
   -4.8750    4.0363   -4.5102 C   0  0  0  0  0  0  0  0  0  0  0  0
   -5.2681    3.6433   -2.4406 H   0  0  0  0  0  0  0  0  0  0  0  0
   -4.2392    4.8577   -4.8576 H   0  0  0  0  0  0  0  0  0  0  0  0
   -4.7430    3.1803   -5.1804 H   0  0  0  0  0  0  0  0  0  0  0  0
   -5.9184    4.3619   -4.5655 H   0  0  0  0  0  0  0  0  0  0  0  0
  1  2  2  0  0  0  0
  1  3  1  0  0  0  0
  1  7  1  0  0  0  0
  3  4  1  0  0  0  0
  3  5  1  0  0  0  0
  3  6  1  0  0  0  0
  7  8  1  0  0  0  0
  7 12  1  0  0  0  0
  8  9  1  0  0  0  0
  8 11  1  0  0  0  0
  8 13  1  0  0  0  0
  9 10  2  0  0  0  0
  9 17  1  0  0  0  0
 11 14  1  0  0  0  0
 11 15  1  0  0  0  0
 11 16  1  0  0  0  0
 17 18  1  0  0  0  0
 17 23  1  0  0  0  0
 18 19  1  0  0  0  0
 18 21  1  0  0  0  0
 18 24  1  0  0  0  0
 19 20  2  0  0  0  0
 19 28  1  0  0  0  0
 21 22  1  0  0  0  0
 21 25  1  0  0  0  0
 21 26  1  0  0  0  0
 22 27  1  0  0  0  0
 28 29  1  0  0  0  0
 28 33  1  0  0  0  0
 29 30  1  0  0  0  0
 29 32  1  0  0  0  0
 29 34  1  0  0  0  0
 30 31  2  0  0  0  0
 30 38  1  0  0  0  0
 32 35  1  0  0  0  0
 32 36  1  0  0  0  0
 32 37  1  0  0  0  0
 38 39  1  0  0  0  0
 38 40  1  0  0  0  0
 39 41  1  0  0  0  0
 39 42  1  0  0  0  0
 39 43  1  0  0  0  0
M  END
$$$$

  -OEChem-05262216003D

 43 42  0     1  0  0  0  0  0999 V2000
   -3.5073   -4.8166    0.8976 C   0  0  0  0  0  0  0  0  0  0  0  0
   -2.7891   -5.3584    1.7232 O   0  0  0  0  0  0  0  0  0  0  0  0
   -4.9888   -5.1397    0.8480 C   0  0  0  0  0  0  0  0  0  0  0  0
   -5.2299   -5.6420   -0.0919 H   0  0  0  0  0  0  0  0  0  0  0  0
   -5.2593   -5.7970    1.6790 H   0  0  0  0  0  0  0  0  0  0  0  0
   -5.5743   -4.2202    0.9231 H   0  0  0  0  0  0  0  0  0  0  0  0
   -2.9750   -3.9040    0.0121 N   0  0  0  0  0  0  0  0  0  0  0  0
   -1.6023   -3.3868    0.0817 C   0  0  2  0  0  0  0  0  0  0  0  0
   -1.5205   -1.9278   -0.4163 C   0  0  0  0  0  0  0  0  0  0  0  0
   -2.4389   -1.4646   -1.0841 O   0  0  0  0  0  0  0  0  0  0  0  0
   -0.7008   -4.2973   -0.7583 C   0  0  0  0  0  0  0  0  0  0  0  0
   -3.6274   -3.3859   -0.5760 H   0  0  0  0  0  0  0  0  0  0  0  0
   -1.2575   -3.3949    1.1215 H   0  0  0  0  0  0  0  0  0  0  0  0
   -1.0251   -4.2956   -1.8038 H   0  0  0  0  0  0  0  0  0  0  0  0
    0.3389   -3.9592   -0.7148 H   0  0  0  0  0  0  0  0  0  0  0  0
   -0.7439   -5.3243   -0.3817 H   0  0  0  0  0  0  0  0  0  0  0  0
   -0.3639   -1.1938   -0.2087 N   0  0  0  0  0  0  0  0  0  0  0  0
   -0.2071    0.2728   -0.3190 C   0  0  2  0  0  0  0  0  0  0  0  0
   -1.5125    1.1109   -0.3444 C   0  0  0  0  0  0  0  0  0  0  0  0
   -2.1918    1.1720    0.6739 O   0  0  0  0  0  0  0  0  0  0  0  0
    0.6624    0.5222   -1.5608 C   0  0  0  0  0  0  0  0  0  0  0  0
    2.3482   -0.1697   -1.2972 S   0  0  0  0  0  0  0  0  0  0  0  0
    0.3816   -1.6865    0.2754 H   0  0  0  0  0  0  0  0  0  0  0  0
    0.3407    0.6285    0.5592 H   0  0  0  0  0  0  0  0  0  0  0  0
    0.1994    0.0612   -2.4404 H   0  0  0  0  0  0  0  0  0  0  0  0
    0.7549    1.5974   -1.7471 H   0  0  0  0  0  0  0  0  0  0  0  0
    2.9310    0.1173   -2.4827 H   0  0  0  0  0  0  0  0  0  0  0  0
   -1.8472    1.9261   -1.4114 N   0  0  0  0  0  0  0  0  0  0  0  0
   -3.1504    2.5851   -1.5517 C   0  0  2  0  0  0  0  0  0  0  0  0
   -3.5581    2.6742   -3.0375 C   0  0  0  0  0  0  0  0  0  0  0  0
   -2.7196    2.4947   -3.9159 O   0  0  0  0  0  0  0  0  0  0  0  0
   -3.0697    3.9807   -0.9254 C   0  0  0  0  0  0  0  0  0  0  0  0
   -1.3585    1.7452   -2.2875 H   0  0  0  0  0  0  0  0  0  0  0  0
   -3.9181    1.9982   -1.0354 H   0  0  0  0  0  0  0  0  0  0  0  0
   -2.3121    4.5855   -1.4337 H   0  0  0  0  0  0  0  0  0  0  0  0
   -4.0338    4.4920   -1.0017 H   0  0  0  0  0  0  0  0  0  0  0  0
   -2.8031    3.9061    0.1335 H   0  0  0  0  0  0  0  0  0  0  0  0
   -4.8672    2.9407   -3.3942 N   0  0  0  0  0  0  0  0  0  0  0  0
   -5.3272    2.9718   -4.7774 C   0  0  0  0  0  0  0  0  0  0  0  0
   -5.5493    3.0271   -2.6463 H   0  0  0  0  0  0  0  0  0  0  0  0
   -4.7535    3.7032   -5.3563 H   0  0  0  0  0  0  0  0  0  0  0  0
   -5.2116    1.9865   -5.2411 H   0  0  0  0  0  0  0  0  0  0  0  0
   -6.3839    3.2527   -4.8191 H   0  0  0  0  0  0  0  0  0  0  0  0
  1  2  2  0  0  0  0
  1  3  1  0  0  0  0
  1  7  1  0  0  0  0
  3  4  1  0  0  0  0
  3  5  1  0  0  0  0
  3  6  1  0  0  0  0
  7  8  1  0  0  0  0
  7 12  1  0  0  0  0
  8  9  1  0  0  0  0
  8 11  1  0  0  0  0
  8 13  1  0  0  0  0
  9 10  2  0  0  0  0
  9 17  1  0  0  0  0
 11 14  1  0  0  0  0
 11 15  1  0  0  0  0
 11 16  1  0  0  0  0
 17 18  1  0  0  0  0
 17 23  1  0  0  0  0
 18 19  1  0  0  0  0
 18 21  1  0  0  0  0
 18 24  1  0  0  0  0
 19 20  2  0  0  0  0
 19 28  1  0  0  0  0
 21 22  1  0  0  0  0
 21 25  1  0  0  0  0
 21 26  1  0  0  0  0
 22 27  1  0  0  0  0
 28 29  1  0  0  0  0
 28 33  1  0  0  0  0
 29 30  1  0  0  0  0
 29 32  1  0  0  0  0
 29 34  1  0  0  0  0
 30 31  2  0  0  0  0
 30 38  1  0  0  0  0
 32 35  1  0  0  0  0
 32 36  1  0  0  0  0
 32 37  1  0  0  0  0
 38 39  1  0  0  0  0
 38 40  1  0  0  0  0
 39 41  1  0  0  0  0
 39 42  1  0  0  0  0
 39 43  1  0  0  0  0
M  END
$$$$

  -OEChem-05262216003D

 43 42  0     1  0  0  0  0  0999 V2000
   -3.4194   -4.9327    0.9260 C   0  0  0  0  0  0  0  0  0  0  0  0
   -2.6494   -5.4839    1.6968 O   0  0  0  0  0  0  0  0  0  0  0  0
   -4.8919   -5.2983    0.9284 C   0  0  0  0  0  0  0  0  0  0  0  0
   -5.1594   -5.7724   -0.0191 H   0  0  0  0  0  0  0  0  0  0  0  0
   -5.1066   -5.9938    1.7448 H   0  0  0  0  0  0  0  0  0  0  0  0
   -5.4998   -4.4003    1.0631 H   0  0  0  0  0  0  0  0  0  0  0  0
   -2.9521   -3.9726    0.0538 N   0  0  0  0  0  0  0  0  0  0  0  0
   -1.5926   -3.4180    0.0853 C   0  0  2  0  0  0  0  0  0  0  0  0
   -1.5752   -1.9345   -0.3414 C   0  0  0  0  0  0  0  0  0  0  0  0
   -2.5403   -1.4681   -0.9357 O   0  0  0  0  0  0  0  0  0  0  0  0
   -0.7081   -4.2584   -0.8415 C   0  0  0  0  0  0  0  0  0  0  0  0
   -3.6445   -3.4512   -0.4833 H   0  0  0  0  0  0  0  0  0  0  0  0
   -1.1971   -3.4677    1.1058 H   0  0  0  0  0  0  0  0  0  0  0  0
   -1.0782   -4.2108   -1.8709 H   0  0  0  0  0  0  0  0  0  0  0  0
    0.3237   -3.8947   -0.8243 H   0  0  0  0  0  0  0  0  0  0  0  0
   -0.7086   -5.3045   -0.5187 H   0  0  0  0  0  0  0  0  0  0  0  0
   -0.4361   -1.1743   -0.1318 N   0  0  0  0  0  0  0  0  0  0  0  0
   -0.2821    0.2881   -0.2878 C   0  0  2  0  0  0  0  0  0  0  0  0
   -1.5806    1.1294   -0.3802 C   0  0  0  0  0  0  0  0  0  0  0  0
   -2.1615    1.4357    0.6542 O   0  0  0  0  0  0  0  0  0  0  0  0
    0.6190    0.5082   -1.5109 C   0  0  0  0  0  0  0  0  0  0  0  0
    2.3010   -0.1624   -1.1778 S   0  0  0  0  0  0  0  0  0  0  0  0
    0.3445   -1.6640    0.2975 H   0  0  0  0  0  0  0  0  0  0  0  0
    0.2414    0.6715    0.5939 H   0  0  0  0  0  0  0  0  0  0  0  0
    0.1870    0.0175   -2.3899 H   0  0  0  0  0  0  0  0  0  0  0  0
    0.7024    1.5791   -1.7255 H   0  0  0  0  0  0  0  0  0  0  0  0
    2.9300    0.1317   -2.3379 H   0  0  0  0  0  0  0  0  0  0  0  0
   -2.0261    1.6575   -1.5792 N   0  0  0  0  0  0  0  0  0  0  0  0
   -3.3335    2.3006   -1.7466 C   0  0  2  0  0  0  0  0  0  0  0  0
   -3.9001    2.0338   -3.1570 C   0  0  0  0  0  0  0  0  0  0  0  0
   -3.1602    1.6391   -4.0531 O   0  0  0  0  0  0  0  0  0  0  0  0
   -3.1749    3.8045   -1.5036 C   0  0  0  0  0  0  0  0  0  0  0  0
   -1.6449    1.2306   -2.4230 H   0  0  0  0  0  0  0  0  0  0  0  0
   -4.0448    1.8871   -1.0234 H   0  0  0  0  0  0  0  0  0  0  0  0
   -2.4640    4.2327   -2.2173 H   0  0  0  0  0  0  0  0  0  0  0  0
   -4.1354    4.3162   -1.6175 H   0  0  0  0  0  0  0  0  0  0  0  0
   -2.8049    3.9881   -0.4896 H   0  0  0  0  0  0  0  0  0  0  0  0
   -5.2410    2.2388   -3.4261 N   0  0  0  0  0  0  0  0  0  0  0  0
   -5.8487    1.9541   -4.7205 C   0  0  0  0  0  0  0  0  0  0  0  0
   -5.8376    2.5153   -2.6518 H   0  0  0  0  0  0  0  0  0  0  0  0
   -5.3345    2.5039   -5.5159 H   0  0  0  0  0  0  0  0  0  0  0  0
   -5.7949    0.8828   -4.9410 H   0  0  0  0  0  0  0  0  0  0  0  0
   -6.9003    2.2561   -4.7193 H   0  0  0  0  0  0  0  0  0  0  0  0
  1  2  2  0  0  0  0
  1  3  1  0  0  0  0
  1  7  1  0  0  0  0
  3  4  1  0  0  0  0
  3  5  1  0  0  0  0
  3  6  1  0  0  0  0
  7  8  1  0  0  0  0
  7 12  1  0  0  0  0
  8  9  1  0  0  0  0
  8 11  1  0  0  0  0
  8 13  1  0  0  0  0
  9 10  2  0  0  0  0
  9 17  1  0  0  0  0
 11 14  1  0  0  0  0
 11 15  1  0  0  0  0
 11 16  1  0  0  0  0
 17 18  1  0  0  0  0
 17 23  1  0  0  0  0
 18 19  1  0  0  0  0
 18 21  1  0  0  0  0
 18 24  1  0  0  0  0
 19 20  2  0  0  0  0
 19 28  1  0  0  0  0
 21 22  1  0  0  0  0
 21 25  1  0  0  0  0
 21 26  1  0  0  0  0
 22 27  1  0  0  0  0
 28 29  1  0  0  0  0
 28 33  1  0  0  0  0
 29 30  1  0  0  0  0
 29 32  1  0  0  0  0
 29 34  1  0  0  0  0
 30 31  2  0  0  0  0
 30 38  1  0  0  0  0
 32 35  1  0  0  0  0
 32 36  1  0  0  0  0
 32 37  1  0  0  0  0
 38 39  1  0  0  0  0
 38 40  1  0  0  0  0
 39 41  1  0  0  0  0
 39 42  1  0  0  0  0
 39 43  1  0  0  0  0
M  END
$$$$

  -OEChem-05262216003D

 43 42  0     1  0  0  0  0  0999 V2000
   -3.3031   -5.0490    0.9980 C   0  0  0  0  0  0  0  0  0  0  0  0
   -2.4806   -5.5732    1.7325 O   0  0  0  0  0  0  0  0  0  0  0  0
   -4.7574   -5.4772    1.0548 C   0  0  0  0  0  0  0  0  0  0  0  0
   -5.0445   -5.9442    0.1096 H   0  0  0  0  0  0  0  0  0  0  0  0
   -4.9071   -6.1970    1.8646 H   0  0  0  0  0  0  0  0  0  0  0  0
   -5.3963   -4.6088    1.2333 H   0  0  0  0  0  0  0  0  0  0  0  0
   -2.9131   -4.0619    0.1182 N   0  0  0  0  0  0  0  0  0  0  0  0
   -1.5743   -3.4593    0.0921 C   0  0  2  0  0  0  0  0  0  0  0  0
   -1.6300   -1.9602   -0.2691 C   0  0  0  0  0  0  0  0  0  0  0  0
   -2.6362   -1.5069   -0.7997 O   0  0  0  0  0  0  0  0  0  0  0  0
   -0.7232   -4.2283   -0.9232 C   0  0  0  0  0  0  0  0  0  0  0  0
   -3.6478   -3.5668   -0.3866 H   0  0  0  0  0  0  0  0  0  0  0  0
   -1.1134   -3.5373    1.0828 H   0  0  0  0  0  0  0  0  0  0  0  0
   -1.1605   -4.1540   -1.9240 H   0  0  0  0  0  0  0  0  0  0  0  0
    0.2942   -3.8275   -0.9572 H   0  0  0  0  0  0  0  0  0  0  0  0
   -0.6668   -5.2856   -0.6451 H   0  0  0  0  0  0  0  0  0  0  0  0
   -0.5150   -1.1667   -0.0554 N   0  0  0  0  0  0  0  0  0  0  0  0
   -0.3715    0.2915   -0.2549 C   0  0  2  0  0  0  0  0  0  0  0  0
   -1.6632    1.1304   -0.4179 C   0  0  0  0  0  0  0  0  0  0  0  0
   -2.1307    1.6995    0.5610 O   0  0  0  0  0  0  0  0  0  0  0  0
    0.5539    0.4845   -1.4633 C   0  0  0  0  0  0  0  0  0  0  0  0
    2.2347   -0.1570   -1.0712 S   0  0  0  0  0  0  0  0  0  0  0  0
    0.2979   -1.6470    0.3228 H   0  0  0  0  0  0  0  0  0  0  0  0
    0.1278    0.7049    0.6276 H   0  0  0  0  0  0  0  0  0  0  0  0
    0.1487   -0.0372   -2.3371 H   0  0  0  0  0  0  0  0  0  0  0  0
    0.6264    1.5498   -1.7084 H   0  0  0  0  0  0  0  0  0  0  0  0
    2.8927    0.1262   -2.2178 H   0  0  0  0  0  0  0  0  0  0  0  0
   -2.2246    1.3561   -1.6622 N   0  0  0  0  0  0  0  0  0  0  0  0
   -3.5282    1.9990   -1.8564 C   0  0  2  0  0  0  0  0  0  0  0  0
   -4.2457    1.4345   -3.1006 C   0  0  0  0  0  0  0  0  0  0  0  0
   -3.6084    0.8448   -3.9677 O   0  0  0  0  0  0  0  0  0  0  0  0
   -3.3119    3.5090   -1.9983 C   0  0  0  0  0  0  0  0  0  0  0  0
   -1.9588    0.6907   -2.3884 H   0  0  0  0  0  0  0  0  0  0  0  0
   -4.1687    1.8004   -0.9902 H   0  0  0  0  0  0  0  0  0  0  0  0
   -2.6724    3.7237   -2.8603 H   0  0  0  0  0  0  0  0  0  0  0  0
   -4.2675    4.0233   -2.1363 H   0  0  0  0  0  0  0  0  0  0  0  0
   -2.8315    3.9101   -1.1002 H   0  0  0  0  0  0  0  0  0  0  0  0
   -5.6103    1.5978   -3.2564 N   0  0  0  0  0  0  0  0  0  0  0  0
   -6.3563    1.0556   -4.3855 C   0  0  0  0  0  0  0  0  0  0  0  0
   -6.1180    2.0476   -2.5003 H   0  0  0  0  0  0  0  0  0  0  0  0
   -5.9686    1.4535   -5.3295 H   0  0  0  0  0  0  0  0  0  0  0  0
   -6.2786   -0.0365   -4.4046 H   0  0  0  0  0  0  0  0  0  0  0  0
   -7.4137    1.3262   -4.3061 H   0  0  0  0  0  0  0  0  0  0  0  0
  1  2  2  0  0  0  0
  1  3  1  0  0  0  0
  1  7  1  0  0  0  0
  3  4  1  0  0  0  0
  3  5  1  0  0  0  0
  3  6  1  0  0  0  0
  7  8  1  0  0  0  0
  7 12  1  0  0  0  0
  8  9  1  0  0  0  0
  8 11  1  0  0  0  0
  8 13  1  0  0  0  0
  9 10  2  0  0  0  0
  9 17  1  0  0  0  0
 11 14  1  0  0  0  0
 11 15  1  0  0  0  0
 11 16  1  0  0  0  0
 17 18  1  0  0  0  0
 17 23  1  0  0  0  0
 18 19  1  0  0  0  0
 18 21  1  0  0  0  0
 18 24  1  0  0  0  0
 19 20  2  0  0  0  0
 19 28  1  0  0  0  0
 21 22  1  0  0  0  0
 21 25  1  0  0  0  0
 21 26  1  0  0  0  0
 22 27  1  0  0  0  0
 28 29  1  0  0  0  0
 28 33  1  0  0  0  0
 29 30  1  0  0  0  0
 29 32  1  0  0  0  0
 29 34  1  0  0  0  0
 30 31  2  0  0  0  0
 30 38  1  0  0  0  0
 32 35  1  0  0  0  0
 32 36  1  0  0  0  0
 32 37  1  0  0  0  0
 38 39  1  0  0  0  0
 38 40  1  0  0  0  0
 39 41  1  0  0  0  0
 39 42  1  0  0  0  0
 39 43  1  0  0  0  0
M  END
$$$$

  -OEChem-05262216003D

 43 42  0     1  0  0  0  0  0999 V2000
   -3.1444   -5.2633    1.0287 C   0  0  0  0  0  0  0  0  0  0  0  0
   -2.2992   -5.7663    1.7519 O   0  0  0  0  0  0  0  0  0  0  0  0
   -4.5629   -5.8010    1.0239 C   0  0  0  0  0  0  0  0  0  0  0  0
   -4.8072   -6.1989    0.0360 H   0  0  0  0  0  0  0  0  0  0  0  0
   -4.6654   -6.6015    1.7620 H   0  0  0  0  0  0  0  0  0  0  0  0
   -5.2659   -5.0020    1.2717 H   0  0  0  0  0  0  0  0  0  0  0  0
   -2.8116   -4.1997    0.2175 N   0  0  0  0  0  0  0  0  0  0  0  0
   -1.5143   -3.5118    0.2392 C   0  0  2  0  0  0  0  0  0  0  0  0
   -1.6529   -2.0224   -0.1450 C   0  0  0  0  0  0  0  0  0  0  0  0
   -2.7014   -1.6228   -0.6324 O   0  0  0  0  0  0  0  0  0  0  0  0
   -0.5714   -4.2346   -0.7290 C   0  0  0  0  0  0  0  0  0  0  0  0
   -3.5688   -3.7349   -0.2832 H   0  0  0  0  0  0  0  0  0  0  0  0
   -1.0946   -3.5504    1.2505 H   0  0  0  0  0  0  0  0  0  0  0  0
   -0.9682   -4.1959   -1.7486 H   0  0  0  0  0  0  0  0  0  0  0  0
    0.4201   -3.7722   -0.7221 H   0  0  0  0  0  0  0  0  0  0  0  0
   -0.4620   -5.2843   -0.4381 H   0  0  0  0  0  0  0  0  0  0  0  0
   -0.5750   -1.1694    0.0213 N   0  0  0  0  0  0  0  0  0  0  0  0
   -0.4748    0.2804   -0.2601 C   0  0  2  0  0  0  0  0  0  0  0  0
   -1.7677    1.1042   -0.4829 C   0  0  0  0  0  0  0  0  0  0  0  0
   -2.0681    1.9669    0.3332 O   0  0  0  0  0  0  0  0  0  0  0  0
    0.4393    0.4314   -1.4823 C   0  0  0  0  0  0  0  0  0  0  0  0
    2.1392   -0.1395   -1.0638 S   0  0  0  0  0  0  0  0  0  0  0  0
    0.2755   -1.6098    0.3640 H   0  0  0  0  0  0  0  0  0  0  0  0
    0.0182    0.7494    0.5979 H   0  0  0  0  0  0  0  0  0  0  0  0
    0.0445   -0.1462   -2.3252 H   0  0  0  0  0  0  0  0  0  0  0  0
    0.4800    1.4834   -1.7854 H   0  0  0  0  0  0  0  0  0  0  0  0
    2.7920    0.1264   -2.2170 H   0  0  0  0  0  0  0  0  0  0  0  0
   -2.4870    1.0167   -1.6610 N   0  0  0  0  0  0  0  0  0  0  0  0
   -3.7449    1.7335   -1.8990 C   0  0  2  0  0  0  0  0  0  0  0  0
   -4.6703    0.9519   -2.8551 C   0  0  0  0  0  0  0  0  0  0  0  0
   -4.2078    0.1176   -3.6259 O   0  0  0  0  0  0  0  0  0  0  0  0
   -3.4201    3.1122   -2.4828 C   0  0  0  0  0  0  0  0  0  0  0  0
   -2.3961    0.1220   -2.1474 H   0  0  0  0  0  0  0  0  0  0  0  0
   -4.2818    1.8564   -0.9524 H   0  0  0  0  0  0  0  0  0  0  0  0
   -2.8806    3.0085   -3.4297 H   0  0  0  0  0  0  0  0  0  0  0  0
   -4.3386    3.6781   -2.6645 H   0  0  0  0  0  0  0  0  0  0  0  0
   -2.7964    3.6823   -1.7871 H   0  0  0  0  0  0  0  0  0  0  0  0
   -6.0308    1.2004   -2.8656 N   0  0  0  0  0  0  0  0  0  0  0  0
   -6.9659    0.4873   -3.7268 C   0  0  0  0  0  0  0  0  0  0  0  0
   -6.3916    1.8694   -2.1918 H   0  0  0  0  0  0  0  0  0  0  0  0
   -6.6952    0.6214   -4.7795 H   0  0  0  0  0  0  0  0  0  0  0  0
   -6.9597   -0.5829   -3.4948 H   0  0  0  0  0  0  0  0  0  0  0  0
   -7.9812    0.8677   -3.5805 H   0  0  0  0  0  0  0  0  0  0  0  0
  1  2  2  0  0  0  0
  1  3  1  0  0  0  0
  1  7  1  0  0  0  0
  3  4  1  0  0  0  0
  3  5  1  0  0  0  0
  3  6  1  0  0  0  0
  7  8  1  0  0  0  0
  7 12  1  0  0  0  0
  8  9  1  0  0  0  0
  8 11  1  0  0  0  0
  8 13  1  0  0  0  0
  9 10  2  0  0  0  0
  9 17  1  0  0  0  0
 11 14  1  0  0  0  0
 11 15  1  0  0  0  0
 11 16  1  0  0  0  0
 17 18  1  0  0  0  0
 17 23  1  0  0  0  0
 18 19  1  0  0  0  0
 18 21  1  0  0  0  0
 18 24  1  0  0  0  0
 19 20  2  0  0  0  0
 19 28  1  0  0  0  0
 21 22  1  0  0  0  0
 21 25  1  0  0  0  0
 21 26  1  0  0  0  0
 22 27  1  0  0  0  0
 28 29  1  0  0  0  0
 28 33  1  0  0  0  0
 29 30  1  0  0  0  0
 29 32  1  0  0  0  0
 29 34  1  0  0  0  0
 30 31  2  0  0  0  0
 30 38  1  0  0  0  0
 32 35  1  0  0  0  0
 32 36  1  0  0  0  0
 32 37  1  0  0  0  0
 38 39  1  0  0  0  0
 38 40  1  0  0  0  0
 39 41  1  0  0  0  0
 39 42  1  0  0  0  0
 39 43  1  0  0  0  0
M  END
$$$$

  -OEChem-05262216003D

 43 42  0     1  0  0  0  0  0999 V2000
   -2.9355   -5.4277    1.1225 C   0  0  0  0  0  0  0  0  0  0  0  0
   -2.0554   -5.8675    1.8454 O   0  0  0  0  0  0  0  0  0  0  0  0
   -4.3331   -6.0151    1.1778 C   0  0  0  0  0  0  0  0  0  0  0  0
   -4.5675   -6.5083    0.2314 H   0  0  0  0  0  0  0  0  0  0  0  0
   -4.4018   -6.7489    1.9857 H   0  0  0  0  0  0  0  0  0  0  0  0
   -5.0643   -5.2234    1.3588 H   0  0  0  0  0  0  0  0  0  0  0  0
   -2.6644   -4.3860    0.2616 N   0  0  0  0  0  0  0  0  0  0  0  0
   -1.4084   -3.6248    0.2523 C   0  0  2  0  0  0  0  0  0  0  0  0
   -1.6489   -2.1389   -0.0914 C   0  0  0  0  0  0  0  0  0  0  0  0
   -2.7393   -1.7954   -0.5224 O   0  0  0  0  0  0  0  0  0  0  0  0
   -0.4640   -4.2721   -0.7656 C   0  0  0  0  0  0  0  0  0  0  0  0
   -3.4569   -3.9639   -0.2229 H   0  0  0  0  0  0  0  0  0  0  0  0
   -0.9473   -3.6585    1.2455 H   0  0  0  0  0  0  0  0  0  0  0  0
   -0.9001   -4.2358   -1.7692 H   0  0  0  0  0  0  0  0  0  0  0  0
    0.4991   -3.7536   -0.7841 H   0  0  0  0  0  0  0  0  0  0  0  0
   -0.2847   -5.3193   -0.5018 H   0  0  0  0  0  0  0  0  0  0  0  0
   -0.6230   -1.2234    0.0674 N   0  0  0  0  0  0  0  0  0  0  0  0
   -0.5756    0.2276   -0.2325 C   0  0  2  0  0  0  0  0  0  0  0  0
   -1.8699    1.0429   -0.4913 C   0  0  0  0  0  0  0  0  0  0  0  0
   -2.0369    2.0833    0.1333 O   0  0  0  0  0  0  0  0  0  0  0  0
    0.3334    0.3822   -1.4572 C   0  0  0  0  0  0  0  0  0  0  0  0
    2.0510   -0.1281   -1.0314 S   0  0  0  0  0  0  0  0  0  0  0  0
    0.2605   -1.6275    0.3701 H   0  0  0  0  0  0  0  0  0  0  0  0
   -0.0965    0.7194    0.6210 H   0  0  0  0  0  0  0  0  0  0  0  0
   -0.0471   -0.2193   -2.2897 H   0  0  0  0  0  0  0  0  0  0  0  0
    0.3435    1.4298   -1.7779 H   0  0  0  0  0  0  0  0  0  0  0  0
    2.6978    0.1570   -2.1839 H   0  0  0  0  0  0  0  0  0  0  0  0
   -2.7405    0.7460   -1.5234 N   0  0  0  0  0  0  0  0  0  0  0  0
   -3.9849    1.4800   -1.7830 C   0  0  2  0  0  0  0  0  0  0  0  0
   -5.0440    0.5905   -2.4682 C   0  0  0  0  0  0  0  0  0  0  0  0
   -4.7088   -0.3793   -3.1390 O   0  0  0  0  0  0  0  0  0  0  0  0
   -3.6683    2.6924   -2.6651 C   0  0  0  0  0  0  0  0  0  0  0  0
   -2.7441   -0.2415   -1.7983 H   0  0  0  0  0  0  0  0  0  0  0  0
   -4.4093    1.8220   -0.8333 H   0  0  0  0  0  0  0  0  0  0  0  0
   -3.2454    2.3679   -3.6211 H   0  0  0  0  0  0  0  0  0  0  0  0
   -4.5760    3.2701   -2.8630 H   0  0  0  0  0  0  0  0  0  0  0  0
   -2.9456    3.3473   -2.1687 H   0  0  0  0  0  0  0  0  0  0  0  0
   -6.3881    0.8951   -2.3510 N   0  0  0  0  0  0  0  0  0  0  0  0
   -7.4454    0.0891   -2.9492 C   0  0  0  0  0  0  0  0  0  0  0  0
   -6.6412    1.6862   -1.7665 H   0  0  0  0  0  0  0  0  0  0  0  0
   -7.3124    0.0255   -4.0344 H   0  0  0  0  0  0  0  0  0  0  0  0
   -7.4357   -0.9239   -2.5333 H   0  0  0  0  0  0  0  0  0  0  0  0
   -8.4231    0.5370   -2.7472 H   0  0  0  0  0  0  0  0  0  0  0  0
  1  2  2  0  0  0  0
  1  3  1  0  0  0  0
  1  7  1  0  0  0  0
  3  4  1  0  0  0  0
  3  5  1  0  0  0  0
  3  6  1  0  0  0  0
  7  8  1  0  0  0  0
  7 12  1  0  0  0  0
  8  9  1  0  0  0  0
  8 11  1  0  0  0  0
  8 13  1  0  0  0  0
  9 10  2  0  0  0  0
  9 17  1  0  0  0  0
 11 14  1  0  0  0  0
 11 15  1  0  0  0  0
 11 16  1  0  0  0  0
 17 18  1  0  0  0  0
 17 23  1  0  0  0  0
 18 19  1  0  0  0  0
 18 21  1  0  0  0  0
 18 24  1  0  0  0  0
 19 20  2  0  0  0  0
 19 28  1  0  0  0  0
 21 22  1  0  0  0  0
 21 25  1  0  0  0  0
 21 26  1  0  0  0  0
 22 27  1  0  0  0  0
 28 29  1  0  0  0  0
 28 33  1  0  0  0  0
 29 30  1  0  0  0  0
 29 32  1  0  0  0  0
 29 34  1  0  0  0  0
 30 31  2  0  0  0  0
 30 38  1  0  0  0  0
 32 35  1  0  0  0  0
 32 36  1  0  0  0  0
 32 37  1  0  0  0  0
 38 39  1  0  0  0  0
 38 40  1  0  0  0  0
 39 41  1  0  0  0  0
 39 42  1  0  0  0  0
 39 43  1  0  0  0  0
M  END
$$$$

  -OEChem-05262216003D

 43 42  0     1  0  0  0  0  0999 V2000
   -2.6568   -5.6697    1.1593 C   0  0  0  0  0  0  0  0  0  0  0  0
   -1.7368   -6.0513    1.8656 O   0  0  0  0  0  0  0  0  0  0  0  0
   -3.9952   -6.3835    1.1964 C   0  0  0  0  0  0  0  0  0  0  0  0
   -4.2292   -6.7886    0.2089 H   0  0  0  0  0  0  0  0  0  0  0  0
   -3.9652   -7.2060    1.9166 H   0  0  0  0  0  0  0  0  0  0  0  0
   -4.7820   -5.6853    1.4918 H   0  0  0  0  0  0  0  0  0  0  0  0
   -2.4827   -4.5824    0.3299 N   0  0  0  0  0  0  0  0  0  0  0  0
   -1.2872   -3.7287    0.3186 C   0  0  2  0  0  0  0  0  0  0  0  0
   -1.6328   -2.2641   -0.0299 C   0  0  0  0  0  0  0  0  0  0  0  0
   -2.7554   -1.9945   -0.4245 O   0  0  0  0  0  0  0  0  0  0  0  0
   -0.2949   -4.3082   -0.6956 C   0  0  0  0  0  0  0  0  0  0  0  0
   -3.3096   -4.2190   -0.1444 H   0  0  0  0  0  0  0  0  0  0  0  0
   -0.8269   -3.7261    1.3128 H   0  0  0  0  0  0  0  0  0  0  0  0
   -0.7347   -4.3190   -1.6980 H   0  0  0  0  0  0  0  0  0  0  0  0
    0.6233   -3.7137   -0.7238 H   0  0  0  0  0  0  0  0  0  0  0  0
   -0.0306   -5.3345   -0.4212 H   0  0  0  0  0  0  0  0  0  0  0  0
   -0.6617   -1.2868    0.0977 N   0  0  0  0  0  0  0  0  0  0  0  0
   -0.6728    0.1615   -0.2255 C   0  0  2  0  0  0  0  0  0  0  0  0
   -1.9701    0.9724   -0.4996 C   0  0  0  0  0  0  0  0  0  0  0  0
   -2.0082    2.1265   -0.0900 O   0  0  0  0  0  0  0  0  0  0  0  0
    0.2215    0.3104   -1.4616 C   0  0  0  0  0  0  0  0  0  0  0  0
    1.9568   -0.1374   -1.0359 S   0  0  0  0  0  0  0  0  0  0  0  0
    0.2484   -1.6448    0.3794 H   0  0  0  0  0  0  0  0  0  0  0  0
   -0.1967    0.6776    0.6155 H   0  0  0  0  0  0  0  0  0  0  0  0
   -0.1493   -0.3227   -2.2751 H   0  0  0  0  0  0  0  0  0  0  0  0
    0.2006    1.3493   -1.8103 H   0  0  0  0  0  0  0  0  0  0  0  0
    2.5867    0.1429   -2.1986 H   0  0  0  0  0  0  0  0  0  0  0  0
   -3.0073    0.5447   -1.3068 N   0  0  0  0  0  0  0  0  0  0  0  0
   -4.2307    1.3161   -1.5683 C   0  0  2  0  0  0  0  0  0  0  0  0
   -5.4363    0.4121   -1.9034 C   0  0  0  0  0  0  0  0  0  0  0  0
   -5.2745   -0.6822   -2.4301 O   0  0  0  0  0  0  0  0  0  0  0  0
   -3.9659    2.2807   -2.7295 C   0  0  0  0  0  0  0  0  0  0  0  0
   -3.0675   -0.4708   -1.4440 H   0  0  0  0  0  0  0  0  0  0  0  0
   -4.4939    1.8908   -0.6743 H   0  0  0  0  0  0  0  0  0  0  0  0
   -3.7015    1.7240   -3.6343 H   0  0  0  0  0  0  0  0  0  0  0  0
   -4.8555    2.8826   -2.9382 H   0  0  0  0  0  0  0  0  0  0  0  0
   -3.1423    2.9582   -2.4838 H   0  0  0  0  0  0  0  0  0  0  0  0
   -6.7232    0.8475   -1.6426 N   0  0  0  0  0  0  0  0  0  0  0  0
   -7.9095    0.0464   -1.9185 C   0  0  0  0  0  0  0  0  0  0  0  0
   -6.8315    1.7482   -1.1862 H   0  0  0  0  0  0  0  0  0  0  0  0
   -7.9636   -0.2063   -2.9828 H   0  0  0  0  0  0  0  0  0  0  0  0
   -7.8879   -0.8812   -1.3369 H   0  0  0  0  0  0  0  0  0  0  0  0
   -8.8127    0.6028   -1.6504 H   0  0  0  0  0  0  0  0  0  0  0  0
  1  2  2  0  0  0  0
  1  3  1  0  0  0  0
  1  7  1  0  0  0  0
  3  4  1  0  0  0  0
  3  5  1  0  0  0  0
  3  6  1  0  0  0  0
  7  8  1  0  0  0  0
  7 12  1  0  0  0  0
  8  9  1  0  0  0  0
  8 11  1  0  0  0  0
  8 13  1  0  0  0  0
  9 10  2  0  0  0  0
  9 17  1  0  0  0  0
 11 14  1  0  0  0  0
 11 15  1  0  0  0  0
 11 16  1  0  0  0  0
 17 18  1  0  0  0  0
 17 23  1  0  0  0  0
 18 19  1  0  0  0  0
 18 21  1  0  0  0  0
 18 24  1  0  0  0  0
 19 20  2  0  0  0  0
 19 28  1  0  0  0  0
 21 22  1  0  0  0  0
 21 25  1  0  0  0  0
 21 26  1  0  0  0  0
 22 27  1  0  0  0  0
 28 29  1  0  0  0  0
 28 33  1  0  0  0  0
 29 30  1  0  0  0  0
 29 32  1  0  0  0  0
 29 34  1  0  0  0  0
 30 31  2  0  0  0  0
 30 38  1  0  0  0  0
 32 35  1  0  0  0  0
 32 36  1  0  0  0  0
 32 37  1  0  0  0  0
 38 39  1  0  0  0  0
 38 40  1  0  0  0  0
 39 41  1  0  0  0  0
 39 42  1  0  0  0  0
 39 43  1  0  0  0  0
M  END
$$$$

  -OEChem-05262216003D

 43 42  0     1  0  0  0  0  0999 V2000
   -2.7258   -3.6091    1.1469 C   0  0  0  0  0  0  0  0  0  0  0  0
   -1.6633   -3.6721    1.7503 O   0  0  0  0  0  0  0  0  0  0  0  0
   -4.0060   -3.2700    1.8845 C   0  0  0  0  0  0  0  0  0  0  0  0
   -4.8158   -3.9211    1.5465 H   0  0  0  0  0  0  0  0  0  0  0  0
   -3.8699   -3.4056    2.9608 H   0  0  0  0  0  0  0  0  0  0  0  0
   -4.2800   -2.2301    1.6887 H   0  0  0  0  0  0  0  0  0  0  0  0
   -2.7274   -3.7079   -0.2276 N   0  0  0  0  0  0  0  0  0  0  0  0
   -1.4979   -3.7570   -1.0319 C   0  0  2  0  0  0  0  0  0  0  0  0
   -0.8760   -2.3475   -1.1555 C   0  0  0  0  0  0  0  0  0  0  0  0
   -0.7988   -1.7663   -2.2320 O   0  0  0  0  0  0  0  0  0  0  0  0
   -1.8638   -4.3748   -2.3865 C   0  0  0  0  0  0  0  0  0  0  0  0
   -3.5783   -3.3633   -0.6864 H   0  0  0  0  0  0  0  0  0  0  0  0
   -0.7586   -4.4080   -0.5527 H   0  0  0  0  0  0  0  0  0  0  0  0
   -2.6189   -3.7670   -2.8960 H   0  0  0  0  0  0  0  0  0  0  0  0
   -0.9787   -4.4386   -3.0273 H   0  0  0  0  0  0  0  0  0  0  0  0
   -2.2640   -5.3838   -2.2477 H   0  0  0  0  0  0  0  0  0  0  0  0
   -0.4779   -1.6795   -0.0139 N   0  0  0  0  0  0  0  0  0  0  0  0
   -0.9552   -0.3429    0.4205 C   0  0  2  0  0  0  0  0  0  0  0  0
   -2.2286    0.2919   -0.2040 C   0  0  0  0  0  0  0  0  0  0  0  0
   -2.9654    0.9398    0.5302 O   0  0  0  0  0  0  0  0  0  0  0  0
    0.2053    0.6371    0.2106 C   0  0  0  0  0  0  0  0  0  0  0  0
    1.6160    0.2171    1.3174 S   0  0  0  0  0  0  0  0  0  0  0  0
   -0.4259   -2.3335    0.7728 H   0  0  0  0  0  0  0  0  0  0  0  0
   -1.1591   -0.4069    1.4949 H   0  0  0  0  0  0  0  0  0  0  0  0
    0.5291    0.6062   -0.8355 H   0  0  0  0  0  0  0  0  0  0  0  0
   -0.1249    1.6578    0.4319 H   0  0  0  0  0  0  0  0  0  0  0  0
    2.5216    1.1456    0.9405 H   0  0  0  0  0  0  0  0  0  0  0  0
   -2.6729    0.0712   -1.4922 N   0  0  0  0  0  0  0  0  0  0  0  0
   -4.0678    0.2596   -1.9011 C   0  0  2  0  0  0  0  0  0  0  0  0
   -5.0228   -0.7540   -1.2287 C   0  0  0  0  0  0  0  0  0  0  0  0
   -4.7662   -1.9562   -1.2204 O   0  0  0  0  0  0  0  0  0  0  0  0
   -4.1256    0.1148   -3.4229 C   0  0  0  0  0  0  0  0  0  0  0  0
   -2.0883   -0.5498   -2.0572 H   0  0  0  0  0  0  0  0  0  0  0  0
   -4.3893    1.2717   -1.6350 H   0  0  0  0  0  0  0  0  0  0  0  0
   -3.7905   -0.8828   -3.7261 H   0  0  0  0  0  0  0  0  0  0  0  0
   -5.1490    0.2616   -3.7814 H   0  0  0  0  0  0  0  0  0  0  0  0
   -3.4802    0.8586   -3.9006 H   0  0  0  0  0  0  0  0  0  0  0  0
   -6.1916   -0.3134   -0.6370 N   0  0  0  0  0  0  0  0  0  0  0  0
   -7.1088   -1.1912    0.0793 C   0  0  0  0  0  0  0  0  0  0  0  0
   -6.2927    0.6917   -0.5214 H   0  0  0  0  0  0  0  0  0  0  0  0
   -7.4238   -2.0238   -0.5587 H   0  0  0  0  0  0  0  0  0  0  0  0
   -6.6299   -1.5953    0.9767 H   0  0  0  0  0  0  0  0  0  0  0  0
   -8.0020   -0.6364    0.3826 H   0  0  0  0  0  0  0  0  0  0  0  0
  1  2  2  0  0  0  0
  1  3  1  0  0  0  0
  1  7  1  0  0  0  0
  3  4  1  0  0  0  0
  3  5  1  0  0  0  0
  3  6  1  0  0  0  0
  7  8  1  0  0  0  0
  7 12  1  0  0  0  0
  8  9  1  0  0  0  0
  8 11  1  0  0  0  0
  8 13  1  0  0  0  0
  9 10  2  0  0  0  0
  9 17  1  0  0  0  0
 11 14  1  0  0  0  0
 11 15  1  0  0  0  0
 11 16  1  0  0  0  0
 17 18  1  0  0  0  0
 17 23  1  0  0  0  0
 18 19  1  0  0  0  0
 18 21  1  0  0  0  0
 18 24  1  0  0  0  0
 19 20  2  0  0  0  0
 19 28  1  0  0  0  0
 21 22  1  0  0  0  0
 21 25  1  0  0  0  0
 21 26  1  0  0  0  0
 22 27  1  0  0  0  0
 28 29  1  0  0  0  0
 28 33  1  0  0  0  0
 29 30  1  0  0  0  0
 29 32  1  0  0  0  0
 29 34  1  0  0  0  0
 30 31  2  0  0  0  0
 30 38  1  0  0  0  0
 32 35  1  0  0  0  0
 32 36  1  0  0  0  0
 32 37  1  0  0  0  0
 38 39  1  0  0  0  0
 38 40  1  0  0  0  0
 39 41  1  0  0  0  0
 39 42  1  0  0  0  0
 39 43  1  0  0  0  0
M  END
$$$$

  -OEChem-05262216003D

 43 42  0     1  0  0  0  0  0999 V2000
   -2.4928   -3.8736    1.1615 C   0  0  0  0  0  0  0  0  0  0  0  0
   -1.3357   -3.9911    1.5389 O   0  0  0  0  0  0  0  0  0  0  0  0
   -3.6050   -3.6993    2.1778 C   0  0  0  0  0  0  0  0  0  0  0  0
   -3.7957   -4.6490    2.6835 H   0  0  0  0  0  0  0  0  0  0  0  0
   -3.3175   -2.9490    2.9189 H   0  0  0  0  0  0  0  0  0  0  0  0
   -4.5239   -3.3711    1.6868 H   0  0  0  0  0  0  0  0  0  0  0  0
   -2.7538   -3.7936   -0.1898 N   0  0  0  0  0  0  0  0  0  0  0  0
   -1.7025   -3.7732   -1.2191 C   0  0  2  0  0  0  0  0  0  0  0  0
   -1.0549   -2.3731   -1.3206 C   0  0  0  0  0  0  0  0  0  0  0  0
   -1.1059   -1.7129   -2.3515 O   0  0  0  0  0  0  0  0  0  0  0  0
   -2.3500   -4.2313   -2.5312 C   0  0  0  0  0  0  0  0  0  0  0  0
   -3.6659   -3.3932   -0.4358 H   0  0  0  0  0  0  0  0  0  0  0  0
   -0.9119   -4.4872   -0.9643 H   0  0  0  0  0  0  0  0  0  0  0  0
   -3.1506   -3.5444   -2.8249 H   0  0  0  0  0  0  0  0  0  0  0  0
   -1.6053   -4.2606   -3.3329 H   0  0  0  0  0  0  0  0  0  0  0  0
   -2.7744   -5.2335   -2.4168 H   0  0  0  0  0  0  0  0  0  0  0  0
   -0.5042   -1.8043   -0.1897 N   0  0  0  0  0  0  0  0  0  0  0  0
   -0.8045   -0.4620    0.3687 C   0  0  2  0  0  0  0  0  0  0  0  0
   -2.0560    0.3457   -0.0790 C   0  0  0  0  0  0  0  0  0  0  0  0
   -2.5239    1.1508    0.7176 O   0  0  0  0  0  0  0  0  0  0  0  0
    0.4304    0.4095    0.1097 C   0  0  0  0  0  0  0  0  0  0  0  0
    1.8788   -0.2266    1.0532 S   0  0  0  0  0  0  0  0  0  0  0  0
   -0.3811   -2.5117    0.5414 H   0  0  0  0  0  0  0  0  0  0  0  0
   -0.9168   -0.5834    1.4511 H   0  0  0  0  0  0  0  0  0  0  0  0
    0.6563    0.4204   -0.9620 H   0  0  0  0  0  0  0  0  0  0  0  0
    0.2315    1.4403    0.4227 H   0  0  0  0  0  0  0  0  0  0  0  0
    2.8416    0.6337    0.6565 H   0  0  0  0  0  0  0  0  0  0  0  0
   -2.8165    0.0713   -1.1982 N   0  0  0  0  0  0  0  0  0  0  0  0
   -4.2483    0.3653   -1.3031 C   0  0  2  0  0  0  0  0  0  0  0  0
   -5.1038   -0.6623   -0.5281 C   0  0  0  0  0  0  0  0  0  0  0  0
   -4.8499   -1.8643   -0.5833 O   0  0  0  0  0  0  0  0  0  0  0  0
   -4.6156    0.3585   -2.7880 C   0  0  0  0  0  0  0  0  0  0  0  0
   -2.4244   -0.6239   -1.8366 H   0  0  0  0  0  0  0  0  0  0  0  0
   -4.4512    1.3641   -0.9027 H   0  0  0  0  0  0  0  0  0  0  0  0
   -4.4204   -0.6254   -3.2275 H   0  0  0  0  0  0  0  0  0  0  0  0
   -5.6760    0.5945   -2.9197 H   0  0  0  0  0  0  0  0  0  0  0  0
   -4.0243    1.1046   -3.3281 H   0  0  0  0  0  0  0  0  0  0  0  0
   -6.1772   -0.2382    0.2324 N   0  0  0  0  0  0  0  0  0  0  0  0
   -6.9782   -1.1325    1.0591 C   0  0  0  0  0  0  0  0  0  0  0  0
   -6.2829    0.7651    0.3579 H   0  0  0  0  0  0  0  0  0  0  0  0
   -7.3724   -1.9613    0.4615 H   0  0  0  0  0  0  0  0  0  0  0  0
   -6.3747   -1.5411    1.8759 H   0  0  0  0  0  0  0  0  0  0  0  0
   -7.8247   -0.5897    1.4905 H   0  0  0  0  0  0  0  0  0  0  0  0
  1  2  2  0  0  0  0
  1  3  1  0  0  0  0
  1  7  1  0  0  0  0
  3  4  1  0  0  0  0
  3  5  1  0  0  0  0
  3  6  1  0  0  0  0
  7  8  1  0  0  0  0
  7 12  1  0  0  0  0
  8  9  1  0  0  0  0
  8 11  1  0  0  0  0
  8 13  1  0  0  0  0
  9 10  2  0  0  0  0
  9 17  1  0  0  0  0
 11 14  1  0  0  0  0
 11 15  1  0  0  0  0
 11 16  1  0  0  0  0
 17 18  1  0  0  0  0
 17 23  1  0  0  0  0
 18 19  1  0  0  0  0
 18 21  1  0  0  0  0
 18 24  1  0  0  0  0
 19 20  2  0  0  0  0
 19 28  1  0  0  0  0
 21 22  1  0  0  0  0
 21 25  1  0  0  0  0
 21 26  1  0  0  0  0
 22 27  1  0  0  0  0
 28 29  1  0  0  0  0
 28 33  1  0  0  0  0
 29 30  1  0  0  0  0
 29 32  1  0  0  0  0
 29 34  1  0  0  0  0
 30 31  2  0  0  0  0
 30 38  1  0  0  0  0
 32 35  1  0  0  0  0
 32 36  1  0  0  0  0
 32 37  1  0  0  0  0
 38 39  1  0  0  0  0
 38 40  1  0  0  0  0
 39 41  1  0  0  0  0
 39 42  1  0  0  0  0
 39 43  1  0  0  0  0
M  END
$$$$

  -OEChem-05262216003D

 43 42  0     1  0  0  0  0  0999 V2000
   -2.2098   -3.8965    1.2434 C   0  0  0  0  0  0  0  0  0  0  0  0
   -1.0056   -4.0284    1.4106 O   0  0  0  0  0  0  0  0  0  0  0  0
   -3.1340   -3.7222    2.4326 C   0  0  0  0  0  0  0  0  0  0  0  0
   -3.9847   -4.4024    2.3471 H   0  0  0  0  0  0  0  0  0  0  0  0
   -2.6000   -3.9402    3.3614 H   0  0  0  0  0  0  0  0  0  0  0  0
   -3.5037   -2.6944    2.4691 H   0  0  0  0  0  0  0  0  0  0  0  0
   -2.7025   -3.7871   -0.0389 N   0  0  0  0  0  0  0  0  0  0  0  0
   -1.8460   -3.7434   -1.2352 C   0  0  2  0  0  0  0  0  0  0  0  0
   -1.2297   -2.3374   -1.4201 C   0  0  0  0  0  0  0  0  0  0  0  0
   -1.5090   -1.6380   -2.3860 O   0  0  0  0  0  0  0  0  0  0  0  0
   -2.7090   -4.1833   -2.4239 C   0  0  0  0  0  0  0  0  0  0  0  0
   -3.6423   -3.3819   -0.1090 H   0  0  0  0  0  0  0  0  0  0  0  0
   -1.0208   -4.4570   -1.1346 H   0  0  0  0  0  0  0  0  0  0  0  0
   -3.5552   -3.5014   -2.5589 H   0  0  0  0  0  0  0  0  0  0  0  0
   -2.1160   -4.1869   -3.3440 H   0  0  0  0  0  0  0  0  0  0  0  0
   -3.0971   -5.1929   -2.2582 H   0  0  0  0  0  0  0  0  0  0  0  0
   -0.4792   -1.7984   -0.3941 N   0  0  0  0  0  0  0  0  0  0  0  0
   -0.6186   -0.4496    0.2108 C   0  0  2  0  0  0  0  0  0  0  0  0
   -1.8870    0.4229   -0.0207 C   0  0  0  0  0  0  0  0  0  0  0  0
   -2.0589    1.3809    0.7233 O   0  0  0  0  0  0  0  0  0  0  0  0
    0.6079    0.3545   -0.2430 C   0  0  0  0  0  0  0  0  0  0  0  0
    2.1493   -0.3729    0.4564 S   0  0  0  0  0  0  0  0  0  0  0  0
   -0.2291   -2.5178    0.2916 H   0  0  0  0  0  0  0  0  0  0  0  0
   -0.5627   -0.5783    1.2966 H   0  0  0  0  0  0  0  0  0  0  0  0
    0.6589    0.3635   -1.3370 H   0  0  0  0  0  0  0  0  0  0  0  0
    0.5241    1.3921    0.0978 H   0  0  0  0  0  0  0  0  0  0  0  0
    3.0813    0.4489   -0.0731 H   0  0  0  0  0  0  0  0  0  0  0  0
   -2.9646    0.0315   -0.7904 N   0  0  0  0  0  0  0  0  0  0  0  0
   -4.3624    0.4119   -0.5640 C   0  0  2  0  0  0  0  0  0  0  0  0
   -5.1322   -0.6717    0.2233 C   0  0  0  0  0  0  0  0  0  0  0  0
   -4.8367   -1.8609    0.1177 O   0  0  0  0  0  0  0  0  0  0  0  0
   -5.0055    0.6336   -1.9341 C   0  0  0  0  0  0  0  0  0  0  0  0
   -2.7818   -0.7373   -1.4374 H   0  0  0  0  0  0  0  0  0  0  0  0
   -4.4163    1.3489   -0.0007 H   0  0  0  0  0  0  0  0  0  0  0  0
   -4.9750   -0.2874   -2.5258 H   0  0  0  0  0  0  0  0  0  0  0  0
   -6.0499    0.9410   -1.8220 H   0  0  0  0  0  0  0  0  0  0  0  0
   -4.4700    1.4160   -2.4812 H   0  0  0  0  0  0  0  0  0  0  0  0
   -6.1845   -0.3158    1.0458 N   0  0  0  0  0  0  0  0  0  0  0  0
   -6.9450   -1.2731    1.8397 C   0  0  0  0  0  0  0  0  0  0  0  0
   -6.3725    0.6763    1.1618 H   0  0  0  0  0  0  0  0  0  0  0  0
   -7.3747   -2.0488    1.1970 H   0  0  0  0  0  0  0  0  0  0  0  0
   -6.3010   -1.7491    2.5866 H   0  0  0  0  0  0  0  0  0  0  0  0
   -7.7636   -0.7663    2.3601 H   0  0  0  0  0  0  0  0  0  0  0  0
  1  2  2  0  0  0  0
  1  3  1  0  0  0  0
  1  7  1  0  0  0  0
  3  4  1  0  0  0  0
  3  5  1  0  0  0  0
  3  6  1  0  0  0  0
  7  8  1  0  0  0  0
  7 12  1  0  0  0  0
  8  9  1  0  0  0  0
  8 11  1  0  0  0  0
  8 13  1  0  0  0  0
  9 10  2  0  0  0  0
  9 17  1  0  0  0  0
 11 14  1  0  0  0  0
 11 15  1  0  0  0  0
 11 16  1  0  0  0  0
 17 18  1  0  0  0  0
 17 23  1  0  0  0  0
 18 19  1  0  0  0  0
 18 21  1  0  0  0  0
 18 24  1  0  0  0  0
 19 20  2  0  0  0  0
 19 28  1  0  0  0  0
 21 22  1  0  0  0  0
 21 25  1  0  0  0  0
 21 26  1  0  0  0  0
 22 27  1  0  0  0  0
 28 29  1  0  0  0  0
 28 33  1  0  0  0  0
 29 30  1  0  0  0  0
 29 32  1  0  0  0  0
 29 34  1  0  0  0  0
 30 31  2  0  0  0  0
 30 38  1  0  0  0  0
 32 35  1  0  0  0  0
 32 36  1  0  0  0  0
 32 37  1  0  0  0  0
 38 39  1  0  0  0  0
 38 40  1  0  0  0  0
 39 41  1  0  0  0  0
 39 42  1  0  0  0  0
 39 43  1  0  0  0  0
M  END
$$$$

  -OEChem-05262216003D

 43 42  0     1  0  0  0  0  0999 V2000
   -1.9946   -3.6160    1.5920 C   0  0  0  0  0  0  0  0  0  0  0  0
   -0.7764   -3.6897    1.6776 O   0  0  0  0  0  0  0  0  0  0  0  0
   -2.8340   -3.3327    2.8225 C   0  0  0  0  0  0  0  0  0  0  0  0
   -3.6979   -4.0013    2.8478 H   0  0  0  0  0  0  0  0  0  0  0  0
   -2.2415   -3.4868    3.7284 H   0  0  0  0  0  0  0  0  0  0  0  0
   -3.1869   -2.2987    2.8006 H   0  0  0  0  0  0  0  0  0  0  0  0
   -2.5874   -3.6790    0.3492 N   0  0  0  0  0  0  0  0  0  0  0  0
   -1.8219   -3.7305   -0.9063 C   0  0  2  0  0  0  0  0  0  0  0  0
   -1.2797   -2.3289   -1.2662 C   0  0  0  0  0  0  0  0  0  0  0  0
   -1.8105   -1.6522   -2.1377 O   0  0  0  0  0  0  0  0  0  0  0  0
   -2.7444   -4.3125   -1.9838 C   0  0  0  0  0  0  0  0  0  0  0  0
   -3.5611   -3.3581    0.3099 H   0  0  0  0  0  0  0  0  0  0  0  0
   -0.9641   -4.4035   -0.7991 H   0  0  0  0  0  0  0  0  0  0  0  0
   -3.6343   -3.6870   -2.1100 H   0  0  0  0  0  0  0  0  0  0  0  0
   -2.2200   -4.3674   -2.9432 H   0  0  0  0  0  0  0  0  0  0  0  0
   -3.0643   -5.3212   -1.7055 H   0  0  0  0  0  0  0  0  0  0  0  0
   -0.3375   -1.7390   -0.4458 N   0  0  0  0  0  0  0  0  0  0  0  0
   -0.3969   -0.3665    0.1210 C   0  0  2  0  0  0  0  0  0  0  0  0
   -1.7320    0.4358    0.1192 C   0  0  0  0  0  0  0  0  0  0  0  0
   -1.7523    1.5647    0.5948 O   0  0  0  0  0  0  0  0  0  0  0  0
    0.6803    0.4430   -0.6171 C   0  0  0  0  0  0  0  0  0  0  0  0
    2.3569   -0.2143   -0.2282 S   0  0  0  0  0  0  0  0  0  0  0  0
    0.0446   -2.4195    0.2171 H   0  0  0  0  0  0  0  0  0  0  0  0
   -0.1137   -0.4350    1.1760 H   0  0  0  0  0  0  0  0  0  0  0  0
    0.4991    0.3990   -1.6963 H   0  0  0  0  0  0  0  0  0  0  0  0
    0.6404    1.4947   -0.3140 H   0  0  0  0  0  0  0  0  0  0  0  0
    3.1273    0.6025   -0.9794 H   0  0  0  0  0  0  0  0  0  0  0  0
   -2.9501   -0.1707   -0.1129 N   0  0  0  0  0  0  0  0  0  0  0  0
   -4.2776    0.3543    0.2130 C   0  0  2  0  0  0  0  0  0  0  0  0
   -5.2343   -0.7737    0.6647 C   0  0  0  0  0  0  0  0  0  0  0  0
   -4.9240   -1.9577    0.5372 O   0  0  0  0  0  0  0  0  0  0  0  0
   -4.8181    1.0677   -1.0285 C   0  0  0  0  0  0  0  0  0  0  0  0
   -2.9112   -1.0132   -0.6873 H   0  0  0  0  0  0  0  0  0  0  0  0
   -4.2016    1.0718    1.0368 H   0  0  0  0  0  0  0  0  0  0  0  0
   -4.9075    0.3660   -1.8644 H   0  0  0  0  0  0  0  0  0  0  0  0
   -5.8026    1.5002   -0.8276 H   0  0  0  0  0  0  0  0  0  0  0  0
   -4.1403    1.8752   -1.3239 H   0  0  0  0  0  0  0  0  0  0  0  0
   -6.4479   -0.4633    1.2497 N   0  0  0  0  0  0  0  0  0  0  0  0
   -7.4002   -1.4669    1.7107 C   0  0  0  0  0  0  0  0  0  0  0  0
   -6.6817    0.5204    1.3533 H   0  0  0  0  0  0  0  0  0  0  0  0
   -7.7217   -2.1017    0.8782 H   0  0  0  0  0  0  0  0  0  0  0  0
   -6.9483   -2.0988    2.4825 H   0  0  0  0  0  0  0  0  0  0  0  0
   -8.2843   -0.9823    2.1361 H   0  0  0  0  0  0  0  0  0  0  0  0
  1  2  2  0  0  0  0
  1  3  1  0  0  0  0
  1  7  1  0  0  0  0
  3  4  1  0  0  0  0
  3  5  1  0  0  0  0
  3  6  1  0  0  0  0
  7  8  1  0  0  0  0
  7 12  1  0  0  0  0
  8  9  1  0  0  0  0
  8 11  1  0  0  0  0
  8 13  1  0  0  0  0
  9 10  2  0  0  0  0
  9 17  1  0  0  0  0
 11 14  1  0  0  0  0
 11 15  1  0  0  0  0
 11 16  1  0  0  0  0
 17 18  1  0  0  0  0
 17 23  1  0  0  0  0
 18 19  1  0  0  0  0
 18 21  1  0  0  0  0
 18 24  1  0  0  0  0
 19 20  2  0  0  0  0
 19 28  1  0  0  0  0
 21 22  1  0  0  0  0
 21 25  1  0  0  0  0
 21 26  1  0  0  0  0
 22 27  1  0  0  0  0
 28 29  1  0  0  0  0
 28 33  1  0  0  0  0
 29 30  1  0  0  0  0
 29 32  1  0  0  0  0
 29 34  1  0  0  0  0
 30 31  2  0  0  0  0
 30 38  1  0  0  0  0
 32 35  1  0  0  0  0
 32 36  1  0  0  0  0
 32 37  1  0  0  0  0
 38 39  1  0  0  0  0
 38 40  1  0  0  0  0
 39 41  1  0  0  0  0
 39 42  1  0  0  0  0
 39 43  1  0  0  0  0
M  END
$$$$

  -OEChem-05262216003D

 43 42  0     1  0  0  0  0  0999 V2000
   -1.9536   -3.6034    1.6375 C   0  0  0  0  0  0  0  0  0  0  0  0
   -0.7415   -3.7488    1.5654 O   0  0  0  0  0  0  0  0  0  0  0  0
   -2.6264   -3.4051    2.9816 C   0  0  0  0  0  0  0  0  0  0  0  0
   -1.9436   -3.6797    3.7903 H   0  0  0  0  0  0  0  0  0  0  0  0
   -2.9169   -2.3582    3.1013 H   0  0  0  0  0  0  0  0  0  0  0  0
   -3.5203   -4.0302    3.0474 H   0  0  0  0  0  0  0  0  0  0  0  0
   -2.6880   -3.5146    0.4741 N   0  0  0  0  0  0  0  0  0  0  0  0
   -2.0925   -3.5555   -0.8716 C   0  0  2  0  0  0  0  0  0  0  0  0
   -1.4543   -2.1940   -1.2297 C   0  0  0  0  0  0  0  0  0  0  0  0
   -2.0242   -1.4109   -1.9771 O   0  0  0  0  0  0  0  0  0  0  0  0
   -3.1989   -3.9746   -1.8470 C   0  0  0  0  0  0  0  0  0  0  0  0
   -3.6559   -3.1896    0.5756 H   0  0  0  0  0  0  0  0  0  0  0  0
   -1.3036   -4.3147   -0.9117 H   0  0  0  0  0  0  0  0  0  0  0  0
   -4.0254   -3.2564   -1.8267 H   0  0  0  0  0  0  0  0  0  0  0  0
   -2.8069   -4.0227   -2.8678 H   0  0  0  0  0  0  0  0  0  0  0  0
   -3.5884   -4.9615   -1.5786 H   0  0  0  0  0  0  0  0  0  0  0  0
   -0.3625   -1.7491   -0.5069 N   0  0  0  0  0  0  0  0  0  0  0  0
   -0.2353   -0.4098    0.1240 C   0  0  2  0  0  0  0  0  0  0  0  0
   -1.5151    0.4595    0.2994 C   0  0  0  0  0  0  0  0  0  0  0  0
   -1.4430    1.6665    0.4985 O   0  0  0  0  0  0  0  0  0  0  0  0
    0.8240    0.3512   -0.6890 C   0  0  0  0  0  0  0  0  0  0  0  0
    2.4682   -0.4628   -0.5213 S   0  0  0  0  0  0  0  0  0  0  0  0
    0.0307   -2.4984    0.0696 H   0  0  0  0  0  0  0  0  0  0  0  0
    0.1499   -0.5546    1.1379 H   0  0  0  0  0  0  0  0  0  0  0  0
    0.5242    0.3869   -1.7418 H   0  0  0  0  0  0  0  0  0  0  0  0
    0.9111    1.3823   -0.3309 H   0  0  0  0  0  0  0  0  0  0  0  0
    3.2202    0.3315   -1.3139 H   0  0  0  0  0  0  0  0  0  0  0  0
   -2.7422   -0.1502    0.4785 N   0  0  0  0  0  0  0  0  0  0  0  0
   -4.0290    0.5135    0.6920 C   0  0  2  0  0  0  0  0  0  0  0  0
   -5.0826   -0.5004    1.1927 C   0  0  0  0  0  0  0  0  0  0  0  0
   -4.8822   -1.7118    1.0995 O   0  0  0  0  0  0  0  0  0  0  0  0
   -4.4868    1.1429   -0.6289 C   0  0  0  0  0  0  0  0  0  0  0  0
   -2.7882   -1.1170    0.1662 H   0  0  0  0  0  0  0  0  0  0  0  0
   -3.9159    1.2941    1.4515 H   0  0  0  0  0  0  0  0  0  0  0  0
   -4.5797    0.3759   -1.4048 H   0  0  0  0  0  0  0  0  0  0  0  0
   -5.4555    1.6358   -0.5064 H   0  0  0  0  0  0  0  0  0  0  0  0
   -3.7629    1.8904   -0.9677 H   0  0  0  0  0  0  0  0  0  0  0  0
   -6.2574   -0.0580    1.7711 N   0  0  0  0  0  0  0  0  0  0  0  0
   -7.2961   -0.9524    2.2686 C   0  0  0  0  0  0  0  0  0  0  0  0
   -6.4017    0.9463    1.8321 H   0  0  0  0  0  0  0  0  0  0  0  0
   -7.6924   -1.5694    1.4552 H   0  0  0  0  0  0  0  0  0  0  0  0
   -6.8967   -1.6101    3.0480 H   0  0  0  0  0  0  0  0  0  0  0  0
   -8.1206   -0.3735    2.6962 H   0  0  0  0  0  0  0  0  0  0  0  0
  1  2  2  0  0  0  0
  1  3  1  0  0  0  0
  1  7  1  0  0  0  0
  3  4  1  0  0  0  0
  3  5  1  0  0  0  0
  3  6  1  0  0  0  0
  7  8  1  0  0  0  0
  7 12  1  0  0  0  0
  8  9  1  0  0  0  0
  8 11  1  0  0  0  0
  8 13  1  0  0  0  0
  9 10  2  0  0  0  0
  9 17  1  0  0  0  0
 11 14  1  0  0  0  0
 11 15  1  0  0  0  0
 11 16  1  0  0  0  0
 17 18  1  0  0  0  0
 17 23  1  0  0  0  0
 18 19  1  0  0  0  0
 18 21  1  0  0  0  0
 18 24  1  0  0  0  0
 19 20  2  0  0  0  0
 19 28  1  0  0  0  0
 21 22  1  0  0  0  0
 21 25  1  0  0  0  0
 21 26  1  0  0  0  0
 22 27  1  0  0  0  0
 28 29  1  0  0  0  0
 28 33  1  0  0  0  0
 29 30  1  0  0  0  0
 29 32  1  0  0  0  0
 29 34  1  0  0  0  0
 30 31  2  0  0  0  0
 30 38  1  0  0  0  0
 32 35  1  0  0  0  0
 32 36  1  0  0  0  0
 32 37  1  0  0  0  0
 38 39  1  0  0  0  0
 38 40  1  0  0  0  0
 39 41  1  0  0  0  0
 39 42  1  0  0  0  0
 39 43  1  0  0  0  0
M  END
$$$$

  -OEChem-05262216003D

 43 42  0     1  0  0  0  0  0999 V2000
   -2.8848   -5.1615    1.1624 C   0  0  0  0  0  0  0  0  0  0  0  0
   -1.8991   -5.5840    1.7459 O   0  0  0  0  0  0  0  0  0  0  0  0
   -4.2734   -5.5244    1.6542 C   0  0  0  0  0  0  0  0  0  0  0  0
   -4.8120   -6.0761    0.8798 H   0  0  0  0  0  0  0  0  0  0  0  0
   -4.2051   -6.1489    2.5495 H   0  0  0  0  0  0  0  0  0  0  0  0
   -4.8306   -4.6169    1.9009 H   0  0  0  0  0  0  0  0  0  0  0  0
   -2.7426   -4.3454    0.0591 N   0  0  0  0  0  0  0  0  0  0  0  0
   -1.4744   -3.7203   -0.3430 C   0  0  2  0  0  0  0  0  0  0  0  0
   -1.6060   -2.1849   -0.4071 C   0  0  0  0  0  0  0  0  0  0  0  0
   -2.6904   -1.6949   -0.6878 O   0  0  0  0  0  0  0  0  0  0  0  0
   -1.0803   -4.2865   -1.7087 C   0  0  0  0  0  0  0  0  0  0  0  0
   -3.5926   -3.8949   -0.2771 H   0  0  0  0  0  0  0  0  0  0  0  0
   -0.6836   -3.9542    0.3775 H   0  0  0  0  0  0  0  0  0  0  0  0
   -1.8436   -4.0501   -2.4569 H   0  0  0  0  0  0  0  0  0  0  0  0
   -0.1264   -3.8642   -2.0388 H   0  0  0  0  0  0  0  0  0  0  0  0
   -0.9751   -5.3744   -1.6501 H   0  0  0  0  0  0  0  0  0  0  0  0
   -0.4946   -1.3885   -0.1871 N   0  0  0  0  0  0  0  0  0  0  0  0
   -0.3750    0.0892   -0.1445 C   0  0  2  0  0  0  0  0  0  0  0  0
   -1.6570    0.9618   -0.0138 C   0  0  0  0  0  0  0  0  0  0  0  0
   -1.7386    2.0500   -0.5740 O   0  0  0  0  0  0  0  0  0  0  0  0
    0.4270    0.4608   -1.4034 C   0  0  0  0  0  0  0  0  0  0  0  0
    2.1298   -0.2322   -1.2854 S   0  0  0  0  0  0  0  0  0  0  0  0
    0.3775   -1.8976   -0.0605 H   0  0  0  0  0  0  0  0  0  0  0  0
    0.2226    0.3516    0.7336 H   0  0  0  0  0  0  0  0  0  0  0  0
   -0.0824    0.0864   -2.2977 H   0  0  0  0  0  0  0  0  0  0  0  0
    0.5079    1.5490   -1.4969 H   0  0  0  0  0  0  0  0  0  0  0  0
    2.6801    0.2654   -2.4156 H   0  0  0  0  0  0  0  0  0  0  0  0
   -2.6417    0.6292    0.8967 N   0  0  0  0  0  0  0  0  0  0  0  0
   -3.8971    1.3645    1.0911 C   0  0  2  0  0  0  0  0  0  0  0  0
   -4.6125    0.9314    2.3888 C   0  0  0  0  0  0  0  0  0  0  0  0
   -4.3318   -0.1316    2.9332 O   0  0  0  0  0  0  0  0  0  0  0  0
   -4.8163    1.1134   -0.1116 C   0  0  0  0  0  0  0  0  0  0  0  0
   -2.6330   -0.3373    1.2216 H   0  0  0  0  0  0  0  0  0  0  0  0
   -3.6801    2.4346    1.1683 H   0  0  0  0  0  0  0  0  0  0  0  0
   -5.0267    0.0435   -0.2123 H   0  0  0  0  0  0  0  0  0  0  0  0
   -5.7640    1.6456    0.0102 H   0  0  0  0  0  0  0  0  0  0  0  0
   -4.3456    1.4613   -1.0361 H   0  0  0  0  0  0  0  0  0  0  0  0
   -5.5941    1.7322    2.9447 N   0  0  0  0  0  0  0  0  0  0  0  0
   -6.3168    1.3848    4.1624 C   0  0  0  0  0  0  0  0  0  0  0  0
   -5.8029    2.6114    2.4809 H   0  0  0  0  0  0  0  0  0  0  0  0
   -6.7983    0.4068    4.0574 H   0  0  0  0  0  0  0  0  0  0  0  0
   -5.6328    1.3506    5.0168 H   0  0  0  0  0  0  0  0  0  0  0  0
   -7.0925    2.1286    4.3683 H   0  0  0  0  0  0  0  0  0  0  0  0
  1  2  2  0  0  0  0
  1  3  1  0  0  0  0
  1  7  1  0  0  0  0
  3  4  1  0  0  0  0
  3  5  1  0  0  0  0
  3  6  1  0  0  0  0
  7  8  1  0  0  0  0
  7 12  1  0  0  0  0
  8  9  1  0  0  0  0
  8 11  1  0  0  0  0
  8 13  1  0  0  0  0
  9 10  2  0  0  0  0
  9 17  1  0  0  0  0
 11 14  1  0  0  0  0
 11 15  1  0  0  0  0
 11 16  1  0  0  0  0
 17 18  1  0  0  0  0
 17 23  1  0  0  0  0
 18 19  1  0  0  0  0
 18 21  1  0  0  0  0
 18 24  1  0  0  0  0
 19 20  2  0  0  0  0
 19 28  1  0  0  0  0
 21 22  1  0  0  0  0
 21 25  1  0  0  0  0
 21 26  1  0  0  0  0
 22 27  1  0  0  0  0
 28 29  1  0  0  0  0
 28 33  1  0  0  0  0
 29 30  1  0  0  0  0
 29 32  1  0  0  0  0
 29 34  1  0  0  0  0
 30 31  2  0  0  0  0
 30 38  1  0  0  0  0
 32 35  1  0  0  0  0
 32 36  1  0  0  0  0
 32 37  1  0  0  0  0
 38 39  1  0  0  0  0
 38 40  1  0  0  0  0
 39 41  1  0  0  0  0
 39 42  1  0  0  0  0
 39 43  1  0  0  0  0
M  END
$$$$

  -OEChem-05262216003D

 43 42  0     1  0  0  0  0  0999 V2000
   -3.0097   -5.3592    0.9315 C   0  0  0  0  0  0  0  0  0  0  0  0
   -2.0396   -5.9487    1.3807 O   0  0  0  0  0  0  0  0  0  0  0  0
   -4.4116   -5.8009    1.3061 C   0  0  0  0  0  0  0  0  0  0  0  0
   -4.9719   -6.0649    0.4060 H   0  0  0  0  0  0  0  0  0  0  0  0
   -4.3692   -6.6733    1.9642 H   0  0  0  0  0  0  0  0  0  0  0  0
   -4.9307   -4.9923    1.8265 H   0  0  0  0  0  0  0  0  0  0  0  0
   -2.8344   -4.2816    0.0899 N   0  0  0  0  0  0  0  0  0  0  0  0
   -1.5385   -3.6432   -0.1744 C   0  0  2  0  0  0  0  0  0  0  0  0
   -1.6661   -2.1064   -0.2264 C   0  0  0  0  0  0  0  0  0  0  0  0
   -2.7682   -1.6050   -0.3999 O   0  0  0  0  0  0  0  0  0  0  0  0
   -0.9986   -4.1864   -1.5001 C   0  0  0  0  0  0  0  0  0  0  0  0
   -3.6643   -3.7371   -0.1432 H   0  0  0  0  0  0  0  0  0  0  0  0
   -0.8317   -3.8841    0.6272 H   0  0  0  0  0  0  0  0  0  0  0  0
   -1.6855   -3.9491   -2.3190 H   0  0  0  0  0  0  0  0  0  0  0  0
   -0.0213   -3.7493   -1.7266 H   0  0  0  0  0  0  0  0  0  0  0  0
   -0.8851   -5.2739   -1.4438 H   0  0  0  0  0  0  0  0  0  0  0  0
   -0.5307   -1.3256   -0.0847 N   0  0  0  0  0  0  0  0  0  0  0  0
   -0.3890    0.1467   -0.1576 C   0  0  2  0  0  0  0  0  0  0  0  0
   -1.6718    1.0190   -0.0717 C   0  0  0  0  0  0  0  0  0  0  0  0
   -1.9071    1.8955   -0.8973 O   0  0  0  0  0  0  0  0  0  0  0  0
    0.3858    0.4168   -1.4569 C   0  0  0  0  0  0  0  0  0  0  0  0
    2.0825   -0.2885   -1.3300 S   0  0  0  0  0  0  0  0  0  0  0  0
    0.3434   -1.8450   -0.0394 H   0  0  0  0  0  0  0  0  0  0  0  0
    0.2286    0.4715    0.6850 H   0  0  0  0  0  0  0  0  0  0  0  0
   -0.1494   -0.0130   -2.3104 H   0  0  0  0  0  0  0  0  0  0  0  0
    0.4721    1.4955   -1.6260 H   0  0  0  0  0  0  0  0  0  0  0  0
    2.6048    0.1047   -2.5132 H   0  0  0  0  0  0  0  0  0  0  0  0
   -2.4715    0.9464    1.0533 N   0  0  0  0  0  0  0  0  0  0  0  0
   -3.7147    1.6995    1.2545 C   0  0  2  0  0  0  0  0  0  0  0  0
   -4.1530    1.6885    2.7346 C   0  0  0  0  0  0  0  0  0  0  0  0
   -3.6702    0.8807    3.5214 O   0  0  0  0  0  0  0  0  0  0  0  0
   -4.8146    1.0838    0.3806 C   0  0  0  0  0  0  0  0  0  0  0  0
   -2.3083    0.1611    1.6812 H   0  0  0  0  0  0  0  0  0  0  0  0
   -3.5566    2.7419    0.9598 H   0  0  0  0  0  0  0  0  0  0  0  0
   -4.9787    0.0371    0.6562 H   0  0  0  0  0  0  0  0  0  0  0  0
   -5.7549    1.6291    0.5026 H   0  0  0  0  0  0  0  0  0  0  0  0
   -4.5316    1.1209   -0.6759 H   0  0  0  0  0  0  0  0  0  0  0  0
   -5.1016    2.5863    3.1898 N   0  0  0  0  0  0  0  0  0  0  0  0
   -5.5708    2.6240    4.5698 C   0  0  0  0  0  0  0  0  0  0  0  0
   -5.4886    3.2431    2.5185 H   0  0  0  0  0  0  0  0  0  0  0  0
   -6.0280    1.6676    4.8454 H   0  0  0  0  0  0  0  0  0  0  0  0
   -4.7382    2.8266    5.2519 H   0  0  0  0  0  0  0  0  0  0  0  0
   -6.3187    3.4129    4.6941 H   0  0  0  0  0  0  0  0  0  0  0  0
  1  2  2  0  0  0  0
  1  3  1  0  0  0  0
  1  7  1  0  0  0  0
  3  4  1  0  0  0  0
  3  5  1  0  0  0  0
  3  6  1  0  0  0  0
  7  8  1  0  0  0  0
  7 12  1  0  0  0  0
  8  9  1  0  0  0  0
  8 11  1  0  0  0  0
  8 13  1  0  0  0  0
  9 10  2  0  0  0  0
  9 17  1  0  0  0  0
 11 14  1  0  0  0  0
 11 15  1  0  0  0  0
 11 16  1  0  0  0  0
 17 18  1  0  0  0  0
 17 23  1  0  0  0  0
 18 19  1  0  0  0  0
 18 21  1  0  0  0  0
 18 24  1  0  0  0  0
 19 20  2  0  0  0  0
 19 28  1  0  0  0  0
 21 22  1  0  0  0  0
 21 25  1  0  0  0  0
 21 26  1  0  0  0  0
 22 27  1  0  0  0  0
 28 29  1  0  0  0  0
 28 33  1  0  0  0  0
 29 30  1  0  0  0  0
 29 32  1  0  0  0  0
 29 34  1  0  0  0  0
 30 31  2  0  0  0  0
 30 38  1  0  0  0  0
 32 35  1  0  0  0  0
 32 36  1  0  0  0  0
 32 37  1  0  0  0  0
 38 39  1  0  0  0  0
 38 40  1  0  0  0  0
 39 41  1  0  0  0  0
 39 42  1  0  0  0  0
 39 43  1  0  0  0  0
M  END
$$$$

  -OEChem-05262216003D

 43 42  0     1  0  0  0  0  0999 V2000
   -3.0463   -5.4322    0.8274 C   0  0  0  0  0  0  0  0  0  0  0  0
   -2.0685   -6.0876    1.1512 O   0  0  0  0  0  0  0  0  0  0  0  0
   -4.4392   -5.9068    1.1959 C   0  0  0  0  0  0  0  0  0  0  0  0
   -5.0292   -6.0703    0.2909 H   0  0  0  0  0  0  0  0  0  0  0  0
   -4.3822   -6.8455    1.7540 H   0  0  0  0  0  0  0  0  0  0  0  0
   -4.9368   -5.1575    1.8165 H   0  0  0  0  0  0  0  0  0  0  0  0
   -2.8854   -4.2503    0.1366 N   0  0  0  0  0  0  0  0  0  0  0  0
   -1.5888   -3.6087   -0.1171 C   0  0  2  0  0  0  0  0  0  0  0  0
   -1.7003   -2.0694   -0.0899 C   0  0  0  0  0  0  0  0  0  0  0  0
   -2.8075   -1.5517   -0.1477 O   0  0  0  0  0  0  0  0  0  0  0  0
   -1.0740   -4.0861   -1.4782 C   0  0  0  0  0  0  0  0  0  0  0  0
   -3.7144   -3.6728   -0.0014 H   0  0  0  0  0  0  0  0  0  0  0  0
   -0.8738   -3.8980    0.6609 H   0  0  0  0  0  0  0  0  0  0  0  0
   -1.7696   -3.7976   -2.2728 H   0  0  0  0  0  0  0  0  0  0  0  0
   -0.0951   -3.6483   -1.6954 H   0  0  0  0  0  0  0  0  0  0  0  0
   -0.9719   -5.1761   -1.4831 H   0  0  0  0  0  0  0  0  0  0  0  0
   -0.5479   -1.3071    0.0209 N   0  0  0  0  0  0  0  0  0  0  0  0
   -0.3892    0.1580   -0.1153 C   0  0  2  0  0  0  0  0  0  0  0  0
   -1.6693    1.0331   -0.0678 C   0  0  0  0  0  0  0  0  0  0  0  0
   -2.0427    1.6775   -1.0431 O   0  0  0  0  0  0  0  0  0  0  0  0
    0.3787    0.3734   -1.4283 C   0  0  0  0  0  0  0  0  0  0  0  0
    2.0705   -0.3410   -1.2877 S   0  0  0  0  0  0  0  0  0  0  0  0
    0.3189   -1.8399    0.0009 H   0  0  0  0  0  0  0  0  0  0  0  0
    0.2355    0.5146    0.7090 H   0  0  0  0  0  0  0  0  0  0  0  0
   -0.1646   -0.0839   -2.2624 H   0  0  0  0  0  0  0  0  0  0  0  0
    0.4666    1.4454   -1.6366 H   0  0  0  0  0  0  0  0  0  0  0  0
    2.5969    0.0233   -2.4790 H   0  0  0  0  0  0  0  0  0  0  0  0
   -2.2931    1.2513    1.1459 N   0  0  0  0  0  0  0  0  0  0  0  0
   -3.5249    2.0284    1.3275 C   0  0  2  0  0  0  0  0  0  0  0  0
   -3.7380    2.4201    2.8048 C   0  0  0  0  0  0  0  0  0  0  0  0
   -3.1086    1.8569    3.6944 O   0  0  0  0  0  0  0  0  0  0  0  0
   -4.7111    1.1936    0.8284 C   0  0  0  0  0  0  0  0  0  0  0  0
   -1.9902    0.6823    1.9347 H   0  0  0  0  0  0  0  0  0  0  0  0
   -3.4601    2.9528    0.7442 H   0  0  0  0  0  0  0  0  0  0  0  0
   -4.7881    0.2618    1.3980 H   0  0  0  0  0  0  0  0  0  0  0  0
   -5.6469    1.7491    0.9373 H   0  0  0  0  0  0  0  0  0  0  0  0
   -4.5840    0.9407   -0.2291 H   0  0  0  0  0  0  0  0  0  0  0  0
   -4.6426    3.4106    3.1419 N   0  0  0  0  0  0  0  0  0  0  0  0
   -4.9046    3.8223    4.5159 C   0  0  0  0  0  0  0  0  0  0  0  0
   -5.1528    3.8587    2.3863 H   0  0  0  0  0  0  0  0  0  0  0  0
   -5.2984    2.9830    5.0988 H   0  0  0  0  0  0  0  0  0  0  0  0
   -3.9855    4.1806    4.9917 H   0  0  0  0  0  0  0  0  0  0  0  0
   -5.6405    4.6319    4.5347 H   0  0  0  0  0  0  0  0  0  0  0  0
  1  2  2  0  0  0  0
  1  3  1  0  0  0  0
  1  7  1  0  0  0  0
  3  4  1  0  0  0  0
  3  5  1  0  0  0  0
  3  6  1  0  0  0  0
  7  8  1  0  0  0  0
  7 12  1  0  0  0  0
  8  9  1  0  0  0  0
  8 11  1  0  0  0  0
  8 13  1  0  0  0  0
  9 10  2  0  0  0  0
  9 17  1  0  0  0  0
 11 14  1  0  0  0  0
 11 15  1  0  0  0  0
 11 16  1  0  0  0  0
 17 18  1  0  0  0  0
 17 23  1  0  0  0  0
 18 19  1  0  0  0  0
 18 21  1  0  0  0  0
 18 24  1  0  0  0  0
 19 20  2  0  0  0  0
 19 28  1  0  0  0  0
 21 22  1  0  0  0  0
 21 25  1  0  0  0  0
 21 26  1  0  0  0  0
 22 27  1  0  0  0  0
 28 29  1  0  0  0  0
 28 33  1  0  0  0  0
 29 30  1  0  0  0  0
 29 32  1  0  0  0  0
 29 34  1  0  0  0  0
 30 31  2  0  0  0  0
 30 38  1  0  0  0  0
 32 35  1  0  0  0  0
 32 36  1  0  0  0  0
 32 37  1  0  0  0  0
 38 39  1  0  0  0  0
 38 40  1  0  0  0  0
 39 41  1  0  0  0  0
 39 42  1  0  0  0  0
 39 43  1  0  0  0  0
M  END
$$$$

  -OEChem-05262216003D

 43 42  0     1  0  0  0  0  0999 V2000
   -3.0361   -5.4861    0.7735 C   0  0  0  0  0  0  0  0  0  0  0  0
   -2.0449   -6.1626    0.9982 O   0  0  0  0  0  0  0  0  0  0  0  0
   -4.4090   -5.9899    1.1762 C   0  0  0  0  0  0  0  0  0  0  0  0
   -5.0325   -6.1213    0.2888 H   0  0  0  0  0  0  0  0  0  0  0  0
   -4.3220   -6.9505    1.6918 H   0  0  0  0  0  0  0  0  0  0  0  0
   -4.8886   -5.2729    1.8469 H   0  0  0  0  0  0  0  0  0  0  0  0
   -2.9085   -4.2573    0.1622 N   0  0  0  0  0  0  0  0  0  0  0  0
   -1.6248   -3.5992   -0.1118 C   0  0  2  0  0  0  0  0  0  0  0  0
   -1.7234   -2.0667    0.0422 C   0  0  0  0  0  0  0  0  0  0  0  0
   -2.8274   -1.5422    0.1054 O   0  0  0  0  0  0  0  0  0  0  0  0
   -1.1928   -3.9648   -1.5349 C   0  0  0  0  0  0  0  0  0  0  0  0
   -3.7407   -3.6700    0.1136 H   0  0  0  0  0  0  0  0  0  0  0  0
   -0.8682   -3.9512    0.5978 H   0  0  0  0  0  0  0  0  0  0  0  0
   -1.9334   -3.6137   -2.2607 H   0  0  0  0  0  0  0  0  0  0  0  0
   -0.2274   -3.5091   -1.7746 H   0  0  0  0  0  0  0  0  0  0  0  0
   -1.0952   -5.0506   -1.6342 H   0  0  0  0  0  0  0  0  0  0  0  0
   -0.5609   -1.3195    0.1486 N   0  0  0  0  0  0  0  0  0  0  0  0
   -0.3936    0.1390   -0.0317 C   0  0  2  0  0  0  0  0  0  0  0  0
   -1.6684    1.0216   -0.0327 C   0  0  0  0  0  0  0  0  0  0  0  0
   -2.1525    1.4349   -1.0822 O   0  0  0  0  0  0  0  0  0  0  0  0
    0.3808    0.3135   -1.3463 C   0  0  0  0  0  0  0  0  0  0  0  0
    2.0688   -0.4030   -1.1781 S   0  0  0  0  0  0  0  0  0  0  0  0
    0.2970   -1.8609    0.0655 H   0  0  0  0  0  0  0  0  0  0  0  0
    0.2293    0.5168    0.7844 H   0  0  0  0  0  0  0  0  0  0  0  0
   -0.1592   -0.1677   -2.1693 H   0  0  0  0  0  0  0  0  0  0  0  0
    0.4693    1.3790   -1.5851 H   0  0  0  0  0  0  0  0  0  0  0  0
    2.5905   -0.1051   -2.3894 H   0  0  0  0  0  0  0  0  0  0  0  0
   -2.1357    1.5429    1.1586 N   0  0  0  0  0  0  0  0  0  0  0  0
   -3.3255    2.3914    1.2923 C   0  0  2  0  0  0  0  0  0  0  0  0
   -3.3415    3.1412    2.6414 C   0  0  0  0  0  0  0  0  0  0  0  0
   -2.5605    2.8295    3.5346 O   0  0  0  0  0  0  0  0  0  0  0  0
   -4.5729    1.5080    1.1619 C   0  0  0  0  0  0  0  0  0  0  0  0
   -1.7127    1.2049    2.0216 H   0  0  0  0  0  0  0  0  0  0  0  0
   -3.3268    3.1428    0.4957 H   0  0  0  0  0  0  0  0  0  0  0  0
   -4.5869    0.7482    1.9499 H   0  0  0  0  0  0  0  0  0  0  0  0
   -5.4824    2.1103    1.2404 H   0  0  0  0  0  0  0  0  0  0  0  0
   -4.5825    0.9987    0.1929 H   0  0  0  0  0  0  0  0  0  0  0  0
   -4.2341    4.1757    2.8555 N   0  0  0  0  0  0  0  0  0  0  0  0
   -4.2999    4.9331    4.0994 C   0  0  0  0  0  0  0  0  0  0  0  0
   -4.8647    4.4172    2.0966 H   0  0  0  0  0  0  0  0  0  0  0  0
   -4.4765    4.2632    4.9479 H   0  0  0  0  0  0  0  0  0  0  0  0
   -3.3632    5.4752    4.2669 H   0  0  0  0  0  0  0  0  0  0  0  0
   -5.1178    5.6588    4.0576 H   0  0  0  0  0  0  0  0  0  0  0  0
  1  2  2  0  0  0  0
  1  3  1  0  0  0  0
  1  7  1  0  0  0  0
  3  4  1  0  0  0  0
  3  5  1  0  0  0  0
  3  6  1  0  0  0  0
  7  8  1  0  0  0  0
  7 12  1  0  0  0  0
  8  9  1  0  0  0  0
  8 11  1  0  0  0  0
  8 13  1  0  0  0  0
  9 10  2  0  0  0  0
  9 17  1  0  0  0  0
 11 14  1  0  0  0  0
 11 15  1  0  0  0  0
 11 16  1  0  0  0  0
 17 18  1  0  0  0  0
 17 23  1  0  0  0  0
 18 19  1  0  0  0  0
 18 21  1  0  0  0  0
 18 24  1  0  0  0  0
 19 20  2  0  0  0  0
 19 28  1  0  0  0  0
 21 22  1  0  0  0  0
 21 25  1  0  0  0  0
 21 26  1  0  0  0  0
 22 27  1  0  0  0  0
 28 29  1  0  0  0  0
 28 33  1  0  0  0  0
 29 30  1  0  0  0  0
 29 32  1  0  0  0  0
 29 34  1  0  0  0  0
 30 31  2  0  0  0  0
 30 38  1  0  0  0  0
 32 35  1  0  0  0  0
 32 36  1  0  0  0  0
 32 37  1  0  0  0  0
 38 39  1  0  0  0  0
 38 40  1  0  0  0  0
 39 41  1  0  0  0  0
 39 42  1  0  0  0  0
 39 43  1  0  0  0  0
M  END
$$$$

  -OEChem-05262216003D

 43 42  0     1  0  0  0  0  0999 V2000
   -3.0240   -5.5252    0.7539 C   0  0  0  0  0  0  0  0  0  0  0  0
   -2.0265   -6.2082    0.9251 O   0  0  0  0  0  0  0  0  0  0  0  0
   -4.3849   -6.0465    1.1745 C   0  0  0  0  0  0  0  0  0  0  0  0
   -5.0382   -6.1292    0.3025 H   0  0  0  0  0  0  0  0  0  0  0  0
   -4.2850   -7.0333    1.6351 H   0  0  0  0  0  0  0  0  0  0  0  0
   -4.8385   -5.3647    1.8981 H   0  0  0  0  0  0  0  0  0  0  0  0
   -2.9134   -4.2722    0.1903 N   0  0  0  0  0  0  0  0  0  0  0  0
   -1.6376   -3.5969   -0.0787 C   0  0  2  0  0  0  0  0  0  0  0  0
   -1.7458   -2.0703    0.1225 C   0  0  0  0  0  0  0  0  0  0  0  0
   -2.8500   -1.5602    0.2607 O   0  0  0  0  0  0  0  0  0  0  0  0
   -1.2143   -3.9184   -1.5151 C   0  0  0  0  0  0  0  0  0  0  0  0
   -3.7466   -3.6840    0.1923 H   0  0  0  0  0  0  0  0  0  0  0  0
   -0.8722   -3.9635    0.6138 H   0  0  0  0  0  0  0  0  0  0  0  0
   -1.9606   -3.5479   -2.2251 H   0  0  0  0  0  0  0  0  0  0  0  0
   -0.2513   -3.4535   -1.7471 H   0  0  0  0  0  0  0  0  0  0  0  0
   -1.1147   -5.0005   -1.6473 H   0  0  0  0  0  0  0  0  0  0  0  0
   -0.5878   -1.3165    0.2280 N   0  0  0  0  0  0  0  0  0  0  0  0
   -0.4335    0.1399    0.0240 C   0  0  2  0  0  0  0  0  0  0  0  0
   -1.7123    1.0163   -0.0064 C   0  0  0  0  0  0  0  0  0  0  0  0
   -2.2951    1.2335   -1.0645 O   0  0  0  0  0  0  0  0  0  0  0  0
    0.3415    0.3034   -1.2911 C   0  0  0  0  0  0  0  0  0  0  0  0
    2.0368   -0.3924   -1.1114 S   0  0  0  0  0  0  0  0  0  0  0  0
    0.2695   -1.8514    0.1079 H   0  0  0  0  0  0  0  0  0  0  0  0
    0.1830    0.5329    0.8378 H   0  0  0  0  0  0  0  0  0  0  0  0
   -0.1926   -0.1961   -2.1070 H   0  0  0  0  0  0  0  0  0  0  0  0
    0.4169    1.3663   -1.5450 H   0  0  0  0  0  0  0  0  0  0  0  0
    2.5638   -0.0991   -2.3217 H   0  0  0  0  0  0  0  0  0  0  0  0
   -2.0284    1.8067    1.0828 N   0  0  0  0  0  0  0  0  0  0  0  0
   -3.1618    2.7374    1.1444 C   0  0  2  0  0  0  0  0  0  0  0  0
   -2.9951    3.7578    2.2901 C   0  0  0  0  0  0  0  0  0  0  0  0
   -2.1451    3.5815    3.1569 O   0  0  0  0  0  0  0  0  0  0  0  0
   -4.4508    1.9289    1.3371 C   0  0  0  0  0  0  0  0  0  0  0  0
   -1.5018    1.6664    1.9437 H   0  0  0  0  0  0  0  0  0  0  0  0
   -3.2224    3.2990    0.2064 H   0  0  0  0  0  0  0  0  0  0  0  0
   -4.4068    1.3577    2.2699 H   0  0  0  0  0  0  0  0  0  0  0  0
   -5.3200    2.5919    1.3735 H   0  0  0  0  0  0  0  0  0  0  0  0
   -4.5904    1.2271    0.5083 H   0  0  0  0  0  0  0  0  0  0  0  0
   -3.7964    4.8834    2.3490 N   0  0  0  0  0  0  0  0  0  0  0  0
   -3.7018    5.8782    3.4107 C   0  0  0  0  0  0  0  0  0  0  0  0
   -4.4938    5.0038    1.6202 H   0  0  0  0  0  0  0  0  0  0  0  0
   -3.9254    5.4238    4.3816 H   0  0  0  0  0  0  0  0  0  0  0  0
   -2.6947    6.3070    3.4459 H   0  0  0  0  0  0  0  0  0  0  0  0
   -4.4159    6.6885    3.2356 H   0  0  0  0  0  0  0  0  0  0  0  0
  1  2  2  0  0  0  0
  1  3  1  0  0  0  0
  1  7  1  0  0  0  0
  3  4  1  0  0  0  0
  3  5  1  0  0  0  0
  3  6  1  0  0  0  0
  7  8  1  0  0  0  0
  7 12  1  0  0  0  0
  8  9  1  0  0  0  0
  8 11  1  0  0  0  0
  8 13  1  0  0  0  0
  9 10  2  0  0  0  0
  9 17  1  0  0  0  0
 11 14  1  0  0  0  0
 11 15  1  0  0  0  0
 11 16  1  0  0  0  0
 17 18  1  0  0  0  0
 17 23  1  0  0  0  0
 18 19  1  0  0  0  0
 18 21  1  0  0  0  0
 18 24  1  0  0  0  0
 19 20  2  0  0  0  0
 19 28  1  0  0  0  0
 21 22  1  0  0  0  0
 21 25  1  0  0  0  0
 21 26  1  0  0  0  0
 22 27  1  0  0  0  0
 28 29  1  0  0  0  0
 28 33  1  0  0  0  0
 29 30  1  0  0  0  0
 29 32  1  0  0  0  0
 29 34  1  0  0  0  0
 30 31  2  0  0  0  0
 30 38  1  0  0  0  0
 32 35  1  0  0  0  0
 32 36  1  0  0  0  0
 32 37  1  0  0  0  0
 38 39  1  0  0  0  0
 38 40  1  0  0  0  0
 39 41  1  0  0  0  0
 39 42  1  0  0  0  0
 39 43  1  0  0  0  0
M  END
$$$$

  -OEChem-05262216003D

 43 42  0     1  0  0  0  0  0999 V2000
   -3.0000   -5.5617    0.7404 C   0  0  0  0  0  0  0  0  0  0  0  0
   -1.9974   -6.2500    0.8489 O   0  0  0  0  0  0  0  0  0  0  0  0
   -4.3497   -6.1067    1.1677 C   0  0  0  0  0  0  0  0  0  0  0  0
   -5.0326   -6.1220    0.3149 H   0  0  0  0  0  0  0  0  0  0  0  0
   -4.2413   -7.1250    1.5511 H   0  0  0  0  0  0  0  0  0  0  0  0
   -4.7743   -5.4778    1.9540 H   0  0  0  0  0  0  0  0  0  0  0  0
   -2.9055   -4.2798    0.2434 N   0  0  0  0  0  0  0  0  0  0  0  0
   -1.6387   -3.5856   -0.0205 C   0  0  2  0  0  0  0  0  0  0  0  0
   -1.7624   -2.0667    0.2240 C   0  0  0  0  0  0  0  0  0  0  0  0
   -2.8652   -1.5816    0.4399 O   0  0  0  0  0  0  0  0  0  0  0  0
   -1.2249   -3.8624   -1.4692 C   0  0  0  0  0  0  0  0  0  0  0  0
   -3.7386   -3.6939    0.3018 H   0  0  0  0  0  0  0  0  0  0  0  0
   -0.8637   -3.9631    0.6552 H   0  0  0  0  0  0  0  0  0  0  0  0
   -1.9793   -3.4773   -2.1630 H   0  0  0  0  0  0  0  0  0  0  0  0
   -0.2672   -3.3839   -1.6947 H   0  0  0  0  0  0  0  0  0  0  0  0
   -1.1184   -4.9396   -1.6334 H   0  0  0  0  0  0  0  0  0  0  0  0
   -0.6146   -1.2967    0.3159 N   0  0  0  0  0  0  0  0  0  0  0  0
   -0.4860    0.1569    0.0779 C   0  0  2  0  0  0  0  0  0  0  0  0
   -1.7726    1.0205    0.0213 C   0  0  0  0  0  0  0  0  0  0  0  0
   -2.4564    1.0464   -0.9974 O   0  0  0  0  0  0  0  0  0  0  0  0
    0.2768    0.3024   -1.2461 C   0  0  0  0  0  0  0  0  0  0  0  0
    1.9844   -0.3611   -1.0633 S   0  0  0  0  0  0  0  0  0  0  0  0
    0.2453   -1.8205    0.1690 H   0  0  0  0  0  0  0  0  0  0  0  0
    0.1284    0.5751    0.8804 H   0  0  0  0  0  0  0  0  0  0  0  0
   -0.2535   -0.2264   -2.0462 H   0  0  0  0  0  0  0  0  0  0  0  0
    0.3312    1.3599   -1.5263 H   0  0  0  0  0  0  0  0  0  0  0  0
    2.4961   -0.0870   -2.2847 H   0  0  0  0  0  0  0  0  0  0  0  0
   -1.9419    2.0500    0.9281 N   0  0  0  0  0  0  0  0  0  0  0  0
   -3.0170    3.0489    0.8838 C   0  0  2  0  0  0  0  0  0  0  0  0
   -2.6810    4.2739    1.7612 C   0  0  0  0  0  0  0  0  0  0  0  0
   -1.7378    4.2318    2.5446 O   0  0  0  0  0  0  0  0  0  0  0  0
   -4.3198    2.3943    1.3608 C   0  0  0  0  0  0  0  0  0  0  0  0
   -1.3062    2.0972    1.7232 H   0  0  0  0  0  0  0  0  0  0  0  0
   -3.1439    3.4026   -0.1449 H   0  0  0  0  0  0  0  0  0  0  0  0
   -4.2133    2.0366    2.3899 H   0  0  0  0  0  0  0  0  0  0  0  0
   -5.1472    3.1089    1.3233 H   0  0  0  0  0  0  0  0  0  0  0  0
   -4.5755    1.5420    0.7231 H   0  0  0  0  0  0  0  0  0  0  0  0
   -3.4305    5.4324    1.6677 N   0  0  0  0  0  0  0  0  0  0  0  0
   -3.1792    6.6171    2.4797 C   0  0  0  0  0  0  0  0  0  0  0  0
   -4.2129    5.4355    1.0199 H   0  0  0  0  0  0  0  0  0  0  0  0
   -3.3310    6.3928    3.5408 H   0  0  0  0  0  0  0  0  0  0  0  0
   -2.1522    6.9700    2.3376 H   0  0  0  0  0  0  0  0  0  0  0  0
   -3.8620    7.4234    2.1948 H   0  0  0  0  0  0  0  0  0  0  0  0
  1  2  2  0  0  0  0
  1  3  1  0  0  0  0
  1  7  1  0  0  0  0
  3  4  1  0  0  0  0
  3  5  1  0  0  0  0
  3  6  1  0  0  0  0
  7  8  1  0  0  0  0
  7 12  1  0  0  0  0
  8  9  1  0  0  0  0
  8 11  1  0  0  0  0
  8 13  1  0  0  0  0
  9 10  2  0  0  0  0
  9 17  1  0  0  0  0
 11 14  1  0  0  0  0
 11 15  1  0  0  0  0
 11 16  1  0  0  0  0
 17 18  1  0  0  0  0
 17 23  1  0  0  0  0
 18 19  1  0  0  0  0
 18 21  1  0  0  0  0
 18 24  1  0  0  0  0
 19 20  2  0  0  0  0
 19 28  1  0  0  0  0
 21 22  1  0  0  0  0
 21 25  1  0  0  0  0
 21 26  1  0  0  0  0
 22 27  1  0  0  0  0
 28 29  1  0  0  0  0
 28 33  1  0  0  0  0
 29 30  1  0  0  0  0
 29 32  1  0  0  0  0
 29 34  1  0  0  0  0
 30 31  2  0  0  0  0
 30 38  1  0  0  0  0
 32 35  1  0  0  0  0
 32 36  1  0  0  0  0
 32 37  1  0  0  0  0
 38 39  1  0  0  0  0
 38 40  1  0  0  0  0
 39 41  1  0  0  0  0
 39 42  1  0  0  0  0
 39 43  1  0  0  0  0
M  END
$$$$

  -OEChem-05262216003D

 43 42  0     1  0  0  0  0  0999 V2000
   -2.9352   -5.6089    0.6993 C   0  0  0  0  0  0  0  0  0  0  0  0
   -1.9164   -6.2821    0.7189 O   0  0  0  0  0  0  0  0  0  0  0  0
   -4.2489   -6.2002    1.1752 C   0  0  0  0  0  0  0  0  0  0  0  0
   -4.9836   -6.1782    0.3666 H   0  0  0  0  0  0  0  0  0  0  0  0
   -4.1036   -7.2370    1.4913 H   0  0  0  0  0  0  0  0  0  0  0  0
   -4.6315   -5.6241    2.0214 H   0  0  0  0  0  0  0  0  0  0  0  0
   -2.8913   -4.3013    0.2651 N   0  0  0  0  0  0  0  0  0  0  0  0
   -1.6516   -3.5640   -0.0111 C   0  0  2  0  0  0  0  0  0  0  0  0
   -1.7870   -2.0688    0.3488 C   0  0  0  0  0  0  0  0  0  0  0  0
   -2.8777   -1.6274    0.6865 O   0  0  0  0  0  0  0  0  0  0  0  0
   -1.3100   -3.7271   -1.4952 C   0  0  0  0  0  0  0  0  0  0  0  0
   -3.7289   -3.7362    0.4067 H   0  0  0  0  0  0  0  0  0  0  0  0
   -0.8354   -3.9728    0.5942 H   0  0  0  0  0  0  0  0  0  0  0  0
   -2.1089   -3.3124   -2.1185 H   0  0  0  0  0  0  0  0  0  0  0  0
   -0.3761   -3.2100   -1.7351 H   0  0  0  0  0  0  0  0  0  0  0  0
   -1.1896   -4.7869   -1.7418 H   0  0  0  0  0  0  0  0  0  0  0  0
   -0.6516   -1.2820    0.4446 N   0  0  0  0  0  0  0  0  0  0  0  0
   -0.5547    0.1725    0.1944 C   0  0  2  0  0  0  0  0  0  0  0  0
   -1.8505    1.0204    0.1170 C   0  0  0  0  0  0  0  0  0  0  0  0
   -2.6192    0.8790   -0.8290 O   0  0  0  0  0  0  0  0  0  0  0  0
    0.2009    0.3262   -1.1320 C   0  0  0  0  0  0  0  0  0  0  0  0
    1.9232   -0.2972   -0.9523 S   0  0  0  0  0  0  0  0  0  0  0  0
    0.2084   -1.7886    0.2472 H   0  0  0  0  0  0  0  0  0  0  0  0
    0.0487    0.6072    0.9966 H   0  0  0  0  0  0  0  0  0  0  0  0
   -0.3200   -0.2182   -1.9273 H   0  0  0  0  0  0  0  0  0  0  0  0
    0.2314    1.3829   -1.4192 H   0  0  0  0  0  0  0  0  0  0  0  0
    2.4271   -0.0149   -2.1748 H   0  0  0  0  0  0  0  0  0  0  0  0
   -1.9053    2.2293    0.7872 N   0  0  0  0  0  0  0  0  0  0  0  0
   -2.9159    3.2733    0.5723 C   0  0  2  0  0  0  0  0  0  0  0  0
   -2.4276    4.6418    1.0930 C   0  0  0  0  0  0  0  0  0  0  0  0
   -1.3995    4.7166    1.7583 O   0  0  0  0  0  0  0  0  0  0  0  0
   -4.2119    2.8583    1.2792 C   0  0  0  0  0  0  0  0  0  0  0  0
   -1.1672    2.4398    1.4584 H   0  0  0  0  0  0  0  0  0  0  0  0
   -3.1082    3.3804   -0.5003 H   0  0  0  0  0  0  0  0  0  0  0  0
   -4.0426    2.7461    2.3548 H   0  0  0  0  0  0  0  0  0  0  0  0
   -4.9928    3.6086    1.1247 H   0  0  0  0  0  0  0  0  0  0  0  0
   -4.5730    1.9032    0.8838 H   0  0  0  0  0  0  0  0  0  0  0  0
   -3.1273    5.7975    0.7976 N   0  0  0  0  0  0  0  0  0  0  0  0
   -2.7180    7.1197    1.2563 C   0  0  0  0  0  0  0  0  0  0  0  0
   -3.9750    5.7071    0.2447 H   0  0  0  0  0  0  0  0  0  0  0  0
   -2.7095    7.1593    2.3507 H   0  0  0  0  0  0  0  0  0  0  0  0
   -1.7154    7.3605    0.8871 H   0  0  0  0  0  0  0  0  0  0  0  0
   -3.4129    7.8804    0.8879 H   0  0  0  0  0  0  0  0  0  0  0  0
  1  2  2  0  0  0  0
  1  3  1  0  0  0  0
  1  7  1  0  0  0  0
  3  4  1  0  0  0  0
  3  5  1  0  0  0  0
  3  6  1  0  0  0  0
  7  8  1  0  0  0  0
  7 12  1  0  0  0  0
  8  9  1  0  0  0  0
  8 11  1  0  0  0  0
  8 13  1  0  0  0  0
  9 10  2  0  0  0  0
  9 17  1  0  0  0  0
 11 14  1  0  0  0  0
 11 15  1  0  0  0  0
 11 16  1  0  0  0  0
 17 18  1  0  0  0  0
 17 23  1  0  0  0  0
 18 19  1  0  0  0  0
 18 21  1  0  0  0  0
 18 24  1  0  0  0  0
 19 20  2  0  0  0  0
 19 28  1  0  0  0  0
 21 22  1  0  0  0  0
 21 25  1  0  0  0  0
 21 26  1  0  0  0  0
 22 27  1  0  0  0  0
 28 29  1  0  0  0  0
 28 33  1  0  0  0  0
 29 30  1  0  0  0  0
 29 32  1  0  0  0  0
 29 34  1  0  0  0  0
 30 31  2  0  0  0  0
 30 38  1  0  0  0  0
 32 35  1  0  0  0  0
 32 36  1  0  0  0  0
 32 37  1  0  0  0  0
 38 39  1  0  0  0  0
 38 40  1  0  0  0  0
 39 41  1  0  0  0  0
 39 42  1  0  0  0  0
 39 43  1  0  0  0  0
M  END
$$$$

  -OEChem-05262216003D

 43 42  0     1  0  0  0  0  0999 V2000
   -2.8597   -5.6353    0.6371 C   0  0  0  0  0  0  0  0  0  0  0  0
   -1.8309   -6.2796    0.5032 O   0  0  0  0  0  0  0  0  0  0  0  0
   -4.1138   -6.3037    1.1669 C   0  0  0  0  0  0  0  0  0  0  0  0
   -4.9274   -6.1958    0.4455 H   0  0  0  0  0  0  0  0  0  0  0  0
   -3.9308   -7.3683    1.3359 H   0  0  0  0  0  0  0  0  0  0  0  0
   -4.4103   -5.8431    2.1125 H   0  0  0  0  0  0  0  0  0  0  0  0
   -2.8779   -4.2921    0.3298 N   0  0  0  0  0  0  0  0  0  0  0  0
   -1.6827   -3.5030    0.0078 C   0  0  2  0  0  0  0  0  0  0  0  0
   -1.8219   -2.0384    0.4749 C   0  0  0  0  0  0  0  0  0  0  0  0
   -2.8875   -1.6485    0.9349 O   0  0  0  0  0  0  0  0  0  0  0  0
   -1.4559   -3.5587   -1.5058 C   0  0  0  0  0  0  0  0  0  0  0  0
   -3.7113   -3.7641    0.5895 H   0  0  0  0  0  0  0  0  0  0  0  0
   -0.8134   -3.9282    0.5208 H   0  0  0  0  0  0  0  0  0  0  0  0
   -2.3101   -3.1241   -2.0353 H   0  0  0  0  0  0  0  0  0  0  0  0
   -0.5547   -3.0030   -1.7815 H   0  0  0  0  0  0  0  0  0  0  0  0
   -1.3330   -4.5961   -1.8329 H   0  0  0  0  0  0  0  0  0  0  0  0
   -0.6972   -1.2372    0.5671 N   0  0  0  0  0  0  0  0  0  0  0  0
   -0.6243    0.2152    0.2956 C   0  0  2  0  0  0  0  0  0  0  0  0
   -1.9225    1.0568    0.1934 C   0  0  0  0  0  0  0  0  0  0  0  0
   -2.7849    0.7658   -0.6283 O   0  0  0  0  0  0  0  0  0  0  0  0
    0.1290    0.3584   -1.0337 C   0  0  0  0  0  0  0  0  0  0  0  0
    1.8604   -0.2362   -0.8414 S   0  0  0  0  0  0  0  0  0  0  0  0
    0.1602   -1.7306    0.3294 H   0  0  0  0  0  0  0  0  0  0  0  0
   -0.0304    0.6681    1.0946 H   0  0  0  0  0  0  0  0  0  0  0  0
   -0.3845   -0.2053   -1.8208 H   0  0  0  0  0  0  0  0  0  0  0  0
    0.1472    1.4108   -1.3381 H   0  0  0  0  0  0  0  0  0  0  0  0
    2.3698    0.0503   -2.0608 H   0  0  0  0  0  0  0  0  0  0  0  0
   -1.8720    2.3873    0.5717 N   0  0  0  0  0  0  0  0  0  0  0  0
   -2.8510    3.4178    0.2002 C   0  0  2  0  0  0  0  0  0  0  0  0
   -2.2399    4.8312    0.3068 C   0  0  0  0  0  0  0  0  0  0  0  0
   -1.1305    4.9854    0.8076 O   0  0  0  0  0  0  0  0  0  0  0  0
   -4.0736    3.2841    1.1155 C   0  0  0  0  0  0  0  0  0  0  0  0
   -1.0438    2.7100    1.0713 H   0  0  0  0  0  0  0  0  0  0  0  0
   -3.1602    3.2741   -0.8404 H   0  0  0  0  0  0  0  0  0  0  0  0
   -3.7865    3.4349    2.1609 H   0  0  0  0  0  0  0  0  0  0  0  0
   -4.8364    4.0226    0.8522 H   0  0  0  0  0  0  0  0  0  0  0  0
   -4.5149    2.2868    1.0172 H   0  0  0  0  0  0  0  0  0  0  0  0
   -2.9210    5.9319   -0.1793 N   0  0  0  0  0  0  0  0  0  0  0  0
   -2.4047    7.2930   -0.0954 C   0  0  0  0  0  0  0  0  0  0  0  0
   -3.8417    5.7774   -0.5800 H   0  0  0  0  0  0  0  0  0  0  0  0
   -2.2677    7.5863    0.9509 H   0  0  0  0  0  0  0  0  0  0  0  0
   -1.4424    7.3717   -0.6125 H   0  0  0  0  0  0  0  0  0  0  0  0
   -3.1048    7.9931   -0.5615 H   0  0  0  0  0  0  0  0  0  0  0  0
  1  2  2  0  0  0  0
  1  3  1  0  0  0  0
  1  7  1  0  0  0  0
  3  4  1  0  0  0  0
  3  5  1  0  0  0  0
  3  6  1  0  0  0  0
  7  8  1  0  0  0  0
  7 12  1  0  0  0  0
  8  9  1  0  0  0  0
  8 11  1  0  0  0  0
  8 13  1  0  0  0  0
  9 10  2  0  0  0  0
  9 17  1  0  0  0  0
 11 14  1  0  0  0  0
 11 15  1  0  0  0  0
 11 16  1  0  0  0  0
 17 18  1  0  0  0  0
 17 23  1  0  0  0  0
 18 19  1  0  0  0  0
 18 21  1  0  0  0  0
 18 24  1  0  0  0  0
 19 20  2  0  0  0  0
 19 28  1  0  0  0  0
 21 22  1  0  0  0  0
 21 25  1  0  0  0  0
 21 26  1  0  0  0  0
 22 27  1  0  0  0  0
 28 29  1  0  0  0  0
 28 33  1  0  0  0  0
 29 30  1  0  0  0  0
 29 32  1  0  0  0  0
 29 34  1  0  0  0  0
 30 31  2  0  0  0  0
 30 38  1  0  0  0  0
 32 35  1  0  0  0  0
 32 36  1  0  0  0  0
 32 37  1  0  0  0  0
 38 39  1  0  0  0  0
 38 40  1  0  0  0  0
 39 41  1  0  0  0  0
 39 42  1  0  0  0  0
 39 43  1  0  0  0  0
M  END
$$$$

  -OEChem-05262216003D

 43 42  0     1  0  0  0  0  0999 V2000
   -3.5750   -4.6857    0.9701 C   0  0  0  0  0  0  0  0  0  0  0  0
   -2.9397   -5.0571    1.9451 O   0  0  0  0  0  0  0  0  0  0  0  0
   -5.0601   -4.9797    0.8724 C   0  0  0  0  0  0  0  0  0  0  0  0
   -5.2607   -5.6011   -0.0036 H   0  0  0  0  0  0  0  0  0  0  0  0
   -5.3986   -5.5108    1.7664 H   0  0  0  0  0  0  0  0  0  0  0  0
   -5.6203   -4.0455    0.7844 H   0  0  0  0  0  0  0  0  0  0  0  0
   -2.9457   -3.9928   -0.0416 N   0  0  0  0  0  0  0  0  0  0  0  0
   -1.5736   -3.4781    0.0413 C   0  0  2  0  0  0  0  0  0  0  0  0
   -1.4538   -2.1102   -0.6592 C   0  0  0  0  0  0  0  0  0  0  0  0
   -2.2165   -1.8306   -1.5770 O   0  0  0  0  0  0  0  0  0  0  0  0
   -0.6327   -4.5018   -0.6007 C   0  0  0  0  0  0  0  0  0  0  0  0
   -3.5377   -3.5849   -0.7655 H   0  0  0  0  0  0  0  0  0  0  0  0
   -1.2922   -3.3339    1.0899 H   0  0  0  0  0  0  0  0  0  0  0  0
   -0.8911   -4.6501   -1.6542 H   0  0  0  0  0  0  0  0  0  0  0  0
    0.4054   -4.1610   -0.5415 H   0  0  0  0  0  0  0  0  0  0  0  0
   -0.7107   -5.4636   -0.0837 H   0  0  0  0  0  0  0  0  0  0  0  0
   -0.3599   -1.2966   -0.4265 N   0  0  0  0  0  0  0  0  0  0  0  0
   -0.3705    0.1847   -0.3869 C   0  0  2  0  0  0  0  0  0  0  0  0
   -1.6976    0.9874   -0.2580 C   0  0  0  0  0  0  0  0  0  0  0  0
   -2.7865    0.4720   -0.0467 O   0  0  0  0  0  0  0  0  0  0  0  0
    0.3545    0.6412   -1.6611 C   0  0  0  0  0  0  0  0  0  0  0  0
    2.1206    0.1203   -1.6056 S   0  0  0  0  0  0  0  0  0  0  0  0
    0.3434   -1.7280    0.1649 H   0  0  0  0  0  0  0  0  0  0  0  0
    0.2253    0.4885    0.4789 H   0  0  0  0  0  0  0  0  0  0  0  0
   -0.1383    0.2051   -2.5377 H   0  0  0  0  0  0  0  0  0  0  0  0
    0.3113    1.7305   -1.7622 H   0  0  0  0  0  0  0  0  0  0  0  0
    2.5446    0.5269   -2.8232 H   0  0  0  0  0  0  0  0  0  0  0  0
   -1.5997    2.3259    0.0830 N   0  0  0  0  0  0  0  0  0  0  0  0
   -2.7473    3.2267    0.2592 C   0  0  2  0  0  0  0  0  0  0  0  0
   -2.4532    4.6217   -0.3312 C   0  0  0  0  0  0  0  0  0  0  0  0
   -1.3097    4.9164   -0.6645 O   0  0  0  0  0  0  0  0  0  0  0  0
   -3.0572    3.3217    1.7556 C   0  0  0  0  0  0  0  0  0  0  0  0
   -0.7075    2.7835   -0.1023 H   0  0  0  0  0  0  0  0  0  0  0  0
   -3.6228    2.8296   -0.2660 H   0  0  0  0  0  0  0  0  0  0  0  0
   -2.2017    3.7367    2.2982 H   0  0  0  0  0  0  0  0  0  0  0  0
   -3.9262    3.9632    1.9295 H   0  0  0  0  0  0  0  0  0  0  0  0
   -3.2770    2.3278    2.1589 H   0  0  0  0  0  0  0  0  0  0  0  0
   -3.4706    5.5412   -0.5060 N   0  0  0  0  0  0  0  0  0  0  0  0
   -3.2645    6.8648   -1.0815 C   0  0  0  0  0  0  0  0  0  0  0  0
   -4.4115    5.2575   -0.2484 H   0  0  0  0  0  0  0  0  0  0  0  0
   -2.5576    7.4413   -0.4754 H   0  0  0  0  0  0  0  0  0  0  0  0
   -2.8707    6.7833   -2.1001 H   0  0  0  0  0  0  0  0  0  0  0  0
   -4.2115    7.4119   -1.1202 H   0  0  0  0  0  0  0  0  0  0  0  0
  1  2  2  0  0  0  0
  1  3  1  0  0  0  0
  1  7  1  0  0  0  0
  3  4  1  0  0  0  0
  3  5  1  0  0  0  0
  3  6  1  0  0  0  0
  7  8  1  0  0  0  0
  7 12  1  0  0  0  0
  8  9  1  0  0  0  0
  8 11  1  0  0  0  0
  8 13  1  0  0  0  0
  9 10  2  0  0  0  0
  9 17  1  0  0  0  0
 11 14  1  0  0  0  0
 11 15  1  0  0  0  0
 11 16  1  0  0  0  0
 17 18  1  0  0  0  0
 17 23  1  0  0  0  0
 18 19  1  0  0  0  0
 18 21  1  0  0  0  0
 18 24  1  0  0  0  0
 19 20  2  0  0  0  0
 19 28  1  0  0  0  0
 21 22  1  0  0  0  0
 21 25  1  0  0  0  0
 21 26  1  0  0  0  0
 22 27  1  0  0  0  0
 28 29  1  0  0  0  0
 28 33  1  0  0  0  0
 29 30  1  0  0  0  0
 29 32  1  0  0  0  0
 29 34  1  0  0  0  0
 30 31  2  0  0  0  0
 30 38  1  0  0  0  0
 32 35  1  0  0  0  0
 32 36  1  0  0  0  0
 32 37  1  0  0  0  0
 38 39  1  0  0  0  0
 38 40  1  0  0  0  0
 39 41  1  0  0  0  0
 39 42  1  0  0  0  0
 39 43  1  0  0  0  0
M  END
$$$$

  -OEChem-05262216003D

 43 42  0     1  0  0  0  0  0999 V2000
   -3.6259   -4.5895    0.9460 C   0  0  0  0  0  0  0  0  0  0  0  0
   -2.9454   -5.1505    1.7909 O   0  0  0  0  0  0  0  0  0  0  0  0
   -5.1329   -4.7607    0.9449 C   0  0  0  0  0  0  0  0  0  0  0  0
   -5.4589   -5.1826   -0.0086 H   0  0  0  0  0  0  0  0  0  0  0  0
   -5.4382   -5.4338    1.7508 H   0  0  0  0  0  0  0  0  0  0  0  0
   -5.6164   -3.7920    1.0922 H   0  0  0  0  0  0  0  0  0  0  0  0
   -3.0283   -3.7930   -0.0069 N   0  0  0  0  0  0  0  0  0  0  0  0
   -1.6148   -3.3988    0.0150 C   0  0  2  0  0  0  0  0  0  0  0  0
   -1.4221   -1.9852   -0.5708 C   0  0  0  0  0  0  0  0  0  0  0  0
   -2.2587   -1.5220   -1.3409 O   0  0  0  0  0  0  0  0  0  0  0  0
   -0.8090   -4.4313   -0.7786 C   0  0  0  0  0  0  0  0  0  0  0  0
   -3.6419   -3.2417   -0.6067 H   0  0  0  0  0  0  0  0  0  0  0  0
   -1.2548   -3.3748    1.0491 H   0  0  0  0  0  0  0  0  0  0  0  0
   -1.1553   -4.4704   -1.8163 H   0  0  0  0  0  0  0  0  0  0  0  0
    0.2549   -4.1758   -0.7754 H   0  0  0  0  0  0  0  0  0  0  0  0
   -0.9261   -5.4247   -0.3339 H   0  0  0  0  0  0  0  0  0  0  0  0
   -0.2543   -1.2786   -0.3358 N   0  0  0  0  0  0  0  0  0  0  0  0
   -0.1609    0.1988   -0.3281 C   0  0  2  0  0  0  0  0  0  0  0  0
   -1.4136    1.0046    0.1186 C   0  0  0  0  0  0  0  0  0  0  0  0
   -2.2937    0.4953    0.8035 O   0  0  0  0  0  0  0  0  0  0  0  0
    0.2590    0.6214   -1.7466 C   0  0  0  0  0  0  0  0  0  0  0  0
    1.9506   -0.0029   -2.1202 S   0  0  0  0  0  0  0  0  0  0  0  0
    0.4225   -1.7677    0.2413 H   0  0  0  0  0  0  0  0  0  0  0  0
    0.6339    0.4859    0.3669 H   0  0  0  0  0  0  0  0  0  0  0  0
   -0.4564    0.2254   -2.4762 H   0  0  0  0  0  0  0  0  0  0  0  0
    0.2618    1.7112   -1.8430 H   0  0  0  0  0  0  0  0  0  0  0  0
    2.0891    0.3955   -3.4044 H   0  0  0  0  0  0  0  0  0  0  0  0
   -1.3547    2.3873    0.1313 N   0  0  0  0  0  0  0  0  0  0  0  0
   -2.4677    3.2607    0.5263 C   0  0  2  0  0  0  0  0  0  0  0  0
   -2.5331    4.5107   -0.3768 C   0  0  0  0  0  0  0  0  0  0  0  0
   -1.6021    4.7675   -1.1341 O   0  0  0  0  0  0  0  0  0  0  0  0
   -2.2770    3.6560    1.9935 C   0  0  0  0  0  0  0  0  0  0  0  0
   -0.6408    2.8235   -0.4511 H   0  0  0  0  0  0  0  0  0  0  0  0
   -3.4189    2.7288    0.4165 H   0  0  0  0  0  0  0  0  0  0  0  0
   -1.3360    4.1996    2.1240 H   0  0  0  0  0  0  0  0  0  0  0  0
   -3.0992    4.2943    2.3306 H   0  0  0  0  0  0  0  0  0  0  0  0
   -2.2542    2.7625    2.6258 H   0  0  0  0  0  0  0  0  0  0  0  0
   -3.6395    5.3397   -0.3561 N   0  0  0  0  0  0  0  0  0  0  0  0
   -3.7765    6.5116   -1.2129 C   0  0  0  0  0  0  0  0  0  0  0  0
   -4.4112    5.0812    0.2521 H   0  0  0  0  0  0  0  0  0  0  0  0
   -2.9419    7.2027   -1.0543 H   0  0  0  0  0  0  0  0  0  0  0  0
   -3.7934    6.2154   -2.2670 H   0  0  0  0  0  0  0  0  0  0  0  0
   -4.7078    7.0395   -0.9865 H   0  0  0  0  0  0  0  0  0  0  0  0
  1  2  2  0  0  0  0
  1  3  1  0  0  0  0
  1  7  1  0  0  0  0
  3  4  1  0  0  0  0
  3  5  1  0  0  0  0
  3  6  1  0  0  0  0
  7  8  1  0  0  0  0
  7 12  1  0  0  0  0
  8  9  1  0  0  0  0
  8 11  1  0  0  0  0
  8 13  1  0  0  0  0
  9 10  2  0  0  0  0
  9 17  1  0  0  0  0
 11 14  1  0  0  0  0
 11 15  1  0  0  0  0
 11 16  1  0  0  0  0
 17 18  1  0  0  0  0
 17 23  1  0  0  0  0
 18 19  1  0  0  0  0
 18 21  1  0  0  0  0
 18 24  1  0  0  0  0
 19 20  2  0  0  0  0
 19 28  1  0  0  0  0
 21 22  1  0  0  0  0
 21 25  1  0  0  0  0
 21 26  1  0  0  0  0
 22 27  1  0  0  0  0
 28 29  1  0  0  0  0
 28 33  1  0  0  0  0
 29 30  1  0  0  0  0
 29 32  1  0  0  0  0
 29 34  1  0  0  0  0
 30 31  2  0  0  0  0
 30 38  1  0  0  0  0
 32 35  1  0  0  0  0
 32 36  1  0  0  0  0
 32 37  1  0  0  0  0
 38 39  1  0  0  0  0
 38 40  1  0  0  0  0
 39 41  1  0  0  0  0
 39 42  1  0  0  0  0
 39 43  1  0  0  0  0
M  END
$$$$

  -OEChem-05262216003D

 43 42  0     1  0  0  0  0  0999 V2000
   -3.6097   -4.6035    0.9401 C   0  0  0  0  0  0  0  0  0  0  0  0
   -2.9164   -5.1872    1.7588 O   0  0  0  0  0  0  0  0  0  0  0  0
   -5.1168   -4.7787    0.9539 C   0  0  0  0  0  0  0  0  0  0  0  0
   -5.4562   -5.1697   -0.0083 H   0  0  0  0  0  0  0  0  0  0  0  0
   -5.4082   -5.4787    1.7420 H   0  0  0  0  0  0  0  0  0  0  0  0
   -5.6012   -3.8168    1.1395 H   0  0  0  0  0  0  0  0  0  0  0  0
   -3.0265   -3.7755    0.0053 N   0  0  0  0  0  0  0  0  0  0  0  0
   -1.6142   -3.3762    0.0226 C   0  0  2  0  0  0  0  0  0  0  0  0
   -1.4323   -1.9435   -0.5193 C   0  0  0  0  0  0  0  0  0  0  0  0
   -2.2912   -1.4499   -1.2446 O   0  0  0  0  0  0  0  0  0  0  0  0
   -0.8149   -4.3774   -0.8166 C   0  0  0  0  0  0  0  0  0  0  0  0
   -3.6495   -3.2099   -0.5707 H   0  0  0  0  0  0  0  0  0  0  0  0
   -1.2407   -3.3857    1.0522 H   0  0  0  0  0  0  0  0  0  0  0  0
   -1.1760   -4.3848   -1.8502 H   0  0  0  0  0  0  0  0  0  0  0  0
    0.2472   -4.1145   -0.8206 H   0  0  0  0  0  0  0  0  0  0  0  0
   -0.9193   -5.3856   -0.4031 H   0  0  0  0  0  0  0  0  0  0  0  0
   -0.2519   -1.2546   -0.2953 N   0  0  0  0  0  0  0  0  0  0  0  0
   -0.1215    0.2190   -0.3260 C   0  0  2  0  0  0  0  0  0  0  0  0
   -1.3755    1.0365    0.0946 C   0  0  0  0  0  0  0  0  0  0  0  0
   -2.1435    0.6004    0.9456 O   0  0  0  0  0  0  0  0  0  0  0  0
    0.3254    0.5826   -1.7534 C   0  0  0  0  0  0  0  0  0  0  0  0
    2.0031   -0.1009   -2.0832 S   0  0  0  0  0  0  0  0  0  0  0  0
    0.4326   -1.7534    0.2643 H   0  0  0  0  0  0  0  0  0  0  0  0
    0.6698    0.5152    0.3688 H   0  0  0  0  0  0  0  0  0  0  0  0
   -0.3931    0.1848   -2.4788 H   0  0  0  0  0  0  0  0  0  0  0  0
    0.3672    1.6674   -1.8859 H   0  0  0  0  0  0  0  0  0  0  0  0
    2.1626    0.2383   -3.3815 H   0  0  0  0  0  0  0  0  0  0  0  0
   -1.4653    2.3874   -0.1918 N   0  0  0  0  0  0  0  0  0  0  0  0
   -2.6342    3.2202    0.1171 C   0  0  2  0  0  0  0  0  0  0  0  0
   -2.8593    4.2759   -0.9858 C   0  0  0  0  0  0  0  0  0  0  0  0
   -1.9885    4.4793   -1.8265 O   0  0  0  0  0  0  0  0  0  0  0  0
   -2.4138    3.8925    1.4755 C   0  0  0  0  0  0  0  0  0  0  0  0
   -0.8550    2.7459   -0.9250 H   0  0  0  0  0  0  0  0  0  0  0  0
   -3.5335    2.5962    0.1641 H   0  0  0  0  0  0  0  0  0  0  0  0
   -1.5244    4.5300    1.4476 H   0  0  0  0  0  0  0  0  0  0  0  0
   -3.2774    4.5082    1.7440 H   0  0  0  0  0  0  0  0  0  0  0  0
   -2.2760    3.1358    2.2545 H   0  0  0  0  0  0  0  0  0  0  0  0
   -4.0429    4.9873   -1.0496 N   0  0  0  0  0  0  0  0  0  0  0  0
   -4.3312    5.9682   -2.0891 C   0  0  0  0  0  0  0  0  0  0  0  0
   -4.7573    4.7767   -0.3586 H   0  0  0  0  0  0  0  0  0  0  0  0
   -3.5913    6.7755   -2.0711 H   0  0  0  0  0  0  0  0  0  0  0  0
   -4.3133    5.4960   -3.0771 H   0  0  0  0  0  0  0  0  0  0  0  0
   -5.3224    6.4049   -1.9328 H   0  0  0  0  0  0  0  0  0  0  0  0
  1  2  2  0  0  0  0
  1  3  1  0  0  0  0
  1  7  1  0  0  0  0
  3  4  1  0  0  0  0
  3  5  1  0  0  0  0
  3  6  1  0  0  0  0
  7  8  1  0  0  0  0
  7 12  1  0  0  0  0
  8  9  1  0  0  0  0
  8 11  1  0  0  0  0
  8 13  1  0  0  0  0
  9 10  2  0  0  0  0
  9 17  1  0  0  0  0
 11 14  1  0  0  0  0
 11 15  1  0  0  0  0
 11 16  1  0  0  0  0
 17 18  1  0  0  0  0
 17 23  1  0  0  0  0
 18 19  1  0  0  0  0
 18 21  1  0  0  0  0
 18 24  1  0  0  0  0
 19 20  2  0  0  0  0
 19 28  1  0  0  0  0
 21 22  1  0  0  0  0
 21 25  1  0  0  0  0
 21 26  1  0  0  0  0
 22 27  1  0  0  0  0
 28 29  1  0  0  0  0
 28 33  1  0  0  0  0
 29 30  1  0  0  0  0
 29 32  1  0  0  0  0
 29 34  1  0  0  0  0
 30 31  2  0  0  0  0
 30 38  1  0  0  0  0
 32 35  1  0  0  0  0
 32 36  1  0  0  0  0
 32 37  1  0  0  0  0
 38 39  1  0  0  0  0
 38 40  1  0  0  0  0
 39 41  1  0  0  0  0
 39 42  1  0  0  0  0
 39 43  1  0  0  0  0
M  END
$$$$

  -OEChem-05262216003D

 43 42  0     1  0  0  0  0  0999 V2000
   -3.6208   -4.6109    0.9114 C   0  0  0  0  0  0  0  0  0  0  0  0
   -2.9313   -5.2065    1.7243 O   0  0  0  0  0  0  0  0  0  0  0  0
   -5.1256   -4.8035    0.9015 C   0  0  0  0  0  0  0  0  0  0  0  0
   -5.4474   -5.1791   -0.0727 H   0  0  0  0  0  0  0  0  0  0  0  0
   -5.4185   -5.5229    1.6711 H   0  0  0  0  0  0  0  0  0  0  0  0
   -5.6246   -3.8519    1.1006 H   0  0  0  0  0  0  0  0  0  0  0  0
   -3.0346   -3.7558    0.0032 N   0  0  0  0  0  0  0  0  0  0  0  0
   -1.6250   -3.3480    0.0417 C   0  0  2  0  0  0  0  0  0  0  0  0
   -1.4464   -1.9051   -0.4739 C   0  0  0  0  0  0  0  0  0  0  0  0
   -2.3231   -1.3897   -1.1620 O   0  0  0  0  0  0  0  0  0  0  0  0
   -0.8123   -4.3297   -0.8078 C   0  0  0  0  0  0  0  0  0  0  0  0
   -3.6555   -3.1861   -0.5711 H   0  0  0  0  0  0  0  0  0  0  0  0
   -1.2610   -3.3729    1.0746 H   0  0  0  0  0  0  0  0  0  0  0  0
   -1.1620   -4.3174   -1.8449 H   0  0  0  0  0  0  0  0  0  0  0  0
    0.2489   -4.0640   -0.7945 H   0  0  0  0  0  0  0  0  0  0  0  0
   -0.9179   -5.3464   -0.4161 H   0  0  0  0  0  0  0  0  0  0  0  0
   -0.2564   -1.2292   -0.2609 N   0  0  0  0  0  0  0  0  0  0  0  0
   -0.0953    0.2387   -0.3329 C   0  0  2  0  0  0  0  0  0  0  0  0
   -1.3497    1.0691    0.0567 C   0  0  0  0  0  0  0  0  0  0  0  0
   -1.9995    0.7471    1.0459 O   0  0  0  0  0  0  0  0  0  0  0  0
    0.3905    0.5562   -1.7580 C   0  0  0  0  0  0  0  0  0  0  0  0
    2.0620   -0.1683   -2.0280 S   0  0  0  0  0  0  0  0  0  0  0  0
    0.4399   -1.7361    0.2770 H   0  0  0  0  0  0  0  0  0  0  0  0
    0.6856    0.5420    0.3703 H   0  0  0  0  0  0  0  0  0  0  0  0
   -0.3190    0.1558   -2.4910 H   0  0  0  0  0  0  0  0  0  0  0  0
    0.4607    1.6370   -1.9113 H   0  0  0  0  0  0  0  0  0  0  0  0
    2.2834    0.1714   -3.3171 H   0  0  0  0  0  0  0  0  0  0  0  0
   -1.6044    2.3108   -0.4985 N   0  0  0  0  0  0  0  0  0  0  0  0
   -2.8179    3.0933   -0.2353 C   0  0  2  0  0  0  0  0  0  0  0  0
   -3.2475    3.8795   -1.4918 C   0  0  0  0  0  0  0  0  0  0  0  0
   -2.4735    3.9938   -2.4375 O   0  0  0  0  0  0  0  0  0  0  0  0
   -2.5430    4.0450    0.9327 C   0  0  0  0  0  0  0  0  0  0  0  0
   -1.1195    2.5355   -1.3661 H   0  0  0  0  0  0  0  0  0  0  0  0
   -3.6420    2.4216    0.0294 H   0  0  0  0  0  0  0  0  0  0  0  0
   -1.7282    4.7322    0.6836 H   0  0  0  0  0  0  0  0  0  0  0  0
   -3.4357    4.6317    1.1681 H   0  0  0  0  0  0  0  0  0  0  0  0
   -2.2595    3.4773    1.8245 H   0  0  0  0  0  0  0  0  0  0  0  0
   -4.5052    4.4484   -1.5710 N   0  0  0  0  0  0  0  0  0  0  0  0
   -4.9832    5.1726   -2.7425 C   0  0  0  0  0  0  0  0  0  0  0  0
   -5.1378    4.3027   -0.7896 H   0  0  0  0  0  0  0  0  0  0  0  0
   -4.3395    6.0340   -2.9497 H   0  0  0  0  0  0  0  0  0  0  0  0
   -4.9905    4.5183   -3.6206 H   0  0  0  0  0  0  0  0  0  0  0  0
   -6.0017    5.5356   -2.5737 H   0  0  0  0  0  0  0  0  0  0  0  0
  1  2  2  0  0  0  0
  1  3  1  0  0  0  0
  1  7  1  0  0  0  0
  3  4  1  0  0  0  0
  3  5  1  0  0  0  0
  3  6  1  0  0  0  0
  7  8  1  0  0  0  0
  7 12  1  0  0  0  0
  8  9  1  0  0  0  0
  8 11  1  0  0  0  0
  8 13  1  0  0  0  0
  9 10  2  0  0  0  0
  9 17  1  0  0  0  0
 11 14  1  0  0  0  0
 11 15  1  0  0  0  0
 11 16  1  0  0  0  0
 17 18  1  0  0  0  0
 17 23  1  0  0  0  0
 18 19  1  0  0  0  0
 18 21  1  0  0  0  0
 18 24  1  0  0  0  0
 19 20  2  0  0  0  0
 19 28  1  0  0  0  0
 21 22  1  0  0  0  0
 21 25  1  0  0  0  0
 21 26  1  0  0  0  0
 22 27  1  0  0  0  0
 28 29  1  0  0  0  0
 28 33  1  0  0  0  0
 29 30  1  0  0  0  0
 29 32  1  0  0  0  0
 29 34  1  0  0  0  0
 30 31  2  0  0  0  0
 30 38  1  0  0  0  0
 32 35  1  0  0  0  0
 32 36  1  0  0  0  0
 32 37  1  0  0  0  0
 38 39  1  0  0  0  0
 38 40  1  0  0  0  0
 39 41  1  0  0  0  0
 39 42  1  0  0  0  0
 39 43  1  0  0  0  0
M  END
$$$$

  -OEChem-05262216003D

 43 42  0     1  0  0  0  0  0999 V2000
   -3.6009   -4.6534    0.8876 C   0  0  0  0  0  0  0  0  0  0  0  0
   -2.8982   -5.2625    1.6788 O   0  0  0  0  0  0  0  0  0  0  0  0
   -5.1032   -4.8638    0.8837 C   0  0  0  0  0  0  0  0  0  0  0  0
   -5.4249   -5.2347   -0.0923 H   0  0  0  0  0  0  0  0  0  0  0  0
   -5.3846   -5.5930    1.6485 H   0  0  0  0  0  0  0  0  0  0  0  0
   -5.6119   -3.9197    1.0936 H   0  0  0  0  0  0  0  0  0  0  0  0
   -3.0323   -3.7627    0.0025 N   0  0  0  0  0  0  0  0  0  0  0  0
   -1.6287   -3.3346    0.0470 C   0  0  2  0  0  0  0  0  0  0  0  0
   -1.4720   -1.8783   -0.4384 C   0  0  0  0  0  0  0  0  0  0  0  0
   -2.3714   -1.3513   -1.0870 O   0  0  0  0  0  0  0  0  0  0  0  0
   -0.8015   -4.2861   -0.8233 C   0  0  0  0  0  0  0  0  0  0  0  0
   -3.6646   -3.1859   -0.5520 H   0  0  0  0  0  0  0  0  0  0  0  0
   -1.2629   -3.3762    1.0788 H   0  0  0  0  0  0  0  0  0  0  0  0
   -1.1487   -4.2530   -1.8610 H   0  0  0  0  0  0  0  0  0  0  0  0
    0.2566   -4.0084   -0.8005 H   0  0  0  0  0  0  0  0  0  0  0  0
   -0.8953   -5.3132   -0.4563 H   0  0  0  0  0  0  0  0  0  0  0  0
   -0.2819   -1.2008   -0.2330 N   0  0  0  0  0  0  0  0  0  0  0  0
   -0.1056    0.2629   -0.3338 C   0  0  2  0  0  0  0  0  0  0  0  0
   -1.3593    1.1027    0.0312 C   0  0  0  0  0  0  0  0  0  0  0  0
   -1.9005    0.9175    1.1157 O   0  0  0  0  0  0  0  0  0  0  0  0
    0.3995    0.5524   -1.7573 C   0  0  0  0  0  0  0  0  0  0  0  0
    2.0676   -0.1890   -1.9984 S   0  0  0  0  0  0  0  0  0  0  0  0
    0.4306   -1.7122    0.2791 H   0  0  0  0  0  0  0  0  0  0  0  0
    0.6691    0.5738    0.3733 H   0  0  0  0  0  0  0  0  0  0  0  0
   -0.3041    0.1453   -2.4923 H   0  0  0  0  0  0  0  0  0  0  0  0
    0.4784    1.6312   -1.9228 H   0  0  0  0  0  0  0  0  0  0  0  0
    2.3012    0.1235   -3.2925 H   0  0  0  0  0  0  0  0  0  0  0  0
   -1.7830    2.1721   -0.7375 N   0  0  0  0  0  0  0  0  0  0  0  0
   -3.0398    2.8946   -0.5126 C   0  0  2  0  0  0  0  0  0  0  0  0
   -3.6335    3.3823   -1.8512 C   0  0  0  0  0  0  0  0  0  0  0  0
   -2.9425    3.3805   -2.8657 O   0  0  0  0  0  0  0  0  0  0  0  0
   -2.7681    4.0768    0.4225 C   0  0  0  0  0  0  0  0  0  0  0  0
   -1.4165    2.2245   -1.6872 H   0  0  0  0  0  0  0  0  0  0  0  0
   -3.7744    2.2258   -0.0505 H   0  0  0  0  0  0  0  0  0  0  0  0
   -2.0363    4.7567   -0.0252 H   0  0  0  0  0  0  0  0  0  0  0  0
   -3.6898    4.6334    0.6166 H   0  0  0  0  0  0  0  0  0  0  0  0
   -2.3733    3.7208    1.3795 H   0  0  0  0  0  0  0  0  0  0  0  0
   -4.9453    3.8123   -1.9255 N   0  0  0  0  0  0  0  0  0  0  0  0
   -5.5798    4.2285   -3.1703 C   0  0  0  0  0  0  0  0  0  0  0  0
   -5.5055    3.7606   -1.0798 H   0  0  0  0  0  0  0  0  0  0  0  0
   -5.0234    5.0529   -3.6288 H   0  0  0  0  0  0  0  0  0  0  0  0
   -5.6183    3.3934   -3.8775 H   0  0  0  0  0  0  0  0  0  0  0  0
   -6.6021    4.5679   -2.9785 H   0  0  0  0  0  0  0  0  0  0  0  0
  1  2  2  0  0  0  0
  1  3  1  0  0  0  0
  1  7  1  0  0  0  0
  3  4  1  0  0  0  0
  3  5  1  0  0  0  0
  3  6  1  0  0  0  0
  7  8  1  0  0  0  0
  7 12  1  0  0  0  0
  8  9  1  0  0  0  0
  8 11  1  0  0  0  0
  8 13  1  0  0  0  0
  9 10  2  0  0  0  0
  9 17  1  0  0  0  0
 11 14  1  0  0  0  0
 11 15  1  0  0  0  0
 11 16  1  0  0  0  0
 17 18  1  0  0  0  0
 17 23  1  0  0  0  0
 18 19  1  0  0  0  0
 18 21  1  0  0  0  0
 18 24  1  0  0  0  0
 19 20  2  0  0  0  0
 19 28  1  0  0  0  0
 21 22  1  0  0  0  0
 21 25  1  0  0  0  0
 21 26  1  0  0  0  0
 22 27  1  0  0  0  0
 28 29  1  0  0  0  0
 28 33  1  0  0  0  0
 29 30  1  0  0  0  0
 29 32  1  0  0  0  0
 29 34  1  0  0  0  0
 30 31  2  0  0  0  0
 30 38  1  0  0  0  0
 32 35  1  0  0  0  0
 32 36  1  0  0  0  0
 32 37  1  0  0  0  0
 38 39  1  0  0  0  0
 38 40  1  0  0  0  0
 39 41  1  0  0  0  0
 39 42  1  0  0  0  0
 39 43  1  0  0  0  0
M  END
$$$$

  -OEChem-05262216003D

 43 42  0     1  0  0  0  0  0999 V2000
   -3.5375   -4.7544    0.9096 C   0  0  0  0  0  0  0  0  0  0  0  0
   -2.7922   -5.3599    1.6637 O   0  0  0  0  0  0  0  0  0  0  0  0
   -5.0290   -5.0309    0.9296 C   0  0  0  0  0  0  0  0  0  0  0  0
   -5.3573   -5.3770   -0.0533 H   0  0  0  0  0  0  0  0  0  0  0  0
   -5.2595   -5.8021    1.6700 H   0  0  0  0  0  0  0  0  0  0  0  0
   -5.5738   -4.1198    1.1888 H   0  0  0  0  0  0  0  0  0  0  0  0
   -3.0262   -3.8118    0.0432 N   0  0  0  0  0  0  0  0  0  0  0  0
   -1.6342   -3.3452    0.0578 C   0  0  2  0  0  0  0  0  0  0  0  0
   -1.5256   -1.8694   -0.3801 C   0  0  0  0  0  0  0  0  0  0  0  0
   -2.4609   -1.3384   -0.9706 O   0  0  0  0  0  0  0  0  0  0  0  0
   -0.8118   -4.2466   -0.8685 C   0  0  0  0  0  0  0  0  0  0  0  0
   -3.6921   -3.2460   -0.4822 H   0  0  0  0  0  0  0  0  0  0  0  0
   -1.2352   -3.4117    1.0758 H   0  0  0  0  0  0  0  0  0  0  0  0
   -1.1884   -4.1853   -1.8945 H   0  0  0  0  0  0  0  0  0  0  0  0
    0.2404   -3.9465   -0.8644 H   0  0  0  0  0  0  0  0  0  0  0  0
   -0.8733   -5.2878   -0.5364 H   0  0  0  0  0  0  0  0  0  0  0  0
   -0.3430   -1.1754   -0.1858 N   0  0  0  0  0  0  0  0  0  0  0  0
   -0.1568    0.2836   -0.3262 C   0  0  2  0  0  0  0  0  0  0  0  0
   -1.4063    1.1431   -0.0013 C   0  0  0  0  0  0  0  0  0  0  0  0
   -1.8357    1.1484    1.1466 O   0  0  0  0  0  0  0  0  0  0  0  0
    0.3716    0.5374   -1.7468 C   0  0  0  0  0  0  0  0  0  0  0  0
    2.0404   -0.2166   -1.9408 S   0  0  0  0  0  0  0  0  0  0  0  0
    0.4078   -1.6938    0.2609 H   0  0  0  0  0  0  0  0  0  0  0  0
    0.6100    0.6075    0.3843 H   0  0  0  0  0  0  0  0  0  0  0  0
   -0.3199    0.1155   -2.4848 H   0  0  0  0  0  0  0  0  0  0  0  0
    0.4532    1.6136   -1.9320 H   0  0  0  0  0  0  0  0  0  0  0  0
    2.3049    0.0745   -3.2339 H   0  0  0  0  0  0  0  0  0  0  0  0
   -1.9903    1.9818   -0.9341 N   0  0  0  0  0  0  0  0  0  0  0  0
   -3.2785    2.6540   -0.7344 C   0  0  2  0  0  0  0  0  0  0  0  0
   -4.0186    2.8265   -2.0774 C   0  0  0  0  0  0  0  0  0  0  0  0
   -3.4104    2.6990   -3.1357 O   0  0  0  0  0  0  0  0  0  0  0  0
   -3.0305    4.0162   -0.0789 C   0  0  0  0  0  0  0  0  0  0  0  0
   -1.7292    1.8258   -1.9072 H   0  0  0  0  0  0  0  0  0  0  0  0
   -3.9148    2.0456   -0.0825 H   0  0  0  0  0  0  0  0  0  0  0  0
   -2.3964    4.6381   -0.7188 H   0  0  0  0  0  0  0  0  0  0  0  0
   -3.9763    4.5394    0.0897 H   0  0  0  0  0  0  0  0  0  0  0  0
   -2.5319    3.8879    0.8870 H   0  0  0  0  0  0  0  0  0  0  0  0
   -5.3677    3.1275   -2.1035 N   0  0  0  0  0  0  0  0  0  0  0  0
   -6.1275    3.2839   -3.3377 C   0  0  0  0  0  0  0  0  0  0  0  0
   -5.8534    3.1888   -1.2135 H   0  0  0  0  0  0  0  0  0  0  0  0
   -5.7050    4.0890   -3.9481 H   0  0  0  0  0  0  0  0  0  0  0  0
   -6.1108    2.3554   -3.9184 H   0  0  0  0  0  0  0  0  0  0  0  0
   -7.1688    3.5328   -3.1125 H   0  0  0  0  0  0  0  0  0  0  0  0
  1  2  2  0  0  0  0
  1  3  1  0  0  0  0
  1  7  1  0  0  0  0
  3  4  1  0  0  0  0
  3  5  1  0  0  0  0
  3  6  1  0  0  0  0
  7  8  1  0  0  0  0
  7 12  1  0  0  0  0
  8  9  1  0  0  0  0
  8 11  1  0  0  0  0
  8 13  1  0  0  0  0
  9 10  2  0  0  0  0
  9 17  1  0  0  0  0
 11 14  1  0  0  0  0
 11 15  1  0  0  0  0
 11 16  1  0  0  0  0
 17 18  1  0  0  0  0
 17 23  1  0  0  0  0
 18 19  1  0  0  0  0
 18 21  1  0  0  0  0
 18 24  1  0  0  0  0
 19 20  2  0  0  0  0
 19 28  1  0  0  0  0
 21 22  1  0  0  0  0
 21 25  1  0  0  0  0
 21 26  1  0  0  0  0
 22 27  1  0  0  0  0
 28 29  1  0  0  0  0
 28 33  1  0  0  0  0
 29 30  1  0  0  0  0
 29 32  1  0  0  0  0
 29 34  1  0  0  0  0
 30 31  2  0  0  0  0
 30 38  1  0  0  0  0
 32 35  1  0  0  0  0
 32 36  1  0  0  0  0
 32 37  1  0  0  0  0
 38 39  1  0  0  0  0
 38 40  1  0  0  0  0
 39 41  1  0  0  0  0
 39 42  1  0  0  0  0
 39 43  1  0  0  0  0
M  END
$$$$

  -OEChem-05262216003D

 43 42  0     1  0  0  0  0  0999 V2000
   -3.4859   -4.8702    0.8912 C   0  0  0  0  0  0  0  0  0  0  0  0
   -2.7228   -5.4666    1.6345 O   0  0  0  0  0  0  0  0  0  0  0  0
   -4.9626   -5.2170    0.8784 C   0  0  0  0  0  0  0  0  0  0  0  0
   -5.2367   -5.6413   -0.0903 H   0  0  0  0  0  0  0  0  0  0  0  0
   -5.1840   -5.9493    1.6598 H   0  0  0  0  0  0  0  0  0  0  0  0
   -5.5598   -4.3197    1.0577 H   0  0  0  0  0  0  0  0  0  0  0  0
   -3.0058   -3.8788    0.0624 N   0  0  0  0  0  0  0  0  0  0  0  0
   -1.6311   -3.3639    0.0959 C   0  0  2  0  0  0  0  0  0  0  0  0
   -1.5721   -1.8743   -0.3025 C   0  0  0  0  0  0  0  0  0  0  0  0
   -2.5346   -1.3546   -0.8566 O   0  0  0  0  0  0  0  0  0  0  0  0
   -0.7754   -4.2096   -0.8533 C   0  0  0  0  0  0  0  0  0  0  0  0
   -3.6886   -3.3263   -0.4553 H   0  0  0  0  0  0  0  0  0  0  0  0
   -1.2323   -3.4448    1.1131 H   0  0  0  0  0  0  0  0  0  0  0  0
   -1.1508   -4.1318   -1.8788 H   0  0  0  0  0  0  0  0  0  0  0  0
    0.2662   -3.8752   -0.8374 H   0  0  0  0  0  0  0  0  0  0  0  0
   -0.8025   -5.2614   -0.5514 H   0  0  0  0  0  0  0  0  0  0  0  0
   -0.4043   -1.1548   -0.1148 N   0  0  0  0  0  0  0  0  0  0  0  0
   -0.2226    0.2991   -0.3026 C   0  0  2  0  0  0  0  0  0  0  0  0
   -1.4724    1.1755   -0.0356 C   0  0  0  0  0  0  0  0  0  0  0  0
   -1.7743    1.4361    1.1229 O   0  0  0  0  0  0  0  0  0  0  0  0
    0.3223    0.5108   -1.7230 C   0  0  0  0  0  0  0  0  0  0  0  0
    1.9972   -0.2387   -1.8734 S   0  0  0  0  0  0  0  0  0  0  0  0
    0.3752   -1.6673    0.2881 H   0  0  0  0  0  0  0  0  0  0  0  0
    0.5338    0.6475    0.4078 H   0  0  0  0  0  0  0  0  0  0  0  0
   -0.3555    0.0600   -2.4564 H   0  0  0  0  0  0  0  0  0  0  0  0
    0.3933    1.5823   -1.9393 H   0  0  0  0  0  0  0  0  0  0  0  0
    2.2814    0.0280   -3.1677 H   0  0  0  0  0  0  0  0  0  0  0  0
   -2.2084    1.7358   -1.0645 N   0  0  0  0  0  0  0  0  0  0  0  0
   -3.4963    2.4102   -0.8709 C   0  0  2  0  0  0  0  0  0  0  0  0
   -4.4062    2.2312   -2.1044 C   0  0  0  0  0  0  0  0  0  0  0  0
   -3.9274    1.8880   -3.1807 O   0  0  0  0  0  0  0  0  0  0  0  0
   -3.2364    3.8962   -0.6059 C   0  0  0  0  0  0  0  0  0  0  0  0
   -2.0734    1.3154   -1.9839 H   0  0  0  0  0  0  0  0  0  0  0  0
   -4.0164    1.9713   -0.0126 H   0  0  0  0  0  0  0  0  0  0  0  0
   -2.7191    4.3509   -1.4569 H   0  0  0  0  0  0  0  0  0  0  0  0
   -4.1785    4.4286   -0.4448 H   0  0  0  0  0  0  0  0  0  0  0  0
   -2.6143    4.0195    0.2864 H   0  0  0  0  0  0  0  0  0  0  0  0
   -5.7667    2.4604   -2.0111 N   0  0  0  0  0  0  0  0  0  0  0  0
   -6.6865    2.2704   -3.1261 C   0  0  0  0  0  0  0  0  0  0  0  0
   -6.1412    2.6996   -1.0977 H   0  0  0  0  0  0  0  0  0  0  0  0
   -6.3925    2.8945   -3.9768 H   0  0  0  0  0  0  0  0  0  0  0  0
   -6.6910    1.2221   -3.4431 H   0  0  0  0  0  0  0  0  0  0  0  0
   -7.7030    2.5477   -2.8307 H   0  0  0  0  0  0  0  0  0  0  0  0
  1  2  2  0  0  0  0
  1  3  1  0  0  0  0
  1  7  1  0  0  0  0
  3  4  1  0  0  0  0
  3  5  1  0  0  0  0
  3  6  1  0  0  0  0
  7  8  1  0  0  0  0
  7 12  1  0  0  0  0
  8  9  1  0  0  0  0
  8 11  1  0  0  0  0
  8 13  1  0  0  0  0
  9 10  2  0  0  0  0
  9 17  1  0  0  0  0
 11 14  1  0  0  0  0
 11 15  1  0  0  0  0
 11 16  1  0  0  0  0
 17 18  1  0  0  0  0
 17 23  1  0  0  0  0
 18 19  1  0  0  0  0
 18 21  1  0  0  0  0
 18 24  1  0  0  0  0
 19 20  2  0  0  0  0
 19 28  1  0  0  0  0
 21 22  1  0  0  0  0
 21 25  1  0  0  0  0
 21 26  1  0  0  0  0
 22 27  1  0  0  0  0
 28 29  1  0  0  0  0
 28 33  1  0  0  0  0
 29 30  1  0  0  0  0
 29 32  1  0  0  0  0
 29 34  1  0  0  0  0
 30 31  2  0  0  0  0
 30 38  1  0  0  0  0
 32 35  1  0  0  0  0
 32 36  1  0  0  0  0
 32 37  1  0  0  0  0
 38 39  1  0  0  0  0
 38 40  1  0  0  0  0
 39 41  1  0  0  0  0
 39 42  1  0  0  0  0
 39 43  1  0  0  0  0
M  END
$$$$

  -OEChem-05262216003D

 43 42  0     1  0  0  0  0  0999 V2000
   -3.3599   -5.0369    0.9267 C   0  0  0  0  0  0  0  0  0  0  0  0
   -2.5823   -5.5716    1.7013 O   0  0  0  0  0  0  0  0  0  0  0  0
   -4.8179   -5.4556    0.8993 C   0  0  0  0  0  0  0  0  0  0  0  0
   -5.0510   -5.9320   -0.0561 H   0  0  0  0  0  0  0  0  0  0  0  0
   -5.0215   -6.1648    1.7064 H   0  0  0  0  0  0  0  0  0  0  0  0
   -5.4610   -4.5817    1.0292 H   0  0  0  0  0  0  0  0  0  0  0  0
   -2.9151   -4.0451    0.0789 N   0  0  0  0  0  0  0  0  0  0  0  0
   -1.5716   -3.4538    0.1284 C   0  0  2  0  0  0  0  0  0  0  0  0
   -1.5927   -1.9588   -0.2544 C   0  0  0  0  0  0  0  0  0  0  0  0
   -2.5820   -1.4866   -0.8008 O   0  0  0  0  0  0  0  0  0  0  0  0
   -0.6665   -4.2423   -0.8236 C   0  0  0  0  0  0  0  0  0  0  0  0
   -3.6178   -3.5403   -0.4608 H   0  0  0  0  0  0  0  0  0  0  0  0
   -1.1745   -3.5231    1.1472 H   0  0  0  0  0  0  0  0  0  0  0  0
   -1.0429   -4.1779   -1.8495 H   0  0  0  0  0  0  0  0  0  0  0  0
    0.3543   -3.8488   -0.8017 H   0  0  0  0  0  0  0  0  0  0  0  0
   -0.6355   -5.2964   -0.5294 H   0  0  0  0  0  0  0  0  0  0  0  0
   -0.4681   -1.1772   -0.0561 N   0  0  0  0  0  0  0  0  0  0  0  0
   -0.3382    0.2791   -0.2714 C   0  0  2  0  0  0  0  0  0  0  0  0
   -1.6088    1.1424   -0.0669 C   0  0  0  0  0  0  0  0  0  0  0  0
   -1.7797    1.6926    1.0141 O   0  0  0  0  0  0  0  0  0  0  0  0
    0.2300    0.4822   -1.6826 C   0  0  0  0  0  0  0  0  0  0  0  0
    1.9360   -0.2048   -1.7774 S   0  0  0  0  0  0  0  0  0  0  0  0
    0.3456   -1.6573    0.3189 H   0  0  0  0  0  0  0  0  0  0  0  0
    0.3918    0.6649    0.4473 H   0  0  0  0  0  0  0  0  0  0  0  0
   -0.4119   -0.0104   -2.4210 H   0  0  0  0  0  0  0  0  0  0  0  0
    0.2597    1.5511   -1.9208 H   0  0  0  0  0  0  0  0  0  0  0  0
    2.2559    0.0774   -3.0598 H   0  0  0  0  0  0  0  0  0  0  0  0
   -2.4877    1.4069   -1.1019 N   0  0  0  0  0  0  0  0  0  0  0  0
   -3.7438    2.1480   -0.9378 C   0  0  2  0  0  0  0  0  0  0  0  0
   -4.8044    1.6922   -1.9618 C   0  0  0  0  0  0  0  0  0  0  0  0
   -4.4672    1.1206   -2.9931 O   0  0  0  0  0  0  0  0  0  0  0  0
   -3.4580    3.6443   -1.1025 C   0  0  0  0  0  0  0  0  0  0  0  0
   -2.4822    0.7175   -1.8565 H   0  0  0  0  0  0  0  0  0  0  0  0
   -4.1518    1.9624    0.0616 H   0  0  0  0  0  0  0  0  0  0  0  0
   -3.0457    3.8469   -2.0962 H   0  0  0  0  0  0  0  0  0  0  0  0
   -4.3763    4.2266   -0.9808 H   0  0  0  0  0  0  0  0  0  0  0  0
   -2.7361    3.9784   -0.3508 H   0  0  0  0  0  0  0  0  0  0  0  0
   -6.1463    1.9384   -1.7344 N   0  0  0  0  0  0  0  0  0  0  0  0
   -7.2011    1.5205   -2.6501 C   0  0  0  0  0  0  0  0  0  0  0  0
   -6.4005    2.3925   -0.8620 H   0  0  0  0  0  0  0  0  0  0  0  0
   -7.0562    1.9764   -3.6354 H   0  0  0  0  0  0  0  0  0  0  0  0
   -7.2007    0.4310   -2.7620 H   0  0  0  0  0  0  0  0  0  0  0  0
   -8.1792    1.8284   -2.2682 H   0  0  0  0  0  0  0  0  0  0  0  0
  1  2  2  0  0  0  0
  1  3  1  0  0  0  0
  1  7  1  0  0  0  0
  3  4  1  0  0  0  0
  3  5  1  0  0  0  0
  3  6  1  0  0  0  0
  7  8  1  0  0  0  0
  7 12  1  0  0  0  0
  8  9  1  0  0  0  0
  8 11  1  0  0  0  0
  8 13  1  0  0  0  0
  9 10  2  0  0  0  0
  9 17  1  0  0  0  0
 11 14  1  0  0  0  0
 11 15  1  0  0  0  0
 11 16  1  0  0  0  0
 17 18  1  0  0  0  0
 17 23  1  0  0  0  0
 18 19  1  0  0  0  0
 18 21  1  0  0  0  0
 18 24  1  0  0  0  0
 19 20  2  0  0  0  0
 19 28  1  0  0  0  0
 21 22  1  0  0  0  0
 21 25  1  0  0  0  0
 21 26  1  0  0  0  0
 22 27  1  0  0  0  0
 28 29  1  0  0  0  0
 28 33  1  0  0  0  0
 29 30  1  0  0  0  0
 29 32  1  0  0  0  0
 29 34  1  0  0  0  0
 30 31  2  0  0  0  0
 30 38  1  0  0  0  0
 32 35  1  0  0  0  0
 32 36  1  0  0  0  0
 32 37  1  0  0  0  0
 38 39  1  0  0  0  0
 38 40  1  0  0  0  0
 39 41  1  0  0  0  0
 39 42  1  0  0  0  0
 39 43  1  0  0  0  0
M  END
$$$$

  -OEChem-05262216003D

 43 42  0     1  0  0  0  0  0999 V2000
   -3.2189   -5.1957    0.9547 C   0  0  0  0  0  0  0  0  0  0  0  0
   -2.4523   -5.6576    1.7850 O   0  0  0  0  0  0  0  0  0  0  0  0
   -4.6535   -5.6842    0.8864 C   0  0  0  0  0  0  0  0  0  0  0  0
   -4.8222   -6.2101   -0.0564 H   0  0  0  0  0  0  0  0  0  0  0  0
   -4.8587   -6.3687    1.7144 H   0  0  0  0  0  0  0  0  0  0  0  0
   -5.3406   -4.8368    0.9512 H   0  0  0  0  0  0  0  0  0  0  0  0
   -2.7846   -4.2223    0.0809 N   0  0  0  0  0  0  0  0  0  0  0  0
   -1.4785   -3.5552    0.1645 C   0  0  2  0  0  0  0  0  0  0  0  0
   -1.5756   -2.0703   -0.2459 C   0  0  0  0  0  0  0  0  0  0  0  0
   -2.5801   -1.6666   -0.8159 O   0  0  0  0  0  0  0  0  0  0  0  0
   -0.4988   -4.3077   -0.7416 C   0  0  0  0  0  0  0  0  0  0  0  0
   -3.4897   -3.7735   -0.5037 H   0  0  0  0  0  0  0  0  0  0  0  0
   -1.1110   -3.5834    1.1961 H   0  0  0  0  0  0  0  0  0  0  0  0
   -0.8432   -4.2838   -1.7805 H   0  0  0  0  0  0  0  0  0  0  0  0
    0.4969   -3.8567   -0.6943 H   0  0  0  0  0  0  0  0  0  0  0  0
   -0.4181   -5.3528   -0.4256 H   0  0  0  0  0  0  0  0  0  0  0  0
   -0.5030   -1.2205   -0.0421 N   0  0  0  0  0  0  0  0  0  0  0  0
   -0.4335    0.2419   -0.2612 C   0  0  2  0  0  0  0  0  0  0  0  0
   -1.7231    1.0855   -0.0872 C   0  0  0  0  0  0  0  0  0  0  0  0
   -1.7821    1.8721    0.8499 O   0  0  0  0  0  0  0  0  0  0  0  0
    0.1266    0.4635   -1.6722 C   0  0  0  0  0  0  0  0  0  0  0  0
    1.8594   -0.1530   -1.7655 S   0  0  0  0  0  0  0  0  0  0  0  0
    0.3321   -1.6564    0.3404 H   0  0  0  0  0  0  0  0  0  0  0  0
    0.2823    0.6535    0.4583 H   0  0  0  0  0  0  0  0  0  0  0  0
   -0.4959   -0.0532   -2.4109 H   0  0  0  0  0  0  0  0  0  0  0  0
    0.1140    1.5326   -1.9116 H   0  0  0  0  0  0  0  0  0  0  0  0
    2.1675    0.1448   -3.0475 H   0  0  0  0  0  0  0  0  0  0  0  0
   -2.7421    1.0893   -1.0222 N   0  0  0  0  0  0  0  0  0  0  0  0
   -3.9814    1.8640   -0.8791 C   0  0  2  0  0  0  0  0  0  0  0  0
   -5.1658    1.2142   -1.6257 C   0  0  0  0  0  0  0  0  0  0  0  0
   -4.9726    0.4440   -2.5590 O   0  0  0  0  0  0  0  0  0  0  0  0
   -3.7372    3.2786   -1.4149 C   0  0  0  0  0  0  0  0  0  0  0  0
   -2.8130    0.2279   -1.5746 H   0  0  0  0  0  0  0  0  0  0  0  0
   -4.2554    1.9188    0.1796 H   0  0  0  0  0  0  0  0  0  0  0  0
   -3.4612    3.2427   -2.4737 H   0  0  0  0  0  0  0  0  0  0  0  0
   -4.6390    3.8890   -1.3096 H   0  0  0  0  0  0  0  0  0  0  0  0
   -2.9274    3.7626   -0.8601 H   0  0  0  0  0  0  0  0  0  0  0  0
   -6.4658    1.5157   -1.2617 N   0  0  0  0  0  0  0  0  0  0  0  0
   -7.6338    0.9423   -1.9192 C   0  0  0  0  0  0  0  0  0  0  0  0
   -6.6008    2.1454   -0.4763 H   0  0  0  0  0  0  0  0  0  0  0  0
   -7.6365    1.1947   -2.9848 H   0  0  0  0  0  0  0  0  0  0  0  0
   -7.6342   -0.1479   -1.8155 H   0  0  0  0  0  0  0  0  0  0  0  0
   -8.5513    1.3339   -1.4693 H   0  0  0  0  0  0  0  0  0  0  0  0
  1  2  2  0  0  0  0
  1  3  1  0  0  0  0
  1  7  1  0  0  0  0
  3  4  1  0  0  0  0
  3  5  1  0  0  0  0
  3  6  1  0  0  0  0
  7  8  1  0  0  0  0
  7 12  1  0  0  0  0
  8  9  1  0  0  0  0
  8 11  1  0  0  0  0
  8 13  1  0  0  0  0
  9 10  2  0  0  0  0
  9 17  1  0  0  0  0
 11 14  1  0  0  0  0
 11 15  1  0  0  0  0
 11 16  1  0  0  0  0
 17 18  1  0  0  0  0
 17 23  1  0  0  0  0
 18 19  1  0  0  0  0
 18 21  1  0  0  0  0
 18 24  1  0  0  0  0
 19 20  2  0  0  0  0
 19 28  1  0  0  0  0
 21 22  1  0  0  0  0
 21 25  1  0  0  0  0
 21 26  1  0  0  0  0
 22 27  1  0  0  0  0
 28 29  1  0  0  0  0
 28 33  1  0  0  0  0
 29 30  1  0  0  0  0
 29 32  1  0  0  0  0
 29 34  1  0  0  0  0
 30 31  2  0  0  0  0
 30 38  1  0  0  0  0
 32 35  1  0  0  0  0
 32 36  1  0  0  0  0
 32 37  1  0  0  0  0
 38 39  1  0  0  0  0
 38 40  1  0  0  0  0
 39 41  1  0  0  0  0
 39 42  1  0  0  0  0
 39 43  1  0  0  0  0
M  END
$$$$

  -OEChem-05262216003D

 43 42  0     1  0  0  0  0  0999 V2000
   -3.1418   -5.0515    1.0796 C   0  0  0  0  0  0  0  0  0  0  0  0
   -2.4558   -5.2252    2.0745 O   0  0  0  0  0  0  0  0  0  0  0  0
   -4.5917   -5.4973    1.0703 C   0  0  0  0  0  0  0  0  0  0  0  0
   -4.7483   -6.2392    0.2835 H   0  0  0  0  0  0  0  0  0  0  0  0
   -4.8561   -5.9430    2.0335 H   0  0  0  0  0  0  0  0  0  0  0  0
   -5.2444   -4.6398    0.8882 H   0  0  0  0  0  0  0  0  0  0  0  0
   -2.6111   -4.4386   -0.0361 N   0  0  0  0  0  0  0  0  0  0  0  0
   -1.3177   -3.7401   -0.0525 C   0  0  2  0  0  0  0  0  0  0  0  0
   -1.4921   -2.2425   -0.3775 C   0  0  0  0  0  0  0  0  0  0  0  0
   -2.4568   -1.8833   -1.0351 O   0  0  0  0  0  0  0  0  0  0  0  0
   -0.4361   -4.4187   -1.1030 C   0  0  0  0  0  0  0  0  0  0  0  0
   -3.2829   -4.1546   -0.7482 H   0  0  0  0  0  0  0  0  0  0  0  0
   -0.8237   -3.8119    0.9221 H   0  0  0  0  0  0  0  0  0  0  0  0
   -0.9017   -4.3566   -2.0920 H   0  0  0  0  0  0  0  0  0  0  0  0
    0.5456   -3.9376   -1.1501 H   0  0  0  0  0  0  0  0  0  0  0  0
   -0.2929   -5.4741   -0.8502 H   0  0  0  0  0  0  0  0  0  0  0  0
   -0.5032   -1.3372   -0.0391 N   0  0  0  0  0  0  0  0  0  0  0  0
   -0.5098    0.1419   -0.1357 C   0  0  2  0  0  0  0  0  0  0  0  0
   -1.8343    0.9396    0.0092 C   0  0  0  0  0  0  0  0  0  0  0  0
   -1.8625    1.8484    0.8301 O   0  0  0  0  0  0  0  0  0  0  0  0
    0.1138    0.5020   -1.4895 C   0  0  0  0  0  0  0  0  0  0  0  0
    1.8817   -0.0110   -1.5290 S   0  0  0  0  0  0  0  0  0  0  0  0
    0.3183   -1.7458    0.3987 H   0  0  0  0  0  0  0  0  0  0  0  0
    0.1443    0.5239    0.6556 H   0  0  0  0  0  0  0  0  0  0  0  0
   -0.4395    0.0145   -2.2998 H   0  0  0  0  0  0  0  0  0  0  0  0
    0.0552    1.5845   -1.6470 H   0  0  0  0  0  0  0  0  0  0  0  0
    2.2427    0.4212   -2.7576 H   0  0  0  0  0  0  0  0  0  0  0  0
   -2.9285    0.7851   -0.8217 N   0  0  0  0  0  0  0  0  0  0  0  0
   -4.1834    1.5381   -0.6883 C   0  0  2  0  0  0  0  0  0  0  0  0
   -5.4190    0.7215   -1.1223 C   0  0  0  0  0  0  0  0  0  0  0  0
   -5.3223   -0.1752   -1.9508 O   0  0  0  0  0  0  0  0  0  0  0  0
   -4.0701    2.8090   -1.5352 C   0  0  0  0  0  0  0  0  0  0  0  0
   -2.9744   -0.1071   -1.3289 H   0  0  0  0  0  0  0  0  0  0  0  0
   -4.3337    1.8158    0.3601 H   0  0  0  0  0  0  0  0  0  0  0  0
   -3.9137    2.5523   -2.5880 H   0  0  0  0  0  0  0  0  0  0  0  0
   -4.9826    3.4070   -1.4536 H   0  0  0  0  0  0  0  0  0  0  0  0
   -3.2268    3.4181   -1.1951 H   0  0  0  0  0  0  0  0  0  0  0  0
   -6.6647    1.0185   -0.5992 N   0  0  0  0  0  0  0  0  0  0  0  0
   -7.8774    0.2973   -0.9652 C   0  0  0  0  0  0  0  0  0  0  0  0
   -6.7204    1.7586    0.0940 H   0  0  0  0  0  0  0  0  0  0  0  0
   -8.0700    0.3941   -2.0388 H   0  0  0  0  0  0  0  0  0  0  0  0
   -7.7797   -0.7653   -0.7188 H   0  0  0  0  0  0  0  0  0  0  0  0
   -8.7374    0.7006   -0.4221 H   0  0  0  0  0  0  0  0  0  0  0  0
  1  2  2  0  0  0  0
  1  3  1  0  0  0  0
  1  7  1  0  0  0  0
  3  4  1  0  0  0  0
  3  5  1  0  0  0  0
  3  6  1  0  0  0  0
  7  8  1  0  0  0  0
  7 12  1  0  0  0  0
  8  9  1  0  0  0  0
  8 11  1  0  0  0  0
  8 13  1  0  0  0  0
  9 10  2  0  0  0  0
  9 17  1  0  0  0  0
 11 14  1  0  0  0  0
 11 15  1  0  0  0  0
 11 16  1  0  0  0  0
 17 18  1  0  0  0  0
 17 23  1  0  0  0  0
 18 19  1  0  0  0  0
 18 21  1  0  0  0  0
 18 24  1  0  0  0  0
 19 20  2  0  0  0  0
 19 28  1  0  0  0  0
 21 22  1  0  0  0  0
 21 25  1  0  0  0  0
 21 26  1  0  0  0  0
 22 27  1  0  0  0  0
 28 29  1  0  0  0  0
 28 33  1  0  0  0  0
 29 30  1  0  0  0  0
 29 32  1  0  0  0  0
 29 34  1  0  0  0  0
 30 31  2  0  0  0  0
 30 38  1  0  0  0  0
 32 35  1  0  0  0  0
 32 36  1  0  0  0  0
 32 37  1  0  0  0  0
 38 39  1  0  0  0  0
 38 40  1  0  0  0  0
 39 41  1  0  0  0  0
 39 42  1  0  0  0  0
 39 43  1  0  0  0  0
M  END
$$$$

  -OEChem-05262216003D

 43 42  0     1  0  0  0  0  0999 V2000
   -2.7774   -3.6754    1.0584 C   0  0  0  0  0  0  0  0  0  0  0  0
   -1.6664   -3.8617    1.5355 O   0  0  0  0  0  0  0  0  0  0  0  0
   -3.9616   -3.4026    1.9642 C   0  0  0  0  0  0  0  0  0  0  0  0
   -3.7632   -3.7825    2.9701 H   0  0  0  0  0  0  0  0  0  0  0  0
   -4.1428   -2.3261    2.0185 H   0  0  0  0  0  0  0  0  0  0  0  0
   -4.8551   -3.8937    1.5714 H   0  0  0  0  0  0  0  0  0  0  0  0
   -2.9163   -3.5723   -0.3087 N   0  0  0  0  0  0  0  0  0  0  0  0
   -1.7752   -3.5430   -1.2349 C   0  0  2  0  0  0  0  0  0  0  0  0
   -1.0945   -2.1552   -1.2123 C   0  0  0  0  0  0  0  0  0  0  0  0
   -1.0993   -1.4179   -2.1925 O   0  0  0  0  0  0  0  0  0  0  0  0
   -2.3069   -3.9287   -2.6205 C   0  0  0  0  0  0  0  0  0  0  0  0
   -3.7846   -3.1236   -0.6216 H   0  0  0  0  0  0  0  0  0  0  0  0
   -1.0289   -4.2881   -0.9388 H   0  0  0  0  0  0  0  0  0  0  0  0
   -3.0724   -3.2183   -2.9504 H   0  0  0  0  0  0  0  0  0  0  0  0
   -1.4941   -3.9297   -3.3535 H   0  0  0  0  0  0  0  0  0  0  0  0
   -2.7489   -4.9294   -2.5934 H   0  0  0  0  0  0  0  0  0  0  0  0
   -0.5626   -1.6837   -0.0267 N   0  0  0  0  0  0  0  0  0  0  0  0
   -0.7949   -0.3350    0.5435 C   0  0  2  0  0  0  0  0  0  0  0  0
   -2.1485    0.3662    0.2508 C   0  0  0  0  0  0  0  0  0  0  0  0
   -2.7790    0.8376    1.1898 O   0  0  0  0  0  0  0  0  0  0  0  0
    0.3401    0.5866    0.0789 C   0  0  0  0  0  0  0  0  0  0  0  0
    1.9505    0.0309    0.7777 S   0  0  0  0  0  0  0  0  0  0  0  0
   -0.5459   -2.4229    0.6830 H   0  0  0  0  0  0  0  0  0  0  0  0
   -0.7319   -0.4238    1.6332 H   0  0  0  0  0  0  0  0  0  0  0  0
    0.3918    0.5913   -1.0151 H   0  0  0  0  0  0  0  0  0  0  0  0
    0.1440    1.6115    0.4115 H   0  0  0  0  0  0  0  0  0  0  0  0
    2.7981    0.9110    0.2019 H   0  0  0  0  0  0  0  0  0  0  0  0
   -2.7420    0.4125   -0.9953 N   0  0  0  0  0  0  0  0  0  0  0  0
   -4.1668    0.7001   -1.1909 C   0  0  2  0  0  0  0  0  0  0  0  0
   -5.0884   -0.3942   -0.6008 C   0  0  0  0  0  0  0  0  0  0  0  0
   -4.8917   -1.5846   -0.8348 O   0  0  0  0  0  0  0  0  0  0  0  0
   -4.4040    0.8389   -2.6961 C   0  0  0  0  0  0  0  0  0  0  0  0
   -2.2555   -0.1153   -1.7255 H   0  0  0  0  0  0  0  0  0  0  0  0
   -4.4098    1.6533   -0.7105 H   0  0  0  0  0  0  0  0  0  0  0  0
   -4.1479   -0.0927   -3.2120 H   0  0  0  0  0  0  0  0  0  0  0  0
   -5.4545    1.0702   -2.8974 H   0  0  0  0  0  0  0  0  0  0  0  0
   -3.7865    1.6446   -3.1053 H   0  0  0  0  0  0  0  0  0  0  0  0
   -6.1696   -0.0361    0.1826 N   0  0  0  0  0  0  0  0  0  0  0  0
   -7.0540   -1.0009    0.8251 C   0  0  0  0  0  0  0  0  0  0  0  0
   -6.2165    0.9358    0.4771 H   0  0  0  0  0  0  0  0  0  0  0  0
   -6.5177   -1.5571    1.6004 H   0  0  0  0  0  0  0  0  0  0  0  0
   -7.8988   -0.4843    1.2908 H   0  0  0  0  0  0  0  0  0  0  0  0
   -7.4500   -1.7102    0.0906 H   0  0  0  0  0  0  0  0  0  0  0  0
  1  2  2  0  0  0  0
  1  3  1  0  0  0  0
  1  7  1  0  0  0  0
  3  4  1  0  0  0  0
  3  5  1  0  0  0  0
  3  6  1  0  0  0  0
  7  8  1  0  0  0  0
  7 12  1  0  0  0  0
  8  9  1  0  0  0  0
  8 11  1  0  0  0  0
  8 13  1  0  0  0  0
  9 10  2  0  0  0  0
  9 17  1  0  0  0  0
 11 14  1  0  0  0  0
 11 15  1  0  0  0  0
 11 16  1  0  0  0  0
 17 18  1  0  0  0  0
 17 23  1  0  0  0  0
 18 19  1  0  0  0  0
 18 21  1  0  0  0  0
 18 24  1  0  0  0  0
 19 20  2  0  0  0  0
 19 28  1  0  0  0  0
 21 22  1  0  0  0  0
 21 25  1  0  0  0  0
 21 26  1  0  0  0  0
 22 27  1  0  0  0  0
 28 29  1  0  0  0  0
 28 33  1  0  0  0  0
 29 30  1  0  0  0  0
 29 32  1  0  0  0  0
 29 34  1  0  0  0  0
 30 31  2  0  0  0  0
 30 38  1  0  0  0  0
 32 35  1  0  0  0  0
 32 36  1  0  0  0  0
 32 37  1  0  0  0  0
 38 39  1  0  0  0  0
 38 40  1  0  0  0  0
 39 41  1  0  0  0  0
 39 42  1  0  0  0  0
 39 43  1  0  0  0  0
M  END
$$$$

  -OEChem-05262216003D

 43 42  0     1  0  0  0  0  0999 V2000
   -2.5814   -3.8501    1.1375 C   0  0  0  0  0  0  0  0  0  0  0  0
   -1.4131   -4.0404    1.4454 O   0  0  0  0  0  0  0  0  0  0  0  0
   -3.6302   -3.6538    2.2138 C   0  0  0  0  0  0  0  0  0  0  0  0
   -4.5505   -4.1753    1.9398 H   0  0  0  0  0  0  0  0  0  0  0  0
   -3.2708   -4.0482    3.1680 H   0  0  0  0  0  0  0  0  0  0  0  0
   -3.8447   -2.5887    2.3276 H   0  0  0  0  0  0  0  0  0  0  0  0
   -2.9074   -3.6733   -0.1900 N   0  0  0  0  0  0  0  0  0  0  0  0
   -1.9066   -3.6100   -1.2666 C   0  0  2  0  0  0  0  0  0  0  0  0
   -1.2224   -2.2239   -1.2999 C   0  0  0  0  0  0  0  0  0  0  0  0
   -1.3331   -1.4755   -2.2646 O   0  0  0  0  0  0  0  0  0  0  0  0
   -2.6249   -3.9584   -2.5757 C   0  0  0  0  0  0  0  0  0  0  0  0
   -3.8145   -3.2235   -0.3570 H   0  0  0  0  0  0  0  0  0  0  0  0
   -1.1273   -4.3614   -1.1006 H   0  0  0  0  0  0  0  0  0  0  0  0
   -3.4188   -3.2335   -2.7840 H   0  0  0  0  0  0  0  0  0  0  0  0
   -1.9176   -3.9497   -3.4111 H   0  0  0  0  0  0  0  0  0  0  0  0
   -3.0709   -4.9557   -2.5112 H   0  0  0  0  0  0  0  0  0  0  0  0
   -0.5870   -1.7634   -0.1627 N   0  0  0  0  0  0  0  0  0  0  0  0
   -0.7071   -0.4076    0.4275 C   0  0  2  0  0  0  0  0  0  0  0  0
   -2.0348    0.3817    0.2579 C   0  0  0  0  0  0  0  0  0  0  0  0
   -2.4417    1.0385    1.2088 O   0  0  0  0  0  0  0  0  0  0  0  0
    0.4349    0.4514   -0.1302 C   0  0  0  0  0  0  0  0  0  0  0  0
    2.0635   -0.1944    0.4369 S   0  0  0  0  0  0  0  0  0  0  0  0
   -0.4927   -2.5087    0.5345 H   0  0  0  0  0  0  0  0  0  0  0  0
   -0.5583   -0.5080    1.5077 H   0  0  0  0  0  0  0  0  0  0  0  0
    0.3966    0.4557   -1.2248 H   0  0  0  0  0  0  0  0  0  0  0  0
    0.3240    1.4850    0.2147 H   0  0  0  0  0  0  0  0  0  0  0  0
    2.9076    0.6416   -0.2055 H   0  0  0  0  0  0  0  0  0  0  0  0
   -2.8860    0.2551   -0.8221 N   0  0  0  0  0  0  0  0  0  0  0  0
   -4.3167    0.5683   -0.7709 C   0  0  2  0  0  0  0  0  0  0  0  0
   -5.1154   -0.4884    0.0258 C   0  0  0  0  0  0  0  0  0  0  0  0
   -4.9795   -1.6884   -0.2055 O   0  0  0  0  0  0  0  0  0  0  0  0
   -4.8248    0.6502   -2.2117 C   0  0  0  0  0  0  0  0  0  0  0  0
   -2.5511   -0.3462   -1.5788 H   0  0  0  0  0  0  0  0  0  0  0  0
   -4.4608    1.5455   -0.2982 H   0  0  0  0  0  0  0  0  0  0  0  0
   -4.6877   -0.3088   -2.7226 H   0  0  0  0  0  0  0  0  0  0  0  0
   -5.8896    0.9030   -2.2264 H   0  0  0  0  0  0  0  0  0  0  0  0
   -4.2772    1.4202   -2.7641 H   0  0  0  0  0  0  0  0  0  0  0  0
   -6.0099   -0.0883    1.0007 N   0  0  0  0  0  0  0  0  0  0  0  0
   -6.7558   -1.0181    1.8399 C   0  0  0  0  0  0  0  0  0  0  0  0
   -5.9878    0.8934    1.2651 H   0  0  0  0  0  0  0  0  0  0  0  0
   -7.2956   -1.7461    1.2248 H   0  0  0  0  0  0  0  0  0  0  0  0
   -6.0793   -1.5553    2.5118 H   0  0  0  0  0  0  0  0  0  0  0  0
   -7.4869   -0.4746    2.4462 H   0  0  0  0  0  0  0  0  0  0  0  0
  1  2  2  0  0  0  0
  1  3  1  0  0  0  0
  1  7  1  0  0  0  0
  3  4  1  0  0  0  0
  3  5  1  0  0  0  0
  3  6  1  0  0  0  0
  7  8  1  0  0  0  0
  7 12  1  0  0  0  0
  8  9  1  0  0  0  0
  8 11  1  0  0  0  0
  8 13  1  0  0  0  0
  9 10  2  0  0  0  0
  9 17  1  0  0  0  0
 11 14  1  0  0  0  0
 11 15  1  0  0  0  0
 11 16  1  0  0  0  0
 17 18  1  0  0  0  0
 17 23  1  0  0  0  0
 18 19  1  0  0  0  0
 18 21  1  0  0  0  0
 18 24  1  0  0  0  0
 19 20  2  0  0  0  0
 19 28  1  0  0  0  0
 21 22  1  0  0  0  0
 21 25  1  0  0  0  0
 21 26  1  0  0  0  0
 22 27  1  0  0  0  0
 28 29  1  0  0  0  0
 28 33  1  0  0  0  0
 29 30  1  0  0  0  0
 29 32  1  0  0  0  0
 29 34  1  0  0  0  0
 30 31  2  0  0  0  0
 30 38  1  0  0  0  0
 32 35  1  0  0  0  0
 32 36  1  0  0  0  0
 32 37  1  0  0  0  0
 38 39  1  0  0  0  0
 38 40  1  0  0  0  0
 39 41  1  0  0  0  0
 39 42  1  0  0  0  0
 39 43  1  0  0  0  0
M  END
$$$$

  -OEChem-05262216003D

 43 42  0     1  0  0  0  0  0999 V2000
   -2.3175   -3.9243    1.2392 C   0  0  0  0  0  0  0  0  0  0  0  0
   -1.1135   -4.0837    1.3838 O   0  0  0  0  0  0  0  0  0  0  0  0
   -3.2208   -3.7942    2.4503 C   0  0  0  0  0  0  0  0  0  0  0  0
   -4.1619   -4.3208    2.2743 H   0  0  0  0  0  0  0  0  0  0  0  0
   -2.7357   -4.2237    3.3307 H   0  0  0  0  0  0  0  0  0  0  0  0
   -3.4343   -2.7397    2.6408 H   0  0  0  0  0  0  0  0  0  0  0  0
   -2.8239   -3.7315   -0.0283 N   0  0  0  0  0  0  0  0  0  0  0  0
   -1.9808   -3.6225   -1.2300 C   0  0  2  0  0  0  0  0  0  0  0  0
   -1.3468   -2.2161   -1.3315 C   0  0  0  0  0  0  0  0  0  0  0  0
   -1.6386   -1.4452   -2.2384 O   0  0  0  0  0  0  0  0  0  0  0  0
   -2.8601   -3.9737   -2.4357 C   0  0  0  0  0  0  0  0  0  0  0  0
   -3.7558   -3.3038   -0.0587 H   0  0  0  0  0  0  0  0  0  0  0  0
   -1.1639   -4.3509   -1.1848 H   0  0  0  0  0  0  0  0  0  0  0  0
   -3.7026   -3.2789   -2.5132 H   0  0  0  0  0  0  0  0  0  0  0  0
   -2.2771   -3.9175   -3.3604 H   0  0  0  0  0  0  0  0  0  0  0  0
   -3.2539   -4.9896   -2.3361 H   0  0  0  0  0  0  0  0  0  0  0  0
   -0.5662   -1.7633   -0.2856 N   0  0  0  0  0  0  0  0  0  0  0  0
   -0.5662   -0.4053    0.3123 C   0  0  2  0  0  0  0  0  0  0  0  0
   -1.8722    0.4388    0.3155 C   0  0  0  0  0  0  0  0  0  0  0  0
   -2.0129    1.2701    1.2038 O   0  0  0  0  0  0  0  0  0  0  0  0
    0.5263    0.4070   -0.3958 C   0  0  0  0  0  0  0  0  0  0  0  0
    2.1893   -0.3003   -0.0397 S   0  0  0  0  0  0  0  0  0  0  0  0
   -0.3610   -2.5138    0.3817 H   0  0  0  0  0  0  0  0  0  0  0  0
   -0.2840   -0.5121    1.3645 H   0  0  0  0  0  0  0  0  0  0  0  0
    0.3449    0.4112   -1.4761 H   0  0  0  0  0  0  0  0  0  0  0  0
    0.5024    1.4451   -0.0469 H   0  0  0  0  0  0  0  0  0  0  0  0
    2.9762    0.5132   -0.7765 H   0  0  0  0  0  0  0  0  0  0  0  0
   -2.9796    0.1543   -0.4592 N   0  0  0  0  0  0  0  0  0  0  0  0
   -4.3613    0.5169   -0.1294 C   0  0  2  0  0  0  0  0  0  0  0  0
   -5.0736   -0.6030    0.6604 C   0  0  0  0  0  0  0  0  0  0  0  0
   -4.9022   -1.7857    0.3706 O   0  0  0  0  0  0  0  0  0  0  0  0
   -5.0931    0.7922   -1.4442 C   0  0  0  0  0  0  0  0  0  0  0  0
   -2.8288   -0.5266   -1.2061 H   0  0  0  0  0  0  0  0  0  0  0  0
   -4.3798    1.4318    0.4719 H   0  0  0  0  0  0  0  0  0  0  0  0
   -5.0962   -0.1022   -2.0761 H   0  0  0  0  0  0  0  0  0  0  0  0
   -6.1296    1.0854   -1.2510 H   0  0  0  0  0  0  0  0  0  0  0  0
   -4.5998    1.6024   -1.9902 H   0  0  0  0  0  0  0  0  0  0  0  0
   -5.9326   -0.2860    1.6958 N   0  0  0  0  0  0  0  0  0  0  0  0
   -6.6133   -1.2845    2.5117 C   0  0  0  0  0  0  0  0  0  0  0  0
   -5.9936    0.6919    1.9670 H   0  0  0  0  0  0  0  0  0  0  0  0
   -7.2328   -1.9350    1.8853 H   0  0  0  0  0  0  0  0  0  0  0  0
   -5.8860   -1.9010    3.0500 H   0  0  0  0  0  0  0  0  0  0  0  0
   -7.2616   -0.7952    3.2452 H   0  0  0  0  0  0  0  0  0  0  0  0
  1  2  2  0  0  0  0
  1  3  1  0  0  0  0
  1  7  1  0  0  0  0
  3  4  1  0  0  0  0
  3  5  1  0  0  0  0
  3  6  1  0  0  0  0
  7  8  1  0  0  0  0
  7 12  1  0  0  0  0
  8  9  1  0  0  0  0
  8 11  1  0  0  0  0
  8 13  1  0  0  0  0
  9 10  2  0  0  0  0
  9 17  1  0  0  0  0
 11 14  1  0  0  0  0
 11 15  1  0  0  0  0
 11 16  1  0  0  0  0
 17 18  1  0  0  0  0
 17 23  1  0  0  0  0
 18 19  1  0  0  0  0
 18 21  1  0  0  0  0
 18 24  1  0  0  0  0
 19 20  2  0  0  0  0
 19 28  1  0  0  0  0
 21 22  1  0  0  0  0
 21 25  1  0  0  0  0
 21 26  1  0  0  0  0
 22 27  1  0  0  0  0
 28 29  1  0  0  0  0
 28 33  1  0  0  0  0
 29 30  1  0  0  0  0
 29 32  1  0  0  0  0
 29 34  1  0  0  0  0
 30 31  2  0  0  0  0
 30 38  1  0  0  0  0
 32 35  1  0  0  0  0
 32 36  1  0  0  0  0
 32 37  1  0  0  0  0
 38 39  1  0  0  0  0
 38 40  1  0  0  0  0
 39 41  1  0  0  0  0
 39 42  1  0  0  0  0
 39 43  1  0  0  0  0
M  END
$$$$

  -OEChem-05262216003D

 43 42  0     1  0  0  0  0  0999 V2000
   -1.9858   -3.8373    1.5236 C   0  0  0  0  0  0  0  0  0  0  0  0
   -0.7667   -3.9385    1.5343 O   0  0  0  0  0  0  0  0  0  0  0  0
   -2.7539   -3.7054    2.8245 C   0  0  0  0  0  0  0  0  0  0  0  0
   -3.6412   -4.3429    2.8018 H   0  0  0  0  0  0  0  0  0  0  0  0
   -2.1250   -4.0071    3.6666 H   0  0  0  0  0  0  0  0  0  0  0  0
   -3.0660   -2.6679    2.9672 H   0  0  0  0  0  0  0  0  0  0  0  0
   -2.6421   -3.7298    0.3163 N   0  0  0  0  0  0  0  0  0  0  0  0
   -1.9457   -3.6508   -0.9777 C   0  0  2  0  0  0  0  0  0  0  0  0
   -1.3860   -2.2293   -1.2100 C   0  0  0  0  0  0  0  0  0  0  0  0
   -1.8999   -1.4690   -2.0214 O   0  0  0  0  0  0  0  0  0  0  0  0
   -2.9394   -4.0909   -2.0590 C   0  0  0  0  0  0  0  0  0  0  0  0
   -3.5979   -3.3613    0.3711 H   0  0  0  0  0  0  0  0  0  0  0  0
   -1.1003   -4.3473   -0.9945 H   0  0  0  0  0  0  0  0  0  0  0  0
   -3.8175   -3.4367   -2.0658 H   0  0  0  0  0  0  0  0  0  0  0  0
   -2.4682   -4.0505   -3.0462 H   0  0  0  0  0  0  0  0  0  0  0  0
   -3.2715   -5.1173   -1.8752 H   0  0  0  0  0  0  0  0  0  0  0  0
   -0.4318   -1.7390   -0.3390 N   0  0  0  0  0  0  0  0  0  0  0  0
   -0.3493   -0.3599    0.2041 C   0  0  2  0  0  0  0  0  0  0  0  0
   -1.6547    0.4595    0.4151 C   0  0  0  0  0  0  0  0  0  0  0  0
   -1.5987    1.4893    1.0755 O   0  0  0  0  0  0  0  0  0  0  0  0
    0.5850    0.4356   -0.7199 C   0  0  0  0  0  0  0  0  0  0  0  0
    2.2968   -0.2412   -0.6467 S   0  0  0  0  0  0  0  0  0  0  0  0
   -0.0966   -2.4636    0.3034 H   0  0  0  0  0  0  0  0  0  0  0  0
    0.1170   -0.4218    1.1925 H   0  0  0  0  0  0  0  0  0  0  0  0
    0.2103    0.3965   -1.7483 H   0  0  0  0  0  0  0  0  0  0  0  0
    0.6096    1.4866   -0.4126 H   0  0  0  0  0  0  0  0  0  0  0  0
    2.9243    0.5588   -1.5360 H   0  0  0  0  0  0  0  0  0  0  0  0
   -2.9084   -0.0365    0.1168 N   0  0  0  0  0  0  0  0  0  0  0  0
   -4.1934    0.4357    0.6410 C   0  0  2  0  0  0  0  0  0  0  0  0
   -5.0752   -0.7350    1.1335 C   0  0  0  0  0  0  0  0  0  0  0  0
   -4.8179   -1.8984    0.8272 O   0  0  0  0  0  0  0  0  0  0  0  0
   -4.8934    1.2130   -0.4757 C   0  0  0  0  0  0  0  0  0  0  0  0
   -2.9258   -0.8047   -0.5558 H   0  0  0  0  0  0  0  0  0  0  0  0
   -4.0299    1.1031    1.4934 H   0  0  0  0  0  0  0  0  0  0  0  0
   -5.0727    0.5642   -1.3395 H   0  0  0  0  0  0  0  0  0  0  0  0
   -5.8533    1.6066   -0.1286 H   0  0  0  0  0  0  0  0  0  0  0  0
   -4.2713    2.0548   -0.7965 H   0  0  0  0  0  0  0  0  0  0  0  0
   -6.1641   -0.4895    1.9493 N   0  0  0  0  0  0  0  0  0  0  0  0
   -7.0424   -1.5371    2.4569 C   0  0  0  0  0  0  0  0  0  0  0  0
   -6.3541    0.4766    2.2020 H   0  0  0  0  0  0  0  0  0  0  0  0
   -7.5306   -2.0619    1.6289 H   0  0  0  0  0  0  0  0  0  0  0  0
   -6.4732   -2.2623    3.0478 H   0  0  0  0  0  0  0  0  0  0  0  0
   -7.8177   -1.1043    3.0966 H   0  0  0  0  0  0  0  0  0  0  0  0
  1  2  2  0  0  0  0
  1  3  1  0  0  0  0
  1  7  1  0  0  0  0
  3  4  1  0  0  0  0
  3  5  1  0  0  0  0
  3  6  1  0  0  0  0
  7  8  1  0  0  0  0
  7 12  1  0  0  0  0
  8  9  1  0  0  0  0
  8 11  1  0  0  0  0
  8 13  1  0  0  0  0
  9 10  2  0  0  0  0
  9 17  1  0  0  0  0
 11 14  1  0  0  0  0
 11 15  1  0  0  0  0
 11 16  1  0  0  0  0
 17 18  1  0  0  0  0
 17 23  1  0  0  0  0
 18 19  1  0  0  0  0
 18 21  1  0  0  0  0
 18 24  1  0  0  0  0
 19 20  2  0  0  0  0
 19 28  1  0  0  0  0
 21 22  1  0  0  0  0
 21 25  1  0  0  0  0
 21 26  1  0  0  0  0
 22 27  1  0  0  0  0
 28 29  1  0  0  0  0
 28 33  1  0  0  0  0
 29 30  1  0  0  0  0
 29 32  1  0  0  0  0
 29 34  1  0  0  0  0
 30 31  2  0  0  0  0
 30 38  1  0  0  0  0
 32 35  1  0  0  0  0
 32 36  1  0  0  0  0
 32 37  1  0  0  0  0
 38 39  1  0  0  0  0
 38 40  1  0  0  0  0
 39 41  1  0  0  0  0
 39 42  1  0  0  0  0
 39 43  1  0  0  0  0
M  END
$$$$

  -OEChem-05262216003D

 43 42  0     1  0  0  0  0  0999 V2000
   -1.8645   -3.8546    1.5489 C   0  0  0  0  0  0  0  0  0  0  0  0
   -0.6644   -4.0160    1.3756 O   0  0  0  0  0  0  0  0  0  0  0  0
   -2.4314   -3.7642    2.9524 C   0  0  0  0  0  0  0  0  0  0  0  0
   -1.6918   -4.1055    3.6820 H   0  0  0  0  0  0  0  0  0  0  0  0
   -2.7008   -2.7296    3.1786 H   0  0  0  0  0  0  0  0  0  0  0  0
   -3.3239   -4.3892    3.0360 H   0  0  0  0  0  0  0  0  0  0  0  0
   -2.6791   -3.6489    0.4555 N   0  0  0  0  0  0  0  0  0  0  0  0
   -2.1758   -3.5494   -0.9247 C   0  0  2  0  0  0  0  0  0  0  0  0
   -1.5523   -2.1583   -1.1800 C   0  0  0  0  0  0  0  0  0  0  0  0
   -2.1671   -1.2977   -1.7960 O   0  0  0  0  0  0  0  0  0  0  0  0
   -3.3460   -3.8647   -1.8639 C   0  0  0  0  0  0  0  0  0  0  0  0
   -3.6152   -3.2836    0.6621 H   0  0  0  0  0  0  0  0  0  0  0  0
   -1.3966   -4.3001   -1.0964 H   0  0  0  0  0  0  0  0  0  0  0  0
   -4.1674   -3.1572   -1.7094 H   0  0  0  0  0  0  0  0  0  0  0  0
   -3.0229   -3.7990   -2.9077 H   0  0  0  0  0  0  0  0  0  0  0  0
   -3.7192   -4.8768   -1.6796 H   0  0  0  0  0  0  0  0  0  0  0  0
   -0.4198   -1.7954   -0.4744 N   0  0  0  0  0  0  0  0  0  0  0  0
   -0.1583   -0.4627    0.1259 C   0  0  2  0  0  0  0  0  0  0  0  0
   -1.3752    0.3752    0.6124 C   0  0  0  0  0  0  0  0  0  0  0  0
   -1.2052    1.5003    1.0659 O   0  0  0  0  0  0  0  0  0  0  0  0
    0.6447    0.3478   -0.9040 C   0  0  0  0  0  0  0  0  0  0  0  0
    2.2971   -0.4179   -1.1804 S   0  0  0  0  0  0  0  0  0  0  0  0
   -0.0320   -2.5805    0.0576 H   0  0  0  0  0  0  0  0  0  0  0  0
    0.4677   -0.6092    1.0110 H   0  0  0  0  0  0  0  0  0  0  0  0
    0.0911    0.3985   -1.8478 H   0  0  0  0  0  0  0  0  0  0  0  0
    0.7901    1.3729   -0.5469 H   0  0  0  0  0  0  0  0  0  0  0  0
    2.8041    0.4147   -2.1153 H   0  0  0  0  0  0  0  0  0  0  0  0
   -2.6186   -0.2031    0.7790 N   0  0  0  0  0  0  0  0  0  0  0  0
   -3.8168    0.4313    1.3322 C   0  0  2  0  0  0  0  0  0  0  0  0
   -4.8670   -0.6325    1.7288 C   0  0  0  0  0  0  0  0  0  0  0  0
   -4.7250   -1.8111    1.4029 O   0  0  0  0  0  0  0  0  0  0  0  0
   -4.3973    1.3892    0.2848 C   0  0  0  0  0  0  0  0  0  0  0  0
   -2.7727   -1.0426    0.2238 H   0  0  0  0  0  0  0  0  0  0  0  0
   -3.5476    0.9940    2.2322 H   0  0  0  0  0  0  0  0  0  0  0  0
   -4.6580    0.8441   -0.6285 H   0  0  0  0  0  0  0  0  0  0  0  0
   -5.2963    1.8812    0.6677 H   0  0  0  0  0  0  0  0  0  0  0  0
   -3.6671    2.1634    0.0284 H   0  0  0  0  0  0  0  0  0  0  0  0
   -5.9765   -0.2750    2.4716 N   0  0  0  0  0  0  0  0  0  0  0  0
   -7.0255   -1.2135    2.8523 C   0  0  0  0  0  0  0  0  0  0  0  0
   -6.0842    0.7067    2.7116 H   0  0  0  0  0  0  0  0  0  0  0  0
   -7.4988   -1.6406    1.9616 H   0  0  0  0  0  0  0  0  0  0  0  0
   -6.6118   -2.0276    3.4570 H   0  0  0  0  0  0  0  0  0  0  0  0
   -7.7943   -0.7033    3.4408 H   0  0  0  0  0  0  0  0  0  0  0  0
  1  2  2  0  0  0  0
  1  3  1  0  0  0  0
  1  7  1  0  0  0  0
  3  4  1  0  0  0  0
  3  5  1  0  0  0  0
  3  6  1  0  0  0  0
  7  8  1  0  0  0  0
  7 12  1  0  0  0  0
  8  9  1  0  0  0  0
  8 11  1  0  0  0  0
  8 13  1  0  0  0  0
  9 10  2  0  0  0  0
  9 17  1  0  0  0  0
 11 14  1  0  0  0  0
 11 15  1  0  0  0  0
 11 16  1  0  0  0  0
 17 18  1  0  0  0  0
 17 23  1  0  0  0  0
 18 19  1  0  0  0  0
 18 21  1  0  0  0  0
 18 24  1  0  0  0  0
 19 20  2  0  0  0  0
 19 28  1  0  0  0  0
 21 22  1  0  0  0  0
 21 25  1  0  0  0  0
 21 26  1  0  0  0  0
 22 27  1  0  0  0  0
 28 29  1  0  0  0  0
 28 33  1  0  0  0  0
 29 30  1  0  0  0  0
 29 32  1  0  0  0  0
 29 34  1  0  0  0  0
 30 31  2  0  0  0  0
 30 38  1  0  0  0  0
 32 35  1  0  0  0  0
 32 36  1  0  0  0  0
 32 37  1  0  0  0  0
 38 39  1  0  0  0  0
 38 40  1  0  0  0  0
 39 41  1  0  0  0  0
 39 42  1  0  0  0  0
 39 43  1  0  0  0  0
M  END
$$$$

  -OEChem-05262216003D

 43 42  0     1  0  0  0  0  0999 V2000
   -1.8084   -3.8257    1.5942 C   0  0  0  0  0  0  0  0  0  0  0  0
   -0.6458   -4.0324    1.2774 O   0  0  0  0  0  0  0  0  0  0  0  0
   -2.2268   -3.8702    3.0512 C   0  0  0  0  0  0  0  0  0  0  0  0
   -1.4462   -4.3413    3.6545 H   0  0  0  0  0  0  0  0  0  0  0  0
   -2.3974   -2.8565    3.4217 H   0  0  0  0  0  0  0  0  0  0  0  0
   -3.1494   -4.4461    3.1577 H   0  0  0  0  0  0  0  0  0  0  0  0
   -2.7071   -3.4464    0.6193 N   0  0  0  0  0  0  0  0  0  0  0  0
   -2.3701   -3.3176   -0.8099 C   0  0  2  0  0  0  0  0  0  0  0  0
   -1.6443   -1.9834   -1.0996 C   0  0  0  0  0  0  0  0  0  0  0  0
   -2.2027   -1.0766   -1.7028 O   0  0  0  0  0  0  0  0  0  0  0  0
   -3.6746   -3.4723   -1.6004 C   0  0  0  0  0  0  0  0  0  0  0  0
   -3.6091   -3.0868    0.9501 H   0  0  0  0  0  0  0  0  0  0  0  0
   -1.6976   -4.1289   -1.1097 H   0  0  0  0  0  0  0  0  0  0  0  0
   -4.3883   -2.6892   -1.3245 H   0  0  0  0  0  0  0  0  0  0  0  0
   -3.4779   -3.3988   -2.6746 H   0  0  0  0  0  0  0  0  0  0  0  0
   -4.1299   -4.4464   -1.3982 H   0  0  0  0  0  0  0  0  0  0  0  0
   -0.4427   -1.7279   -0.4619 N   0  0  0  0  0  0  0  0  0  0  0  0
   -0.0461   -0.4152    0.1029 C   0  0  2  0  0  0  0  0  0  0  0  0
   -1.2064    0.4790    0.6218 C   0  0  0  0  0  0  0  0  0  0  0  0
   -1.0791    1.6907    0.7517 O   0  0  0  0  0  0  0  0  0  0  0  0
    0.7801    0.3204   -0.9648 C   0  0  0  0  0  0  0  0  0  0  0  0
    2.3525   -0.5824   -1.2916 S   0  0  0  0  0  0  0  0  0  0  0  0
   -0.0787   -2.5456    0.0376 H   0  0  0  0  0  0  0  0  0  0  0  0
    0.5992   -0.5950    0.9674 H   0  0  0  0  0  0  0  0  0  0  0  0
    0.1969    0.4103   -1.8875 H   0  0  0  0  0  0  0  0  0  0  0  0
    1.0234    1.3322   -0.6240 H   0  0  0  0  0  0  0  0  0  0  0  0
    2.8954    0.1987   -2.2506 H   0  0  0  0  0  0  0  0  0  0  0  0
   -2.3501   -0.1178    1.1212 N   0  0  0  0  0  0  0  0  0  0  0  0
   -3.5793    0.5749    1.5179 C   0  0  2  0  0  0  0  0  0  0  0  0
   -4.5613   -0.4035    2.1990 C   0  0  0  0  0  0  0  0  0  0  0  0
   -4.4703   -1.6153    2.0035 O   0  0  0  0  0  0  0  0  0  0  0  0
   -4.2471    1.1808    0.2760 C   0  0  0  0  0  0  0  0  0  0  0  0
   -2.4440   -1.1087    0.9134 H   0  0  0  0  0  0  0  0  0  0  0  0
   -3.3331    1.3709    2.2283 H   0  0  0  0  0  0  0  0  0  0  0  0
   -4.4663    0.3993   -0.4593 H   0  0  0  0  0  0  0  0  0  0  0  0
   -5.1835    1.6778    0.5466 H   0  0  0  0  0  0  0  0  0  0  0  0
   -3.5918    1.9209   -0.1934 H   0  0  0  0  0  0  0  0  0  0  0  0
   -5.5554    0.0718    3.0334 N   0  0  0  0  0  0  0  0  0  0  0  0
   -6.5210   -0.7870    3.7086 C   0  0  0  0  0  0  0  0  0  0  0  0
   -5.6144    1.0777    3.1678 H   0  0  0  0  0  0  0  0  0  0  0  0
   -7.1153   -1.3450    2.9774 H   0  0  0  0  0  0  0  0  0  0  0  0
   -6.0093   -1.4985    4.3652 H   0  0  0  0  0  0  0  0  0  0  0  0
   -7.2011   -0.1840    4.3180 H   0  0  0  0  0  0  0  0  0  0  0  0
  1  2  2  0  0  0  0
  1  3  1  0  0  0  0
  1  7  1  0  0  0  0
  3  4  1  0  0  0  0
  3  5  1  0  0  0  0
  3  6  1  0  0  0  0
  7  8  1  0  0  0  0
  7 12  1  0  0  0  0
  8  9  1  0  0  0  0
  8 11  1  0  0  0  0
  8 13  1  0  0  0  0
  9 10  2  0  0  0  0
  9 17  1  0  0  0  0
 11 14  1  0  0  0  0
 11 15  1  0  0  0  0
 11 16  1  0  0  0  0
 17 18  1  0  0  0  0
 17 23  1  0  0  0  0
 18 19  1  0  0  0  0
 18 21  1  0  0  0  0
 18 24  1  0  0  0  0
 19 20  2  0  0  0  0
 19 28  1  0  0  0  0
 21 22  1  0  0  0  0
 21 25  1  0  0  0  0
 21 26  1  0  0  0  0
 22 27  1  0  0  0  0
 28 29  1  0  0  0  0
 28 33  1  0  0  0  0
 29 30  1  0  0  0  0
 29 32  1  0  0  0  0
 29 34  1  0  0  0  0
 30 31  2  0  0  0  0
 30 38  1  0  0  0  0
 32 35  1  0  0  0  0
 32 36  1  0  0  0  0
 32 37  1  0  0  0  0
 38 39  1  0  0  0  0
 38 40  1  0  0  0  0
 39 41  1  0  0  0  0
 39 42  1  0  0  0  0
 39 43  1  0  0  0  0
M  END
$$$$

  -OEChem-05262216003D

 43 42  0     1  0  0  0  0  0999 V2000
   -3.0955   -5.2491    0.9133 C   0  0  0  0  0  0  0  0  0  0  0  0
   -2.1413   -5.9211    1.2719 O   0  0  0  0  0  0  0  0  0  0  0  0
   -4.4992   -5.6178    1.3551 C   0  0  0  0  0  0  0  0  0  0  0  0
   -5.1053   -5.8858    0.4861 H   0  0  0  0  0  0  0  0  0  0  0  0
   -4.4672   -6.4697    2.0400 H   0  0  0  0  0  0  0  0  0  0  0  0
   -4.9636   -4.7719    1.8683 H   0  0  0  0  0  0  0  0  0  0  0  0
   -2.8981   -4.1427    0.1150 N   0  0  0  0  0  0  0  0  0  0  0  0
   -1.5807   -3.5823   -0.2103 C   0  0  2  0  0  0  0  0  0  0  0  0
   -1.6290   -2.0422   -0.2749 C   0  0  0  0  0  0  0  0  0  0  0  0
   -2.6990   -1.4842   -0.4788 O   0  0  0  0  0  0  0  0  0  0  0  0
   -1.1245   -4.1634   -1.5513 C   0  0  0  0  0  0  0  0  0  0  0  0
   -3.7049   -3.5446   -0.0618 H   0  0  0  0  0  0  0  0  0  0  0  0
   -0.8579   -3.8561    0.5661 H   0  0  0  0  0  0  0  0  0  0  0  0
   -1.8307   -3.8964   -2.3441 H   0  0  0  0  0  0  0  0  0  0  0  0
   -0.1358   -3.7795   -1.8210 H   0  0  0  0  0  0  0  0  0  0  0  0
   -1.0657   -5.2548   -1.4897 H   0  0  0  0  0  0  0  0  0  0  0  0
   -0.4625   -1.3092   -0.1307 N   0  0  0  0  0  0  0  0  0  0  0  0
   -0.2965    0.1616   -0.1849 C   0  0  2  0  0  0  0  0  0  0  0  0
   -1.4963    1.0303    0.2817 C   0  0  0  0  0  0  0  0  0  0  0  0
   -1.7709    2.0910   -0.2691 O   0  0  0  0  0  0  0  0  0  0  0  0
    0.1024    0.4881   -1.6329 C   0  0  0  0  0  0  0  0  0  0  0  0
    1.7470   -0.2514   -2.0096 S   0  0  0  0  0  0  0  0  0  0  0  0
    0.3953   -1.8557   -0.1057 H   0  0  0  0  0  0  0  0  0  0  0  0
    0.5312    0.4404    0.4736 H   0  0  0  0  0  0  0  0  0  0  0  0
   -0.6580    0.1111   -2.3254 H   0  0  0  0  0  0  0  0  0  0  0  0
    0.1712    1.5724   -1.7709 H   0  0  0  0  0  0  0  0  0  0  0  0
    1.9337    0.1905   -3.2737 H   0  0  0  0  0  0  0  0  0  0  0  0
   -2.1652    0.7031    1.4462 N   0  0  0  0  0  0  0  0  0  0  0  0
   -3.3528    1.3930    1.9620 C   0  0  2  0  0  0  0  0  0  0  0  0
   -3.6432    0.9941    3.4245 C   0  0  0  0  0  0  0  0  0  0  0  0
   -3.1280   -0.0083    3.9093 O   0  0  0  0  0  0  0  0  0  0  0  0
   -4.5576    1.0389    1.0802 C   0  0  0  0  0  0  0  0  0  0  0  0
   -1.9583   -0.2085    1.8504 H   0  0  0  0  0  0  0  0  0  0  0  0
   -3.1843    2.4744    1.9342 H   0  0  0  0  0  0  0  0  0  0  0  0
   -4.7322   -0.0419    1.0903 H   0  0  0  0  0  0  0  0  0  0  0  0
   -5.4596    1.5421    1.4400 H   0  0  0  0  0  0  0  0  0  0  0  0
   -4.3824    1.3498    0.0455 H   0  0  0  0  0  0  0  0  0  0  0  0
   -4.4961    1.7568    4.2013 N   0  0  0  0  0  0  0  0  0  0  0  0
   -4.8235    1.4345    5.5849 C   0  0  0  0  0  0  0  0  0  0  0  0
   -4.9096    2.5810    3.7754 H   0  0  0  0  0  0  0  0  0  0  0  0
   -5.2849    0.4433    5.6493 H   0  0  0  0  0  0  0  0  0  0  0  0
   -3.9203    1.4437    6.2041 H   0  0  0  0  0  0  0  0  0  0  0  0
   -5.5271    2.1692    5.9879 H   0  0  0  0  0  0  0  0  0  0  0  0
  1  2  2  0  0  0  0
  1  3  1  0  0  0  0
  1  7  1  0  0  0  0
  3  4  1  0  0  0  0
  3  5  1  0  0  0  0
  3  6  1  0  0  0  0
  7  8  1  0  0  0  0
  7 12  1  0  0  0  0
  8  9  1  0  0  0  0
  8 11  1  0  0  0  0
  8 13  1  0  0  0  0
  9 10  2  0  0  0  0
  9 17  1  0  0  0  0
 11 14  1  0  0  0  0
 11 15  1  0  0  0  0
 11 16  1  0  0  0  0
 17 18  1  0  0  0  0
 17 23  1  0  0  0  0
 18 19  1  0  0  0  0
 18 21  1  0  0  0  0
 18 24  1  0  0  0  0
 19 20  2  0  0  0  0
 19 28  1  0  0  0  0
 21 22  1  0  0  0  0
 21 25  1  0  0  0  0
 21 26  1  0  0  0  0
 22 27  1  0  0  0  0
 28 29  1  0  0  0  0
 28 33  1  0  0  0  0
 29 30  1  0  0  0  0
 29 32  1  0  0  0  0
 29 34  1  0  0  0  0
 30 31  2  0  0  0  0
 30 38  1  0  0  0  0
 32 35  1  0  0  0  0
 32 36  1  0  0  0  0
 32 37  1  0  0  0  0
 38 39  1  0  0  0  0
 38 40  1  0  0  0  0
 39 41  1  0  0  0  0
 39 42  1  0  0  0  0
 39 43  1  0  0  0  0
M  END
$$$$

  -OEChem-05262216003D

 43 42  0     1  0  0  0  0  0999 V2000
   -3.1621   -5.2965    0.8247 C   0  0  0  0  0  0  0  0  0  0  0  0
   -2.2152   -5.9792    1.1820 O   0  0  0  0  0  0  0  0  0  0  0  0
   -4.5766   -5.7038    1.1926 C   0  0  0  0  0  0  0  0  0  0  0  0
   -5.1636   -5.8739    0.2869 H   0  0  0  0  0  0  0  0  0  0  0  0
   -4.5620   -6.6253    1.7814 H   0  0  0  0  0  0  0  0  0  0  0  0
   -5.0505   -4.9162    1.7838 H   0  0  0  0  0  0  0  0  0  0  0  0
   -2.9451   -4.1442    0.0991 N   0  0  0  0  0  0  0  0  0  0  0  0
   -1.6202   -3.5614   -0.1510 C   0  0  2  0  0  0  0  0  0  0  0  0
   -1.6712   -2.0194   -0.1668 C   0  0  0  0  0  0  0  0  0  0  0  0
   -2.7507   -1.4560   -0.2903 O   0  0  0  0  0  0  0  0  0  0  0  0
   -1.1019   -4.0954   -1.4895 C   0  0  0  0  0  0  0  0  0  0  0  0
   -3.7490   -3.5406   -0.0718 H   0  0  0  0  0  0  0  0  0  0  0  0
   -0.9301   -3.8563    0.6470 H   0  0  0  0  0  0  0  0  0  0  0  0
   -1.7721   -3.8013   -2.3037 H   0  0  0  0  0  0  0  0  0  0  0  0
   -0.1027   -3.7025   -1.7010 H   0  0  0  0  0  0  0  0  0  0  0  0
   -1.0435   -5.1882   -1.4633 H   0  0  0  0  0  0  0  0  0  0  0  0
   -0.4943   -1.2966   -0.0531 N   0  0  0  0  0  0  0  0  0  0  0  0
   -0.3136    0.1676   -0.1677 C   0  0  2  0  0  0  0  0  0  0  0  0
   -1.5124    1.0507    0.2657 C   0  0  0  0  0  0  0  0  0  0  0  0
   -1.9514    1.9440   -0.4514 O   0  0  0  0  0  0  0  0  0  0  0  0
    0.0856    0.4368   -1.6271 C   0  0  0  0  0  0  0  0  0  0  0  0
    1.7227   -0.3322   -1.9752 S   0  0  0  0  0  0  0  0  0  0  0  0
    0.3574   -1.8520   -0.0831 H   0  0  0  0  0  0  0  0  0  0  0  0
    0.5173    0.4676    0.4778 H   0  0  0  0  0  0  0  0  0  0  0  0
   -0.6790    0.0413   -2.3049 H   0  0  0  0  0  0  0  0  0  0  0  0
    0.1608    1.5154   -1.8033 H   0  0  0  0  0  0  0  0  0  0  0  0
    1.9152    0.0594   -3.2545 H   0  0  0  0  0  0  0  0  0  0  0  0
   -1.9717    0.9631    1.5658 N   0  0  0  0  0  0  0  0  0  0  0  0
   -3.1292    1.6902    2.0982 C   0  0  2  0  0  0  0  0  0  0  0  0
   -3.1527    1.6606    3.6409 C   0  0  0  0  0  0  0  0  0  0  0  0
   -2.4712    0.8473    4.2568 O   0  0  0  0  0  0  0  0  0  0  0  0
   -4.4092    1.0514    1.5448 C   0  0  0  0  0  0  0  0  0  0  0  0
   -1.6067    0.2027    2.1370 H   0  0  0  0  0  0  0  0  0  0  0  0
   -3.0773    2.7374    1.7824 H   0  0  0  0  0  0  0  0  0  0  0  0
   -4.4691   -0.0006    1.8424 H   0  0  0  0  0  0  0  0  0  0  0  0
   -5.2945    1.5726    1.9205 H   0  0  0  0  0  0  0  0  0  0  0  0
   -4.4207    1.1011    0.4514 H   0  0  0  0  0  0  0  0  0  0  0  0
   -3.9494    2.5447    4.3453 N   0  0  0  0  0  0  0  0  0  0  0  0
   -4.0323    2.5637    5.8009 C   0  0  0  0  0  0  0  0  0  0  0  0
   -4.5097    3.2020    3.8104 H   0  0  0  0  0  0  0  0  0  0  0  0
   -4.4388    1.6179    6.1744 H   0  0  0  0  0  0  0  0  0  0  0  0
   -3.0408    2.7183    6.2395 H   0  0  0  0  0  0  0  0  0  0  0  0
   -4.6859    3.3764    6.1322 H   0  0  0  0  0  0  0  0  0  0  0  0
  1  2  2  0  0  0  0
  1  3  1  0  0  0  0
  1  7  1  0  0  0  0
  3  4  1  0  0  0  0
  3  5  1  0  0  0  0
  3  6  1  0  0  0  0
  7  8  1  0  0  0  0
  7 12  1  0  0  0  0
  8  9  1  0  0  0  0
  8 11  1  0  0  0  0
  8 13  1  0  0  0  0
  9 10  2  0  0  0  0
  9 17  1  0  0  0  0
 11 14  1  0  0  0  0
 11 15  1  0  0  0  0
 11 16  1  0  0  0  0
 17 18  1  0  0  0  0
 17 23  1  0  0  0  0
 18 19  1  0  0  0  0
 18 21  1  0  0  0  0
 18 24  1  0  0  0  0
 19 20  2  0  0  0  0
 19 28  1  0  0  0  0
 21 22  1  0  0  0  0
 21 25  1  0  0  0  0
 21 26  1  0  0  0  0
 22 27  1  0  0  0  0
 28 29  1  0  0  0  0
 28 33  1  0  0  0  0
 29 30  1  0  0  0  0
 29 32  1  0  0  0  0
 29 34  1  0  0  0  0
 30 31  2  0  0  0  0
 30 38  1  0  0  0  0
 32 35  1  0  0  0  0
 32 36  1  0  0  0  0
 32 37  1  0  0  0  0
 38 39  1  0  0  0  0
 38 40  1  0  0  0  0
 39 41  1  0  0  0  0
 39 42  1  0  0  0  0
 39 43  1  0  0  0  0
M  END
$$$$

  -OEChem-05262216003D

 43 42  0     1  0  0  0  0  0999 V2000
   -3.1776   -5.3162    0.8119 C   0  0  0  0  0  0  0  0  0  0  0  0
   -2.2300   -6.0019    1.1617 O   0  0  0  0  0  0  0  0  0  0  0  0
   -4.5910   -5.7223    1.1838 C   0  0  0  0  0  0  0  0  0  0  0  0
   -5.1791   -5.8982    0.2799 H   0  0  0  0  0  0  0  0  0  0  0  0
   -4.5752   -6.6398    1.7788 H   0  0  0  0  0  0  0  0  0  0  0  0
   -5.0643   -4.9308    1.7701 H   0  0  0  0  0  0  0  0  0  0  0  0
   -2.9643   -4.1596    0.0928 N   0  0  0  0  0  0  0  0  0  0  0  0
   -1.6415   -3.5681   -0.1456 C   0  0  2  0  0  0  0  0  0  0  0  0
   -1.6903   -2.0263   -0.0986 C   0  0  0  0  0  0  0  0  0  0  0  0
   -2.7741   -1.4601   -0.1479 O   0  0  0  0  0  0  0  0  0  0  0  0
   -1.1407   -4.0519   -1.5094 C   0  0  0  0  0  0  0  0  0  0  0  0
   -3.7684   -3.5513   -0.0591 H   0  0  0  0  0  0  0  0  0  0  0  0
   -0.9422   -3.8943    0.6319 H   0  0  0  0  0  0  0  0  0  0  0  0
   -1.8204   -3.7272   -2.3038 H   0  0  0  0  0  0  0  0  0  0  0  0
   -0.1437   -3.6526   -1.7184 H   0  0  0  0  0  0  0  0  0  0  0  0
   -1.0840   -5.1451   -1.5249 H   0  0  0  0  0  0  0  0  0  0  0  0
   -0.5086   -1.3105    0.0098 N   0  0  0  0  0  0  0  0  0  0  0  0
   -0.3205    0.1496   -0.1337 C   0  0  2  0  0  0  0  0  0  0  0  0
   -1.5175    1.0487    0.2699 C   0  0  0  0  0  0  0  0  0  0  0  0
   -2.0900    1.7643   -0.5460 O   0  0  0  0  0  0  0  0  0  0  0  0
    0.0895    0.3887   -1.5946 C   0  0  0  0  0  0  0  0  0  0  0  0
    1.7255   -0.3929   -1.9186 S   0  0  0  0  0  0  0  0  0  0  0  0
    0.3371   -1.8709   -0.0662 H   0  0  0  0  0  0  0  0  0  0  0  0
    0.5087    0.4590    0.5093 H   0  0  0  0  0  0  0  0  0  0  0  0
   -0.6717   -0.0168   -2.2701 H   0  0  0  0  0  0  0  0  0  0  0  0
    0.1677    1.4641   -1.7884 H   0  0  0  0  0  0  0  0  0  0  0  0
    1.9340   -0.0118   -3.1988 H   0  0  0  0  0  0  0  0  0  0  0  0
   -1.7927    1.2336    1.6116 N   0  0  0  0  0  0  0  0  0  0  0  0
   -2.9034    2.0365    2.1359 C   0  0  2  0  0  0  0  0  0  0  0  0
   -2.7224    2.3487    3.6364 C   0  0  0  0  0  0  0  0  0  0  0  0
   -1.8910    1.7392    4.3012 O   0  0  0  0  0  0  0  0  0  0  0  0
   -4.2113    1.2660    1.9123 C   0  0  0  0  0  0  0  0  0  0  0  0
   -1.3006    0.6413    2.2785 H   0  0  0  0  0  0  0  0  0  0  0  0
   -2.9459    2.9906    1.6004 H   0  0  0  0  0  0  0  0  0  0  0  0
   -4.1831    0.3052    2.4365 H   0  0  0  0  0  0  0  0  0  0  0  0
   -5.0655    1.8408    2.2812 H   0  0  0  0  0  0  0  0  0  0  0  0
   -4.3647    1.0715    0.8459 H   0  0  0  0  0  0  0  0  0  0  0  0
   -3.4971    3.3179    4.2470 N   0  0  0  0  0  0  0  0  0  0  0  0
   -3.3854    3.6627    5.6593 C   0  0  0  0  0  0  0  0  0  0  0  0
   -4.1767    3.8070    3.6718 H   0  0  0  0  0  0  0  0  0  0  0  0
   -3.5956    2.7887    6.2851 H   0  0  0  0  0  0  0  0  0  0  0  0
   -2.3773    4.0252    5.8871 H   0  0  0  0  0  0  0  0  0  0  0  0
   -4.1012    4.4503    5.9143 H   0  0  0  0  0  0  0  0  0  0  0  0
  1  2  2  0  0  0  0
  1  3  1  0  0  0  0
  1  7  1  0  0  0  0
  3  4  1  0  0  0  0
  3  5  1  0  0  0  0
  3  6  1  0  0  0  0
  7  8  1  0  0  0  0
  7 12  1  0  0  0  0
  8  9  1  0  0  0  0
  8 11  1  0  0  0  0
  8 13  1  0  0  0  0
  9 10  2  0  0  0  0
  9 17  1  0  0  0  0
 11 14  1  0  0  0  0
 11 15  1  0  0  0  0
 11 16  1  0  0  0  0
 17 18  1  0  0  0  0
 17 23  1  0  0  0  0
 18 19  1  0  0  0  0
 18 21  1  0  0  0  0
 18 24  1  0  0  0  0
 19 20  2  0  0  0  0
 19 28  1  0  0  0  0
 21 22  1  0  0  0  0
 21 25  1  0  0  0  0
 21 26  1  0  0  0  0
 22 27  1  0  0  0  0
 28 29  1  0  0  0  0
 28 33  1  0  0  0  0
 29 30  1  0  0  0  0
 29 32  1  0  0  0  0
 29 34  1  0  0  0  0
 30 31  2  0  0  0  0
 30 38  1  0  0  0  0
 32 35  1  0  0  0  0
 32 36  1  0  0  0  0
 32 37  1  0  0  0  0
 38 39  1  0  0  0  0
 38 40  1  0  0  0  0
 39 41  1  0  0  0  0
 39 42  1  0  0  0  0
 39 43  1  0  0  0  0
M  END
$$$$

  -OEChem-05262216003D

 43 42  0     1  0  0  0  0  0999 V2000
   -3.1481   -5.3906    0.7744 C   0  0  0  0  0  0  0  0  0  0  0  0
   -2.1841   -6.0877    1.0489 O   0  0  0  0  0  0  0  0  0  0  0  0
   -4.5456   -5.8355    1.1619 C   0  0  0  0  0  0  0  0  0  0  0  0
   -5.1319   -6.0444    0.2639 H   0  0  0  0  0  0  0  0  0  0  0  0
   -4.4972   -6.7420    1.7716 H   0  0  0  0  0  0  0  0  0  0  0  0
   -5.0421   -5.0510    1.7381 H   0  0  0  0  0  0  0  0  0  0  0  0
   -2.9674   -4.1908    0.1206 N   0  0  0  0  0  0  0  0  0  0  0  0
   -1.6582   -3.5838   -0.1503 C   0  0  2  0  0  0  0  0  0  0  0  0
   -1.7157   -2.0449   -0.0500 C   0  0  0  0  0  0  0  0  0  0  0  0
   -2.8033   -1.4851   -0.0659 O   0  0  0  0  0  0  0  0  0  0  0  0
   -1.2093   -4.0132   -1.5499 C   0  0  0  0  0  0  0  0  0  0  0  0
   -3.7791   -3.5795    0.0322 H   0  0  0  0  0  0  0  0  0  0  0  0
   -0.9272   -3.9330    0.5873 H   0  0  0  0  0  0  0  0  0  0  0  0
   -1.9237   -3.6668   -2.3036 H   0  0  0  0  0  0  0  0  0  0  0  0
   -0.2257   -3.5956   -1.7844 H   0  0  0  0  0  0  0  0  0  0  0  0
   -1.1429   -5.1043   -1.6073 H   0  0  0  0  0  0  0  0  0  0  0  0
   -0.5387   -1.3277    0.0907 N   0  0  0  0  0  0  0  0  0  0  0  0
   -0.3470    0.1318   -0.0532 C   0  0  2  0  0  0  0  0  0  0  0  0
   -1.5505    1.0420    0.3067 C   0  0  0  0  0  0  0  0  0  0  0  0
   -2.2191    1.5905   -0.5641 O   0  0  0  0  0  0  0  0  0  0  0  0
    0.1001    0.3661   -1.5041 C   0  0  0  0  0  0  0  0  0  0  0  0
    1.7441   -0.4155   -1.7846 S   0  0  0  0  0  0  0  0  0  0  0  0
    0.3075   -1.8867    0.0118 H   0  0  0  0  0  0  0  0  0  0  0  0
    0.4685    0.4402    0.6075 H   0  0  0  0  0  0  0  0  0  0  0  0
   -0.6429   -0.0436   -2.1973 H   0  0  0  0  0  0  0  0  0  0  0  0
    0.1788    1.4412   -1.6990 H   0  0  0  0  0  0  0  0  0  0  0  0
    1.9710   -0.0695   -3.0719 H   0  0  0  0  0  0  0  0  0  0  0  0
   -1.6870    1.4945    1.6057 N   0  0  0  0  0  0  0  0  0  0  0  0
   -2.7404    2.4040    2.0721 C   0  0  2  0  0  0  0  0  0  0  0  0
   -2.3849    3.0301    3.4367 C   0  0  0  0  0  0  0  0  0  0  0  0
   -1.4810    2.5568    4.1177 O   0  0  0  0  0  0  0  0  0  0  0  0
   -4.0562    1.6220    2.1759 C   0  0  0  0  0  0  0  0  0  0  0  0
   -1.0890    1.0802    2.3190 H   0  0  0  0  0  0  0  0  0  0  0  0
   -2.8587    3.2212    1.3531 H   0  0  0  0  0  0  0  0  0  0  0  0
   -3.9531    0.7924    2.8829 H   0  0  0  0  0  0  0  0  0  0  0  0
   -4.8660    2.2733    2.5180 H   0  0  0  0  0  0  0  0  0  0  0  0
   -4.3358    1.2118    1.1999 H   0  0  0  0  0  0  0  0  0  0  0  0
   -3.0743    4.1353    3.9010 N   0  0  0  0  0  0  0  0  0  0  0  0
   -2.7773    4.7893    5.1697 C   0  0  0  0  0  0  0  0  0  0  0  0
   -3.8080    4.5151    3.3100 H   0  0  0  0  0  0  0  0  0  0  0  0
   -2.8787    4.0807    5.9984 H   0  0  0  0  0  0  0  0  0  0  0  0
   -1.7561    5.1846    5.1668 H   0  0  0  0  0  0  0  0  0  0  0  0
   -3.4693    5.6198    5.3391 H   0  0  0  0  0  0  0  0  0  0  0  0
  1  2  2  0  0  0  0
  1  3  1  0  0  0  0
  1  7  1  0  0  0  0
  3  4  1  0  0  0  0
  3  5  1  0  0  0  0
  3  6  1  0  0  0  0
  7  8  1  0  0  0  0
  7 12  1  0  0  0  0
  8  9  1  0  0  0  0
  8 11  1  0  0  0  0
  8 13  1  0  0  0  0
  9 10  2  0  0  0  0
  9 17  1  0  0  0  0
 11 14  1  0  0  0  0
 11 15  1  0  0  0  0
 11 16  1  0  0  0  0
 17 18  1  0  0  0  0
 17 23  1  0  0  0  0
 18 19  1  0  0  0  0
 18 21  1  0  0  0  0
 18 24  1  0  0  0  0
 19 20  2  0  0  0  0
 19 28  1  0  0  0  0
 21 22  1  0  0  0  0
 21 25  1  0  0  0  0
 21 26  1  0  0  0  0
 22 27  1  0  0  0  0
 28 29  1  0  0  0  0
 28 33  1  0  0  0  0
 29 30  1  0  0  0  0
 29 32  1  0  0  0  0
 29 34  1  0  0  0  0
 30 31  2  0  0  0  0
 30 38  1  0  0  0  0
 32 35  1  0  0  0  0
 32 36  1  0  0  0  0
 32 37  1  0  0  0  0
 38 39  1  0  0  0  0
 38 40  1  0  0  0  0
 39 41  1  0  0  0  0
 39 42  1  0  0  0  0
 39 43  1  0  0  0  0
M  END
$$$$

  -OEChem-05262216003D

 43 42  0     1  0  0  0  0  0999 V2000
   -3.0961   -5.5141    0.6993 C   0  0  0  0  0  0  0  0  0  0  0  0
   -2.1114   -6.1973    0.9325 O   0  0  0  0  0  0  0  0  0  0  0  0
   -4.4771   -6.0138    1.0786 C   0  0  0  0  0  0  0  0  0  0  0  0
   -5.1037   -6.0910    0.1868 H   0  0  0  0  0  0  0  0  0  0  0  0
   -4.4065   -6.9998    1.5464 H   0  0  0  0  0  0  0  0  0  0  0  0
   -4.9426   -5.3215    1.7843 H   0  0  0  0  0  0  0  0  0  0  0  0
   -2.9538   -4.2791    0.1041 N   0  0  0  0  0  0  0  0  0  0  0  0
   -1.6632   -3.6183   -0.1275 C   0  0  2  0  0  0  0  0  0  0  0  0
   -1.7593   -2.0910    0.0716 C   0  0  0  0  0  0  0  0  0  0  0  0
   -2.8609   -1.5647    0.1397 O   0  0  0  0  0  0  0  0  0  0  0  0
   -1.2043   -3.9435   -1.5518 C   0  0  0  0  0  0  0  0  0  0  0  0
   -3.7817   -3.6850    0.0604 H   0  0  0  0  0  0  0  0  0  0  0  0
   -0.9206   -3.9933    0.5849 H   0  0  0  0  0  0  0  0  0  0  0  0
   -1.9285   -3.5680   -2.2818 H   0  0  0  0  0  0  0  0  0  0  0  0
   -0.2327   -3.4847   -1.7584 H   0  0  0  0  0  0  0  0  0  0  0  0
   -1.1083   -5.0263   -1.6808 H   0  0  0  0  0  0  0  0  0  0  0  0
   -0.5958   -1.3532    0.2172 N   0  0  0  0  0  0  0  0  0  0  0  0
   -0.4271    0.1071    0.0568 C   0  0  2  0  0  0  0  0  0  0  0  0
   -1.6360    1.0229    0.3836 C   0  0  0  0  0  0  0  0  0  0  0  0
   -2.4081    1.3865   -0.4981 O   0  0  0  0  0  0  0  0  0  0  0  0
    0.0257    0.3278   -1.3940 C   0  0  0  0  0  0  0  0  0  0  0  0
    1.6837   -0.4321   -1.6515 S   0  0  0  0  0  0  0  0  0  0  0  0
    0.2556   -1.8957    0.0909 H   0  0  0  0  0  0  0  0  0  0  0  0
    0.3822    0.4304    0.7179 H   0  0  0  0  0  0  0  0  0  0  0  0
   -0.7056   -0.1036   -2.0870 H   0  0  0  0  0  0  0  0  0  0  0  0
    0.0868    1.4013   -1.6032 H   0  0  0  0  0  0  0  0  0  0  0  0
    1.9235   -0.0888   -2.9368 H   0  0  0  0  0  0  0  0  0  0  0  0
   -1.6334    1.7485    1.5610 N   0  0  0  0  0  0  0  0  0  0  0  0
   -2.6025    2.7952    1.9093 C   0  0  2  0  0  0  0  0  0  0  0  0
   -2.0701    3.7098    3.0326 C   0  0  0  0  0  0  0  0  0  0  0  0
   -1.0780    3.3848    3.6768 O   0  0  0  0  0  0  0  0  0  0  0  0
   -3.9144    2.1282    2.3404 C   0  0  0  0  0  0  0  0  0  0  0  0
   -0.9236    1.5289    2.2583 H   0  0  0  0  0  0  0  0  0  0  0  0
   -2.7879    3.4247    1.0327 H   0  0  0  0  0  0  0  0  0  0  0  0
   -3.7532    1.5052    3.2259 H   0  0  0  0  0  0  0  0  0  0  0  0
   -4.6703    2.8828    2.5766 H   0  0  0  0  0  0  0  0  0  0  0  0
   -4.3034    1.4941    1.5368 H   0  0  0  0  0  0  0  0  0  0  0  0
   -2.6990    4.9087    3.3143 N   0  0  0  0  0  0  0  0  0  0  0  0
   -2.2567    5.8227    4.3604 C   0  0  0  0  0  0  0  0  0  0  0  0
   -3.5196    5.1487    2.7658 H   0  0  0  0  0  0  0  0  0  0  0  0
   -2.3303    5.3452    5.3431 H   0  0  0  0  0  0  0  0  0  0  0  0
   -1.2177    6.1256    4.1928 H   0  0  0  0  0  0  0  0  0  0  0  0
   -2.8805    6.7219    4.3645 H   0  0  0  0  0  0  0  0  0  0  0  0
  1  2  2  0  0  0  0
  1  3  1  0  0  0  0
  1  7  1  0  0  0  0
  3  4  1  0  0  0  0
  3  5  1  0  0  0  0
  3  6  1  0  0  0  0
  7  8  1  0  0  0  0
  7 12  1  0  0  0  0
  8  9  1  0  0  0  0
  8 11  1  0  0  0  0
  8 13  1  0  0  0  0
  9 10  2  0  0  0  0
  9 17  1  0  0  0  0
 11 14  1  0  0  0  0
 11 15  1  0  0  0  0
 11 16  1  0  0  0  0
 17 18  1  0  0  0  0
 17 23  1  0  0  0  0
 18 19  1  0  0  0  0
 18 21  1  0  0  0  0
 18 24  1  0  0  0  0
 19 20  2  0  0  0  0
 19 28  1  0  0  0  0
 21 22  1  0  0  0  0
 21 25  1  0  0  0  0
 21 26  1  0  0  0  0
 22 27  1  0  0  0  0
 28 29  1  0  0  0  0
 28 33  1  0  0  0  0
 29 30  1  0  0  0  0
 29 32  1  0  0  0  0
 29 34  1  0  0  0  0
 30 31  2  0  0  0  0
 30 38  1  0  0  0  0
 32 35  1  0  0  0  0
 32 36  1  0  0  0  0
 32 37  1  0  0  0  0
 38 39  1  0  0  0  0
 38 40  1  0  0  0  0
 39 41  1  0  0  0  0
 39 42  1  0  0  0  0
 39 43  1  0  0  0  0
M  END
$$$$

  -OEChem-05262216003D

 43 42  0     1  0  0  0  0  0999 V2000
   -3.0543   -5.6065    0.6300 C   0  0  0  0  0  0  0  0  0  0  0  0
   -2.0575   -6.2961    0.7793 O   0  0  0  0  0  0  0  0  0  0  0  0
   -4.4238   -6.1594    0.9767 C   0  0  0  0  0  0  0  0  0  0  0  0
   -5.0751   -6.1200    0.1001 H   0  0  0  0  0  0  0  0  0  0  0  0
   -4.3390   -7.1983    1.3072 H   0  0  0  0  0  0  0  0  0  0  0  0
   -4.8710   -5.5699    1.7806 H   0  0  0  0  0  0  0  0  0  0  0  0
   -2.9361   -4.3167    0.1586 N   0  0  0  0  0  0  0  0  0  0  0  0
   -1.6585   -3.6237   -0.0526 C   0  0  2  0  0  0  0  0  0  0  0  0
   -1.7879   -2.1038    0.1874 C   0  0  0  0  0  0  0  0  0  0  0  0
   -2.9004   -1.6138    0.3136 O   0  0  0  0  0  0  0  0  0  0  0  0
   -1.1911   -3.9015   -1.4852 C   0  0  0  0  0  0  0  0  0  0  0  0
   -3.7727   -3.7329    0.1722 H   0  0  0  0  0  0  0  0  0  0  0  0
   -0.9124   -4.0049    0.6534 H   0  0  0  0  0  0  0  0  0  0  0  0
   -1.9140   -3.5058   -2.2060 H   0  0  0  0  0  0  0  0  0  0  0  0
   -0.2200   -3.4337   -1.6727 H   0  0  0  0  0  0  0  0  0  0  0  0
   -1.0905   -4.9794   -1.6487 H   0  0  0  0  0  0  0  0  0  0  0  0
   -0.6426   -1.3385    0.3333 N   0  0  0  0  0  0  0  0  0  0  0  0
   -0.5013    0.1241    0.1592 C   0  0  2  0  0  0  0  0  0  0  0  0
   -1.7152    1.0439    0.4592 C   0  0  0  0  0  0  0  0  0  0  0  0
   -2.5861    1.2283   -0.3846 O   0  0  0  0  0  0  0  0  0  0  0  0
   -0.0510    0.3393   -1.2921 C   0  0  0  0  0  0  0  0  0  0  0  0
    1.6214   -0.3908   -1.5413 S   0  0  0  0  0  0  0  0  0  0  0  0
    0.2174   -1.8625    0.1898 H   0  0  0  0  0  0  0  0  0  0  0  0
    0.3025    0.4615    0.8201 H   0  0  0  0  0  0  0  0  0  0  0  0
   -0.7724   -0.1145   -1.9810 H   0  0  0  0  0  0  0  0  0  0  0  0
   -0.0114    1.4117   -1.5126 H   0  0  0  0  0  0  0  0  0  0  0  0
    1.8491   -0.0667   -2.8342 H   0  0  0  0  0  0  0  0  0  0  0  0
   -1.5948    2.0104    1.4424 N   0  0  0  0  0  0  0  0  0  0  0  0
   -2.5224    3.1308    1.6493 C   0  0  2  0  0  0  0  0  0  0  0  0
   -1.8572    4.2728    2.4463 C   0  0  0  0  0  0  0  0  0  0  0  0
   -0.7733    4.0933    2.9922 O   0  0  0  0  0  0  0  0  0  0  0  0
   -3.7628    2.6126    2.3870 C   0  0  0  0  0  0  0  0  0  0  0  0
   -0.7814    1.9725    2.0555 H   0  0  0  0  0  0  0  0  0  0  0  0
   -2.8236    3.5406    0.6795 H   0  0  0  0  0  0  0  0  0  0  0  0
   -3.4829    2.1978    3.3607 H   0  0  0  0  0  0  0  0  0  0  0  0
   -4.4835    3.4205    2.5450 H   0  0  0  0  0  0  0  0  0  0  0  0
   -4.2529    1.8268    1.8027 H   0  0  0  0  0  0  0  0  0  0  0  0
   -2.4661    5.5107    2.5409 N   0  0  0  0  0  0  0  0  0  0  0  0
   -1.8973    6.6292    3.2833 C   0  0  0  0  0  0  0  0  0  0  0  0
   -3.3599    5.6327    2.0736 H   0  0  0  0  0  0  0  0  0  0  0  0
   -1.7793    6.3668    4.3399 H   0  0  0  0  0  0  0  0  0  0  0  0
   -0.9179    6.9021    2.8762 H   0  0  0  0  0  0  0  0  0  0  0  0
   -2.5547    7.5013    3.2159 H   0  0  0  0  0  0  0  0  0  0  0  0
  1  2  2  0  0  0  0
  1  3  1  0  0  0  0
  1  7  1  0  0  0  0
  3  4  1  0  0  0  0
  3  5  1  0  0  0  0
  3  6  1  0  0  0  0
  7  8  1  0  0  0  0
  7 12  1  0  0  0  0
  8  9  1  0  0  0  0
  8 11  1  0  0  0  0
  8 13  1  0  0  0  0
  9 10  2  0  0  0  0
  9 17  1  0  0  0  0
 11 14  1  0  0  0  0
 11 15  1  0  0  0  0
 11 16  1  0  0  0  0
 17 18  1  0  0  0  0
 17 23  1  0  0  0  0
 18 19  1  0  0  0  0
 18 21  1  0  0  0  0
 18 24  1  0  0  0  0
 19 20  2  0  0  0  0
 19 28  1  0  0  0  0
 21 22  1  0  0  0  0
 21 25  1  0  0  0  0
 21 26  1  0  0  0  0
 22 27  1  0  0  0  0
 28 29  1  0  0  0  0
 28 33  1  0  0  0  0
 29 30  1  0  0  0  0
 29 32  1  0  0  0  0
 29 34  1  0  0  0  0
 30 31  2  0  0  0  0
 30 38  1  0  0  0  0
 32 35  1  0  0  0  0
 32 36  1  0  0  0  0
 32 37  1  0  0  0  0
 38 39  1  0  0  0  0
 38 40  1  0  0  0  0
 39 41  1  0  0  0  0
 39 42  1  0  0  0  0
 39 43  1  0  0  0  0
M  END
$$$$

  -OEChem-05262216003D

 43 42  0     1  0  0  0  0  0999 V2000
   -2.9629   -5.6770    0.5621 C   0  0  0  0  0  0  0  0  0  0  0  0
   -1.9391   -6.3428    0.5755 O   0  0  0  0  0  0  0  0  0  0  0  0
   -4.2863   -6.3058    0.9550 C   0  0  0  0  0  0  0  0  0  0  0  0
   -5.0222   -6.1552    0.1614 H   0  0  0  0  0  0  0  0  0  0  0  0
   -4.1598   -7.3796    1.1186 H   0  0  0  0  0  0  0  0  0  0  0  0
   -4.6561   -5.8494    1.8764 H   0  0  0  0  0  0  0  0  0  0  0  0
   -2.9148   -4.3467    0.2049 N   0  0  0  0  0  0  0  0  0  0  0  0
   -1.6757   -3.5958   -0.0323 C   0  0  2  0  0  0  0  0  0  0  0  0
   -1.8397   -2.1008    0.3159 C   0  0  0  0  0  0  0  0  0  0  0  0
   -2.9570   -1.6614    0.5425 O   0  0  0  0  0  0  0  0  0  0  0  0
   -1.2814   -3.7584   -1.5040 C   0  0  0  0  0  0  0  0  0  0  0  0
   -3.7636   -3.7944    0.3296 H   0  0  0  0  0  0  0  0  0  0  0  0
   -0.8781   -3.9961    0.6028 H   0  0  0  0  0  0  0  0  0  0  0  0
   -2.0661   -3.3594   -2.1552 H   0  0  0  0  0  0  0  0  0  0  0  0
   -0.3487   -3.2264   -1.7146 H   0  0  0  0  0  0  0  0  0  0  0  0
   -1.1349   -4.8167   -1.7430 H   0  0  0  0  0  0  0  0  0  0  0  0
   -0.7103   -1.3171    0.4813 N   0  0  0  0  0  0  0  0  0  0  0  0
   -0.5834    0.1457    0.2977 C   0  0  2  0  0  0  0  0  0  0  0  0
   -1.7989    1.0765    0.5522 C   0  0  0  0  0  0  0  0  0  0  0  0
   -2.7470    1.0975   -0.2244 O   0  0  0  0  0  0  0  0  0  0  0  0
   -0.1091    0.3531   -1.1469 C   0  0  0  0  0  0  0  0  0  0  0  0
    1.5755   -0.3588   -1.3599 S   0  0  0  0  0  0  0  0  0  0  0  0
    0.1529   -1.8259    0.3060 H   0  0  0  0  0  0  0  0  0  0  0  0
    0.2043    0.4892    0.9744 H   0  0  0  0  0  0  0  0  0  0  0  0
   -0.8127   -0.1141   -1.8450 H   0  0  0  0  0  0  0  0  0  0  0  0
   -0.0768    1.4238   -1.3760 H   0  0  0  0  0  0  0  0  0  0  0  0
    1.8283   -0.0323   -2.6472 H   0  0  0  0  0  0  0  0  0  0  0  0
   -1.5956    2.2344    1.2834 N   0  0  0  0  0  0  0  0  0  0  0  0
   -2.4983    3.3934    1.3137 C   0  0  2  0  0  0  0  0  0  0  0  0
   -1.7513    4.6714    1.7503 C   0  0  0  0  0  0  0  0  0  0  0  0
   -0.6133    4.5953    2.2030 O   0  0  0  0  0  0  0  0  0  0  0  0
   -3.6559    3.0900    2.2720 C   0  0  0  0  0  0  0  0  0  0  0  0
   -0.7103    2.3375    1.7783 H   0  0  0  0  0  0  0  0  0  0  0  0
   -2.8979    3.5759    0.3104 H   0  0  0  0  0  0  0  0  0  0  0  0
   -3.2777    2.9035    3.2821 H   0  0  0  0  0  0  0  0  0  0  0  0
   -4.3551    3.9303    2.3105 H   0  0  0  0  0  0  0  0  0  0  0  0
   -4.2043    2.2036    1.9371 H   0  0  0  0  0  0  0  0  0  0  0  0
   -2.3453    5.9128    1.6166 N   0  0  0  0  0  0  0  0  0  0  0  0
   -1.6948    7.1592    2.0030 C   0  0  0  0  0  0  0  0  0  0  0  0
   -3.2851    5.9457    1.2319 H   0  0  0  0  0  0  0  0  0  0  0  0
   -1.4424    7.1459    3.0687 H   0  0  0  0  0  0  0  0  0  0  0  0
   -0.7764    7.3078    1.4252 H   0  0  0  0  0  0  0  0  0  0  0  0
   -2.3613    8.0069    1.8167 H   0  0  0  0  0  0  0  0  0  0  0  0
  1  2  2  0  0  0  0
  1  3  1  0  0  0  0
  1  7  1  0  0  0  0
  3  4  1  0  0  0  0
  3  5  1  0  0  0  0
  3  6  1  0  0  0  0
  7  8  1  0  0  0  0
  7 12  1  0  0  0  0
  8  9  1  0  0  0  0
  8 11  1  0  0  0  0
  8 13  1  0  0  0  0
  9 10  2  0  0  0  0
  9 17  1  0  0  0  0
 11 14  1  0  0  0  0
 11 15  1  0  0  0  0
 11 16  1  0  0  0  0
 17 18  1  0  0  0  0
 17 23  1  0  0  0  0
 18 19  1  0  0  0  0
 18 21  1  0  0  0  0
 18 24  1  0  0  0  0
 19 20  2  0  0  0  0
 19 28  1  0  0  0  0
 21 22  1  0  0  0  0
 21 25  1  0  0  0  0
 21 26  1  0  0  0  0
 22 27  1  0  0  0  0
 28 29  1  0  0  0  0
 28 33  1  0  0  0  0
 29 30  1  0  0  0  0
 29 32  1  0  0  0  0
 29 34  1  0  0  0  0
 30 31  2  0  0  0  0
 30 38  1  0  0  0  0
 32 35  1  0  0  0  0
 32 36  1  0  0  0  0
 32 37  1  0  0  0  0
 38 39  1  0  0  0  0
 38 40  1  0  0  0  0
 39 41  1  0  0  0  0
 39 42  1  0  0  0  0
 39 43  1  0  0  0  0
M  END
$$$$

  -OEChem-05262216003D

 43 42  0     1  0  0  0  0  0999 V2000
   -3.5910   -4.6517    0.9881 C   0  0  0  0  0  0  0  0  0  0  0  0
   -2.9209   -5.0965    1.9074 O   0  0  0  0  0  0  0  0  0  0  0  0
   -5.0889   -4.8896    0.9518 C   0  0  0  0  0  0  0  0  0  0  0  0
   -5.3525   -5.4717    0.0653 H   0  0  0  0  0  0  0  0  0  0  0  0
   -5.4056   -5.4391    1.8428 H   0  0  0  0  0  0  0  0  0  0  0  0
   -5.6179   -3.9337    0.9218 H   0  0  0  0  0  0  0  0  0  0  0  0
   -2.9896   -3.9264   -0.0175 N   0  0  0  0  0  0  0  0  0  0  0  0
   -1.5986   -3.4600    0.0183 C   0  0  2  0  0  0  0  0  0  0  0  0
   -1.4715   -2.0594   -0.6147 C   0  0  0  0  0  0  0  0  0  0  0  0
   -2.2936   -1.6960   -1.4483 O   0  0  0  0  0  0  0  0  0  0  0  0
   -0.7311   -4.4767   -0.7284 C   0  0  0  0  0  0  0  0  0  0  0  0
   -3.6038   -3.4573   -0.6835 H   0  0  0  0  0  0  0  0  0  0  0  0
   -1.2566   -3.3829    1.0559 H   0  0  0  0  0  0  0  0  0  0  0  0
   -1.0571   -4.5639   -1.7700 H   0  0  0  0  0  0  0  0  0  0  0  0
    0.3191   -4.1706   -0.7161 H   0  0  0  0  0  0  0  0  0  0  0  0
   -0.8098   -5.4599   -0.2539 H   0  0  0  0  0  0  0  0  0  0  0  0
   -0.3425   -1.2888   -0.3970 N   0  0  0  0  0  0  0  0  0  0  0  0
   -0.3125    0.1916   -0.3469 C   0  0  2  0  0  0  0  0  0  0  0  0
   -1.5508    0.9883    0.1552 C   0  0  0  0  0  0  0  0  0  0  0  0
   -2.6650    0.5100    0.3119 O   0  0  0  0  0  0  0  0  0  0  0  0
    0.0395    0.6894   -1.7549 C   0  0  0  0  0  0  0  0  0  0  0  0
    1.7449    0.1615   -2.2067 S   0  0  0  0  0  0  0  0  0  0  0  0
    0.3658   -1.7535    0.1620 H   0  0  0  0  0  0  0  0  0  0  0  0
    0.5041    0.4698    0.3256 H   0  0  0  0  0  0  0  0  0  0  0  0
   -0.6804    0.2893   -2.4779 H   0  0  0  0  0  0  0  0  0  0  0  0
   -0.0181    1.7821   -1.7974 H   0  0  0  0  0  0  0  0  0  0  0  0
    1.8097    0.5858   -3.4880 H   0  0  0  0  0  0  0  0  0  0  0  0
   -1.3178    2.2062    0.7703 N   0  0  0  0  0  0  0  0  0  0  0  0
   -2.3672    3.0921    1.2936 C   0  0  2  0  0  0  0  0  0  0  0  0
   -2.0181    4.5740    1.0403 C   0  0  0  0  0  0  0  0  0  0  0  0
   -0.8961    4.8796    0.6487 O   0  0  0  0  0  0  0  0  0  0  0  0
   -2.5258    2.8180    2.7917 C   0  0  0  0  0  0  0  0  0  0  0  0
   -0.4146    2.6472    0.5962 H   0  0  0  0  0  0  0  0  0  0  0  0
   -3.3174    2.8897    0.7879 H   0  0  0  0  0  0  0  0  0  0  0  0
   -1.5938    3.0371    3.3224 H   0  0  0  0  0  0  0  0  0  0  0  0
   -3.3222    3.4378    3.2139 H   0  0  0  0  0  0  0  0  0  0  0  0
   -2.7832    1.7670    2.9581 H   0  0  0  0  0  0  0  0  0  0  0  0
   -2.9614    5.5658    1.2367 N   0  0  0  0  0  0  0  0  0  0  0  0
   -2.6982    6.9791    0.9929 C   0  0  0  0  0  0  0  0  0  0  0  0
   -3.8913    5.2815    1.5317 H   0  0  0  0  0  0  0  0  0  0  0  0
   -1.8419    7.3180    1.5857 H   0  0  0  0  0  0  0  0  0  0  0  0
   -2.4828    7.1508   -0.0670 H   0  0  0  0  0  0  0  0  0  0  0  0
   -3.5690    7.5804    1.2714 H   0  0  0  0  0  0  0  0  0  0  0  0
  1  2  2  0  0  0  0
  1  3  1  0  0  0  0
  1  7  1  0  0  0  0
  3  4  1  0  0  0  0
  3  5  1  0  0  0  0
  3  6  1  0  0  0  0
  7  8  1  0  0  0  0
  7 12  1  0  0  0  0
  8  9  1  0  0  0  0
  8 11  1  0  0  0  0
  8 13  1  0  0  0  0
  9 10  2  0  0  0  0
  9 17  1  0  0  0  0
 11 14  1  0  0  0  0
 11 15  1  0  0  0  0
 11 16  1  0  0  0  0
 17 18  1  0  0  0  0
 17 23  1  0  0  0  0
 18 19  1  0  0  0  0
 18 21  1  0  0  0  0
 18 24  1  0  0  0  0
 19 20  2  0  0  0  0
 19 28  1  0  0  0  0
 21 22  1  0  0  0  0
 21 25  1  0  0  0  0
 21 26  1  0  0  0  0
 22 27  1  0  0  0  0
 28 29  1  0  0  0  0
 28 33  1  0  0  0  0
 29 30  1  0  0  0  0
 29 32  1  0  0  0  0
 29 34  1  0  0  0  0
 30 31  2  0  0  0  0
 30 38  1  0  0  0  0
 32 35  1  0  0  0  0
 32 36  1  0  0  0  0
 32 37  1  0  0  0  0
 38 39  1  0  0  0  0
 38 40  1  0  0  0  0
 39 41  1  0  0  0  0
 39 42  1  0  0  0  0
 39 43  1  0  0  0  0
M  END
$$$$

  -OEChem-05262216003D

 43 42  0     1  0  0  0  0  0999 V2000
   -3.5883   -4.6355    0.9837 C   0  0  0  0  0  0  0  0  0  0  0  0
   -2.8919   -5.1574    1.8406 O   0  0  0  0  0  0  0  0  0  0  0  0
   -5.0932   -4.8251    1.0055 C   0  0  0  0  0  0  0  0  0  0  0  0
   -5.4250   -5.2905    0.0743 H   0  0  0  0  0  0  0  0  0  0  0  0
   -5.3807   -5.4670    1.8427 H   0  0  0  0  0  0  0  0  0  0  0  0
   -5.5879   -3.8572    1.1178 H   0  0  0  0  0  0  0  0  0  0  0  0
   -3.0106   -3.8633   -0.0006 N   0  0  0  0  0  0  0  0  0  0  0  0
   -1.6037   -3.4464   -0.0037 C   0  0  2  0  0  0  0  0  0  0  0  0
   -1.4470   -2.0307   -0.5947 C   0  0  0  0  0  0  0  0  0  0  0  0
   -2.2728   -1.6120   -1.3997 O   0  0  0  0  0  0  0  0  0  0  0  0
   -0.7979   -4.4657   -0.8137 C   0  0  0  0  0  0  0  0  0  0  0  0
   -3.6377   -3.3427   -0.6137 H   0  0  0  0  0  0  0  0  0  0  0  0
   -1.2227   -3.4164    1.0226 H   0  0  0  0  0  0  0  0  0  0  0  0
   -1.1644   -4.5097   -1.8444 H   0  0  0  0  0  0  0  0  0  0  0  0
    0.2615   -4.1927   -0.8318 H   0  0  0  0  0  0  0  0  0  0  0  0
   -0.8903   -5.4612   -0.3676 H   0  0  0  0  0  0  0  0  0  0  0  0
   -0.3022   -1.2901   -0.3539 N   0  0  0  0  0  0  0  0  0  0  0  0
   -0.2453    0.1895   -0.3258 C   0  0  2  0  0  0  0  0  0  0  0  0
   -1.4953    0.9943    0.1304 C   0  0  0  0  0  0  0  0  0  0  0  0
   -2.4973    0.4639    0.5935 O   0  0  0  0  0  0  0  0  0  0  0  0
    0.1621    0.6518   -1.7329 C   0  0  0  0  0  0  0  0  0  0  0  0
    1.8701    0.0800   -2.1169 S   0  0  0  0  0  0  0  0  0  0  0  0
    0.3857   -1.7659    0.2210 H   0  0  0  0  0  0  0  0  0  0  0  0
    0.5500    0.4727    0.3700 H   0  0  0  0  0  0  0  0  0  0  0  0
   -0.5416    0.2503   -2.4709 H   0  0  0  0  0  0  0  0  0  0  0  0
    0.1304    1.7438   -1.8035 H   0  0  0  0  0  0  0  0  0  0  0  0
    1.9951    0.4963   -3.3970 H   0  0  0  0  0  0  0  0  0  0  0  0
   -1.3233    2.3317    0.4437 N   0  0  0  0  0  0  0  0  0  0  0  0
   -2.3986    3.2237    0.8991 C   0  0  2  0  0  0  0  0  0  0  0  0
   -2.2393    4.6363    0.2975 C   0  0  0  0  0  0  0  0  0  0  0  0
   -1.2130    4.9319   -0.3066 O   0  0  0  0  0  0  0  0  0  0  0  0
   -2.3659    3.2754    2.4294 C   0  0  0  0  0  0  0  0  0  0  0  0
   -0.5059    2.7960    0.0484 H   0  0  0  0  0  0  0  0  0  0  0  0
   -3.3699    2.8377    0.5709 H   0  0  0  0  0  0  0  0  0  0  0  0
   -1.4091    3.6773    2.7778 H   0  0  0  0  0  0  0  0  0  0  0  0
   -3.1716    3.9091    2.8119 H   0  0  0  0  0  0  0  0  0  0  0  0
   -2.4934    2.2701    2.8440 H   0  0  0  0  0  0  0  0  0  0  0  0
   -3.2507    5.5718    0.4151 N   0  0  0  0  0  0  0  0  0  0  0  0
   -3.1755    6.9099   -0.1596 C   0  0  0  0  0  0  0  0  0  0  0  0
   -4.1017    5.2879    0.8919 H   0  0  0  0  0  0  0  0  0  0  0  0
   -2.2914    7.4391    0.2117 H   0  0  0  0  0  0  0  0  0  0  0  0
   -3.1204    6.8553   -1.2520 H   0  0  0  0  0  0  0  0  0  0  0  0
   -4.0627    7.4892    0.1139 H   0  0  0  0  0  0  0  0  0  0  0  0
  1  2  2  0  0  0  0
  1  3  1  0  0  0  0
  1  7  1  0  0  0  0
  3  4  1  0  0  0  0
  3  5  1  0  0  0  0
  3  6  1  0  0  0  0
  7  8  1  0  0  0  0
  7 12  1  0  0  0  0
  8  9  1  0  0  0  0
  8 11  1  0  0  0  0
  8 13  1  0  0  0  0
  9 10  2  0  0  0  0
  9 17  1  0  0  0  0
 11 14  1  0  0  0  0
 11 15  1  0  0  0  0
 11 16  1  0  0  0  0
 17 18  1  0  0  0  0
 17 23  1  0  0  0  0
 18 19  1  0  0  0  0
 18 21  1  0  0  0  0
 18 24  1  0  0  0  0
 19 20  2  0  0  0  0
 19 28  1  0  0  0  0
 21 22  1  0  0  0  0
 21 25  1  0  0  0  0
 21 26  1  0  0  0  0
 22 27  1  0  0  0  0
 28 29  1  0  0  0  0
 28 33  1  0  0  0  0
 29 30  1  0  0  0  0
 29 32  1  0  0  0  0
 29 34  1  0  0  0  0
 30 31  2  0  0  0  0
 30 38  1  0  0  0  0
 32 35  1  0  0  0  0
 32 36  1  0  0  0  0
 32 37  1  0  0  0  0
 38 39  1  0  0  0  0
 38 40  1  0  0  0  0
 39 41  1  0  0  0  0
 39 42  1  0  0  0  0
 39 43  1  0  0  0  0
M  END
$$$$

  -OEChem-05262216003D

 43 42  0     1  0  0  0  0  0999 V2000
   -3.6082   -4.6416    0.9813 C   0  0  0  0  0  0  0  0  0  0  0  0
   -2.8708   -5.2870    1.7103 O   0  0  0  0  0  0  0  0  0  0  0  0
   -5.1128   -4.8032    1.0853 C   0  0  0  0  0  0  0  0  0  0  0  0
   -5.5241   -5.1035    0.1189 H   0  0  0  0  0  0  0  0  0  0  0  0
   -5.3586   -5.5690    1.8259 H   0  0  0  0  0  0  0  0  0  0  0  0
   -5.5684   -3.8581    1.3902 H   0  0  0  0  0  0  0  0  0  0  0  0
   -3.0757   -3.7581    0.0672 N   0  0  0  0  0  0  0  0  0  0  0  0
   -1.6597   -3.3739    0.0221 C   0  0  2  0  0  0  0  0  0  0  0  0
   -1.4883   -1.9174   -0.4556 C   0  0  0  0  0  0  0  0  0  0  0  0
   -2.4055   -1.3581   -1.0507 O   0  0  0  0  0  0  0  0  0  0  0  0
   -0.9218   -4.3393   -0.9105 C   0  0  0  0  0  0  0  0  0  0  0  0
   -3.7262   -3.1446   -0.4236 H   0  0  0  0  0  0  0  0  0  0  0  0
   -1.2292   -3.4391    1.0273 H   0  0  0  0  0  0  0  0  0  0  0  0
   -1.3344   -4.2828   -1.9229 H   0  0  0  0  0  0  0  0  0  0  0  0
    0.1435   -4.0938   -0.9540 H   0  0  0  0  0  0  0  0  0  0  0  0
   -1.0239   -5.3675   -0.5493 H   0  0  0  0  0  0  0  0  0  0  0  0
   -0.2804   -1.2634   -0.2727 N   0  0  0  0  0  0  0  0  0  0  0  0
   -0.1129    0.2047   -0.3241 C   0  0  2  0  0  0  0  0  0  0  0  0
   -1.1757    1.0318    0.4481 C   0  0  0  0  0  0  0  0  0  0  0  0
   -1.8975    0.5167    1.2951 O   0  0  0  0  0  0  0  0  0  0  0  0
   -0.0389    0.6406   -1.7994 C   0  0  0  0  0  0  0  0  0  0  0  0
    1.4734   -0.0555   -2.5848 S   0  0  0  0  0  0  0  0  0  0  0  0
    0.4220   -1.7884    0.2386 H   0  0  0  0  0  0  0  0  0  0  0  0
    0.8447    0.4510    0.1433 H   0  0  0  0  0  0  0  0  0  0  0  0
   -0.9294    0.3032   -2.3395 H   0  0  0  0  0  0  0  0  0  0  0  0
   -0.0010    1.7312   -1.8775 H   0  0  0  0  0  0  0  0  0  0  0  0
    1.3004    0.3451   -3.8639 H   0  0  0  0  0  0  0  0  0  0  0  0
   -1.0938    2.4124    0.4484 N   0  0  0  0  0  0  0  0  0  0  0  0
   -2.0689    3.2999    1.0939 C   0  0  2  0  0  0  0  0  0  0  0  0
   -2.2794    4.5805    0.2582 C   0  0  0  0  0  0  0  0  0  0  0  0
   -1.5184    4.8359   -0.6703 O   0  0  0  0  0  0  0  0  0  0  0  0
   -1.5597    3.6418    2.4972 C   0  0  0  0  0  0  0  0  0  0  0  0
   -0.5237    2.8418   -0.2796 H   0  0  0  0  0  0  0  0  0  0  0  0
   -3.0385    2.7959    1.1728 H   0  0  0  0  0  0  0  0  0  0  0  0
   -0.5936    4.1533    2.4397 H   0  0  0  0  0  0  0  0  0  0  0  0
   -2.2692    4.2926    3.0170 H   0  0  0  0  0  0  0  0  0  0  0  0
   -1.4358    2.7280    3.0872 H   0  0  0  0  0  0  0  0  0  0  0  0
   -3.3270    5.4402    0.5324 N   0  0  0  0  0  0  0  0  0  0  0  0
   -3.5896    6.6502   -0.2376 C   0  0  0  0  0  0  0  0  0  0  0  0
   -3.9601    5.1875    1.2858 H   0  0  0  0  0  0  0  0  0  0  0  0
   -2.7257    7.3224   -0.2016 H   0  0  0  0  0  0  0  0  0  0  0  0
   -3.7989    6.4014   -1.2833 H   0  0  0  0  0  0  0  0  0  0  0  0
   -4.4553    7.1792    0.1719 H   0  0  0  0  0  0  0  0  0  0  0  0
  1  2  2  0  0  0  0
  1  3  1  0  0  0  0
  1  7  1  0  0  0  0
  3  4  1  0  0  0  0
  3  5  1  0  0  0  0
  3  6  1  0  0  0  0
  7  8  1  0  0  0  0
  7 12  1  0  0  0  0
  8  9  1  0  0  0  0
  8 11  1  0  0  0  0
  8 13  1  0  0  0  0
  9 10  2  0  0  0  0
  9 17  1  0  0  0  0
 11 14  1  0  0  0  0
 11 15  1  0  0  0  0
 11 16  1  0  0  0  0
 17 18  1  0  0  0  0
 17 23  1  0  0  0  0
 18 19  1  0  0  0  0
 18 21  1  0  0  0  0
 18 24  1  0  0  0  0
 19 20  2  0  0  0  0
 19 28  1  0  0  0  0
 21 22  1  0  0  0  0
 21 25  1  0  0  0  0
 21 26  1  0  0  0  0
 22 27  1  0  0  0  0
 28 29  1  0  0  0  0
 28 33  1  0  0  0  0
 29 30  1  0  0  0  0
 29 32  1  0  0  0  0
 29 34  1  0  0  0  0
 30 31  2  0  0  0  0
 30 38  1  0  0  0  0
 32 35  1  0  0  0  0
 32 36  1  0  0  0  0
 32 37  1  0  0  0  0
 38 39  1  0  0  0  0
 38 40  1  0  0  0  0
 39 41  1  0  0  0  0
 39 42  1  0  0  0  0
 39 43  1  0  0  0  0
M  END
$$$$

  -OEChem-05262216003D

 43 42  0     1  0  0  0  0  0999 V2000
   -3.5916   -4.6592    0.9661 C   0  0  0  0  0  0  0  0  0  0  0  0
   -2.8464   -5.3308    1.6625 O   0  0  0  0  0  0  0  0  0  0  0  0
   -5.0956   -4.8147    1.0905 C   0  0  0  0  0  0  0  0  0  0  0  0
   -5.5248   -5.0837    0.1225 H   0  0  0  0  0  0  0  0  0  0  0  0
   -5.3350   -5.6001    1.8128 H   0  0  0  0  0  0  0  0  0  0  0  0
   -5.5400   -3.8760    1.4304 H   0  0  0  0  0  0  0  0  0  0  0  0
   -3.0697   -3.7440    0.0775 N   0  0  0  0  0  0  0  0  0  0  0  0
   -1.6548   -3.3561    0.0295 C   0  0  2  0  0  0  0  0  0  0  0  0
   -1.4912   -1.8867   -0.4113 C   0  0  0  0  0  0  0  0  0  0  0  0
   -2.4182   -1.3105   -0.9744 O   0  0  0  0  0  0  0  0  0  0  0  0
   -0.9213   -4.2938   -0.9350 C   0  0  0  0  0  0  0  0  0  0  0  0
   -3.7262   -3.1159   -0.3855 H   0  0  0  0  0  0  0  0  0  0  0  0
   -1.2150   -3.4476    1.0285 H   0  0  0  0  0  0  0  0  0  0  0  0
   -1.3391   -4.2083   -1.9432 H   0  0  0  0  0  0  0  0  0  0  0  0
    0.1439   -4.0469   -0.9772 H   0  0  0  0  0  0  0  0  0  0  0  0
   -1.0205   -5.3323   -0.6031 H   0  0  0  0  0  0  0  0  0  0  0  0
   -0.2806   -1.2382   -0.2302 N   0  0  0  0  0  0  0  0  0  0  0  0
   -0.0901    0.2243   -0.3281 C   0  0  2  0  0  0  0  0  0  0  0  0
   -1.1668    1.0711    0.4037 C   0  0  0  0  0  0  0  0  0  0  0  0
   -1.7482    0.6230    1.3862 O   0  0  0  0  0  0  0  0  0  0  0  0
    0.0156    0.5951   -1.8199 C   0  0  0  0  0  0  0  0  0  0  0  0
    1.5293   -0.1565   -2.5500 S   0  0  0  0  0  0  0  0  0  0  0  0
    0.4316   -1.7676    0.2628 H   0  0  0  0  0  0  0  0  0  0  0  0
    0.8600    0.4813    0.1490 H   0  0  0  0  0  0  0  0  0  0  0  0
   -0.8725    0.2506   -2.3600 H   0  0  0  0  0  0  0  0  0  0  0  0
    0.0789    1.6798   -1.9447 H   0  0  0  0  0  0  0  0  0  0  0  0
    1.3832    0.1931   -3.8478 H   0  0  0  0  0  0  0  0  0  0  0  0
   -1.2989    2.4243    0.1465 N   0  0  0  0  0  0  0  0  0  0  0  0
   -2.3369    3.2815    0.7317 C   0  0  2  0  0  0  0  0  0  0  0  0
   -2.7659    4.3814   -0.2628 C   0  0  0  0  0  0  0  0  0  0  0  0
   -2.1072    4.5779   -1.2796 O   0  0  0  0  0  0  0  0  0  0  0  0
   -1.7913    3.8993    2.0232 C   0  0  0  0  0  0  0  0  0  0  0  0
   -0.8611    2.7812   -0.7018 H   0  0  0  0  0  0  0  0  0  0  0  0
   -3.2245    2.6823    0.9625 H   0  0  0  0  0  0  0  0  0  0  0  0
   -0.9127    4.5169    1.8107 H   0  0  0  0  0  0  0  0  0  0  0  0
   -2.5506    4.5247    2.5020 H   0  0  0  0  0  0  0  0  0  0  0  0
   -1.5019    3.1124    2.7269 H   0  0  0  0  0  0  0  0  0  0  0  0
   -3.8965    5.1427   -0.0299 N   0  0  0  0  0  0  0  0  0  0  0  0
   -4.3703    6.1730   -0.9463 C   0  0  0  0  0  0  0  0  0  0  0  0
   -4.4394    4.9380    0.8040 H   0  0  0  0  0  0  0  0  0  0  0  0
   -3.6071    6.9469   -1.0804 H   0  0  0  0  0  0  0  0  0  0  0  0
   -4.6070    5.7380   -1.9230 H   0  0  0  0  0  0  0  0  0  0  0  0
   -5.2746    6.6453   -0.5503 H   0  0  0  0  0  0  0  0  0  0  0  0
  1  2  2  0  0  0  0
  1  3  1  0  0  0  0
  1  7  1  0  0  0  0
  3  4  1  0  0  0  0
  3  5  1  0  0  0  0
  3  6  1  0  0  0  0
  7  8  1  0  0  0  0
  7 12  1  0  0  0  0
  8  9  1  0  0  0  0
  8 11  1  0  0  0  0
  8 13  1  0  0  0  0
  9 10  2  0  0  0  0
  9 17  1  0  0  0  0
 11 14  1  0  0  0  0
 11 15  1  0  0  0  0
 11 16  1  0  0  0  0
 17 18  1  0  0  0  0
 17 23  1  0  0  0  0
 18 19  1  0  0  0  0
 18 21  1  0  0  0  0
 18 24  1  0  0  0  0
 19 20  2  0  0  0  0
 19 28  1  0  0  0  0
 21 22  1  0  0  0  0
 21 25  1  0  0  0  0
 21 26  1  0  0  0  0
 22 27  1  0  0  0  0
 28 29  1  0  0  0  0
 28 33  1  0  0  0  0
 29 30  1  0  0  0  0
 29 32  1  0  0  0  0
 29 34  1  0  0  0  0
 30 31  2  0  0  0  0
 30 38  1  0  0  0  0
 32 35  1  0  0  0  0
 32 36  1  0  0  0  0
 32 37  1  0  0  0  0
 38 39  1  0  0  0  0
 38 40  1  0  0  0  0
 39 41  1  0  0  0  0
 39 42  1  0  0  0  0
 39 43  1  0  0  0  0
M  END
$$$$

  -OEChem-05262216003D

 43 42  0     1  0  0  0  0  0999 V2000
   -3.6066   -4.6421    0.9509 C   0  0  0  0  0  0  0  0  0  0  0  0
   -2.8666   -5.3151    1.6513 O   0  0  0  0  0  0  0  0  0  0  0  0
   -5.1101   -4.8252    1.0355 C   0  0  0  0  0  0  0  0  0  0  0  0
   -5.5083   -5.1036    0.0568 H   0  0  0  0  0  0  0  0  0  0  0  0
   -5.3529   -5.6143    1.7527 H   0  0  0  0  0  0  0  0  0  0  0  0
   -5.5813   -3.8949    1.3621 H   0  0  0  0  0  0  0  0  0  0  0  0
   -3.0788   -3.7068    0.0872 N   0  0  0  0  0  0  0  0  0  0  0  0
   -1.6637   -3.3180    0.0532 C   0  0  2  0  0  0  0  0  0  0  0  0
   -1.4956   -1.8453   -0.3745 C   0  0  0  0  0  0  0  0  0  0  0  0
   -2.4266   -1.2555   -0.9163 O   0  0  0  0  0  0  0  0  0  0  0  0
   -0.9255   -4.2452   -0.9172 C   0  0  0  0  0  0  0  0  0  0  0  0
   -3.7327   -3.0820   -0.3839 H   0  0  0  0  0  0  0  0  0  0  0  0
   -1.2299   -3.4200    1.0540 H   0  0  0  0  0  0  0  0  0  0  0  0
   -1.3423   -4.1524   -1.9252 H   0  0  0  0  0  0  0  0  0  0  0  0
    0.1386   -3.9935   -0.9554 H   0  0  0  0  0  0  0  0  0  0  0  0
   -1.0214   -5.2869   -0.5948 H   0  0  0  0  0  0  0  0  0  0  0  0
   -0.2787   -1.2066   -0.2047 N   0  0  0  0  0  0  0  0  0  0  0  0
   -0.0683    0.2487   -0.3431 C   0  0  2  0  0  0  0  0  0  0  0  0
   -1.1495    1.1092    0.3637 C   0  0  0  0  0  0  0  0  0  0  0  0
   -1.5764    0.7638    1.4603 O   0  0  0  0  0  0  0  0  0  0  0  0
    0.0615    0.5745   -1.8429 C   0  0  0  0  0  0  0  0  0  0  0  0
    1.5749   -0.2178   -2.5286 S   0  0  0  0  0  0  0  0  0  0  0  0
    0.4404   -1.7403    0.2735 H   0  0  0  0  0  0  0  0  0  0  0  0
    0.8775    0.5120    0.1391 H   0  0  0  0  0  0  0  0  0  0  0  0
   -0.8243    0.2264   -2.3851 H   0  0  0  0  0  0  0  0  0  0  0  0
    0.1445    1.6545   -1.9952 H   0  0  0  0  0  0  0  0  0  0  0  0
    1.4655    0.1196   -3.8326 H   0  0  0  0  0  0  0  0  0  0  0  0
   -1.5072    2.3601   -0.1070 N   0  0  0  0  0  0  0  0  0  0  0  0
   -2.6009    3.1673    0.4458 C   0  0  2  0  0  0  0  0  0  0  0  0
   -3.2752    4.0070   -0.6601 C   0  0  0  0  0  0  0  0  0  0  0  0
   -2.7377    4.1195   -1.7579 O   0  0  0  0  0  0  0  0  0  0  0  0
   -2.0363    4.0710    1.5463 C   0  0  0  0  0  0  0  0  0  0  0  0
   -1.2309    2.5916   -1.0604 H   0  0  0  0  0  0  0  0  0  0  0  0
   -3.3662    2.5098    0.8727 H   0  0  0  0  0  0  0  0  0  0  0  0
   -1.2743    4.7421    1.1373 H   0  0  0  0  0  0  0  0  0  0  0  0
   -2.8309    4.6757    1.9931 H   0  0  0  0  0  0  0  0  0  0  0  0
   -1.5802    3.4658    2.3361 H   0  0  0  0  0  0  0  0  0  0  0  0
   -4.4905    4.6262   -0.4330 N   0  0  0  0  0  0  0  0  0  0  0  0
   -5.1948    5.4020   -1.4470 C   0  0  0  0  0  0  0  0  0  0  0  0
   -4.9275    4.4878    0.4736 H   0  0  0  0  0  0  0  0  0  0  0  0
   -4.5775    6.2407   -1.7859 H   0  0  0  0  0  0  0  0  0  0  0  0
   -5.4394    4.7731   -2.3097 H   0  0  0  0  0  0  0  0  0  0  0  0
   -6.1263    5.8040   -1.0372 H   0  0  0  0  0  0  0  0  0  0  0  0
  1  2  2  0  0  0  0
  1  3  1  0  0  0  0
  1  7  1  0  0  0  0
  3  4  1  0  0  0  0
  3  5  1  0  0  0  0
  3  6  1  0  0  0  0
  7  8  1  0  0  0  0
  7 12  1  0  0  0  0
  8  9  1  0  0  0  0
  8 11  1  0  0  0  0
  8 13  1  0  0  0  0
  9 10  2  0  0  0  0
  9 17  1  0  0  0  0
 11 14  1  0  0  0  0
 11 15  1  0  0  0  0
 11 16  1  0  0  0  0
 17 18  1  0  0  0  0
 17 23  1  0  0  0  0
 18 19  1  0  0  0  0
 18 21  1  0  0  0  0
 18 24  1  0  0  0  0
 19 20  2  0  0  0  0
 19 28  1  0  0  0  0
 21 22  1  0  0  0  0
 21 25  1  0  0  0  0
 21 26  1  0  0  0  0
 22 27  1  0  0  0  0
 28 29  1  0  0  0  0
 28 33  1  0  0  0  0
 29 30  1  0  0  0  0
 29 32  1  0  0  0  0
 29 34  1  0  0  0  0
 30 31  2  0  0  0  0
 30 38  1  0  0  0  0
 32 35  1  0  0  0  0
 32 36  1  0  0  0  0
 32 37  1  0  0  0  0
 38 39  1  0  0  0  0
 38 40  1  0  0  0  0
 39 41  1  0  0  0  0
 39 42  1  0  0  0  0
 39 43  1  0  0  0  0
M  END
$$$$

  -OEChem-05262216003D

 43 42  0     1  0  0  0  0  0999 V2000
   -3.6215   -4.6493    0.9067 C   0  0  0  0  0  0  0  0  0  0  0  0
   -2.8877   -5.3274    1.6085 O   0  0  0  0  0  0  0  0  0  0  0  0
   -5.1242   -4.8495    0.9596 C   0  0  0  0  0  0  0  0  0  0  0  0
   -5.5021   -5.1044   -0.0335 H   0  0  0  0  0  0  0  0  0  0  0  0
   -5.3720   -5.6608    1.6497 H   0  0  0  0  0  0  0  0  0  0  0  0
   -5.6098   -3.9329    1.3033 H   0  0  0  0  0  0  0  0  0  0  0  0
   -3.0870   -3.6908    0.0729 N   0  0  0  0  0  0  0  0  0  0  0  0
   -1.6750   -3.2876    0.0737 C   0  0  2  0  0  0  0  0  0  0  0  0
   -1.5116   -1.8095   -0.3382 C   0  0  0  0  0  0  0  0  0  0  0  0
   -2.4519   -1.2101   -0.8525 O   0  0  0  0  0  0  0  0  0  0  0  0
   -0.9052   -4.2026   -0.8848 C   0  0  0  0  0  0  0  0  0  0  0  0
   -3.7383   -3.0640   -0.3991 H   0  0  0  0  0  0  0  0  0  0  0  0
   -1.2638   -3.3917    1.0837 H   0  0  0  0  0  0  0  0  0  0  0  0
   -1.2956   -4.1048   -1.9028 H   0  0  0  0  0  0  0  0  0  0  0  0
    0.1583   -3.9454   -0.8934 H   0  0  0  0  0  0  0  0  0  0  0  0
   -1.0032   -5.2472   -0.5724 H   0  0  0  0  0  0  0  0  0  0  0  0
   -0.2921   -1.1730   -0.1799 N   0  0  0  0  0  0  0  0  0  0  0  0
   -0.0688    0.2760   -0.3533 C   0  0  2  0  0  0  0  0  0  0  0  0
   -1.1513    1.1517    0.3304 C   0  0  0  0  0  0  0  0  0  0  0  0
   -1.4267    0.9467    1.5074 O   0  0  0  0  0  0  0  0  0  0  0  0
    0.0721    0.5668   -1.8588 C   0  0  0  0  0  0  0  0  0  0  0  0
    1.5831   -0.2537   -2.5175 S   0  0  0  0  0  0  0  0  0  0  0  0
    0.4402   -1.7104    0.2743 H   0  0  0  0  0  0  0  0  0  0  0  0
    0.8758    0.5455    0.1283 H   0  0  0  0  0  0  0  0  0  0  0  0
   -0.8138    0.2146   -2.3986 H   0  0  0  0  0  0  0  0  0  0  0  0
    0.1648    1.6440   -2.0293 H   0  0  0  0  0  0  0  0  0  0  0  0
    1.4942    0.0605   -3.8291 H   0  0  0  0  0  0  0  0  0  0  0  0
   -1.7306    2.2368   -0.3029 N   0  0  0  0  0  0  0  0  0  0  0  0
   -2.8719    2.9873    0.2331 C   0  0  2  0  0  0  0  0  0  0  0  0
   -3.7671    3.5128   -0.9091 C   0  0  0  0  0  0  0  0  0  0  0  0
   -3.3553    3.5045   -2.0652 O   0  0  0  0  0  0  0  0  0  0  0  0
   -2.3419    4.1457    1.0843 C   0  0  0  0  0  0  0  0  0  0  0  0
   -1.6093    2.2917   -1.3135 H   0  0  0  0  0  0  0  0  0  0  0  0
   -3.4874    2.3295    0.8564 H   0  0  0  0  0  0  0  0  0  0  0  0
   -1.7298    4.8188    0.4754 H   0  0  0  0  0  0  0  0  0  0  0  0
   -3.1696    4.7185    1.5133 H   0  0  0  0  0  0  0  0  0  0  0  0
   -1.7270    3.7625    1.9051 H   0  0  0  0  0  0  0  0  0  0  0  0
   -5.0403    3.9839   -0.6470 N   0  0  0  0  0  0  0  0  0  0  0  0
   -5.9523    4.4414   -1.6888 C   0  0  0  0  0  0  0  0  0  0  0  0
   -5.3711    3.9377    0.3124 H   0  0  0  0  0  0  0  0  0  0  0  0
   -5.5000    5.2556   -2.2650 H   0  0  0  0  0  0  0  0  0  0  0  0
   -6.1956    3.6204   -2.3712 H   0  0  0  0  0  0  0  0  0  0  0  0
   -6.8820    4.8093   -1.2441 H   0  0  0  0  0  0  0  0  0  0  0  0
  1  2  2  0  0  0  0
  1  3  1  0  0  0  0
  1  7  1  0  0  0  0
  3  4  1  0  0  0  0
  3  5  1  0  0  0  0
  3  6  1  0  0  0  0
  7  8  1  0  0  0  0
  7 12  1  0  0  0  0
  8  9  1  0  0  0  0
  8 11  1  0  0  0  0
  8 13  1  0  0  0  0
  9 10  2  0  0  0  0
  9 17  1  0  0  0  0
 11 14  1  0  0  0  0
 11 15  1  0  0  0  0
 11 16  1  0  0  0  0
 17 18  1  0  0  0  0
 17 23  1  0  0  0  0
 18 19  1  0  0  0  0
 18 21  1  0  0  0  0
 18 24  1  0  0  0  0
 19 20  2  0  0  0  0
 19 28  1  0  0  0  0
 21 22  1  0  0  0  0
 21 25  1  0  0  0  0
 21 26  1  0  0  0  0
 22 27  1  0  0  0  0
 28 29  1  0  0  0  0
 28 33  1  0  0  0  0
 29 30  1  0  0  0  0
 29 32  1  0  0  0  0
 29 34  1  0  0  0  0
 30 31  2  0  0  0  0
 30 38  1  0  0  0  0
 32 35  1  0  0  0  0
 32 36  1  0  0  0  0
 32 37  1  0  0  0  0
 38 39  1  0  0  0  0
 38 40  1  0  0  0  0
 39 41  1  0  0  0  0
 39 42  1  0  0  0  0
 39 43  1  0  0  0  0
M  END
$$$$

  -OEChem-05262216003D

 43 42  0     1  0  0  0  0  0999 V2000
   -3.5729   -4.7348    0.9054 C   0  0  0  0  0  0  0  0  0  0  0  0
   -2.8134   -5.4076    1.5844 O   0  0  0  0  0  0  0  0  0  0  0  0
   -5.0683   -4.9857    0.9600 C   0  0  0  0  0  0  0  0  0  0  0  0
   -5.4376   -5.2549   -0.0325 H   0  0  0  0  0  0  0  0  0  0  0  0
   -5.2887   -5.8035    1.6521 H   0  0  0  0  0  0  0  0  0  0  0  0
   -5.5857   -4.0861    1.3020 H   0  0  0  0  0  0  0  0  0  0  0  0
   -3.0740   -3.7387    0.0934 N   0  0  0  0  0  0  0  0  0  0  0  0
   -1.6713   -3.3045    0.0791 C   0  0  2  0  0  0  0  0  0  0  0  0
   -1.5444   -1.8123   -0.2941 C   0  0  0  0  0  0  0  0  0  0  0  0
   -2.5006   -1.2209   -0.7864 O   0  0  0  0  0  0  0  0  0  0  0  0
   -0.9024   -4.1753   -0.9205 C   0  0  0  0  0  0  0  0  0  0  0  0
   -3.7467   -3.1246   -0.3649 H   0  0  0  0  0  0  0  0  0  0  0  0
   -1.2380   -3.4297    1.0774 H   0  0  0  0  0  0  0  0  0  0  0  0
   -1.3160   -4.0576   -1.9271 H   0  0  0  0  0  0  0  0  0  0  0  0
    0.1548   -3.8946   -0.9435 H   0  0  0  0  0  0  0  0  0  0  0  0
   -0.9711   -5.2303   -0.6368 H   0  0  0  0  0  0  0  0  0  0  0  0
   -0.3389   -1.1520   -0.1295 N   0  0  0  0  0  0  0  0  0  0  0  0
   -0.1253    0.2940   -0.3332 C   0  0  2  0  0  0  0  0  0  0  0  0
   -1.2240    1.1817    0.3034 C   0  0  0  0  0  0  0  0  0  0  0  0
   -1.3594    1.1731    1.5213 O   0  0  0  0  0  0  0  0  0  0  0  0
    0.0439    0.5526   -1.8400 C   0  0  0  0  0  0  0  0  0  0  0  0
    1.5759   -0.2671   -2.4478 S   0  0  0  0  0  0  0  0  0  0  0  0
    0.4207   -1.6882    0.2793 H   0  0  0  0  0  0  0  0  0  0  0  0
    0.8076    0.5824    0.1608 H   0  0  0  0  0  0  0  0  0  0  0  0
   -0.8253    0.1749   -2.3895 H   0  0  0  0  0  0  0  0  0  0  0  0
    0.1229    1.6281   -2.0300 H   0  0  0  0  0  0  0  0  0  0  0  0
    1.5229    0.0359   -3.7638 H   0  0  0  0  0  0  0  0  0  0  0  0
   -2.0055    2.0398   -0.4490 N   0  0  0  0  0  0  0  0  0  0  0  0
   -3.1700    2.7606    0.0753 C   0  0  2  0  0  0  0  0  0  0  0  0
   -4.2269    2.9745   -1.0285 C   0  0  0  0  0  0  0  0  0  0  0  0
   -3.9263    2.8193   -2.2081 O   0  0  0  0  0  0  0  0  0  0  0  0
   -2.7016    4.1048    0.6410 C   0  0  0  0  0  0  0  0  0  0  0  0
   -2.0114    1.8772   -1.4558 H   0  0  0  0  0  0  0  0  0  0  0  0
   -3.6393    2.1727    0.8710 H   0  0  0  0  0  0  0  0  0  0  0  0
   -2.2312    4.7060   -0.1437 H   0  0  0  0  0  0  0  0  0  0  0  0
   -3.5468    4.6653    1.0512 H   0  0  0  0  0  0  0  0  0  0  0  0
   -1.9730    3.9463    1.4423 H   0  0  0  0  0  0  0  0  0  0  0  0
   -5.5193    3.3413   -0.7013 N   0  0  0  0  0  0  0  0  0  0  0  0
   -6.5736    3.5211   -1.6921 C   0  0  0  0  0  0  0  0  0  0  0  0
   -5.7479    3.4294    0.2845 H   0  0  0  0  0  0  0  0  0  0  0  0
   -6.2751    4.2627   -2.4409 H   0  0  0  0  0  0  0  0  0  0  0  0
   -6.7869    2.5742   -2.1994 H   0  0  0  0  0  0  0  0  0  0  0  0
   -7.4910    3.8707   -1.2089 H   0  0  0  0  0  0  0  0  0  0  0  0
  1  2  2  0  0  0  0
  1  3  1  0  0  0  0
  1  7  1  0  0  0  0
  3  4  1  0  0  0  0
  3  5  1  0  0  0  0
  3  6  1  0  0  0  0
  7  8  1  0  0  0  0
  7 12  1  0  0  0  0
  8  9  1  0  0  0  0
  8 11  1  0  0  0  0
  8 13  1  0  0  0  0
  9 10  2  0  0  0  0
  9 17  1  0  0  0  0
 11 14  1  0  0  0  0
 11 15  1  0  0  0  0
 11 16  1  0  0  0  0
 17 18  1  0  0  0  0
 17 23  1  0  0  0  0
 18 19  1  0  0  0  0
 18 21  1  0  0  0  0
 18 24  1  0  0  0  0
 19 20  2  0  0  0  0
 19 28  1  0  0  0  0
 21 22  1  0  0  0  0
 21 25  1  0  0  0  0
 21 26  1  0  0  0  0
 22 27  1  0  0  0  0
 28 29  1  0  0  0  0
 28 33  1  0  0  0  0
 29 30  1  0  0  0  0
 29 32  1  0  0  0  0
 29 34  1  0  0  0  0
 30 31  2  0  0  0  0
 30 38  1  0  0  0  0
 32 35  1  0  0  0  0
 32 36  1  0  0  0  0
 32 37  1  0  0  0  0
 38 39  1  0  0  0  0
 38 40  1  0  0  0  0
 39 41  1  0  0  0  0
 39 42  1  0  0  0  0
 39 43  1  0  0  0  0
M  END
$$$$

  -OEChem-05262216003D

 43 42  0     1  0  0  0  0  0999 V2000
   -3.4952   -4.8497    0.9196 C   0  0  0  0  0  0  0  0  0  0  0  0
   -2.7100   -5.4929    1.5981 O   0  0  0  0  0  0  0  0  0  0  0  0
   -4.9787   -5.1642    0.9657 C   0  0  0  0  0  0  0  0  0  0  0  0
   -5.3231   -5.4788   -0.0223 H   0  0  0  0  0  0  0  0  0  0  0  0
   -5.1718   -5.9697    1.6795 H   0  0  0  0  0  0  0  0  0  0  0  0
   -5.5388   -4.2784    1.2747 H   0  0  0  0  0  0  0  0  0  0  0  0
   -3.0356   -3.8314    0.1118 N   0  0  0  0  0  0  0  0  0  0  0  0
   -1.6488   -3.3487    0.0927 C   0  0  2  0  0  0  0  0  0  0  0  0
   -1.5762   -1.8465   -0.2520 C   0  0  0  0  0  0  0  0  0  0  0  0
   -2.5550   -1.2784   -0.7252 O   0  0  0  0  0  0  0  0  0  0  0  0
   -0.8640   -4.1743   -0.9321 C   0  0  0  0  0  0  0  0  0  0  0  0
   -3.7318   -3.2443   -0.3470 H   0  0  0  0  0  0  0  0  0  0  0  0
   -1.1995   -3.4788    1.0834 H   0  0  0  0  0  0  0  0  0  0  0  0
   -1.2945   -4.0523   -1.9312 H   0  0  0  0  0  0  0  0  0  0  0  0
    0.1830   -3.8578   -0.9632 H   0  0  0  0  0  0  0  0  0  0  0  0
   -0.8942   -5.2361   -0.6669 H   0  0  0  0  0  0  0  0  0  0  0  0
   -0.3930   -1.1495   -0.0822 N   0  0  0  0  0  0  0  0  0  0  0  0
   -0.2039    0.2959   -0.3122 C   0  0  2  0  0  0  0  0  0  0  0  0
   -1.3229    1.1886    0.2787 C   0  0  0  0  0  0  0  0  0  0  0  0
   -1.3217    1.4196    1.4817 O   0  0  0  0  0  0  0  0  0  0  0  0
   -0.0180    0.5285   -1.8206 C   0  0  0  0  0  0  0  0  0  0  0  0
    1.5379   -0.2728   -2.3918 S   0  0  0  0  0  0  0  0  0  0  0  0
    0.4008   -1.6785    0.2673 H   0  0  0  0  0  0  0  0  0  0  0  0
    0.7166    0.6089    0.1905 H   0  0  0  0  0  0  0  0  0  0  0  0
   -0.8703    0.1222   -2.3760 H   0  0  0  0  0  0  0  0  0  0  0  0
    0.0380    1.6027   -2.0267 H   0  0  0  0  0  0  0  0  0  0  0  0
    1.5096    0.0232   -3.7103 H   0  0  0  0  0  0  0  0  0  0  0  0
   -2.2873    1.7783   -0.5184 N   0  0  0  0  0  0  0  0  0  0  0  0
   -3.4524    2.5022    0.0017 C   0  0  2  0  0  0  0  0  0  0  0  0
   -4.6384    2.4267   -0.9829 C   0  0  0  0  0  0  0  0  0  0  0  0
   -4.4499    2.1235   -2.1564 O   0  0  0  0  0  0  0  0  0  0  0  0
   -3.0598    3.9624    0.2498 C   0  0  0  0  0  0  0  0  0  0  0  0
   -2.4071    1.3647   -1.4440 H   0  0  0  0  0  0  0  0  0  0  0  0
   -3.7762    2.0462    0.9433 H   0  0  0  0  0  0  0  0  0  0  0  0
   -2.7299    4.4323   -0.6823 H   0  0  0  0  0  0  0  0  0  0  0  0
   -3.9099    4.5275    0.6436 H   0  0  0  0  0  0  0  0  0  0  0  0
   -2.2438    4.0194    0.9770 H   0  0  0  0  0  0  0  0  0  0  0  0
   -5.9236    2.7067   -0.5556 N   0  0  0  0  0  0  0  0  0  0  0  0
   -7.0879    2.6399   -1.4302 C   0  0  0  0  0  0  0  0  0  0  0  0
   -6.0552    2.9334    0.4258 H   0  0  0  0  0  0  0  0  0  0  0  0
   -6.9808    3.3416   -2.2641 H   0  0  0  0  0  0  0  0  0  0  0  0
   -7.2065    1.6287   -1.8337 H   0  0  0  0  0  0  0  0  0  0  0  0
   -7.9943    2.8997   -0.8751 H   0  0  0  0  0  0  0  0  0  0  0  0
  1  2  2  0  0  0  0
  1  3  1  0  0  0  0
  1  7  1  0  0  0  0
  3  4  1  0  0  0  0
  3  5  1  0  0  0  0
  3  6  1  0  0  0  0
  7  8  1  0  0  0  0
  7 12  1  0  0  0  0
  8  9  1  0  0  0  0
  8 11  1  0  0  0  0
  8 13  1  0  0  0  0
  9 10  2  0  0  0  0
  9 17  1  0  0  0  0
 11 14  1  0  0  0  0
 11 15  1  0  0  0  0
 11 16  1  0  0  0  0
 17 18  1  0  0  0  0
 17 23  1  0  0  0  0
 18 19  1  0  0  0  0
 18 21  1  0  0  0  0
 18 24  1  0  0  0  0
 19 20  2  0  0  0  0
 19 28  1  0  0  0  0
 21 22  1  0  0  0  0
 21 25  1  0  0  0  0
 21 26  1  0  0  0  0
 22 27  1  0  0  0  0
 28 29  1  0  0  0  0
 28 33  1  0  0  0  0
 29 30  1  0  0  0  0
 29 32  1  0  0  0  0
 29 34  1  0  0  0  0
 30 31  2  0  0  0  0
 30 38  1  0  0  0  0
 32 35  1  0  0  0  0
 32 36  1  0  0  0  0
 32 37  1  0  0  0  0
 38 39  1  0  0  0  0
 38 40  1  0  0  0  0
 39 41  1  0  0  0  0
 39 42  1  0  0  0  0
 39 43  1  0  0  0  0
M  END
$$$$

  -OEChem-05262216003D

 43 42  0     1  0  0  0  0  0999 V2000
   -3.4185   -4.9527    0.9033 C   0  0  0  0  0  0  0  0  0  0  0  0
   -2.6414   -5.5311    1.6463 O   0  0  0  0  0  0  0  0  0  0  0  0
   -4.8963   -5.2945    0.9289 C   0  0  0  0  0  0  0  0  0  0  0  0
   -5.1990   -5.7114   -0.0346 H   0  0  0  0  0  0  0  0  0  0  0  0
   -5.1006   -6.0309    1.7113 H   0  0  0  0  0  0  0  0  0  0  0  0
   -5.4839   -4.3953    1.1301 H   0  0  0  0  0  0  0  0  0  0  0  0
   -2.9569   -3.9761    0.0470 N   0  0  0  0  0  0  0  0  0  0  0  0
   -1.5901   -3.4394    0.0635 C   0  0  2  0  0  0  0  0  0  0  0  0
   -1.5708   -1.9330   -0.2689 C   0  0  0  0  0  0  0  0  0  0  0  0
   -2.5529   -1.4084   -0.7820 O   0  0  0  0  0  0  0  0  0  0  0  0
   -0.7528   -4.2269   -0.9486 C   0  0  0  0  0  0  0  0  0  0  0  0
   -3.6552   -3.4325   -0.4598 H   0  0  0  0  0  0  0  0  0  0  0  0
   -1.1554   -3.5577    1.0620 H   0  0  0  0  0  0  0  0  0  0  0  0
   -1.1673   -4.1169   -1.9559 H   0  0  0  0  0  0  0  0  0  0  0  0
    0.2809   -3.8686   -0.9565 H   0  0  0  0  0  0  0  0  0  0  0  0
   -0.7461   -5.2901   -0.6882 H   0  0  0  0  0  0  0  0  0  0  0  0
   -0.4295   -1.1820   -0.0500 N   0  0  0  0  0  0  0  0  0  0  0  0
   -0.2911    0.2735   -0.2585 C   0  0  2  0  0  0  0  0  0  0  0  0
   -1.4534    1.1380    0.2892 C   0  0  0  0  0  0  0  0  0  0  0  0
   -1.3425    1.6367    1.4024 O   0  0  0  0  0  0  0  0  0  0  0  0
   -0.0700    0.5326   -1.7566 C   0  0  0  0  0  0  0  0  0  0  0  0
    1.5331   -0.1989   -2.2898 S   0  0  0  0  0  0  0  0  0  0  0  0
    0.3770   -1.6809    0.3154 H   0  0  0  0  0  0  0  0  0  0  0  0
    0.6035    0.6120    0.2743 H   0  0  0  0  0  0  0  0  0  0  0  0
   -0.8881    0.1007   -2.3430 H   0  0  0  0  0  0  0  0  0  0  0  0
   -0.0538    1.6109   -1.9473 H   0  0  0  0  0  0  0  0  0  0  0  0
    1.5380    0.1289   -3.6010 H   0  0  0  0  0  0  0  0  0  0  0  0
   -2.5593    1.4519   -0.4794 N   0  0  0  0  0  0  0  0  0  0  0  0
   -3.7076    2.2240    0.0121 C   0  0  2  0  0  0  0  0  0  0  0  0
   -5.0099    1.8485   -0.7269 C   0  0  0  0  0  0  0  0  0  0  0  0
   -4.9702    1.2785   -1.8112 O   0  0  0  0  0  0  0  0  0  0  0  0
   -3.4060    3.7157   -0.1687 C   0  0  0  0  0  0  0  0  0  0  0  0
   -2.7610    0.7833   -1.2287 H   0  0  0  0  0  0  0  0  0  0  0  0
   -3.8634    2.0115    1.0750 H   0  0  0  0  0  0  0  0  0  0  0  0
   -3.2438    3.9463   -1.2264 H   0  0  0  0  0  0  0  0  0  0  0  0
   -4.2387    4.3234    0.1975 H   0  0  0  0  0  0  0  0  0  0  0  0
   -2.5064    3.9934    0.3899 H   0  0  0  0  0  0  0  0  0  0  0  0
   -6.2398    2.1572   -0.1746 N   0  0  0  0  0  0  0  0  0  0  0  0
   -7.5087    1.8079   -0.8023 C   0  0  0  0  0  0  0  0  0  0  0  0
   -6.2475    2.6115    0.7337 H   0  0  0  0  0  0  0  0  0  0  0  0
   -7.5853    2.2653   -1.7945 H   0  0  0  0  0  0  0  0  0  0  0  0
   -7.5970    0.7213   -0.9082 H   0  0  0  0  0  0  0  0  0  0  0  0
   -8.3442    2.1650   -0.1923 H   0  0  0  0  0  0  0  0  0  0  0  0
  1  2  2  0  0  0  0
  1  3  1  0  0  0  0
  1  7  1  0  0  0  0
  3  4  1  0  0  0  0
  3  5  1  0  0  0  0
  3  6  1  0  0  0  0
  7  8  1  0  0  0  0
  7 12  1  0  0  0  0
  8  9  1  0  0  0  0
  8 11  1  0  0  0  0
  8 13  1  0  0  0  0
  9 10  2  0  0  0  0
  9 17  1  0  0  0  0
 11 14  1  0  0  0  0
 11 15  1  0  0  0  0
 11 16  1  0  0  0  0
 17 18  1  0  0  0  0
 17 23  1  0  0  0  0
 18 19  1  0  0  0  0
 18 21  1  0  0  0  0
 18 24  1  0  0  0  0
 19 20  2  0  0  0  0
 19 28  1  0  0  0  0
 21 22  1  0  0  0  0
 21 25  1  0  0  0  0
 21 26  1  0  0  0  0
 22 27  1  0  0  0  0
 28 29  1  0  0  0  0
 28 33  1  0  0  0  0
 29 30  1  0  0  0  0
 29 32  1  0  0  0  0
 29 34  1  0  0  0  0
 30 31  2  0  0  0  0
 30 38  1  0  0  0  0
 32 35  1  0  0  0  0
 32 36  1  0  0  0  0
 32 37  1  0  0  0  0
 38 39  1  0  0  0  0
 38 40  1  0  0  0  0
 39 41  1  0  0  0  0
 39 42  1  0  0  0  0
 39 43  1  0  0  0  0
M  END
$$$$

  -OEChem-05262216003D

 43 42  0     1  0  0  0  0  0999 V2000
   -3.4342   -4.9284    0.8591 C   0  0  0  0  0  0  0  0  0  0  0  0
   -2.7367   -5.4092    1.7385 O   0  0  0  0  0  0  0  0  0  0  0  0
   -4.9127   -5.2614    0.7902 C   0  0  0  0  0  0  0  0  0  0  0  0
   -5.1431   -5.7398   -0.1650 H   0  0  0  0  0  0  0  0  0  0  0  0
   -5.1840   -5.9433    1.6010 H   0  0  0  0  0  0  0  0  0  0  0  0
   -5.5058   -4.3481    0.8844 H   0  0  0  0  0  0  0  0  0  0  0  0
   -2.8844   -4.0658   -0.0647 N   0  0  0  0  0  0  0  0  0  0  0  0
   -1.5302   -3.5044    0.0332 C   0  0  2  0  0  0  0  0  0  0  0  0
   -1.5137   -2.0162   -0.3713 C   0  0  0  0  0  0  0  0  0  0  0  0
   -2.4612   -1.5439   -0.9865 O   0  0  0  0  0  0  0  0  0  0  0  0
   -0.6045   -4.3236   -0.8699 C   0  0  0  0  0  0  0  0  0  0  0  0
   -3.5349   -3.5750   -0.6788 H   0  0  0  0  0  0  0  0  0  0  0  0
   -1.1715   -3.5645    1.0665 H   0  0  0  0  0  0  0  0  0  0  0  0
   -0.9314   -4.2586   -1.9127 H   0  0  0  0  0  0  0  0  0  0  0  0
    0.4238   -3.9556   -0.8034 H   0  0  0  0  0  0  0  0  0  0  0  0
   -0.6147   -5.3752   -0.5657 H   0  0  0  0  0  0  0  0  0  0  0  0
   -0.4141   -1.2224   -0.0993 N   0  0  0  0  0  0  0  0  0  0  0  0
   -0.3236    0.2452   -0.2574 C   0  0  2  0  0  0  0  0  0  0  0  0
   -1.5181    1.0755    0.2763 C   0  0  0  0  0  0  0  0  0  0  0  0
   -1.3438    1.7658    1.2728 O   0  0  0  0  0  0  0  0  0  0  0  0
   -0.0865    0.5689   -1.7393 C   0  0  0  0  0  0  0  0  0  0  0  0
    1.5505   -0.0841   -2.2717 S   0  0  0  0  0  0  0  0  0  0  0  0
    0.3689   -1.6866    0.3524 H   0  0  0  0  0  0  0  0  0  0  0  0
    0.5525    0.5899    0.3022 H   0  0  0  0  0  0  0  0  0  0  0  0
   -0.8800    0.1347   -2.3568 H   0  0  0  0  0  0  0  0  0  0  0  0
   -0.1050    1.6539   -1.8871 H   0  0  0  0  0  0  0  0  0  0  0  0
    1.5481    0.2595   -3.5789 H   0  0  0  0  0  0  0  0  0  0  0  0
   -2.7358    1.1495   -0.3755 N   0  0  0  0  0  0  0  0  0  0  0  0
   -3.8982    1.8878    0.1382 C   0  0  2  0  0  0  0  0  0  0  0  0
   -5.2396    1.2276   -0.2468 C   0  0  0  0  0  0  0  0  0  0  0  0
   -5.3062    0.4313   -1.1751 O   0  0  0  0  0  0  0  0  0  0  0  0
   -3.8344    3.3175   -0.4078 C   0  0  0  0  0  0  0  0  0  0  0  0
   -2.9353    0.3654   -1.0091 H   0  0  0  0  0  0  0  0  0  0  0  0
   -3.8594    1.9179    1.2323 H   0  0  0  0  0  0  0  0  0  0  0  0
   -3.8827    3.3103   -1.5016 H   0  0  0  0  0  0  0  0  0  0  0  0
   -4.6686    3.9130   -0.0252 H   0  0  0  0  0  0  0  0  0  0  0  0
   -2.8997    3.7987   -0.1028 H   0  0  0  0  0  0  0  0  0  0  0  0
   -6.3925    1.5406    0.4506 N   0  0  0  0  0  0  0  0  0  0  0  0
   -7.6968    0.9681    0.1397 C   0  0  0  0  0  0  0  0  0  0  0  0
   -6.3123    2.1951    1.2232 H   0  0  0  0  0  0  0  0  0  0  0  0
   -7.9816    1.2011   -0.8918 H   0  0  0  0  0  0  0  0  0  0  0  0
   -7.6766   -0.1199    0.2623 H   0  0  0  0  0  0  0  0  0  0  0  0
   -8.4593    1.3779    0.8090 H   0  0  0  0  0  0  0  0  0  0  0  0
  1  2  2  0  0  0  0
  1  3  1  0  0  0  0
  1  7  1  0  0  0  0
  3  4  1  0  0  0  0
  3  5  1  0  0  0  0
  3  6  1  0  0  0  0
  7  8  1  0  0  0  0
  7 12  1  0  0  0  0
  8  9  1  0  0  0  0
  8 11  1  0  0  0  0
  8 13  1  0  0  0  0
  9 10  2  0  0  0  0
  9 17  1  0  0  0  0
 11 14  1  0  0  0  0
 11 15  1  0  0  0  0
 11 16  1  0  0  0  0
 17 18  1  0  0  0  0
 17 23  1  0  0  0  0
 18 19  1  0  0  0  0
 18 21  1  0  0  0  0
 18 24  1  0  0  0  0
 19 20  2  0  0  0  0
 19 28  1  0  0  0  0
 21 22  1  0  0  0  0
 21 25  1  0  0  0  0
 21 26  1  0  0  0  0
 22 27  1  0  0  0  0
 28 29  1  0  0  0  0
 28 33  1  0  0  0  0
 29 30  1  0  0  0  0
 29 32  1  0  0  0  0
 29 34  1  0  0  0  0
 30 31  2  0  0  0  0
 30 38  1  0  0  0  0
 32 35  1  0  0  0  0
 32 36  1  0  0  0  0
 32 37  1  0  0  0  0
 38 39  1  0  0  0  0
 38 40  1  0  0  0  0
 39 41  1  0  0  0  0
 39 42  1  0  0  0  0
 39 43  1  0  0  0  0
M  END
$$$$

  -OEChem-05262216003D

 43 42  0     1  0  0  0  0  0999 V2000
   -2.8530   -3.5577    1.1491 C   0  0  0  0  0  0  0  0  0  0  0  0
   -1.7248   -3.8527    1.5190 O   0  0  0  0  0  0  0  0  0  0  0  0
   -3.9344   -3.2559    2.1674 C   0  0  0  0  0  0  0  0  0  0  0  0
   -3.6688   -3.6825    3.1384 H   0  0  0  0  0  0  0  0  0  0  0  0
   -4.0473   -2.1738    2.2736 H   0  0  0  0  0  0  0  0  0  0  0  0
   -4.8857   -3.6841    1.8421 H   0  0  0  0  0  0  0  0  0  0  0  0
   -3.0932   -3.3583   -0.1935 N   0  0  0  0  0  0  0  0  0  0  0  0
   -2.0263   -3.3370   -1.2050 C   0  0  2  0  0  0  0  0  0  0  0  0
   -1.2748   -1.9874   -1.1624 C   0  0  0  0  0  0  0  0  0  0  0  0
   -1.3853   -1.1645   -2.0662 O   0  0  0  0  0  0  0  0  0  0  0  0
   -2.6780   -3.6216   -2.5632 C   0  0  0  0  0  0  0  0  0  0  0  0
   -3.9399   -2.8167   -0.4005 H   0  0  0  0  0  0  0  0  0  0  0  0
   -1.2992   -4.1318   -1.0065 H   0  0  0  0  0  0  0  0  0  0  0  0
   -3.4295   -2.8603   -2.7973 H   0  0  0  0  0  0  0  0  0  0  0  0
   -1.9227   -3.6197   -3.3553 H   0  0  0  0  0  0  0  0  0  0  0  0
   -3.1657   -4.6010   -2.5521 H   0  0  0  0  0  0  0  0  0  0  0  0
   -0.6067   -1.6383   -0.0017 N   0  0  0  0  0  0  0  0  0  0  0  0
   -0.5687   -0.2768    0.5768 C   0  0  2  0  0  0  0  0  0  0  0  0
   -1.9343    0.4518    0.6235 C   0  0  0  0  0  0  0  0  0  0  0  0
   -2.4107    0.7638    1.7083 O   0  0  0  0  0  0  0  0  0  0  0  0
    0.4628    0.5944   -0.1571 C   0  0  0  0  0  0  0  0  0  0  0  0
    2.1609   -0.0639    0.1095 S   0  0  0  0  0  0  0  0  0  0  0  0
   -0.6147   -2.3975    0.6870 H   0  0  0  0  0  0  0  0  0  0  0  0
   -0.2374   -0.3695    1.6163 H   0  0  0  0  0  0  0  0  0  0  0  0
    0.2432    0.6278   -1.2286 H   0  0  0  0  0  0  0  0  0  0  0  0
    0.4154    1.6201    0.2236 H   0  0  0  0  0  0  0  0  0  0  0  0
    2.8835    0.7670   -0.6726 H   0  0  0  0  0  0  0  0  0  0  0  0
   -2.6743    0.7233   -0.5111 N   0  0  0  0  0  0  0  0  0  0  0  0
   -4.0864    1.1184   -0.4594 C   0  0  2  0  0  0  0  0  0  0  0  0
   -5.0223   -0.0109    0.0338 C   0  0  0  0  0  0  0  0  0  0  0  0
   -4.9044   -1.1623   -0.3787 O   0  0  0  0  0  0  0  0  0  0  0  0
   -4.4916    1.5607   -1.8665 C   0  0  0  0  0  0  0  0  0  0  0  0
   -2.3416    0.2501   -1.3573 H   0  0  0  0  0  0  0  0  0  0  0  0
   -4.1924    1.9728    0.2169 H   0  0  0  0  0  0  0  0  0  0  0  0
   -4.3900    0.7305   -2.5739 H   0  0  0  0  0  0  0  0  0  0  0  0
   -5.5323    1.8989   -1.8750 H   0  0  0  0  0  0  0  0  0  0  0  0
   -3.8557    2.3854   -2.2032 H   0  0  0  0  0  0  0  0  0  0  0  0
   -6.0426    0.2782    0.9211 N   0  0  0  0  0  0  0  0  0  0  0  0
   -6.9506   -0.7261    1.4624 C   0  0  0  0  0  0  0  0  0  0  0  0
   -6.0383    1.2046    1.3392 H   0  0  0  0  0  0  0  0  0  0  0  0
   -7.3906   -1.3240    0.6571 H   0  0  0  0  0  0  0  0  0  0  0  0
   -6.4190   -1.3932    2.1479 H   0  0  0  0  0  0  0  0  0  0  0  0
   -7.7645   -0.2421    2.0109 H   0  0  0  0  0  0  0  0  0  0  0  0
  1  2  2  0  0  0  0
  1  3  1  0  0  0  0
  1  7  1  0  0  0  0
  3  4  1  0  0  0  0
  3  5  1  0  0  0  0
  3  6  1  0  0  0  0
  7  8  1  0  0  0  0
  7 12  1  0  0  0  0
  8  9  1  0  0  0  0
  8 11  1  0  0  0  0
  8 13  1  0  0  0  0
  9 10  2  0  0  0  0
  9 17  1  0  0  0  0
 11 14  1  0  0  0  0
 11 15  1  0  0  0  0
 11 16  1  0  0  0  0
 17 18  1  0  0  0  0
 17 23  1  0  0  0  0
 18 19  1  0  0  0  0
 18 21  1  0  0  0  0
 18 24  1  0  0  0  0
 19 20  2  0  0  0  0
 19 28  1  0  0  0  0
 21 22  1  0  0  0  0
 21 25  1  0  0  0  0
 21 26  1  0  0  0  0
 22 27  1  0  0  0  0
 28 29  1  0  0  0  0
 28 33  1  0  0  0  0
 29 30  1  0  0  0  0
 29 32  1  0  0  0  0
 29 34  1  0  0  0  0
 30 31  2  0  0  0  0
 30 38  1  0  0  0  0
 32 35  1  0  0  0  0
 32 36  1  0  0  0  0
 32 37  1  0  0  0  0
 38 39  1  0  0  0  0
 38 40  1  0  0  0  0
 39 41  1  0  0  0  0
 39 42  1  0  0  0  0
 39 43  1  0  0  0  0
M  END
$$$$

  -OEChem-05262216003D

 43 42  0     1  0  0  0  0  0999 V2000
   -2.6091   -3.7596    1.2273 C   0  0  0  0  0  0  0  0  0  0  0  0
   -1.4299   -3.9891    1.4579 O   0  0  0  0  0  0  0  0  0  0  0  0
   -3.5894   -3.5937    2.3715 C   0  0  0  0  0  0  0  0  0  0  0  0
   -4.5745   -3.9654    2.0790 H   0  0  0  0  0  0  0  0  0  0  0  0
   -3.2465   -4.1537    3.2455 H   0  0  0  0  0  0  0  0  0  0  0  0
   -3.6725   -2.5363    2.6346 H   0  0  0  0  0  0  0  0  0  0  0  0
   -3.0084   -3.5138   -0.0689 N   0  0  0  0  0  0  0  0  0  0  0  0
   -2.0686   -3.4091   -1.1957 C   0  0  2  0  0  0  0  0  0  0  0  0
   -1.3794   -2.0259   -1.2019 C   0  0  0  0  0  0  0  0  0  0  0  0
   -1.5898   -1.2109   -2.0943 O   0  0  0  0  0  0  0  0  0  0  0  0
   -2.8609   -3.6946   -2.4768 C   0  0  0  0  0  0  0  0  0  0  0  0
   -3.9014   -3.0156   -0.1537 H   0  0  0  0  0  0  0  0  0  0  0  0
   -1.2853   -4.1697   -1.1068 H   0  0  0  0  0  0  0  0  0  0  0  0
   -3.6682   -2.9651   -2.6016 H   0  0  0  0  0  0  0  0  0  0  0  0
   -2.2037   -3.6389   -3.3505 H   0  0  0  0  0  0  0  0  0  0  0  0
   -3.2990   -4.6964   -2.4363 H   0  0  0  0  0  0  0  0  0  0  0  0
   -0.6433   -1.6509   -0.0922 N   0  0  0  0  0  0  0  0  0  0  0  0
   -0.5454   -0.2878    0.4795 C   0  0  2  0  0  0  0  0  0  0  0  0
   -1.8780    0.4907    0.6256 C   0  0  0  0  0  0  0  0  0  0  0  0
   -2.1591    0.9880    1.7091 O   0  0  0  0  0  0  0  0  0  0  0  0
    0.4427    0.5519   -0.3429 C   0  0  0  0  0  0  0  0  0  0  0  0
    2.1433   -0.1394   -0.2024 S   0  0  0  0  0  0  0  0  0  0  0  0
   -0.5522   -2.4142    0.5858 H   0  0  0  0  0  0  0  0  0  0  0  0
   -0.1360   -0.3830    1.4908 H   0  0  0  0  0  0  0  0  0  0  0  0
    0.1381    0.5770   -1.3940 H   0  0  0  0  0  0  0  0  0  0  0  0
    0.4466    1.5825    0.0276 H   0  0  0  0  0  0  0  0  0  0  0  0
    2.8190    0.6701   -1.0469 H   0  0  0  0  0  0  0  0  0  0  0  0
   -2.8348    0.5421   -0.3692 N   0  0  0  0  0  0  0  0  0  0  0  0
   -4.2377    0.8921   -0.1269 C   0  0  2  0  0  0  0  0  0  0  0  0
   -5.0271   -0.2494    0.5548 C   0  0  0  0  0  0  0  0  0  0  0  0
   -4.9295   -1.4100    0.1619 O   0  0  0  0  0  0  0  0  0  0  0  0
   -4.8641    1.2367   -1.4796 C   0  0  0  0  0  0  0  0  0  0  0  0
   -2.6123    0.0072   -1.2135 H   0  0  0  0  0  0  0  0  0  0  0  0
   -4.2861    1.7796    0.5128 H   0  0  0  0  0  0  0  0  0  0  0  0
   -4.8289    0.3713   -2.1503 H   0  0  0  0  0  0  0  0  0  0  0  0
   -5.9091    1.5349   -1.3508 H   0  0  0  0  0  0  0  0  0  0  0  0
   -4.3226    2.0637   -1.9496 H   0  0  0  0  0  0  0  0  0  0  0  0
   -5.8921    0.0318    1.5957 N   0  0  0  0  0  0  0  0  0  0  0  0
   -6.6579   -0.9858    2.3056 C   0  0  0  0  0  0  0  0  0  0  0  0
   -5.8641    0.9743    1.9758 H   0  0  0  0  0  0  0  0  0  0  0  0
   -7.2393   -1.5917    1.6023 H   0  0  0  0  0  0  0  0  0  0  0  0
   -5.9904   -1.6441    2.8702 H   0  0  0  0  0  0  0  0  0  0  0  0
   -7.3538   -0.5143    3.0065 H   0  0  0  0  0  0  0  0  0  0  0  0
  1  2  2  0  0  0  0
  1  3  1  0  0  0  0
  1  7  1  0  0  0  0
  3  4  1  0  0  0  0
  3  5  1  0  0  0  0
  3  6  1  0  0  0  0
  7  8  1  0  0  0  0
  7 12  1  0  0  0  0
  8  9  1  0  0  0  0
  8 11  1  0  0  0  0
  8 13  1  0  0  0  0
  9 10  2  0  0  0  0
  9 17  1  0  0  0  0
 11 14  1  0  0  0  0
 11 15  1  0  0  0  0
 11 16  1  0  0  0  0
 17 18  1  0  0  0  0
 17 23  1  0  0  0  0
 18 19  1  0  0  0  0
 18 21  1  0  0  0  0
 18 24  1  0  0  0  0
 19 20  2  0  0  0  0
 19 28  1  0  0  0  0
 21 22  1  0  0  0  0
 21 25  1  0  0  0  0
 21 26  1  0  0  0  0
 22 27  1  0  0  0  0
 28 29  1  0  0  0  0
 28 33  1  0  0  0  0
 29 30  1  0  0  0  0
 29 32  1  0  0  0  0
 29 34  1  0  0  0  0
 30 31  2  0  0  0  0
 30 38  1  0  0  0  0
 32 35  1  0  0  0  0
 32 36  1  0  0  0  0
 32 37  1  0  0  0  0
 38 39  1  0  0  0  0
 38 40  1  0  0  0  0
 39 41  1  0  0  0  0
 39 42  1  0  0  0  0
 39 43  1  0  0  0  0
M  END
$$$$

  -OEChem-05262216003D

 43 42  0     1  0  0  0  0  0999 V2000
   -2.3754   -3.8810    1.3268 C   0  0  0  0  0  0  0  0  0  0  0  0
   -1.1728   -4.0625    1.4548 O   0  0  0  0  0  0  0  0  0  0  0  0
   -3.2624   -3.7888    2.5521 C   0  0  0  0  0  0  0  0  0  0  0  0
   -4.2518   -4.1970    2.3314 H   0  0  0  0  0  0  0  0  0  0  0  0
   -2.8236   -4.3539    3.3787 H   0  0  0  0  0  0  0  0  0  0  0  0
   -3.3682   -2.7431    2.8505 H   0  0  0  0  0  0  0  0  0  0  0  0
   -2.8890   -3.6192    0.0747 N   0  0  0  0  0  0  0  0  0  0  0  0
   -2.0517   -3.4647   -1.1264 C   0  0  2  0  0  0  0  0  0  0  0  0
   -1.4125   -2.0578   -1.1727 C   0  0  0  0  0  0  0  0  0  0  0  0
   -1.7147   -1.2481   -2.0424 O   0  0  0  0  0  0  0  0  0  0  0  0
   -2.9370   -3.7659   -2.3420 C   0  0  0  0  0  0  0  0  0  0  0  0
   -3.8083   -3.1642    0.0764 H   0  0  0  0  0  0  0  0  0  0  0  0
   -1.2370   -4.1970   -1.1136 H   0  0  0  0  0  0  0  0  0  0  0  0
   -3.7745   -3.0624   -2.3933 H   0  0  0  0  0  0  0  0  0  0  0  0
   -2.3561   -3.6821   -3.2660 H   0  0  0  0  0  0  0  0  0  0  0  0
   -3.3384   -4.7818   -2.2769 H   0  0  0  0  0  0  0  0  0  0  0  0
   -0.6411   -1.6517   -0.0994 N   0  0  0  0  0  0  0  0  0  0  0  0
   -0.5142   -0.2804    0.4491 C   0  0  2  0  0  0  0  0  0  0  0  0
   -1.8255    0.5266    0.6400 C   0  0  0  0  0  0  0  0  0  0  0  0
   -1.9503    1.2122    1.6472 O   0  0  0  0  0  0  0  0  0  0  0  0
    0.4445    0.5349   -0.4304 C   0  0  0  0  0  0  0  0  0  0  0  0
    2.1444   -0.1672   -0.3503 S   0  0  0  0  0  0  0  0  0  0  0  0
   -0.4688   -2.4106    0.5675 H   0  0  0  0  0  0  0  0  0  0  0  0
   -0.0641   -0.3646    1.4438 H   0  0  0  0  0  0  0  0  0  0  0  0
    0.0936    0.5432   -1.4673 H   0  0  0  0  0  0  0  0  0  0  0  0
    0.4731    1.5722   -0.0801 H   0  0  0  0  0  0  0  0  0  0  0  0
    2.7914    0.6350   -1.2232 H   0  0  0  0  0  0  0  0  0  0  0  0
   -2.9402    0.3576   -0.1578 N   0  0  0  0  0  0  0  0  0  0  0  0
   -4.3103    0.6889    0.2426 C   0  0  2  0  0  0  0  0  0  0  0  0
   -4.9727   -0.4579    1.0373 C   0  0  0  0  0  0  0  0  0  0  0  0
   -4.8821   -1.6236    0.6566 O   0  0  0  0  0  0  0  0  0  0  0  0
   -5.1062    0.9873   -1.0298 C   0  0  0  0  0  0  0  0  0  0  0  0
   -2.8093   -0.2484   -0.9714 H   0  0  0  0  0  0  0  0  0  0  0  0
   -4.3093    1.5894    0.8654 H   0  0  0  0  0  0  0  0  0  0  0  0
   -5.1332    0.1075   -1.6814 H   0  0  0  0  0  0  0  0  0  0  0  0
   -6.1345    1.2665   -0.7802 H   0  0  0  0  0  0  0  0  0  0  0  0
   -4.6462    1.8139   -1.5804 H   0  0  0  0  0  0  0  0  0  0  0  0
   -5.7051   -0.1767    2.1752 N   0  0  0  0  0  0  0  0  0  0  0  0
   -6.3419   -1.1966    2.9996 C   0  0  0  0  0  0  0  0  0  0  0  0
   -5.6719    0.7791    2.5207 H   0  0  0  0  0  0  0  0  0  0  0  0
   -6.9866   -1.8386    2.3899 H   0  0  0  0  0  0  0  0  0  0  0  0
   -5.5877   -1.8186    3.4918 H   0  0  0  0  0  0  0  0  0  0  0  0
   -6.9595   -0.7257    3.7706 H   0  0  0  0  0  0  0  0  0  0  0  0
  1  2  2  0  0  0  0
  1  3  1  0  0  0  0
  1  7  1  0  0  0  0
  3  4  1  0  0  0  0
  3  5  1  0  0  0  0
  3  6  1  0  0  0  0
  7  8  1  0  0  0  0
  7 12  1  0  0  0  0
  8  9  1  0  0  0  0
  8 11  1  0  0  0  0
  8 13  1  0  0  0  0
  9 10  2  0  0  0  0
  9 17  1  0  0  0  0
 11 14  1  0  0  0  0
 11 15  1  0  0  0  0
 11 16  1  0  0  0  0
 17 18  1  0  0  0  0
 17 23  1  0  0  0  0
 18 19  1  0  0  0  0
 18 21  1  0  0  0  0
 18 24  1  0  0  0  0
 19 20  2  0  0  0  0
 19 28  1  0  0  0  0
 21 22  1  0  0  0  0
 21 25  1  0  0  0  0
 21 26  1  0  0  0  0
 22 27  1  0  0  0  0
 28 29  1  0  0  0  0
 28 33  1  0  0  0  0
 29 30  1  0  0  0  0
 29 32  1  0  0  0  0
 29 34  1  0  0  0  0
 30 31  2  0  0  0  0
 30 38  1  0  0  0  0
 32 35  1  0  0  0  0
 32 36  1  0  0  0  0
 32 37  1  0  0  0  0
 38 39  1  0  0  0  0
 38 40  1  0  0  0  0
 39 41  1  0  0  0  0
 39 42  1  0  0  0  0
 39 43  1  0  0  0  0
M  END
$$$$

  -OEChem-05262216003D

 43 42  0     1  0  0  0  0  0999 V2000
   -2.0624   -3.9938    1.4447 C   0  0  0  0  0  0  0  0  0  0  0  0
   -0.8470   -4.1158    1.3868 O   0  0  0  0  0  0  0  0  0  0  0  0
   -2.7648   -4.0831    2.7865 C   0  0  0  0  0  0  0  0  0  0  0  0
   -3.7270   -3.5678    2.7520 H   0  0  0  0  0  0  0  0  0  0  0  0
   -2.9356   -5.1313    3.0428 H   0  0  0  0  0  0  0  0  0  0  0  0
   -2.1483   -3.6213    3.5623 H   0  0  0  0  0  0  0  0  0  0  0  0
   -2.7638   -3.7026    0.2932 N   0  0  0  0  0  0  0  0  0  0  0  0
   -2.1214   -3.4997   -1.0175 C   0  0  2  0  0  0  0  0  0  0  0  0
   -1.5161   -2.0815   -1.1301 C   0  0  0  0  0  0  0  0  0  0  0  0
   -1.9697   -1.2554   -1.9134 O   0  0  0  0  0  0  0  0  0  0  0  0
   -3.1748   -3.7919   -2.0936 C   0  0  0  0  0  0  0  0  0  0  0  0
   -3.6890   -3.2863    0.4418 H   0  0  0  0  0  0  0  0  0  0  0  0
   -1.3029   -4.2159   -1.1479 H   0  0  0  0  0  0  0  0  0  0  0  0
   -4.0222   -3.1045   -2.0020 H   0  0  0  0  0  0  0  0  0  0  0  0
   -2.7405   -3.6755   -3.0917 H   0  0  0  0  0  0  0  0  0  0  0  0
   -3.5450   -4.8170   -1.9951 H   0  0  0  0  0  0  0  0  0  0  0  0
   -0.5941   -1.6839   -0.1800 N   0  0  0  0  0  0  0  0  0  0  0  0
   -0.3398   -0.3106    0.3172 C   0  0  2  0  0  0  0  0  0  0  0  0
   -1.5762    0.5603    0.6666 C   0  0  0  0  0  0  0  0  0  0  0  0
   -1.4482    1.4487    1.4993 O   0  0  0  0  0  0  0  0  0  0  0  0
    0.5215    0.4429   -0.7062 C   0  0  0  0  0  0  0  0  0  0  0  0
    2.1858   -0.3330   -0.8428 S   0  0  0  0  0  0  0  0  0  0  0  0
   -0.3144   -2.4460    0.4459 H   0  0  0  0  0  0  0  0  0  0  0  0
    0.2368   -0.3961    1.2440 H   0  0  0  0  0  0  0  0  0  0  0  0
    0.0298    0.4474   -1.6841 H   0  0  0  0  0  0  0  0  0  0  0  0
    0.6419    1.4843   -0.3890 H   0  0  0  0  0  0  0  0  0  0  0  0
    2.7492    0.4438   -1.7931 H   0  0  0  0  0  0  0  0  0  0  0  0
   -2.8552    0.2385    0.2560 N   0  0  0  0  0  0  0  0  0  0  0  0
   -4.1062    0.6474    0.9021 C   0  0  2  0  0  0  0  0  0  0  0  0
   -4.8302   -0.5485    1.5598 C   0  0  0  0  0  0  0  0  0  0  0  0
   -4.6792   -1.6928    1.1351 O   0  0  0  0  0  0  0  0  0  0  0  0
   -4.9924    1.2841   -0.1700 C   0  0  0  0  0  0  0  0  0  0  0  0
   -2.9100   -0.4646   -0.4836 H   0  0  0  0  0  0  0  0  0  0  0  0
   -3.9076    1.3907    1.6810 H   0  0  0  0  0  0  0  0  0  0  0  0
   -5.2164    0.5605   -0.9606 H   0  0  0  0  0  0  0  0  0  0  0  0
   -5.9354    1.6275    0.2658 H   0  0  0  0  0  0  0  0  0  0  0  0
   -4.4849    2.1438   -0.6192 H   0  0  0  0  0  0  0  0  0  0  0  0
   -5.6776   -0.3402    2.6322 N   0  0  0  0  0  0  0  0  0  0  0  0
   -6.3808   -1.4126    3.3258 C   0  0  0  0  0  0  0  0  0  0  0  0
   -5.7583    0.6089    2.9872 H   0  0  0  0  0  0  0  0  0  0  0  0
   -7.0049   -1.9791    2.6264 H   0  0  0  0  0  0  0  0  0  0  0  0
   -5.6676   -2.0968    3.7971 H   0  0  0  0  0  0  0  0  0  0  0  0
   -7.0278   -0.9978    4.1049 H   0  0  0  0  0  0  0  0  0  0  0  0
  1  2  2  0  0  0  0
  1  3  1  0  0  0  0
  1  7  1  0  0  0  0
  3  4  1  0  0  0  0
  3  5  1  0  0  0  0
  3  6  1  0  0  0  0
  7  8  1  0  0  0  0
  7 12  1  0  0  0  0
  8  9  1  0  0  0  0
  8 11  1  0  0  0  0
  8 13  1  0  0  0  0
  9 10  2  0  0  0  0
  9 17  1  0  0  0  0
 11 14  1  0  0  0  0
 11 15  1  0  0  0  0
 11 16  1  0  0  0  0
 17 18  1  0  0  0  0
 17 23  1  0  0  0  0
 18 19  1  0  0  0  0
 18 21  1  0  0  0  0
 18 24  1  0  0  0  0
 19 20  2  0  0  0  0
 19 28  1  0  0  0  0
 21 22  1  0  0  0  0
 21 25  1  0  0  0  0
 21 26  1  0  0  0  0
 22 27  1  0  0  0  0
 28 29  1  0  0  0  0
 28 33  1  0  0  0  0
 29 30  1  0  0  0  0
 29 32  1  0  0  0  0
 29 34  1  0  0  0  0
 30 31  2  0  0  0  0
 30 38  1  0  0  0  0
 32 35  1  0  0  0  0
 32 36  1  0  0  0  0
 32 37  1  0  0  0  0
 38 39  1  0  0  0  0
 38 40  1  0  0  0  0
 39 41  1  0  0  0  0
 39 42  1  0  0  0  0
 39 43  1  0  0  0  0
M  END
$$$$

  -OEChem-05262216003D

 43 42  0     1  0  0  0  0  0999 V2000
   -1.8637   -3.9289    1.5201 C   0  0  0  0  0  0  0  0  0  0  0  0
   -0.6671   -4.0956    1.3284 O   0  0  0  0  0  0  0  0  0  0  0  0
   -2.4118   -3.8944    2.9334 C   0  0  0  0  0  0  0  0  0  0  0  0
   -3.3861   -4.3883    2.9699 H   0  0  0  0  0  0  0  0  0  0  0  0
   -1.7295   -4.4094    3.6150 H   0  0  0  0  0  0  0  0  0  0  0  0
   -2.5273   -2.8580    3.2602 H   0  0  0  0  0  0  0  0  0  0  0  0
   -2.6857   -3.6561    0.4472 N   0  0  0  0  0  0  0  0  0  0  0  0
   -2.1918   -3.4875   -0.9302 C   0  0  2  0  0  0  0  0  0  0  0  0
   -1.5688   -2.0862   -1.1212 C   0  0  0  0  0  0  0  0  0  0  0  0
   -2.1778   -1.2050   -1.7147 O   0  0  0  0  0  0  0  0  0  0  0  0
   -3.3686   -3.7572   -1.8753 C   0  0  0  0  0  0  0  0  0  0  0  0
   -3.6016   -3.2613    0.6872 H   0  0  0  0  0  0  0  0  0  0  0  0
   -1.4131   -4.2274   -1.1449 H   0  0  0  0  0  0  0  0  0  0  0  0
   -4.1847   -3.0513   -1.6883 H   0  0  0  0  0  0  0  0  0  0  0  0
   -3.0502   -3.6514   -2.9172 H   0  0  0  0  0  0  0  0  0  0  0  0
   -3.7474   -4.7736   -1.7304 H   0  0  0  0  0  0  0  0  0  0  0  0
   -0.4655   -1.7469   -0.3587 N   0  0  0  0  0  0  0  0  0  0  0  0
   -0.1335   -0.3956    0.1564 C   0  0  2  0  0  0  0  0  0  0  0  0
   -1.2986    0.4050    0.7994 C   0  0  0  0  0  0  0  0  0  0  0  0
   -1.0615    1.4393    1.4105 O   0  0  0  0  0  0  0  0  0  0  0  0
    0.5026    0.4305   -0.9723 C   0  0  0  0  0  0  0  0  0  0  0  0
    2.1158   -0.3046   -1.4712 S   0  0  0  0  0  0  0  0  0  0  0  0
   -0.1033   -2.5336    0.1896 H   0  0  0  0  0  0  0  0  0  0  0  0
    0.6137   -0.5147    0.9468 H   0  0  0  0  0  0  0  0  0  0  0  0
   -0.1710    0.4765   -1.8338 H   0  0  0  0  0  0  0  0  0  0  0  0
    0.6736    1.4566   -0.6292 H   0  0  0  0  0  0  0  0  0  0  0  0
    2.4650    0.5180   -2.4841 H   0  0  0  0  0  0  0  0  0  0  0  0
   -2.5729   -0.1203    0.8814 N   0  0  0  0  0  0  0  0  0  0  0  0
   -3.7071    0.4320    1.6242 C   0  0  2  0  0  0  0  0  0  0  0  0
   -4.6565   -0.6884    2.1058 C   0  0  0  0  0  0  0  0  0  0  0  0
   -4.6087   -1.8132    1.6093 O   0  0  0  0  0  0  0  0  0  0  0  0
   -4.4462    1.4100    0.7074 C   0  0  0  0  0  0  0  0  0  0  0  0
   -2.7781   -0.8543    0.2038 H   0  0  0  0  0  0  0  0  0  0  0  0
   -3.3444    0.9664    2.5086 H   0  0  0  0  0  0  0  0  0  0  0  0
   -4.8089    0.8949   -0.1883 H   0  0  0  0  0  0  0  0  0  0  0  0
   -5.3014    1.8529    1.2261 H   0  0  0  0  0  0  0  0  0  0  0  0
   -3.7753    2.2169    0.3959 H   0  0  0  0  0  0  0  0  0  0  0  0
   -5.5562   -0.4487    3.1277 N   0  0  0  0  0  0  0  0  0  0  0  0
   -6.4564   -1.4645    3.6610 C   0  0  0  0  0  0  0  0  0  0  0  0
   -5.5689    0.4827    3.5347 H   0  0  0  0  0  0  0  0  0  0  0  0
   -7.1134   -1.8472    2.8727 H   0  0  0  0  0  0  0  0  0  0  0  0
   -5.8861   -2.2997    4.0813 H   0  0  0  0  0  0  0  0  0  0  0  0
   -7.0802   -1.0395    4.4534 H   0  0  0  0  0  0  0  0  0  0  0  0
  1  2  2  0  0  0  0
  1  3  1  0  0  0  0
  1  7  1  0  0  0  0
  3  4  1  0  0  0  0
  3  5  1  0  0  0  0
  3  6  1  0  0  0  0
  7  8  1  0  0  0  0
  7 12  1  0  0  0  0
  8  9  1  0  0  0  0
  8 11  1  0  0  0  0
  8 13  1  0  0  0  0
  9 10  2  0  0  0  0
  9 17  1  0  0  0  0
 11 14  1  0  0  0  0
 11 15  1  0  0  0  0
 11 16  1  0  0  0  0
 17 18  1  0  0  0  0
 17 23  1  0  0  0  0
 18 19  1  0  0  0  0
 18 21  1  0  0  0  0
 18 24  1  0  0  0  0
 19 20  2  0  0  0  0
 19 28  1  0  0  0  0
 21 22  1  0  0  0  0
 21 25  1  0  0  0  0
 21 26  1  0  0  0  0
 22 27  1  0  0  0  0
 28 29  1  0  0  0  0
 28 33  1  0  0  0  0
 29 30  1  0  0  0  0
 29 32  1  0  0  0  0
 29 34  1  0  0  0  0
 30 31  2  0  0  0  0
 30 38  1  0  0  0  0
 32 35  1  0  0  0  0
 32 36  1  0  0  0  0
 32 37  1  0  0  0  0
 38 39  1  0  0  0  0
 38 40  1  0  0  0  0
 39 41  1  0  0  0  0
 39 42  1  0  0  0  0
 39 43  1  0  0  0  0
M  END
$$$$

  -OEChem-05262216003D

 43 42  0     1  0  0  0  0  0999 V2000
   -1.6786   -4.0009    1.5102 C   0  0  0  0  0  0  0  0  0  0  0  0
   -0.5443   -4.1891    1.0944 O   0  0  0  0  0  0  0  0  0  0  0  0
   -1.9812   -4.1236    2.9909 C   0  0  0  0  0  0  0  0  0  0  0  0
   -1.1867   -4.6809    3.4945 H   0  0  0  0  0  0  0  0  0  0  0  0
   -2.0566   -3.1297    3.4387 H   0  0  0  0  0  0  0  0  0  0  0  0
   -2.9272   -4.6503    3.1373 H   0  0  0  0  0  0  0  0  0  0  0  0
   -2.6488   -3.5653    0.6323 N   0  0  0  0  0  0  0  0  0  0  0  0
   -2.4099   -3.3164   -0.8006 C   0  0  2  0  0  0  0  0  0  0  0  0
   -1.7200   -1.9508   -1.0226 C   0  0  0  0  0  0  0  0  0  0  0  0
   -2.3390   -0.9993   -1.4805 O   0  0  0  0  0  0  0  0  0  0  0  0
   -3.7625   -3.4300   -1.5136 C   0  0  0  0  0  0  0  0  0  0  0  0
   -3.5081   -3.2015    1.0581 H   0  0  0  0  0  0  0  0  0  0  0  0
   -1.7495   -4.0888   -1.2098 H   0  0  0  0  0  0  0  0  0  0  0  0
   -4.4697   -2.6921   -1.1201 H   0  0  0  0  0  0  0  0  0  0  0  0
   -3.6418   -3.2559   -2.5876 H   0  0  0  0  0  0  0  0  0  0  0  0
   -4.1849   -4.4294   -1.3706 H   0  0  0  0  0  0  0  0  0  0  0  0
   -0.4865   -1.7356   -0.4317 N   0  0  0  0  0  0  0  0  0  0  0  0
    0.0126   -0.4324    0.0687 C   0  0  2  0  0  0  0  0  0  0  0  0
   -1.0119    0.3807    0.9044 C   0  0  0  0  0  0  0  0  0  0  0  0
   -0.7798    1.5353    1.2411 O   0  0  0  0  0  0  0  0  0  0  0  0
    0.5340    0.3989   -1.1160 C   0  0  0  0  0  0  0  0  0  0  0  0
    2.0005   -0.4183   -1.8733 S   0  0  0  0  0  0  0  0  0  0  0  0
   -0.0904   -2.5742    0.0050 H   0  0  0  0  0  0  0  0  0  0  0  0
    0.8556   -0.6266    0.7382 H   0  0  0  0  0  0  0  0  0  0  0  0
   -0.2542    0.5270   -1.8647 H   0  0  0  0  0  0  0  0  0  0  0  0
    0.8281    1.3958   -0.7716 H   0  0  0  0  0  0  0  0  0  0  0  0
    2.2597    0.4283   -2.8937 H   0  0  0  0  0  0  0  0  0  0  0  0
   -2.1502   -0.2324    1.3941 N   0  0  0  0  0  0  0  0  0  0  0  0
   -3.2770    0.4353    2.0503 C   0  0  2  0  0  0  0  0  0  0  0  0
   -4.2597   -0.6012    2.6397 C   0  0  0  0  0  0  0  0  0  0  0  0
   -4.2411   -1.7715    2.2587 O   0  0  0  0  0  0  0  0  0  0  0  0
   -4.0106    1.3113    1.0259 C   0  0  0  0  0  0  0  0  0  0  0  0
   -2.3455   -1.1479    0.9970 H   0  0  0  0  0  0  0  0  0  0  0  0
   -2.9030    1.0602    2.8677 H   0  0  0  0  0  0  0  0  0  0  0  0
   -4.3471    0.7059    0.1775 H   0  0  0  0  0  0  0  0  0  0  0  0
   -4.8827    1.7896    1.4816 H   0  0  0  0  0  0  0  0  0  0  0  0
   -3.3502    2.0977    0.6481 H   0  0  0  0  0  0  0  0  0  0  0  0
   -5.1751   -0.2236    3.6040 N   0  0  0  0  0  0  0  0  0  0  0  0
   -6.1524   -1.1341    4.1885 C   0  0  0  0  0  0  0  0  0  0  0  0
   -5.1803    0.7519    3.8893 H   0  0  0  0  0  0  0  0  0  0  0  0
   -6.8235   -1.5234    3.4155 H   0  0  0  0  0  0  0  0  0  0  0  0
   -5.6501   -1.9758    4.6767 H   0  0  0  0  0  0  0  0  0  0  0  0
   -6.7545   -0.6109    4.9379 H   0  0  0  0  0  0  0  0  0  0  0  0
  1  2  2  0  0  0  0
  1  3  1  0  0  0  0
  1  7  1  0  0  0  0
  3  4  1  0  0  0  0
  3  5  1  0  0  0  0
  3  6  1  0  0  0  0
  7  8  1  0  0  0  0
  7 12  1  0  0  0  0
  8  9  1  0  0  0  0
  8 11  1  0  0  0  0
  8 13  1  0  0  0  0
  9 10  2  0  0  0  0
  9 17  1  0  0  0  0
 11 14  1  0  0  0  0
 11 15  1  0  0  0  0
 11 16  1  0  0  0  0
 17 18  1  0  0  0  0
 17 23  1  0  0  0  0
 18 19  1  0  0  0  0
 18 21  1  0  0  0  0
 18 24  1  0  0  0  0
 19 20  2  0  0  0  0
 19 28  1  0  0  0  0
 21 22  1  0  0  0  0
 21 25  1  0  0  0  0
 21 26  1  0  0  0  0
 22 27  1  0  0  0  0
 28 29  1  0  0  0  0
 28 33  1  0  0  0  0
 29 30  1  0  0  0  0
 29 32  1  0  0  0  0
 29 34  1  0  0  0  0
 30 31  2  0  0  0  0
 30 38  1  0  0  0  0
 32 35  1  0  0  0  0
 32 36  1  0  0  0  0
 32 37  1  0  0  0  0
 38 39  1  0  0  0  0
 38 40  1  0  0  0  0
 39 41  1  0  0  0  0
 39 42  1  0  0  0  0
 39 43  1  0  0  0  0
M  END
$$$$

  -OEChem-05262216003D

 43 42  0     1  0  0  0  0  0999 V2000
   -3.1017   -5.2184    0.8923 C   0  0  0  0  0  0  0  0  0  0  0  0
   -2.1462   -5.9337    1.1491 O   0  0  0  0  0  0  0  0  0  0  0  0
   -4.4797   -5.5663    1.4222 C   0  0  0  0  0  0  0  0  0  0  0  0
   -5.1720   -5.7222    0.5913 H   0  0  0  0  0  0  0  0  0  0  0  0
   -4.4333   -6.4810    2.0197 H   0  0  0  0  0  0  0  0  0  0  0  0
   -4.8521   -4.7541    2.0513 H   0  0  0  0  0  0  0  0  0  0  0  0
   -2.9274   -4.0860    0.1254 N   0  0  0  0  0  0  0  0  0  0  0  0
   -1.6190   -3.5545   -0.2760 C   0  0  2  0  0  0  0  0  0  0  0  0
   -1.6134   -2.0130   -0.2694 C   0  0  0  0  0  0  0  0  0  0  0  0
   -2.6664   -1.4023   -0.4030 O   0  0  0  0  0  0  0  0  0  0  0  0
   -1.2887   -4.0861   -1.6725 C   0  0  0  0  0  0  0  0  0  0  0  0
   -3.7270   -3.4614    0.0260 H   0  0  0  0  0  0  0  0  0  0  0  0
   -0.8497   -3.8890    0.4286 H   0  0  0  0  0  0  0  0  0  0  0  0
   -2.0465   -3.7633   -2.3937 H   0  0  0  0  0  0  0  0  0  0  0  0
   -0.3128   -3.7178   -2.0033 H   0  0  0  0  0  0  0  0  0  0  0  0
   -1.2604   -5.1804   -1.6627 H   0  0  0  0  0  0  0  0  0  0  0  0
   -0.4209   -1.3243   -0.1228 N   0  0  0  0  0  0  0  0  0  0  0  0
   -0.2335    0.1432   -0.1806 C   0  0  2  0  0  0  0  0  0  0  0  0
   -1.2625    0.9954    0.6085 C   0  0  0  0  0  0  0  0  0  0  0  0
   -1.4631    2.1694    0.3183 O   0  0  0  0  0  0  0  0  0  0  0  0
   -0.2120    0.5372   -1.6666 C   0  0  0  0  0  0  0  0  0  0  0  0
    1.2594   -0.2090   -2.4861 S   0  0  0  0  0  0  0  0  0  0  0  0
    0.4212   -1.8926   -0.1706 H   0  0  0  0  0  0  0  0  0  0  0  0
    0.7399    0.3857    0.2557 H   0  0  0  0  0  0  0  0  0  0  0  0
   -1.1343    0.2100   -2.1585 H   0  0  0  0  0  0  0  0  0  0  0  0
   -0.1508    1.6262   -1.7672 H   0  0  0  0  0  0  0  0  0  0  0  0
    1.1215    0.2806   -3.7381 H   0  0  0  0  0  0  0  0  0  0  0  0
   -1.8574    0.4895    1.7482 N   0  0  0  0  0  0  0  0  0  0  0  0
   -2.9204    1.1504    2.5129 C   0  0  2  0  0  0  0  0  0  0  0  0
   -3.1439    0.4559    3.8730 C   0  0  0  0  0  0  0  0  0  0  0  0
   -2.7282   -0.6826    4.0644 O   0  0  0  0  0  0  0  0  0  0  0  0
   -4.2192    1.1122    1.6965 C   0  0  0  0  0  0  0  0  0  0  0  0
   -1.7263   -0.5056    1.9219 H   0  0  0  0  0  0  0  0  0  0  0  0
   -2.6372    2.1906    2.7044 H   0  0  0  0  0  0  0  0  0  0  0  0
   -4.5019    0.0768    1.4804 H   0  0  0  0  0  0  0  0  0  0  0  0
   -5.0354    1.5890    2.2468 H   0  0  0  0  0  0  0  0  0  0  0  0
   -4.0932    1.6402    0.7464 H   0  0  0  0  0  0  0  0  0  0  0  0
   -3.8297    1.1028    4.8849 N   0  0  0  0  0  0  0  0  0  0  0  0
   -4.0730    0.5086    6.1939 C   0  0  0  0  0  0  0  0  0  0  0  0
   -4.1503    2.0498    4.7052 H   0  0  0  0  0  0  0  0  0  0  0  0
   -4.5694   -0.4621    6.0894 H   0  0  0  0  0  0  0  0  0  0  0  0
   -3.1289    0.3661    6.7298 H   0  0  0  0  0  0  0  0  0  0  0  0
   -4.7169    1.1602    6.7919 H   0  0  0  0  0  0  0  0  0  0  0  0
  1  2  2  0  0  0  0
  1  3  1  0  0  0  0
  1  7  1  0  0  0  0
  3  4  1  0  0  0  0
  3  5  1  0  0  0  0
  3  6  1  0  0  0  0
  7  8  1  0  0  0  0
  7 12  1  0  0  0  0
  8  9  1  0  0  0  0
  8 11  1  0  0  0  0
  8 13  1  0  0  0  0
  9 10  2  0  0  0  0
  9 17  1  0  0  0  0
 11 14  1  0  0  0  0
 11 15  1  0  0  0  0
 11 16  1  0  0  0  0
 17 18  1  0  0  0  0
 17 23  1  0  0  0  0
 18 19  1  0  0  0  0
 18 21  1  0  0  0  0
 18 24  1  0  0  0  0
 19 20  2  0  0  0  0
 19 28  1  0  0  0  0
 21 22  1  0  0  0  0
 21 25  1  0  0  0  0
 21 26  1  0  0  0  0
 22 27  1  0  0  0  0
 28 29  1  0  0  0  0
 28 33  1  0  0  0  0
 29 30  1  0  0  0  0
 29 32  1  0  0  0  0
 29 34  1  0  0  0  0
 30 31  2  0  0  0  0
 30 38  1  0  0  0  0
 32 35  1  0  0  0  0
 32 36  1  0  0  0  0
 32 37  1  0  0  0  0
 38 39  1  0  0  0  0
 38 40  1  0  0  0  0
 39 41  1  0  0  0  0
 39 42  1  0  0  0  0
 39 43  1  0  0  0  0
M  END
$$$$

  -OEChem-05262216003D

 43 42  0     1  0  0  0  0  0999 V2000
   -3.2237   -5.2502    0.7731 C   0  0  0  0  0  0  0  0  0  0  0  0
   -2.2940   -5.9958    1.0386 O   0  0  0  0  0  0  0  0  0  0  0  0
   -4.6371   -5.6137    1.1870 C   0  0  0  0  0  0  0  0  0  0  0  0
   -5.2765   -5.6881    0.3041 H   0  0  0  0  0  0  0  0  0  0  0  0
   -4.6416   -6.5749    1.7087 H   0  0  0  0  0  0  0  0  0  0  0  0
   -5.0386   -4.8481    1.8557 H   0  0  0  0  0  0  0  0  0  0  0  0
   -2.9884   -4.0670    0.1059 N   0  0  0  0  0  0  0  0  0  0  0  0
   -1.6522   -3.5325   -0.1854 C   0  0  2  0  0  0  0  0  0  0  0  0
   -1.6415   -1.9907   -0.1506 C   0  0  0  0  0  0  0  0  0  0  0  0
   -2.6982   -1.3768   -0.2311 O   0  0  0  0  0  0  0  0  0  0  0  0
   -1.2176   -4.0381   -1.5645 C   0  0  0  0  0  0  0  0  0  0  0  0
   -3.7717   -3.4220    0.0035 H   0  0  0  0  0  0  0  0  0  0  0  0
   -0.9409   -3.8826    0.5709 H   0  0  0  0  0  0  0  0  0  0  0  0
   -1.9142   -3.6924   -2.3350 H   0  0  0  0  0  0  0  0  0  0  0  0
   -0.2161   -3.6731   -1.8122 H   0  0  0  0  0  0  0  0  0  0  0  0
   -1.1984   -5.1326   -1.5777 H   0  0  0  0  0  0  0  0  0  0  0  0
   -0.4393   -1.3097   -0.0486 N   0  0  0  0  0  0  0  0  0  0  0  0
   -0.2490    0.1515   -0.1812 C   0  0  2  0  0  0  0  0  0  0  0  0
   -1.2805    1.0210    0.5826 C   0  0  0  0  0  0  0  0  0  0  0  0
   -1.6986    2.0779    0.1221 O   0  0  0  0  0  0  0  0  0  0  0  0
   -0.2408    0.4749   -1.6844 C   0  0  0  0  0  0  0  0  0  0  0  0
    1.2195   -0.3124   -2.4840 S   0  0  0  0  0  0  0  0  0  0  0  0
    0.3947   -1.8845   -0.1410 H   0  0  0  0  0  0  0  0  0  0  0  0
    0.7274    0.4175    0.2342 H   0  0  0  0  0  0  0  0  0  0  0  0
   -1.1696    0.1291   -2.1509 H   0  0  0  0  0  0  0  0  0  0  0  0
   -0.1777    1.5581   -1.8343 H   0  0  0  0  0  0  0  0  0  0  0  0
    1.0750    0.1298   -3.7530 H   0  0  0  0  0  0  0  0  0  0  0  0
   -1.6130    0.6899    1.8821 N   0  0  0  0  0  0  0  0  0  0  0  0
   -2.6315    1.3696    2.6893 C   0  0  2  0  0  0  0  0  0  0  0  0
   -2.5068    1.0002    4.1823 C   0  0  0  0  0  0  0  0  0  0  0  0
   -1.8478    0.0246    4.5273 O   0  0  0  0  0  0  0  0  0  0  0  0
   -4.0189    0.9731    2.1668 C   0  0  0  0  0  0  0  0  0  0  0  0
   -1.2666   -0.2005    2.2352 H   0  0  0  0  0  0  0  0  0  0  0  0
   -2.5017    2.4530    2.5993 H   0  0  0  0  0  0  0  0  0  0  0  0
   -4.1531   -0.1118    2.2278 H   0  0  0  0  0  0  0  0  0  0  0  0
   -4.8059    1.4557    2.7534 H   0  0  0  0  0  0  0  0  0  0  0  0
   -4.1370    1.2757    1.1215 H   0  0  0  0  0  0  0  0  0  0  0  0
   -3.1442    1.7604    5.1457 N   0  0  0  0  0  0  0  0  0  0  0  0
   -3.0758    1.4676    6.5722 C   0  0  0  0  0  0  0  0  0  0  0  0
   -3.6813    2.5634    4.8319 H   0  0  0  0  0  0  0  0  0  0  0  0
   -3.4628    0.4636    6.7767 H   0  0  0  0  0  0  0  0  0  0  0  0
   -2.0409    1.5256    6.9261 H   0  0  0  0  0  0  0  0  0  0  0  0
   -3.6746    2.1895    7.1360 H   0  0  0  0  0  0  0  0  0  0  0  0
  1  2  2  0  0  0  0
  1  3  1  0  0  0  0
  1  7  1  0  0  0  0
  3  4  1  0  0  0  0
  3  5  1  0  0  0  0
  3  6  1  0  0  0  0
  7  8  1  0  0  0  0
  7 12  1  0  0  0  0
  8  9  1  0  0  0  0
  8 11  1  0  0  0  0
  8 13  1  0  0  0  0
  9 10  2  0  0  0  0
  9 17  1  0  0  0  0
 11 14  1  0  0  0  0
 11 15  1  0  0  0  0
 11 16  1  0  0  0  0
 17 18  1  0  0  0  0
 17 23  1  0  0  0  0
 18 19  1  0  0  0  0
 18 21  1  0  0  0  0
 18 24  1  0  0  0  0
 19 20  2  0  0  0  0
 19 28  1  0  0  0  0
 21 22  1  0  0  0  0
 21 25  1  0  0  0  0
 21 26  1  0  0  0  0
 22 27  1  0  0  0  0
 28 29  1  0  0  0  0
 28 33  1  0  0  0  0
 29 30  1  0  0  0  0
 29 32  1  0  0  0  0
 29 34  1  0  0  0  0
 30 31  2  0  0  0  0
 30 38  1  0  0  0  0
 32 35  1  0  0  0  0
 32 36  1  0  0  0  0
 32 37  1  0  0  0  0
 38 39  1  0  0  0  0
 38 40  1  0  0  0  0
 39 41  1  0  0  0  0
 39 42  1  0  0  0  0
 39 43  1  0  0  0  0
M  END
$$$$

  -OEChem-05262216003D

 43 42  0     1  0  0  0  0  0999 V2000
   -3.2647   -5.2346    0.7752 C   0  0  0  0  0  0  0  0  0  0  0  0
   -2.3426   -5.9759    1.0761 O   0  0  0  0  0  0  0  0  0  0  0  0
   -4.6878   -5.5893    1.1620 C   0  0  0  0  0  0  0  0  0  0  0  0
   -5.3031   -5.6911    0.2648 H   0  0  0  0  0  0  0  0  0  0  0  0
   -4.7047   -6.5349    1.7112 H   0  0  0  0  0  0  0  0  0  0  0  0
   -5.1080   -4.8056    1.7971 H   0  0  0  0  0  0  0  0  0  0  0  0
   -3.0135   -4.0633    0.0937 N   0  0  0  0  0  0  0  0  0  0  0  0
   -1.6708   -3.5301   -0.1687 C   0  0  2  0  0  0  0  0  0  0  0  0
   -1.6574   -1.9885   -0.1139 C   0  0  0  0  0  0  0  0  0  0  0  0
   -2.7151   -1.3741   -0.1695 O   0  0  0  0  0  0  0  0  0  0  0  0
   -1.2158   -4.0220   -1.5459 C   0  0  0  0  0  0  0  0  0  0  0  0
   -3.7917   -3.4140   -0.0207 H   0  0  0  0  0  0  0  0  0  0  0  0
   -0.9719   -3.8914    0.5936 H   0  0  0  0  0  0  0  0  0  0  0  0
   -1.8964   -3.6625   -2.3245 H   0  0  0  0  0  0  0  0  0  0  0  0
   -0.2075   -3.6612   -1.7710 H   0  0  0  0  0  0  0  0  0  0  0  0
   -1.2035   -5.1164   -1.5716 H   0  0  0  0  0  0  0  0  0  0  0  0
   -0.4531   -1.3119   -0.0116 N   0  0  0  0  0  0  0  0  0  0  0  0
   -0.2572    0.1455   -0.1653 C   0  0  2  0  0  0  0  0  0  0  0  0
   -1.2961    1.0236    0.5771 C   0  0  0  0  0  0  0  0  0  0  0  0
   -1.8867    1.9423    0.0187 O   0  0  0  0  0  0  0  0  0  0  0  0
   -0.2315    0.4452   -1.6724 C   0  0  0  0  0  0  0  0  0  0  0  0
    1.2365   -0.3598   -2.4400 S   0  0  0  0  0  0  0  0  0  0  0  0
    0.3758   -1.8906   -0.1225 H   0  0  0  0  0  0  0  0  0  0  0  0
    0.7159    0.4170    0.2545 H   0  0  0  0  0  0  0  0  0  0  0  0
   -1.1552    0.0931   -2.1443 H   0  0  0  0  0  0  0  0  0  0  0  0
   -0.1660    1.5262   -1.8370 H   0  0  0  0  0  0  0  0  0  0  0  0
    1.1018    0.0485   -3.7219 H   0  0  0  0  0  0  0  0  0  0  0  0
   -1.4079    0.9074    1.9493 N   0  0  0  0  0  0  0  0  0  0  0  0
   -2.3740    1.6378    2.7771 C   0  0  2  0  0  0  0  0  0  0  0  0
   -1.9942    1.5859    4.2715 C   0  0  0  0  0  0  0  0  0  0  0  0
   -1.1819    0.7606    4.6762 O   0  0  0  0  0  0  0  0  0  0  0  0
   -3.7631    1.0225    2.5659 C   0  0  0  0  0  0  0  0  0  0  0  0
   -0.8981    0.1483    2.3982 H   0  0  0  0  0  0  0  0  0  0  0  0
   -2.3912    2.6894    2.4730 H   0  0  0  0  0  0  0  0  0  0  0  0
   -3.7597   -0.0355    2.8478 H   0  0  0  0  0  0  0  0  0  0  0  0
   -4.5113    1.5434    3.1704 H   0  0  0  0  0  0  0  0  0  0  0  0
   -4.0589    1.0983    1.5146 H   0  0  0  0  0  0  0  0  0  0  0  0
   -2.5690    2.4665    5.1694 N   0  0  0  0  0  0  0  0  0  0  0  0
   -2.2595    2.4743    6.5940 C   0  0  0  0  0  0  0  0  0  0  0  0
   -3.2336    3.1430    4.8053 H   0  0  0  0  0  0  0  0  0  0  0  0
   -2.5055    1.5072    7.0451 H   0  0  0  0  0  0  0  0  0  0  0  0
   -1.1954    2.6779    6.7542 H   0  0  0  0  0  0  0  0  0  0  0  0
   -2.8400    3.2496    7.1031 H   0  0  0  0  0  0  0  0  0  0  0  0
  1  2  2  0  0  0  0
  1  3  1  0  0  0  0
  1  7  1  0  0  0  0
  3  4  1  0  0  0  0
  3  5  1  0  0  0  0
  3  6  1  0  0  0  0
  7  8  1  0  0  0  0
  7 12  1  0  0  0  0
  8  9  1  0  0  0  0
  8 11  1  0  0  0  0
  8 13  1  0  0  0  0
  9 10  2  0  0  0  0
  9 17  1  0  0  0  0
 11 14  1  0  0  0  0
 11 15  1  0  0  0  0
 11 16  1  0  0  0  0
 17 18  1  0  0  0  0
 17 23  1  0  0  0  0
 18 19  1  0  0  0  0
 18 21  1  0  0  0  0
 18 24  1  0  0  0  0
 19 20  2  0  0  0  0
 19 28  1  0  0  0  0
 21 22  1  0  0  0  0
 21 25  1  0  0  0  0
 21 26  1  0  0  0  0
 22 27  1  0  0  0  0
 28 29  1  0  0  0  0
 28 33  1  0  0  0  0
 29 30  1  0  0  0  0
 29 32  1  0  0  0  0
 29 34  1  0  0  0  0
 30 31  2  0  0  0  0
 30 38  1  0  0  0  0
 32 35  1  0  0  0  0
 32 36  1  0  0  0  0
 32 37  1  0  0  0  0
 38 39  1  0  0  0  0
 38 40  1  0  0  0  0
 39 41  1  0  0  0  0
 39 42  1  0  0  0  0
 39 43  1  0  0  0  0
M  END
$$$$

  -OEChem-05262216003D

 43 42  0     1  0  0  0  0  0999 V2000
   -3.2743   -5.2400    0.7958 C   0  0  0  0  0  0  0  0  0  0  0  0
   -2.3510   -5.9563    1.1491 O   0  0  0  0  0  0  0  0  0  0  0  0
   -4.7012   -5.5986    1.1661 C   0  0  0  0  0  0  0  0  0  0  0  0
   -5.2927   -5.7563    0.2612 H   0  0  0  0  0  0  0  0  0  0  0  0
   -4.7166   -6.5155    1.7619 H   0  0  0  0  0  0  0  0  0  0  0  0
   -5.1499   -4.7918    1.7508 H   0  0  0  0  0  0  0  0  0  0  0  0
   -3.0209   -4.0945    0.0719 N   0  0  0  0  0  0  0  0  0  0  0  0
   -1.6784   -3.5475   -0.1657 C   0  0  2  0  0  0  0  0  0  0  0  0
   -1.6772   -2.0058   -0.1099 C   0  0  0  0  0  0  0  0  0  0  0  0
   -2.7381   -1.3992   -0.1756 O   0  0  0  0  0  0  0  0  0  0  0  0
   -1.1936   -4.0356   -1.5337 C   0  0  0  0  0  0  0  0  0  0  0  0
   -3.8034   -3.4580   -0.0789 H   0  0  0  0  0  0  0  0  0  0  0  0
   -0.9888   -3.9011    0.6085 H   0  0  0  0  0  0  0  0  0  0  0  0
   -1.8620   -3.6817   -2.3252 H   0  0  0  0  0  0  0  0  0  0  0  0
   -0.1841   -3.6665   -1.7397 H   0  0  0  0  0  0  0  0  0  0  0  0
   -1.1722   -5.1298   -1.5583 H   0  0  0  0  0  0  0  0  0  0  0  0
   -0.4782   -1.3237    0.0139 N   0  0  0  0  0  0  0  0  0  0  0  0
   -0.2803    0.1333   -0.1359 C   0  0  2  0  0  0  0  0  0  0  0  0
   -1.3304    1.0170    0.5839 C   0  0  0  0  0  0  0  0  0  0  0  0
   -2.0576    1.7902   -0.0306 O   0  0  0  0  0  0  0  0  0  0  0  0
   -0.2290    0.4327   -1.6418 C   0  0  0  0  0  0  0  0  0  0  0  0
    1.2520   -0.3709   -2.3858 S   0  0  0  0  0  0  0  0  0  0  0  0
    0.3539   -1.9003   -0.0830 H   0  0  0  0  0  0  0  0  0  0  0  0
    0.6871    0.4030    0.2973 H   0  0  0  0  0  0  0  0  0  0  0  0
   -1.1449    0.0793   -2.1285 H   0  0  0  0  0  0  0  0  0  0  0  0
   -0.1638    1.5140   -1.8029 H   0  0  0  0  0  0  0  0  0  0  0  0
    1.1332    0.0315   -3.6710 H   0  0  0  0  0  0  0  0  0  0  0  0
   -1.2638    1.1439    1.9581 N   0  0  0  0  0  0  0  0  0  0  0  0
   -2.1565    1.9781    2.7707 C   0  0  2  0  0  0  0  0  0  0  0  0
   -1.5694    2.2289    4.1755 C   0  0  0  0  0  0  0  0  0  0  0  0
   -0.6417    1.5409    4.5889 O   0  0  0  0  0  0  0  0  0  0  0  0
   -3.5148    1.2747    2.8839 C   0  0  0  0  0  0  0  0  0  0  0  0
   -0.6180    0.5364    2.4601 H   0  0  0  0  0  0  0  0  0  0  0  0
   -2.2881    2.9507    2.2847 H   0  0  0  0  0  0  0  0  0  0  0  0
   -3.3992    0.2982    3.3652 H   0  0  0  0  0  0  0  0  0  0  0  0
   -4.2121    1.8755    3.4750 H   0  0  0  0  0  0  0  0  0  0  0  0
   -3.9514    1.1214    1.8916 H   0  0  0  0  0  0  0  0  0  0  0  0
   -2.0812    3.2294    4.9814 N   0  0  0  0  0  0  0  0  0  0  0  0
   -1.5778    3.5161    6.3193 C   0  0  0  0  0  0  0  0  0  0  0  0
   -2.8522    3.7806    4.6155 H   0  0  0  0  0  0  0  0  0  0  0  0
   -1.7276    2.6540    6.9778 H   0  0  0  0  0  0  0  0  0  0  0  0
   -0.5089    3.7515    6.2846 H   0  0  0  0  0  0  0  0  0  0  0  0
   -2.1056    4.3740    6.7467 H   0  0  0  0  0  0  0  0  0  0  0  0
  1  2  2  0  0  0  0
  1  3  1  0  0  0  0
  1  7  1  0  0  0  0
  3  4  1  0  0  0  0
  3  5  1  0  0  0  0
  3  6  1  0  0  0  0
  7  8  1  0  0  0  0
  7 12  1  0  0  0  0
  8  9  1  0  0  0  0
  8 11  1  0  0  0  0
  8 13  1  0  0  0  0
  9 10  2  0  0  0  0
  9 17  1  0  0  0  0
 11 14  1  0  0  0  0
 11 15  1  0  0  0  0
 11 16  1  0  0  0  0
 17 18  1  0  0  0  0
 17 23  1  0  0  0  0
 18 19  1  0  0  0  0
 18 21  1  0  0  0  0
 18 24  1  0  0  0  0
 19 20  2  0  0  0  0
 19 28  1  0  0  0  0
 21 22  1  0  0  0  0
 21 25  1  0  0  0  0
 21 26  1  0  0  0  0
 22 27  1  0  0  0  0
 28 29  1  0  0  0  0
 28 33  1  0  0  0  0
 29 30  1  0  0  0  0
 29 32  1  0  0  0  0
 29 34  1  0  0  0  0
 30 31  2  0  0  0  0
 30 38  1  0  0  0  0
 32 35  1  0  0  0  0
 32 36  1  0  0  0  0
 32 37  1  0  0  0  0
 38 39  1  0  0  0  0
 38 40  1  0  0  0  0
 39 41  1  0  0  0  0
 39 42  1  0  0  0  0
 39 43  1  0  0  0  0
M  END
$$$$

  -OEChem-05262216003D

 43 42  0     1  0  0  0  0  0999 V2000
   -3.2518   -5.2821    0.8051 C   0  0  0  0  0  0  0  0  0  0  0  0
   -2.3208   -5.9776    1.1797 O   0  0  0  0  0  0  0  0  0  0  0  0
   -4.6762   -5.6546    1.1701 C   0  0  0  0  0  0  0  0  0  0  0  0
   -5.2498   -5.8641    0.2640 H   0  0  0  0  0  0  0  0  0  0  0  0
   -4.6822   -6.5444    1.8058 H   0  0  0  0  0  0  0  0  0  0  0  0
   -5.1505   -4.8322    1.7113 H   0  0  0  0  0  0  0  0  0  0  0  0
   -3.0121   -4.1500    0.0563 N   0  0  0  0  0  0  0  0  0  0  0  0
   -1.6783   -3.5861   -0.1875 C   0  0  2  0  0  0  0  0  0  0  0  0
   -1.6944   -2.0465   -0.0914 C   0  0  0  0  0  0  0  0  0  0  0  0
   -2.7606   -1.4524   -0.1677 O   0  0  0  0  0  0  0  0  0  0  0  0
   -1.2180   -4.0329   -1.5779 C   0  0  0  0  0  0  0  0  0  0  0  0
   -3.8019   -3.5242   -0.1011 H   0  0  0  0  0  0  0  0  0  0  0  0
   -0.9704   -3.9542    0.5629 H   0  0  0  0  0  0  0  0  0  0  0  0
   -1.9093   -3.6683   -2.3445 H   0  0  0  0  0  0  0  0  0  0  0  0
   -0.2187   -3.6445   -1.7973 H   0  0  0  0  0  0  0  0  0  0  0  0
   -1.1831   -5.1258   -1.6315 H   0  0  0  0  0  0  0  0  0  0  0  0
   -0.5059   -1.3556    0.0727 N   0  0  0  0  0  0  0  0  0  0  0  0
   -0.3101    0.1033   -0.0614 C   0  0  2  0  0  0  0  0  0  0  0  0
   -1.3754    0.9983    0.6243 C   0  0  0  0  0  0  0  0  0  0  0  0
   -2.2138    1.6172   -0.0226 O   0  0  0  0  0  0  0  0  0  0  0  0
   -0.2183    0.4095   -1.5641 C   0  0  0  0  0  0  0  0  0  0  0  0
    1.2861   -0.3841   -2.2709 S   0  0  0  0  0  0  0  0  0  0  0  0
    0.3316   -1.9262   -0.0083 H   0  0  0  0  0  0  0  0  0  0  0  0
    0.6475    0.3698    0.3956 H   0  0  0  0  0  0  0  0  0  0  0  0
   -1.1184    0.0525   -2.0773 H   0  0  0  0  0  0  0  0  0  0  0  0
   -0.1563    1.4922   -1.7181 H   0  0  0  0  0  0  0  0  0  0  0  0
    1.1968    0.0172   -3.5583 H   0  0  0  0  0  0  0  0  0  0  0  0
   -1.1734    1.3818    1.9371 N   0  0  0  0  0  0  0  0  0  0  0  0
   -1.9903    2.3547    2.6728 C   0  0  2  0  0  0  0  0  0  0  0  0
   -1.2368    2.9050    3.9021 C   0  0  0  0  0  0  0  0  0  0  0  0
   -0.1854    2.3868    4.2645 O   0  0  0  0  0  0  0  0  0  0  0  0
   -3.2946    1.6735    3.1050 C   0  0  0  0  0  0  0  0  0  0  0  0
   -0.3980    0.9581    2.4447 H   0  0  0  0  0  0  0  0  0  0  0  0
   -2.2230    3.2037    2.0215 H   0  0  0  0  0  0  0  0  0  0  0  0
   -3.0830    0.8174    3.7536 H   0  0  0  0  0  0  0  0  0  0  0  0
   -3.9339    2.3744    3.6498 H   0  0  0  0  0  0  0  0  0  0  0  0
   -3.8464    1.3170    2.2294 H   0  0  0  0  0  0  0  0  0  0  0  0
   -1.7316    3.9920    4.5989 N   0  0  0  0  0  0  0  0  0  0  0  0
   -1.0601    4.5782    5.7523 C   0  0  0  0  0  0  0  0  0  0  0  0
   -2.5928    4.4136    4.2631 H   0  0  0  0  0  0  0  0  0  0  0  0
   -0.8793    3.8184    6.5202 H   0  0  0  0  0  0  0  0  0  0  0  0
   -0.1009    5.0143    5.4544 H   0  0  0  0  0  0  0  0  0  0  0  0
   -1.6795    5.3671    6.1896 H   0  0  0  0  0  0  0  0  0  0  0  0
  1  2  2  0  0  0  0
  1  3  1  0  0  0  0
  1  7  1  0  0  0  0
  3  4  1  0  0  0  0
  3  5  1  0  0  0  0
  3  6  1  0  0  0  0
  7  8  1  0  0  0  0
  7 12  1  0  0  0  0
  8  9  1  0  0  0  0
  8 11  1  0  0  0  0
  8 13  1  0  0  0  0
  9 10  2  0  0  0  0
  9 17  1  0  0  0  0
 11 14  1  0  0  0  0
 11 15  1  0  0  0  0
 11 16  1  0  0  0  0
 17 18  1  0  0  0  0
 17 23  1  0  0  0  0
 18 19  1  0  0  0  0
 18 21  1  0  0  0  0
 18 24  1  0  0  0  0
 19 20  2  0  0  0  0
 19 28  1  0  0  0  0
 21 22  1  0  0  0  0
 21 25  1  0  0  0  0
 21 26  1  0  0  0  0
 22 27  1  0  0  0  0
 28 29  1  0  0  0  0
 28 33  1  0  0  0  0
 29 30  1  0  0  0  0
 29 32  1  0  0  0  0
 29 34  1  0  0  0  0
 30 31  2  0  0  0  0
 30 38  1  0  0  0  0
 32 35  1  0  0  0  0
 32 36  1  0  0  0  0
 32 37  1  0  0  0  0
 38 39  1  0  0  0  0
 38 40  1  0  0  0  0
 39 41  1  0  0  0  0
 39 42  1  0  0  0  0
 39 43  1  0  0  0  0
M  END
$$$$

  -OEChem-05262216003D

 43 42  0     1  0  0  0  0  0999 V2000
   -3.2272   -5.3421    0.7840 C   0  0  0  0  0  0  0  0  0  0  0  0
   -2.2861   -6.0100    1.1830 O   0  0  0  0  0  0  0  0  0  0  0  0
   -4.6473   -5.7422    1.1384 C   0  0  0  0  0  0  0  0  0  0  0  0
   -5.2064   -5.9805    0.2301 H   0  0  0  0  0  0  0  0  0  0  0  0
   -4.6400   -6.6208    1.7898 H   0  0  0  0  0  0  0  0  0  0  0  0
   -5.1462   -4.9220    1.6605 H   0  0  0  0  0  0  0  0  0  0  0  0
   -3.0023   -4.2129    0.0254 N   0  0  0  0  0  0  0  0  0  0  0  0
   -1.6785   -3.6115   -0.1862 C   0  0  2  0  0  0  0  0  0  0  0  0
   -1.7293   -2.0738   -0.0710 C   0  0  0  0  0  0  0  0  0  0  0  0
   -2.8057   -1.5026   -0.1607 O   0  0  0  0  0  0  0  0  0  0  0  0
   -1.1792   -4.0297   -1.5719 C   0  0  0  0  0  0  0  0  0  0  0  0
   -3.8049   -3.6079   -0.1484 H   0  0  0  0  0  0  0  0  0  0  0  0
   -0.9761   -3.9708    0.5734 H   0  0  0  0  0  0  0  0  0  0  0  0
   -1.8581   -3.6655   -2.3499 H   0  0  0  0  0  0  0  0  0  0  0  0
   -0.1819   -3.6215   -1.7619 H   0  0  0  0  0  0  0  0  0  0  0  0
   -1.1242   -5.1209   -1.6393 H   0  0  0  0  0  0  0  0  0  0  0  0
   -0.5552   -1.3660    0.1220 N   0  0  0  0  0  0  0  0  0  0  0  0
   -0.3649    0.0967    0.0181 C   0  0  2  0  0  0  0  0  0  0  0  0
   -1.4311    0.9997    0.6941 C   0  0  0  0  0  0  0  0  0  0  0  0
   -2.3765    1.4616    0.0649 O   0  0  0  0  0  0  0  0  0  0  0  0
   -0.2599    0.4312   -1.4774 C   0  0  0  0  0  0  0  0  0  0  0  0
    1.2541   -0.3399   -2.1885 S   0  0  0  0  0  0  0  0  0  0  0  0
    0.2897   -1.9278    0.0578 H   0  0  0  0  0  0  0  0  0  0  0  0
    0.5899    0.3505    0.4868 H   0  0  0  0  0  0  0  0  0  0  0  0
   -1.1525    0.0768   -2.0051 H   0  0  0  0  0  0  0  0  0  0  0  0
   -0.2065    1.5169   -1.6114 H   0  0  0  0  0  0  0  0  0  0  0  0
    1.1758    0.0923   -3.4670 H   0  0  0  0  0  0  0  0  0  0  0  0
   -1.1113    1.6275    1.8852 N   0  0  0  0  0  0  0  0  0  0  0  0
   -1.8877    2.7081    2.5079 C   0  0  2  0  0  0  0  0  0  0  0  0
   -1.0218    3.5345    3.4816 C   0  0  0  0  0  0  0  0  0  0  0  0
    0.0885    3.1312    3.8128 O   0  0  0  0  0  0  0  0  0  0  0  0
   -3.0826    2.0920    3.2445 C   0  0  0  0  0  0  0  0  0  0  0  0
   -0.2411    1.3657    2.3470 H   0  0  0  0  0  0  0  0  0  0  0  0
   -2.2521    3.3907    1.7327 H   0  0  0  0  0  0  0  0  0  0  0  0
   -2.7375    1.4180    4.0349 H   0  0  0  0  0  0  0  0  0  0  0  0
   -3.7010    2.8728    3.6965 H   0  0  0  0  0  0  0  0  0  0  0  0
   -3.7063    1.5213    2.5488 H   0  0  0  0  0  0  0  0  0  0  0  0
   -1.4818    4.7394    3.9802 N   0  0  0  0  0  0  0  0  0  0  0  0
   -0.7141    5.5709    4.8995 C   0  0  0  0  0  0  0  0  0  0  0  0
   -2.4022    5.0515    3.6841 H   0  0  0  0  0  0  0  0  0  0  0  0
   -0.4884    5.0187    5.8181 H   0  0  0  0  0  0  0  0  0  0  0  0
    0.2277    5.8857    4.4372 H   0  0  0  0  0  0  0  0  0  0  0  0
   -1.2839    6.4664    5.1664 H   0  0  0  0  0  0  0  0  0  0  0  0
  1  2  2  0  0  0  0
  1  3  1  0  0  0  0
  1  7  1  0  0  0  0
  3  4  1  0  0  0  0
  3  5  1  0  0  0  0
  3  6  1  0  0  0  0
  7  8  1  0  0  0  0
  7 12  1  0  0  0  0
  8  9  1  0  0  0  0
  8 11  1  0  0  0  0
  8 13  1  0  0  0  0
  9 10  2  0  0  0  0
  9 17  1  0  0  0  0
 11 14  1  0  0  0  0
 11 15  1  0  0  0  0
 11 16  1  0  0  0  0
 17 18  1  0  0  0  0
 17 23  1  0  0  0  0
 18 19  1  0  0  0  0
 18 21  1  0  0  0  0
 18 24  1  0  0  0  0
 19 20  2  0  0  0  0
 19 28  1  0  0  0  0
 21 22  1  0  0  0  0
 21 25  1  0  0  0  0
 21 26  1  0  0  0  0
 22 27  1  0  0  0  0
 28 29  1  0  0  0  0
 28 33  1  0  0  0  0
 29 30  1  0  0  0  0
 29 32  1  0  0  0  0
 29 34  1  0  0  0  0
 30 31  2  0  0  0  0
 30 38  1  0  0  0  0
 32 35  1  0  0  0  0
 32 36  1  0  0  0  0
 32 37  1  0  0  0  0
 38 39  1  0  0  0  0
 38 40  1  0  0  0  0
 39 41  1  0  0  0  0
 39 42  1  0  0  0  0
 39 43  1  0  0  0  0
M  END
$$$$

  -OEChem-05262216003D

 43 42  0     1  0  0  0  0  0999 V2000
   -3.2334   -5.2359    0.9091 C   0  0  0  0  0  0  0  0  0  0  0  0
   -2.3226   -5.8068    1.4887 O   0  0  0  0  0  0  0  0  0  0  0  0
   -4.6736   -5.6179    1.1942 C   0  0  0  0  0  0  0  0  0  0  0  0
   -5.1418   -6.0072    0.2868 H   0  0  0  0  0  0  0  0  0  0  0  0
   -4.7134   -6.3875    1.9702 H   0  0  0  0  0  0  0  0  0  0  0  0
   -5.2315   -4.7429    1.5370 H   0  0  0  0  0  0  0  0  0  0  0  0
   -2.9602   -4.2352    0.0010 N   0  0  0  0  0  0  0  0  0  0  0  0
   -1.6376   -3.6196   -0.1730 C   0  0  2  0  0  0  0  0  0  0  0  0
   -1.7270   -2.0799   -0.1552 C   0  0  0  0  0  0  0  0  0  0  0  0
   -2.8046   -1.5484   -0.3728 O   0  0  0  0  0  0  0  0  0  0  0  0
   -1.0588   -4.1071   -1.5032 C   0  0  0  0  0  0  0  0  0  0  0  0
   -3.7551   -3.6773   -0.3110 H   0  0  0  0  0  0  0  0  0  0  0  0
   -0.9674   -3.9172    0.6402 H   0  0  0  0  0  0  0  0  0  0  0  0
   -1.7069   -3.8102   -2.3342 H   0  0  0  0  0  0  0  0  0  0  0  0
   -0.0641   -3.6823   -1.6691 H   0  0  0  0  0  0  0  0  0  0  0  0
   -0.9728   -5.1982   -1.4996 H   0  0  0  0  0  0  0  0  0  0  0  0
   -0.5784   -1.3370    0.0603 N   0  0  0  0  0  0  0  0  0  0  0  0
   -0.4120    0.1319    0.0023 C   0  0  2  0  0  0  0  0  0  0  0  0
   -1.4822    1.0178    0.6952 C   0  0  0  0  0  0  0  0  0  0  0  0
   -2.5575    1.2829    0.1737 O   0  0  0  0  0  0  0  0  0  0  0  0
   -0.3166    0.5177   -1.4803 C   0  0  0  0  0  0  0  0  0  0  0  0
    1.2085   -0.2043   -2.2198 S   0  0  0  0  0  0  0  0  0  0  0  0
    0.2781   -1.8825    0.0958 H   0  0  0  0  0  0  0  0  0  0  0  0
    0.5418    0.3801    0.4762 H   0  0  0  0  0  0  0  0  0  0  0  0
   -1.2042    0.1639   -2.0169 H   0  0  0  0  0  0  0  0  0  0  0  0
   -0.2829    1.6081   -1.5793 H   0  0  0  0  0  0  0  0  0  0  0  0
    1.0900    0.2202   -3.4981 H   0  0  0  0  0  0  0  0  0  0  0  0
   -1.0720    1.8596    1.7142 N   0  0  0  0  0  0  0  0  0  0  0  0
   -1.8593    2.9697    2.2669 C   0  0  2  0  0  0  0  0  0  0  0  0
   -0.9471    4.0374    2.9069 C   0  0  0  0  0  0  0  0  0  0  0  0
    0.2505    3.8147    3.0541 O   0  0  0  0  0  0  0  0  0  0  0  0
   -2.8413    2.4044    3.2989 C   0  0  0  0  0  0  0  0  0  0  0  0
   -0.1030    1.7950    2.0242 H   0  0  0  0  0  0  0  0  0  0  0  0
   -2.4210    3.4596    1.4644 H   0  0  0  0  0  0  0  0  0  0  0  0
   -2.3006    1.9119    4.1133 H   0  0  0  0  0  0  0  0  0  0  0  0
   -3.4582    3.2027    3.7216 H   0  0  0  0  0  0  0  0  0  0  0  0
   -3.5047    1.6713    2.8285 H   0  0  0  0  0  0  0  0  0  0  0  0
   -1.4635    5.2567    3.3050 N   0  0  0  0  0  0  0  0  0  0  0  0
   -0.6566    6.3077    3.9132 C   0  0  0  0  0  0  0  0  0  0  0  0
   -2.4584    5.4136    3.1715 H   0  0  0  0  0  0  0  0  0  0  0  0
   -0.2301    5.9624    4.8610 H   0  0  0  0  0  0  0  0  0  0  0  0
    0.1602    6.6004    3.2447 H   0  0  0  0  0  0  0  0  0  0  0  0
   -1.2718    7.1907    4.1116 H   0  0  0  0  0  0  0  0  0  0  0  0
  1  2  2  0  0  0  0
  1  3  1  0  0  0  0
  1  7  1  0  0  0  0
  3  4  1  0  0  0  0
  3  5  1  0  0  0  0
  3  6  1  0  0  0  0
  7  8  1  0  0  0  0
  7 12  1  0  0  0  0
  8  9  1  0  0  0  0
  8 11  1  0  0  0  0
  8 13  1  0  0  0  0
  9 10  2  0  0  0  0
  9 17  1  0  0  0  0
 11 14  1  0  0  0  0
 11 15  1  0  0  0  0
 11 16  1  0  0  0  0
 17 18  1  0  0  0  0
 17 23  1  0  0  0  0
 18 19  1  0  0  0  0
 18 21  1  0  0  0  0
 18 24  1  0  0  0  0
 19 20  2  0  0  0  0
 19 28  1  0  0  0  0
 21 22  1  0  0  0  0
 21 25  1  0  0  0  0
 21 26  1  0  0  0  0
 22 27  1  0  0  0  0
 28 29  1  0  0  0  0
 28 33  1  0  0  0  0
 29 30  1  0  0  0  0
 29 32  1  0  0  0  0
 29 34  1  0  0  0  0
 30 31  2  0  0  0  0
 30 38  1  0  0  0  0
 32 35  1  0  0  0  0
 32 36  1  0  0  0  0
 32 37  1  0  0  0  0
 38 39  1  0  0  0  0
 38 40  1  0  0  0  0
 39 41  1  0  0  0  0
 39 42  1  0  0  0  0
 39 43  1  0  0  0  0
M  END
$$$$

  -OEChem-05262216003D

 43 42  0     1  0  0  0  0  0999 V2000
   -3.4892   -4.8320    1.0137 C   0  0  0  0  0  0  0  0  0  0  0  0
   -2.7072   -5.3829    1.7733 O   0  0  0  0  0  0  0  0  0  0  0  0
   -4.9783   -5.0969    1.1283 C   0  0  0  0  0  0  0  0  0  0  0  0
   -5.3367   -5.6026    0.2283 H   0  0  0  0  0  0  0  0  0  0  0  0
   -5.1832   -5.7303    1.9958 H   0  0  0  0  0  0  0  0  0  0  0  0
   -5.5167   -4.1534    1.2467 H   0  0  0  0  0  0  0  0  0  0  0  0
   -3.0221   -3.9600    0.0544 N   0  0  0  0  0  0  0  0  0  0  0  0
   -1.6355   -3.4862   -0.0287 C   0  0  2  0  0  0  0  0  0  0  0  0
   -1.5763   -2.0158   -0.4907 C   0  0  0  0  0  0  0  0  0  0  0  0
   -2.5102   -1.5549   -1.1348 O   0  0  0  0  0  0  0  0  0  0  0  0
   -0.8742   -4.3911   -1.0018 C   0  0  0  0  0  0  0  0  0  0  0  0
   -3.7159   -3.4177   -0.4610 H   0  0  0  0  0  0  0  0  0  0  0  0
   -1.1651   -3.5383    0.9589 H   0  0  0  0  0  0  0  0  0  0  0  0
   -1.3272   -4.3477   -1.9977 H   0  0  0  0  0  0  0  0  0  0  0  0
    0.1713   -4.0787   -1.0810 H   0  0  0  0  0  0  0  0  0  0  0  0
   -0.8989   -5.4280   -0.6517 H   0  0  0  0  0  0  0  0  0  0  0  0
   -0.4196   -1.2790   -0.2936 N   0  0  0  0  0  0  0  0  0  0  0  0
   -0.3070    0.1972   -0.2690 C   0  0  2  0  0  0  0  0  0  0  0  0
   -1.3557    1.0044    0.5440 C   0  0  0  0  0  0  0  0  0  0  0  0
   -2.5503    0.7509    0.5765 O   0  0  0  0  0  0  0  0  0  0  0  0
   -0.2910    0.7188   -1.7124 C   0  0  0  0  0  0  0  0  0  0  0  0
    1.2228    0.1281   -2.5786 S   0  0  0  0  0  0  0  0  0  0  0  0
    0.3368   -1.7939    0.1456 H   0  0  0  0  0  0  0  0  0  0  0  0
    0.6631    0.4344    0.1764 H   0  0  0  0  0  0  0  0  0  0  0  0
   -1.1863    0.3800   -2.2447 H   0  0  0  0  0  0  0  0  0  0  0  0
   -0.2992    1.8136   -1.7155 H   0  0  0  0  0  0  0  0  0  0  0  0
    0.9878    0.5816   -3.8300 H   0  0  0  0  0  0  0  0  0  0  0  0
   -0.9066    2.0309    1.3560 N   0  0  0  0  0  0  0  0  0  0  0  0
   -1.7772    2.9547    2.0964 C   0  0  2  0  0  0  0  0  0  0  0  0
   -1.1264    4.3486    2.2223 C   0  0  0  0  0  0  0  0  0  0  0  0
    0.0471    4.5068    1.9014 O   0  0  0  0  0  0  0  0  0  0  0  0
   -2.0558    2.3566    3.4793 C   0  0  0  0  0  0  0  0  0  0  0  0
    0.0633    2.3269    1.2455 H   0  0  0  0  0  0  0  0  0  0  0  0
   -2.7241    3.0846    1.5608 H   0  0  0  0  0  0  0  0  0  0  0  0
   -1.1206    2.2179    4.0312 H   0  0  0  0  0  0  0  0  0  0  0  0
   -2.7093    3.0143    4.0601 H   0  0  0  0  0  0  0  0  0  0  0  0
   -2.5489    1.3843    3.3789 H   0  0  0  0  0  0  0  0  0  0  0  0
   -1.8582    5.4321    2.6720 N   0  0  0  0  0  0  0  0  0  0  0  0
   -1.3109    6.7798    2.7742 C   0  0  0  0  0  0  0  0  0  0  0  0
   -2.8348    5.2776    2.9062 H   0  0  0  0  0  0  0  0  0  0  0  0
   -0.4385    6.7910    3.4361 H   0  0  0  0  0  0  0  0  0  0  0  0
   -1.0082    7.1462    1.7876 H   0  0  0  0  0  0  0  0  0  0  0  0
   -2.0615    7.4641    3.1815 H   0  0  0  0  0  0  0  0  0  0  0  0
  1  2  2  0  0  0  0
  1  3  1  0  0  0  0
  1  7  1  0  0  0  0
  3  4  1  0  0  0  0
  3  5  1  0  0  0  0
  3  6  1  0  0  0  0
  7  8  1  0  0  0  0
  7 12  1  0  0  0  0
  8  9  1  0  0  0  0
  8 11  1  0  0  0  0
  8 13  1  0  0  0  0
  9 10  2  0  0  0  0
  9 17  1  0  0  0  0
 11 14  1  0  0  0  0
 11 15  1  0  0  0  0
 11 16  1  0  0  0  0
 17 18  1  0  0  0  0
 17 23  1  0  0  0  0
 18 19  1  0  0  0  0
 18 21  1  0  0  0  0
 18 24  1  0  0  0  0
 19 20  2  0  0  0  0
 19 28  1  0  0  0  0
 21 22  1  0  0  0  0
 21 25  1  0  0  0  0
 21 26  1  0  0  0  0
 22 27  1  0  0  0  0
 28 29  1  0  0  0  0
 28 33  1  0  0  0  0
 29 30  1  0  0  0  0
 29 32  1  0  0  0  0
 29 34  1  0  0  0  0
 30 31  2  0  0  0  0
 30 38  1  0  0  0  0
 32 35  1  0  0  0  0
 32 36  1  0  0  0  0
 32 37  1  0  0  0  0
 38 39  1  0  0  0  0
 38 40  1  0  0  0  0
 39 41  1  0  0  0  0
 39 42  1  0  0  0  0
 39 43  1  0  0  0  0
M  END
$$$$

  -OEChem-05262216003D

 43 42  0     1  0  0  0  0  0999 V2000
   -3.5684   -4.7025    1.0276 C   0  0  0  0  0  0  0  0  0  0  0  0
   -2.8168   -5.2888    1.7914 O   0  0  0  0  0  0  0  0  0  0  0  0
   -5.0691   -4.8954    1.1384 C   0  0  0  0  0  0  0  0  0  0  0  0
   -5.4650   -5.2904    0.1998 H   0  0  0  0  0  0  0  0  0  0  0  0
   -5.3007   -5.5990    1.9427 H   0  0  0  0  0  0  0  0  0  0  0  0
   -5.5522   -3.9397    1.3560 H   0  0  0  0  0  0  0  0  0  0  0  0
   -3.0560   -3.8536    0.0704 N   0  0  0  0  0  0  0  0  0  0  0  0
   -1.6498   -3.4390    0.0001 C   0  0  2  0  0  0  0  0  0  0  0  0
   -1.5201   -1.9915   -0.5167 C   0  0  0  0  0  0  0  0  0  0  0  0
   -2.4205   -1.5113   -1.1976 O   0  0  0  0  0  0  0  0  0  0  0  0
   -0.9050   -4.4084   -0.9219 C   0  0  0  0  0  0  0  0  0  0  0  0
   -3.7207   -3.2878   -0.4575 H   0  0  0  0  0  0  0  0  0  0  0  0
   -1.2039   -3.4719    0.9999 H   0  0  0  0  0  0  0  0  0  0  0  0
   -1.3366   -4.3854   -1.9277 H   0  0  0  0  0  0  0  0  0  0  0  0
    0.1531   -4.1386   -0.9907 H   0  0  0  0  0  0  0  0  0  0  0  0
   -0.9764   -5.4298   -0.5348 H   0  0  0  0  0  0  0  0  0  0  0  0
   -0.3432   -1.2860   -0.3197 N   0  0  0  0  0  0  0  0  0  0  0  0
   -0.2253    0.1897   -0.3254 C   0  0  2  0  0  0  0  0  0  0  0  0
   -1.2849    1.0062    0.4635 C   0  0  0  0  0  0  0  0  0  0  0  0
   -2.3314    0.5307    0.8832 O   0  0  0  0  0  0  0  0  0  0  0  0
   -0.1789    0.6903   -1.7771 C   0  0  0  0  0  0  0  0  0  0  0  0
    1.3488    0.0819   -2.6052 S   0  0  0  0  0  0  0  0  0  0  0  0
    0.3665   -1.7904    0.2018 H   0  0  0  0  0  0  0  0  0  0  0  0
    0.7358    0.4339    0.1363 H   0  0  0  0  0  0  0  0  0  0  0  0
   -1.0636    0.3480   -2.3241 H   0  0  0  0  0  0  0  0  0  0  0  0
   -0.1818    1.7849   -1.7982 H   0  0  0  0  0  0  0  0  0  0  0  0
    1.1422    0.5177   -3.8674 H   0  0  0  0  0  0  0  0  0  0  0  0
   -0.9002    2.2227    0.9992 N   0  0  0  0  0  0  0  0  0  0  0  0
   -1.7796    3.1064    1.7765 C   0  0  2  0  0  0  0  0  0  0  0  0
   -1.4501    4.5913    1.5164 C   0  0  0  0  0  0  0  0  0  0  0  0
   -0.4244    4.8942    0.9154 O   0  0  0  0  0  0  0  0  0  0  0  0
   -1.6168    2.7667    3.2612 C   0  0  0  0  0  0  0  0  0  0  0  0
   -0.0568    2.6544    0.6215 H   0  0  0  0  0  0  0  0  0  0  0  0
   -2.8222    2.9465    1.4809 H   0  0  0  0  0  0  0  0  0  0  0  0
   -0.5831    2.9338    3.5805 H   0  0  0  0  0  0  0  0  0  0  0  0
   -2.2764    3.3885    3.8736 H   0  0  0  0  0  0  0  0  0  0  0  0
   -1.8715    1.7169    3.4389 H   0  0  0  0  0  0  0  0  0  0  0  0
   -2.3087    5.5882    1.9409 N   0  0  0  0  0  0  0  0  0  0  0  0
   -2.0572    7.0075    1.7224 C   0  0  0  0  0  0  0  0  0  0  0  0
   -3.1572    5.3062    2.4234 H   0  0  0  0  0  0  0  0  0  0  0  0
   -1.1416    7.3171    2.2369 H   0  0  0  0  0  0  0  0  0  0  0  0
   -1.9488    7.2190    0.6534 H   0  0  0  0  0  0  0  0  0  0  0  0
   -2.8897    7.6035    2.1085 H   0  0  0  0  0  0  0  0  0  0  0  0
  1  2  2  0  0  0  0
  1  3  1  0  0  0  0
  1  7  1  0  0  0  0
  3  4  1  0  0  0  0
  3  5  1  0  0  0  0
  3  6  1  0  0  0  0
  7  8  1  0  0  0  0
  7 12  1  0  0  0  0
  8  9  1  0  0  0  0
  8 11  1  0  0  0  0
  8 13  1  0  0  0  0
  9 10  2  0  0  0  0
  9 17  1  0  0  0  0
 11 14  1  0  0  0  0
 11 15  1  0  0  0  0
 11 16  1  0  0  0  0
 17 18  1  0  0  0  0
 17 23  1  0  0  0  0
 18 19  1  0  0  0  0
 18 21  1  0  0  0  0
 18 24  1  0  0  0  0
 19 20  2  0  0  0  0
 19 28  1  0  0  0  0
 21 22  1  0  0  0  0
 21 25  1  0  0  0  0
 21 26  1  0  0  0  0
 22 27  1  0  0  0  0
 28 29  1  0  0  0  0
 28 33  1  0  0  0  0
 29 30  1  0  0  0  0
 29 32  1  0  0  0  0
 29 34  1  0  0  0  0
 30 31  2  0  0  0  0
 30 38  1  0  0  0  0
 32 35  1  0  0  0  0
 32 36  1  0  0  0  0
 32 37  1  0  0  0  0
 38 39  1  0  0  0  0
 38 40  1  0  0  0  0
 39 41  1  0  0  0  0
 39 42  1  0  0  0  0
 39 43  1  0  0  0  0
M  END
$$$$

  -OEChem-05262216003D

 43 42  0     1  0  0  0  0  0999 V2000
   -3.6070   -4.6599    0.9949 C   0  0  0  0  0  0  0  0  0  0  0  0
   -2.8688   -5.2917    1.7351 O   0  0  0  0  0  0  0  0  0  0  0  0
   -5.1115   -4.8310    1.0940 C   0  0  0  0  0  0  0  0  0  0  0  0
   -5.5141   -5.1605    0.1331 H   0  0  0  0  0  0  0  0  0  0  0  0
   -5.3563   -5.5789    1.8536 H   0  0  0  0  0  0  0  0  0  0  0  0
   -5.5772   -3.8818    1.3704 H   0  0  0  0  0  0  0  0  0  0  0  0
   -3.0756   -3.7860    0.0711 N   0  0  0  0  0  0  0  0  0  0  0  0
   -1.6600   -3.4025    0.0158 C   0  0  2  0  0  0  0  0  0  0  0  0
   -1.4946   -1.9571   -0.4968 C   0  0  0  0  0  0  0  0  0  0  0  0
   -2.4008   -1.4308   -1.1363 O   0  0  0  0  0  0  0  0  0  0  0  0
   -0.9214   -4.3879   -0.8945 C   0  0  0  0  0  0  0  0  0  0  0  0
   -3.7270   -3.1840   -0.4329 H   0  0  0  0  0  0  0  0  0  0  0  0
   -1.2285   -3.4439    1.0215 H   0  0  0  0  0  0  0  0  0  0  0  0
   -1.3312   -4.3509   -1.9088 H   0  0  0  0  0  0  0  0  0  0  0  0
    0.1442   -4.1449   -0.9398 H   0  0  0  0  0  0  0  0  0  0  0  0
   -1.0261   -5.4085   -0.5129 H   0  0  0  0  0  0  0  0  0  0  0  0
   -0.3001   -1.2820   -0.3026 N   0  0  0  0  0  0  0  0  0  0  0  0
   -0.1612    0.1906   -0.3240 C   0  0  2  0  0  0  0  0  0  0  0  0
   -1.2229    1.0085    0.4593 C   0  0  0  0  0  0  0  0  0  0  0  0
   -2.0990    0.4779    1.1318 O   0  0  0  0  0  0  0  0  0  0  0  0
   -0.0955    0.6712   -1.7839 C   0  0  0  0  0  0  0  0  0  0  0  0
    1.4312    0.0286   -2.5874 S   0  0  0  0  0  0  0  0  0  0  0  0
    0.4000   -1.7971    0.2214 H   0  0  0  0  0  0  0  0  0  0  0  0
    0.7961    0.4333    0.1461 H   0  0  0  0  0  0  0  0  0  0  0  0
   -0.9783    0.3324   -2.3357 H   0  0  0  0  0  0  0  0  0  0  0  0
   -0.0828    1.7650   -1.8247 H   0  0  0  0  0  0  0  0  0  0  0  0
    1.2602    0.4755   -3.8513 H   0  0  0  0  0  0  0  0  0  0  0  0
   -0.9617    2.3408    0.7245 N   0  0  0  0  0  0  0  0  0  0  0  0
   -1.8721    3.2366    1.4502 C   0  0  2  0  0  0  0  0  0  0  0  0
   -1.8392    4.6604    0.8559 C   0  0  0  0  0  0  0  0  0  0  0  0
   -0.9706    4.9646    0.0444 O   0  0  0  0  0  0  0  0  0  0  0  0
   -1.4612    3.2510    2.9256 C   0  0  0  0  0  0  0  0  0  0  0  0
   -0.2588    2.7990    0.1448 H   0  0  0  0  0  0  0  0  0  0  0  0
   -2.9018    2.8724    1.3658 H   0  0  0  0  0  0  0  0  0  0  0  0
   -0.4340    3.6136    3.0348 H   0  0  0  0  0  0  0  0  0  0  0  0
   -2.1244    3.9011    3.5037 H   0  0  0  0  0  0  0  0  0  0  0  0
   -1.5201    2.2408    3.3432 H   0  0  0  0  0  0  0  0  0  0  0  0
   -2.7918    5.5965    1.2133 N   0  0  0  0  0  0  0  0  0  0  0  0
   -2.8314    6.9470    0.6646 C   0  0  0  0  0  0  0  0  0  0  0  0
   -3.5166    5.3074    1.8640 H   0  0  0  0  0  0  0  0  0  0  0  0
   -1.8954    7.4745    0.8769 H   0  0  0  0  0  0  0  0  0  0  0  0
   -2.9802    6.9160   -0.4200 H   0  0  0  0  0  0  0  0  0  0  0  0
   -3.6551    7.5132    1.1102 H   0  0  0  0  0  0  0  0  0  0  0  0
  1  2  2  0  0  0  0
  1  3  1  0  0  0  0
  1  7  1  0  0  0  0
  3  4  1  0  0  0  0
  3  5  1  0  0  0  0
  3  6  1  0  0  0  0
  7  8  1  0  0  0  0
  7 12  1  0  0  0  0
  8  9  1  0  0  0  0
  8 11  1  0  0  0  0
  8 13  1  0  0  0  0
  9 10  2  0  0  0  0
  9 17  1  0  0  0  0
 11 14  1  0  0  0  0
 11 15  1  0  0  0  0
 11 16  1  0  0  0  0
 17 18  1  0  0  0  0
 17 23  1  0  0  0  0
 18 19  1  0  0  0  0
 18 21  1  0  0  0  0
 18 24  1  0  0  0  0
 19 20  2  0  0  0  0
 19 28  1  0  0  0  0
 21 22  1  0  0  0  0
 21 25  1  0  0  0  0
 21 26  1  0  0  0  0
 22 27  1  0  0  0  0
 28 29  1  0  0  0  0
 28 33  1  0  0  0  0
 29 30  1  0  0  0  0
 29 32  1  0  0  0  0
 29 34  1  0  0  0  0
 30 31  2  0  0  0  0
 30 38  1  0  0  0  0
 32 35  1  0  0  0  0
 32 36  1  0  0  0  0
 32 37  1  0  0  0  0
 38 39  1  0  0  0  0
 38 40  1  0  0  0  0
 39 41  1  0  0  0  0
 39 42  1  0  0  0  0
 39 43  1  0  0  0  0
M  END
$$$$

  -OEChem-05262216003D

 43 42  0     1  0  0  0  0  0999 V2000
   -3.5601   -4.7847    0.9982 C   0  0  0  0  0  0  0  0  0  0  0  0
   -2.7624   -5.5091    1.5730 O   0  0  0  0  0  0  0  0  0  0  0  0
   -5.0500   -4.9674    1.2179 C   0  0  0  0  0  0  0  0  0  0  0  0
   -5.5448   -5.1754    0.2663 H   0  0  0  0  0  0  0  0  0  0  0  0
   -5.2310   -5.8028    1.9000 H   0  0  0  0  0  0  0  0  0  0  0  0
   -5.4767   -4.0598    1.6520 H   0  0  0  0  0  0  0  0  0  0  0  0
   -3.1093   -3.7894    0.1581 N   0  0  0  0  0  0  0  0  0  0  0  0
   -1.7023   -3.3896    0.0309 C   0  0  2  0  0  0  0  0  0  0  0  0
   -1.5706   -1.8889   -0.3052 C   0  0  0  0  0  0  0  0  0  0  0  0
   -2.5494   -1.2704   -0.7130 O   0  0  0  0  0  0  0  0  0  0  0  0
   -1.0479   -4.2429   -1.0604 C   0  0  0  0  0  0  0  0  0  0  0  0
   -3.8004   -3.1283   -0.1962 H   0  0  0  0  0  0  0  0  0  0  0  0
   -1.1862   -3.5578    0.9823 H   0  0  0  0  0  0  0  0  0  0  0  0
   -1.5487   -4.0844   -2.0208 H   0  0  0  0  0  0  0  0  0  0  0  0
    0.0087   -3.9818   -1.1715 H   0  0  0  0  0  0  0  0  0  0  0  0
   -1.1148   -5.3047   -0.8033 H   0  0  0  0  0  0  0  0  0  0  0  0
   -0.3460   -1.2554   -0.1660 N   0  0  0  0  0  0  0  0  0  0  0  0
   -0.1185    0.1989   -0.3010 C   0  0  2  0  0  0  0  0  0  0  0  0
   -0.9175    1.0642    0.7068 C   0  0  0  0  0  0  0  0  0  0  0  0
   -1.4816    0.5629    1.6729 O   0  0  0  0  0  0  0  0  0  0  0  0
   -0.3464    0.6540   -1.7561 C   0  0  0  0  0  0  0  0  0  0  0  0
    0.9138   -0.1195   -2.8516 S   0  0  0  0  0  0  0  0  0  0  0  0
    0.4002   -1.8144    0.2353 H   0  0  0  0  0  0  0  0  0  0  0  0
    0.9336    0.3886   -0.0702 H   0  0  0  0  0  0  0  0  0  0  0  0
   -1.3520    0.3901   -2.0961 H   0  0  0  0  0  0  0  0  0  0  0  0
   -0.2535    1.7413   -1.8340 H   0  0  0  0  0  0  0  0  0  0  0  0
    0.4956    0.3152   -4.0606 H   0  0  0  0  0  0  0  0  0  0  0  0
   -0.7928    2.4417    0.6817 N   0  0  0  0  0  0  0  0  0  0  0  0
   -1.5565    3.3595    1.5360 C   0  0  2  0  0  0  0  0  0  0  0  0
   -1.8583    4.6802    0.7962 C   0  0  0  0  0  0  0  0  0  0  0  0
   -1.2998    4.9268   -0.2683 O   0  0  0  0  0  0  0  0  0  0  0  0
   -0.7493    3.6229    2.8110 C   0  0  0  0  0  0  0  0  0  0  0  0
   -0.3695    2.8568   -0.1476 H   0  0  0  0  0  0  0  0  0  0  0  0
   -2.5174    2.9057    1.8019 H   0  0  0  0  0  0  0  0  0  0  0  0
    0.2093    4.0914    2.5666 H   0  0  0  0  0  0  0  0  0  0  0  0
   -1.2997    4.2850    3.4861 H   0  0  0  0  0  0  0  0  0  0  0  0
   -0.5536    2.6827    3.3364 H   0  0  0  0  0  0  0  0  0  0  0  0
   -2.7645    5.5878    1.3126 N   0  0  0  0  0  0  0  0  0  0  0  0
   -3.0973    6.8473    0.6572 C   0  0  0  0  0  0  0  0  0  0  0  0
   -3.2234    5.3507    2.1875 H   0  0  0  0  0  0  0  0  0  0  0  0
   -2.2077    7.4800    0.5696 H   0  0  0  0  0  0  0  0  0  0  0  0
   -3.4988    6.6642   -0.3450 H   0  0  0  0  0  0  0  0  0  0  0  0
   -3.8512    7.3887    1.2368 H   0  0  0  0  0  0  0  0  0  0  0  0
  1  2  2  0  0  0  0
  1  3  1  0  0  0  0
  1  7  1  0  0  0  0
  3  4  1  0  0  0  0
  3  5  1  0  0  0  0
  3  6  1  0  0  0  0
  7  8  1  0  0  0  0
  7 12  1  0  0  0  0
  8  9  1  0  0  0  0
  8 11  1  0  0  0  0
  8 13  1  0  0  0  0
  9 10  2  0  0  0  0
  9 17  1  0  0  0  0
 11 14  1  0  0  0  0
 11 15  1  0  0  0  0
 11 16  1  0  0  0  0
 17 18  1  0  0  0  0
 17 23  1  0  0  0  0
 18 19  1  0  0  0  0
 18 21  1  0  0  0  0
 18 24  1  0  0  0  0
 19 20  2  0  0  0  0
 19 28  1  0  0  0  0
 21 22  1  0  0  0  0
 21 25  1  0  0  0  0
 21 26  1  0  0  0  0
 22 27  1  0  0  0  0
 28 29  1  0  0  0  0
 28 33  1  0  0  0  0
 29 30  1  0  0  0  0
 29 32  1  0  0  0  0
 29 34  1  0  0  0  0
 30 31  2  0  0  0  0
 30 38  1  0  0  0  0
 32 35  1  0  0  0  0
 32 36  1  0  0  0  0
 32 37  1  0  0  0  0
 38 39  1  0  0  0  0
 38 40  1  0  0  0  0
 39 41  1  0  0  0  0
 39 42  1  0  0  0  0
 39 43  1  0  0  0  0
M  END
$$$$

  -OEChem-05262216003D

 43 42  0     1  0  0  0  0  0999 V2000
   -3.5724   -4.7427    0.9947 C   0  0  0  0  0  0  0  0  0  0  0  0
   -2.7810   -5.4773    1.5649 O   0  0  0  0  0  0  0  0  0  0  0  0
   -5.0652   -4.9391    1.1814 C   0  0  0  0  0  0  0  0  0  0  0  0
   -5.5475   -5.0795    0.2112 H   0  0  0  0  0  0  0  0  0  0  0  0
   -5.2560   -5.8206    1.7999 H   0  0  0  0  0  0  0  0  0  0  0  0
   -5.4974   -4.0631    1.6710 H   0  0  0  0  0  0  0  0  0  0  0  0
   -3.1123   -3.7289    0.1822 N   0  0  0  0  0  0  0  0  0  0  0  0
   -1.7017   -3.3415    0.0588 C   0  0  2  0  0  0  0  0  0  0  0  0
   -1.5560   -1.8417   -0.2726 C   0  0  0  0  0  0  0  0  0  0  0  0
   -2.5338   -1.2048   -0.6546 O   0  0  0  0  0  0  0  0  0  0  0  0
   -1.0540   -4.1964   -1.0352 C   0  0  0  0  0  0  0  0  0  0  0  0
   -3.7985   -3.0617   -0.1700 H   0  0  0  0  0  0  0  0  0  0  0  0
   -1.1884   -3.5177    1.0102 H   0  0  0  0  0  0  0  0  0  0  0  0
   -1.5494   -4.0261   -1.9964 H   0  0  0  0  0  0  0  0  0  0  0  0
    0.0062   -3.9483   -1.1418 H   0  0  0  0  0  0  0  0  0  0  0  0
   -1.1349   -5.2586   -0.7838 H   0  0  0  0  0  0  0  0  0  0  0  0
   -0.3230   -1.2232   -0.1496 N   0  0  0  0  0  0  0  0  0  0  0  0
   -0.0779    0.2227   -0.3255 C   0  0  2  0  0  0  0  0  0  0  0  0
   -0.8802    1.1017    0.6687 C   0  0  0  0  0  0  0  0  0  0  0  0
   -1.2483    0.6481    1.7469 O   0  0  0  0  0  0  0  0  0  0  0  0
   -0.2984    0.6322   -1.7966 C   0  0  0  0  0  0  0  0  0  0  0  0
    0.9534   -0.1904   -2.8662 S   0  0  0  0  0  0  0  0  0  0  0  0
    0.4254   -1.7872    0.2409 H   0  0  0  0  0  0  0  0  0  0  0  0
    0.9741    0.4139   -0.0954 H   0  0  0  0  0  0  0  0  0  0  0  0
   -1.3078    0.3727   -2.1294 H   0  0  0  0  0  0  0  0  0  0  0  0
   -0.1856    1.7141   -1.9113 H   0  0  0  0  0  0  0  0  0  0  0  0
    0.5545    0.2268   -4.0886 H   0  0  0  0  0  0  0  0  0  0  0  0
   -1.0200    2.4617    0.4595 N   0  0  0  0  0  0  0  0  0  0  0  0
   -1.8638    3.3418    1.2763 C   0  0  2  0  0  0  0  0  0  0  0  0
   -2.4756    4.4673    0.4149 C   0  0  0  0  0  0  0  0  0  0  0  0
   -2.0793    4.6445   -0.7331 O   0  0  0  0  0  0  0  0  0  0  0  0
   -1.0120    3.9238    2.4089 C   0  0  0  0  0  0  0  0  0  0  0  0
   -0.7894    2.8130   -0.4691 H   0  0  0  0  0  0  0  0  0  0  0  0
   -2.6932    2.7682    1.7045 H   0  0  0  0  0  0  0  0  0  0  0  0
   -0.1700    4.4921    2.0013 H   0  0  0  0  0  0  0  0  0  0  0  0
   -1.6103    4.5893    3.0382 H   0  0  0  0  0  0  0  0  0  0  0  0
   -0.6174    3.1193    3.0378 H   0  0  0  0  0  0  0  0  0  0  0  0
   -3.4787    5.2745    0.9184 N   0  0  0  0  0  0  0  0  0  0  0  0
   -4.1203    6.3308    0.1446 C   0  0  0  0  0  0  0  0  0  0  0  0
   -3.8150    5.0770    1.8564 H   0  0  0  0  0  0  0  0  0  0  0  0
   -3.3717    7.0161   -0.2673 H   0  0  0  0  0  0  0  0  0  0  0  0
   -4.6981    5.9030   -0.6814 H   0  0  0  0  0  0  0  0  0  0  0  0
   -4.7982    6.9070    0.7816 H   0  0  0  0  0  0  0  0  0  0  0  0
  1  2  2  0  0  0  0
  1  3  1  0  0  0  0
  1  7  1  0  0  0  0
  3  4  1  0  0  0  0
  3  5  1  0  0  0  0
  3  6  1  0  0  0  0
  7  8  1  0  0  0  0
  7 12  1  0  0  0  0
  8  9  1  0  0  0  0
  8 11  1  0  0  0  0
  8 13  1  0  0  0  0
  9 10  2  0  0  0  0
  9 17  1  0  0  0  0
 11 14  1  0  0  0  0
 11 15  1  0  0  0  0
 11 16  1  0  0  0  0
 17 18  1  0  0  0  0
 17 23  1  0  0  0  0
 18 19  1  0  0  0  0
 18 21  1  0  0  0  0
 18 24  1  0  0  0  0
 19 20  2  0  0  0  0
 19 28  1  0  0  0  0
 21 22  1  0  0  0  0
 21 25  1  0  0  0  0
 21 26  1  0  0  0  0
 22 27  1  0  0  0  0
 28 29  1  0  0  0  0
 28 33  1  0  0  0  0
 29 30  1  0  0  0  0
 29 32  1  0  0  0  0
 29 34  1  0  0  0  0
 30 31  2  0  0  0  0
 30 38  1  0  0  0  0
 32 35  1  0  0  0  0
 32 36  1  0  0  0  0
 32 37  1  0  0  0  0
 38 39  1  0  0  0  0
 38 40  1  0  0  0  0
 39 41  1  0  0  0  0
 39 42  1  0  0  0  0
 39 43  1  0  0  0  0
M  END
$$$$

  -OEChem-05262216003D

 43 42  0     1  0  0  0  0  0999 V2000
   -3.5813   -4.7392    0.9681 C   0  0  0  0  0  0  0  0  0  0  0  0
   -2.7920   -5.4813    1.5313 O   0  0  0  0  0  0  0  0  0  0  0  0
   -5.0744   -4.9404    1.1450 C   0  0  0  0  0  0  0  0  0  0  0  0
   -5.5487   -5.0916    0.1724 H   0  0  0  0  0  0  0  0  0  0  0  0
   -5.2651   -5.8170    1.7702 H   0  0  0  0  0  0  0  0  0  0  0  0
   -5.5142   -4.0628    1.6247 H   0  0  0  0  0  0  0  0  0  0  0  0
   -3.1177   -3.7089    0.1784 N   0  0  0  0  0  0  0  0  0  0  0  0
   -1.7073   -3.3133    0.0775 C   0  0  2  0  0  0  0  0  0  0  0  0
   -1.5638   -1.8079   -0.2305 C   0  0  0  0  0  0  0  0  0  0  0  0
   -2.5452   -1.1599   -0.5835 O   0  0  0  0  0  0  0  0  0  0  0  0
   -1.0417   -4.1504   -1.0200 C   0  0  0  0  0  0  0  0  0  0  0  0
   -3.8030   -3.0374   -0.1668 H   0  0  0  0  0  0  0  0  0  0  0  0
   -1.2050   -3.5005    1.0329 H   0  0  0  0  0  0  0  0  0  0  0  0
   -1.5253   -3.9687   -1.9850 H   0  0  0  0  0  0  0  0  0  0  0  0
    0.0191   -3.8973   -1.1087 H   0  0  0  0  0  0  0  0  0  0  0  0
   -1.1215   -5.2165   -0.7853 H   0  0  0  0  0  0  0  0  0  0  0  0
   -0.3302   -1.1901   -0.1161 N   0  0  0  0  0  0  0  0  0  0  0  0
   -0.0774    0.2473   -0.3374 C   0  0  2  0  0  0  0  0  0  0  0  0
   -0.8928    1.1481    0.6254 C   0  0  0  0  0  0  0  0  0  0  0  0
   -1.0669    0.7978    1.7875 O   0  0  0  0  0  0  0  0  0  0  0  0
   -0.2741    0.6000   -1.8258 C   0  0  0  0  0  0  0  0  0  0  0  0
    0.9940   -0.2685   -2.8391 S   0  0  0  0  0  0  0  0  0  0  0  0
    0.4356   -1.7622    0.2261 H   0  0  0  0  0  0  0  0  0  0  0  0
    0.9709    0.4481   -0.0988 H   0  0  0  0  0  0  0  0  0  0  0  0
   -1.2790    0.3279   -2.1634 H   0  0  0  0  0  0  0  0  0  0  0  0
   -0.1537    1.6765   -1.9800 H   0  0  0  0  0  0  0  0  0  0  0  0
    0.6194    0.0978   -4.0850 H   0  0  0  0  0  0  0  0  0  0  0  0
   -1.3053    2.4165    0.2586 N   0  0  0  0  0  0  0  0  0  0  0  0
   -2.1991    3.2588    1.0621 C   0  0  2  0  0  0  0  0  0  0  0  0
   -3.0895    4.1338    0.1541 C   0  0  0  0  0  0  0  0  0  0  0  0
   -2.8330    4.2346   -1.0418 O   0  0  0  0  0  0  0  0  0  0  0  0
   -1.3471    4.1312    1.9896 C   0  0  0  0  0  0  0  0  0  0  0  0
   -1.2646    2.6447   -0.7338 H   0  0  0  0  0  0  0  0  0  0  0  0
   -2.8621    2.6275    1.6638 H   0  0  0  0  0  0  0  0  0  0  0  0
   -0.6834    4.7764    1.4049 H   0  0  0  0  0  0  0  0  0  0  0  0
   -1.9836    4.7616    2.6176 H   0  0  0  0  0  0  0  0  0  0  0  0
   -0.7346    3.5029    2.6440 H   0  0  0  0  0  0  0  0  0  0  0  0
   -4.1834    4.8030    0.6709 N   0  0  0  0  0  0  0  0  0  0  0  0
   -5.0749    5.6231   -0.1407 C   0  0  0  0  0  0  0  0  0  0  0  0
   -4.3915    4.6752    1.6570 H   0  0  0  0  0  0  0  0  0  0  0  0
   -4.5148    6.4213   -0.6391 H   0  0  0  0  0  0  0  0  0  0  0  0
   -5.5702    5.0119   -0.9025 H   0  0  0  0  0  0  0  0  0  0  0  0
   -5.8434    6.0829    0.4878 H   0  0  0  0  0  0  0  0  0  0  0  0
  1  2  2  0  0  0  0
  1  3  1  0  0  0  0
  1  7  1  0  0  0  0
  3  4  1  0  0  0  0
  3  5  1  0  0  0  0
  3  6  1  0  0  0  0
  7  8  1  0  0  0  0
  7 12  1  0  0  0  0
  8  9  1  0  0  0  0
  8 11  1  0  0  0  0
  8 13  1  0  0  0  0
  9 10  2  0  0  0  0
  9 17  1  0  0  0  0
 11 14  1  0  0  0  0
 11 15  1  0  0  0  0
 11 16  1  0  0  0  0
 17 18  1  0  0  0  0
 17 23  1  0  0  0  0
 18 19  1  0  0  0  0
 18 21  1  0  0  0  0
 18 24  1  0  0  0  0
 19 20  2  0  0  0  0
 19 28  1  0  0  0  0
 21 22  1  0  0  0  0
 21 25  1  0  0  0  0
 21 26  1  0  0  0  0
 22 27  1  0  0  0  0
 28 29  1  0  0  0  0
 28 33  1  0  0  0  0
 29 30  1  0  0  0  0
 29 32  1  0  0  0  0
 29 34  1  0  0  0  0
 30 31  2  0  0  0  0
 30 38  1  0  0  0  0
 32 35  1  0  0  0  0
 32 36  1  0  0  0  0
 32 37  1  0  0  0  0
 38 39  1  0  0  0  0
 38 40  1  0  0  0  0
 39 41  1  0  0  0  0
 39 42  1  0  0  0  0
 39 43  1  0  0  0  0
M  END
$$$$

  -OEChem-05262216003D

 43 42  0     1  0  0  0  0  0999 V2000
   -3.5621   -4.7751    0.9473 C   0  0  0  0  0  0  0  0  0  0  0  0
   -2.7606   -5.5270    1.4790 O   0  0  0  0  0  0  0  0  0  0  0  0
   -5.0519   -5.0040    1.1194 C   0  0  0  0  0  0  0  0  0  0  0  0
   -5.5202   -5.1574    0.1443 H   0  0  0  0  0  0  0  0  0  0  0  0
   -5.2282   -5.8884    1.7381 H   0  0  0  0  0  0  0  0  0  0  0  0
   -5.5093   -4.1376    1.6035 H   0  0  0  0  0  0  0  0  0  0  0  0
   -3.1146   -3.7094    0.1962 N   0  0  0  0  0  0  0  0  0  0  0  0
   -1.7082   -3.2995    0.0917 C   0  0  2  0  0  0  0  0  0  0  0  0
   -1.5785   -1.7872   -0.1842 C   0  0  0  0  0  0  0  0  0  0  0  0
   -2.5660   -1.1381   -0.5172 O   0  0  0  0  0  0  0  0  0  0  0  0
   -1.0462   -4.1051   -1.0312 C   0  0  0  0  0  0  0  0  0  0  0  0
   -3.8103   -3.0393   -0.1305 H   0  0  0  0  0  0  0  0  0  0  0  0
   -1.1952   -3.5044    1.0376 H   0  0  0  0  0  0  0  0  0  0  0  0
   -1.5458   -3.9105   -1.9857 H   0  0  0  0  0  0  0  0  0  0  0  0
    0.0097   -3.8356   -1.1295 H   0  0  0  0  0  0  0  0  0  0  0  0
   -1.1079   -5.1769   -0.8170 H   0  0  0  0  0  0  0  0  0  0  0  0
   -0.3498   -1.1613   -0.0681 N   0  0  0  0  0  0  0  0  0  0  0  0
   -0.1018    0.2690   -0.3291 C   0  0  2  0  0  0  0  0  0  0  0  0
   -0.9410    1.1862    0.5951 C   0  0  0  0  0  0  0  0  0  0  0  0
   -0.9333    0.9888    1.8050 O   0  0  0  0  0  0  0  0  0  0  0  0
   -0.2746    0.5744   -1.8294 C   0  0  0  0  0  0  0  0  0  0  0  0
    1.0157   -0.3164   -2.7939 S   0  0  0  0  0  0  0  0  0  0  0  0
    0.4340   -1.7378    0.2227 H   0  0  0  0  0  0  0  0  0  0  0  0
    0.9405    0.4862   -0.0777 H   0  0  0  0  0  0  0  0  0  0  0  0
   -1.2716    0.2843   -2.1754 H   0  0  0  0  0  0  0  0  0  0  0  0
   -0.1579    1.6477   -2.0092 H   0  0  0  0  0  0  0  0  0  0  0  0
    0.6850    0.0406   -4.0549 H   0  0  0  0  0  0  0  0  0  0  0  0
   -1.6168    2.2918    0.1109 N   0  0  0  0  0  0  0  0  0  0  0  0
   -2.5502    3.0999    0.9044 C   0  0  2  0  0  0  0  0  0  0  0  0
   -3.6587    3.6947    0.0101 C   0  0  0  0  0  0  0  0  0  0  0  0
   -3.5371    3.6792   -1.2109 O   0  0  0  0  0  0  0  0  0  0  0  0
   -1.7663    4.2151    1.6039 C   0  0  0  0  0  0  0  0  0  0  0  0
   -1.7489    2.3379   -0.8991 H   0  0  0  0  0  0  0  0  0  0  0  0
   -3.0368    2.4696    1.6567 H   0  0  0  0  0  0  0  0  0  0  0  0
   -1.2771    4.8588    0.8659 H   0  0  0  0  0  0  0  0  0  0  0  0
   -2.4341    4.8297    2.2149 H   0  0  0  0  0  0  0  0  0  0  0  0
   -0.9989    3.7880    2.2572 H   0  0  0  0  0  0  0  0  0  0  0  0
   -4.7969    4.2443    0.5708 N   0  0  0  0  0  0  0  0  0  0  0  0
   -5.8931    4.7906   -0.2200 C   0  0  0  0  0  0  0  0  0  0  0  0
   -4.8890    4.2074    1.5819 H   0  0  0  0  0  0  0  0  0  0  0  0
   -5.5273    5.5713   -0.8953 H   0  0  0  0  0  0  0  0  0  0  0  0
   -6.3650    4.0024   -0.8157 H   0  0  0  0  0  0  0  0  0  0  0  0
   -6.6503    5.2305    0.4359 H   0  0  0  0  0  0  0  0  0  0  0  0
  1  2  2  0  0  0  0
  1  3  1  0  0  0  0
  1  7  1  0  0  0  0
  3  4  1  0  0  0  0
  3  5  1  0  0  0  0
  3  6  1  0  0  0  0
  7  8  1  0  0  0  0
  7 12  1  0  0  0  0
  8  9  1  0  0  0  0
  8 11  1  0  0  0  0
  8 13  1  0  0  0  0
  9 10  2  0  0  0  0
  9 17  1  0  0  0  0
 11 14  1  0  0  0  0
 11 15  1  0  0  0  0
 11 16  1  0  0  0  0
 17 18  1  0  0  0  0
 17 23  1  0  0  0  0
 18 19  1  0  0  0  0
 18 21  1  0  0  0  0
 18 24  1  0  0  0  0
 19 20  2  0  0  0  0
 19 28  1  0  0  0  0
 21 22  1  0  0  0  0
 21 25  1  0  0  0  0
 21 26  1  0  0  0  0
 22 27  1  0  0  0  0
 28 29  1  0  0  0  0
 28 33  1  0  0  0  0
 29 30  1  0  0  0  0
 29 32  1  0  0  0  0
 29 34  1  0  0  0  0
 30 31  2  0  0  0  0
 30 38  1  0  0  0  0
 32 35  1  0  0  0  0
 32 36  1  0  0  0  0
 32 37  1  0  0  0  0
 38 39  1  0  0  0  0
 38 40  1  0  0  0  0
 39 41  1  0  0  0  0
 39 42  1  0  0  0  0
 39 43  1  0  0  0  0
M  END
$$$$

  -OEChem-05262216003D

 43 42  0     1  0  0  0  0  0999 V2000
   -3.5232   -4.8280    0.9423 C   0  0  0  0  0  0  0  0  0  0  0  0
   -2.7059   -5.5611    1.4762 O   0  0  0  0  0  0  0  0  0  0  0  0
   -5.0073   -5.0968    1.1048 C   0  0  0  0  0  0  0  0  0  0  0  0
   -5.4649   -5.2673    0.1272 H   0  0  0  0  0  0  0  0  0  0  0  0
   -5.1635   -5.9829    1.7266 H   0  0  0  0  0  0  0  0  0  0  0  0
   -5.4919   -4.2415    1.5821 H   0  0  0  0  0  0  0  0  0  0  0  0
   -3.0990   -3.7519    0.1926 N   0  0  0  0  0  0  0  0  0  0  0  0
   -1.7010   -3.3159    0.0857 C   0  0  2  0  0  0  0  0  0  0  0  0
   -1.5985   -1.7950   -0.1536 C   0  0  0  0  0  0  0  0  0  0  0  0
   -2.5945   -1.1556   -0.4791 O   0  0  0  0  0  0  0  0  0  0  0  0
   -1.0373   -4.0833   -1.0631 C   0  0  0  0  0  0  0  0  0  0  0  0
   -3.8091   -3.0974   -0.1346 H   0  0  0  0  0  0  0  0  0  0  0  0
   -1.1748   -3.5361    1.0210 H   0  0  0  0  0  0  0  0  0  0  0  0
   -1.5472   -3.8729   -2.0087 H   0  0  0  0  0  0  0  0  0  0  0  0
    0.0137   -3.7959   -1.1632 H   0  0  0  0  0  0  0  0  0  0  0  0
   -1.0816   -5.1608   -0.8756 H   0  0  0  0  0  0  0  0  0  0  0  0
   -0.3828   -1.1482   -0.0185 N   0  0  0  0  0  0  0  0  0  0  0  0
   -0.1484    0.2803   -0.3006 C   0  0  2  0  0  0  0  0  0  0  0  0
   -1.0207    1.2060    0.5807 C   0  0  0  0  0  0  0  0  0  0  0  0
   -0.8561    1.2010    1.7949 O   0  0  0  0  0  0  0  0  0  0  0  0
   -0.2942    0.5580   -1.8084 C   0  0  0  0  0  0  0  0  0  0  0  0
    1.0255   -0.3297   -2.7348 S   0  0  0  0  0  0  0  0  0  0  0  0
    0.4162   -1.7213    0.2363 H   0  0  0  0  0  0  0  0  0  0  0  0
    0.8852    0.5160   -0.0289 H   0  0  0  0  0  0  0  0  0  0  0  0
   -1.2796    0.2459   -2.1692 H   0  0  0  0  0  0  0  0  0  0  0  0
   -0.1929    1.6313   -1.9992 H   0  0  0  0  0  0  0  0  0  0  0  0
    0.7205    0.0146   -4.0055 H   0  0  0  0  0  0  0  0  0  0  0  0
   -1.9292    2.0944    0.0342 N   0  0  0  0  0  0  0  0  0  0  0  0
   -2.8841    2.8834    0.8212 C   0  0  2  0  0  0  0  0  0  0  0  0
   -4.1647    3.1745    0.0105 C   0  0  0  0  0  0  0  0  0  0  0  0
   -4.1715    3.0206   -1.2067 O   0  0  0  0  0  0  0  0  0  0  0  0
   -2.2112    4.1930    1.2445 C   0  0  0  0  0  0  0  0  0  0  0  0
   -2.1927    1.9287   -0.9374 H   0  0  0  0  0  0  0  0  0  0  0  0
   -3.1793    2.3203    1.7131 H   0  0  0  0  0  0  0  0  0  0  0  0
   -1.9132    4.7713    0.3641 H   0  0  0  0  0  0  0  0  0  0  0  0
   -2.8951    4.7996    1.8455 H   0  0  0  0  0  0  0  0  0  0  0  0
   -1.3192    3.9854    1.8437 H   0  0  0  0  0  0  0  0  0  0  0  0
   -5.3130    3.6143    0.6433 N   0  0  0  0  0  0  0  0  0  0  0  0
   -6.5609    3.8809   -0.0618 C   0  0  0  0  0  0  0  0  0  0  0  0
   -5.2901    3.6991    1.6553 H   0  0  0  0  0  0  0  0  0  0  0  0
   -6.4023    4.6166   -0.8575 H   0  0  0  0  0  0  0  0  0  0  0  0
   -6.9528    2.9602   -0.5066 H   0  0  0  0  0  0  0  0  0  0  0  0
   -7.3100    4.2782    0.6298 H   0  0  0  0  0  0  0  0  0  0  0  0
  1  2  2  0  0  0  0
  1  3  1  0  0  0  0
  1  7  1  0  0  0  0
  3  4  1  0  0  0  0
  3  5  1  0  0  0  0
  3  6  1  0  0  0  0
  7  8  1  0  0  0  0
  7 12  1  0  0  0  0
  8  9  1  0  0  0  0
  8 11  1  0  0  0  0
  8 13  1  0  0  0  0
  9 10  2  0  0  0  0
  9 17  1  0  0  0  0
 11 14  1  0  0  0  0
 11 15  1  0  0  0  0
 11 16  1  0  0  0  0
 17 18  1  0  0  0  0
 17 23  1  0  0  0  0
 18 19  1  0  0  0  0
 18 21  1  0  0  0  0
 18 24  1  0  0  0  0
 19 20  2  0  0  0  0
 19 28  1  0  0  0  0
 21 22  1  0  0  0  0
 21 25  1  0  0  0  0
 21 26  1  0  0  0  0
 22 27  1  0  0  0  0
 28 29  1  0  0  0  0
 28 33  1  0  0  0  0
 29 30  1  0  0  0  0
 29 32  1  0  0  0  0
 29 34  1  0  0  0  0
 30 31  2  0  0  0  0
 30 38  1  0  0  0  0
 32 35  1  0  0  0  0
 32 36  1  0  0  0  0
 32 37  1  0  0  0  0
 38 39  1  0  0  0  0
 38 40  1  0  0  0  0
 39 41  1  0  0  0  0
 39 42  1  0  0  0  0
 39 43  1  0  0  0  0
M  END
$$$$

  -OEChem-05262216003D

 43 42  0     1  0  0  0  0  0999 V2000
   -3.4721   -4.8984    0.9367 C   0  0  0  0  0  0  0  0  0  0  0  0
   -2.6374   -5.6033    1.4818 O   0  0  0  0  0  0  0  0  0  0  0  0
   -4.9491   -5.2092    1.0898 C   0  0  0  0  0  0  0  0  0  0  0  0
   -5.3806   -5.4548    0.1163 H   0  0  0  0  0  0  0  0  0  0  0  0
   -5.0864   -6.0607    1.7621 H   0  0  0  0  0  0  0  0  0  0  0  0
   -5.4728   -4.3450    1.5057 H   0  0  0  0  0  0  0  0  0  0  0  0
   -3.0729   -3.8163    0.1818 N   0  0  0  0  0  0  0  0  0  0  0  0
   -1.6853   -3.3479    0.0733 C   0  0  2  0  0  0  0  0  0  0  0  0
   -1.6142   -1.8224   -0.1439 C   0  0  0  0  0  0  0  0  0  0  0  0
   -2.6190   -1.2014   -0.4757 O   0  0  0  0  0  0  0  0  0  0  0  0
   -1.0157   -4.0846   -1.0911 C   0  0  0  0  0  0  0  0  0  0  0  0
   -3.7989   -3.1886   -0.1627 H   0  0  0  0  0  0  0  0  0  0  0  0
   -1.1480   -3.5711    1.0014 H   0  0  0  0  0  0  0  0  0  0  0  0
   -1.5390   -3.8727   -2.0290 H   0  0  0  0  0  0  0  0  0  0  0  0
    0.0278   -3.7726   -1.1962 H   0  0  0  0  0  0  0  0  0  0  0  0
   -1.0358   -5.1652   -0.9173 H   0  0  0  0  0  0  0  0  0  0  0  0
   -0.4164   -1.1484    0.0155 N   0  0  0  0  0  0  0  0  0  0  0  0
   -0.2051    0.2830   -0.2704 C   0  0  2  0  0  0  0  0  0  0  0  0
   -1.1121    1.2036    0.5782 C   0  0  0  0  0  0  0  0  0  0  0  0
   -0.8120    1.4237    1.7452 O   0  0  0  0  0  0  0  0  0  0  0  0
   -0.3285    0.5523   -1.7805 C   0  0  0  0  0  0  0  0  0  0  0  0
    1.0263   -0.3136   -2.6755 S   0  0  0  0  0  0  0  0  0  0  0  0
    0.3979   -1.7114    0.2435 H   0  0  0  0  0  0  0  0  0  0  0  0
    0.8188    0.5400    0.0198 H   0  0  0  0  0  0  0  0  0  0  0  0
   -1.2993    0.2183   -2.1605 H   0  0  0  0  0  0  0  0  0  0  0  0
   -0.2489    1.6277   -1.9707 H   0  0  0  0  0  0  0  0  0  0  0  0
    0.7446    0.0285   -3.9521 H   0  0  0  0  0  0  0  0  0  0  0  0
   -2.2156    1.8362    0.0357 N   0  0  0  0  0  0  0  0  0  0  0  0
   -3.1783    2.6221    0.8164 C   0  0  2  0  0  0  0  0  0  0  0  0
   -4.5743    2.6158    0.1580 C   0  0  0  0  0  0  0  0  0  0  0  0
   -4.7006    2.3127   -1.0236 O   0  0  0  0  0  0  0  0  0  0  0  0
   -2.6575    4.0577    0.9433 C   0  0  0  0  0  0  0  0  0  0  0  0
   -2.5769    1.4269   -0.8280 H   0  0  0  0  0  0  0  0  0  0  0  0
   -3.2839    2.1840    1.8147 H   0  0  0  0  0  0  0  0  0  0  0  0
   -2.5450    4.5128   -0.0460 H   0  0  0  0  0  0  0  0  0  0  0  0
   -3.3510    4.6667    1.5306 H   0  0  0  0  0  0  0  0  0  0  0  0
   -1.6840    4.0670    1.4433 H   0  0  0  0  0  0  0  0  0  0  0  0
   -5.6963    2.9567    0.8911 N   0  0  0  0  0  0  0  0  0  0  0  0
   -7.0451    2.9476    0.3374 C   0  0  0  0  0  0  0  0  0  0  0  0
   -5.5679    3.1724    1.8754 H   0  0  0  0  0  0  0  0  0  0  0  0
   -7.1075    3.6121   -0.5310 H   0  0  0  0  0  0  0  0  0  0  0  0
   -7.3248    1.9353    0.0269 H   0  0  0  0  0  0  0  0  0  0  0  0
   -7.7645    3.2916    1.0868 H   0  0  0  0  0  0  0  0  0  0  0  0
  1  2  2  0  0  0  0
  1  3  1  0  0  0  0
  1  7  1  0  0  0  0
  3  4  1  0  0  0  0
  3  5  1  0  0  0  0
  3  6  1  0  0  0  0
  7  8  1  0  0  0  0
  7 12  1  0  0  0  0
  8  9  1  0  0  0  0
  8 11  1  0  0  0  0
  8 13  1  0  0  0  0
  9 10  2  0  0  0  0
  9 17  1  0  0  0  0
 11 14  1  0  0  0  0
 11 15  1  0  0  0  0
 11 16  1  0  0  0  0
 17 18  1  0  0  0  0
 17 23  1  0  0  0  0
 18 19  1  0  0  0  0
 18 21  1  0  0  0  0
 18 24  1  0  0  0  0
 19 20  2  0  0  0  0
 19 28  1  0  0  0  0
 21 22  1  0  0  0  0
 21 25  1  0  0  0  0
 21 26  1  0  0  0  0
 22 27  1  0  0  0  0
 28 29  1  0  0  0  0
 28 33  1  0  0  0  0
 29 30  1  0  0  0  0
 29 32  1  0  0  0  0
 29 34  1  0  0  0  0
 30 31  2  0  0  0  0
 30 38  1  0  0  0  0
 32 35  1  0  0  0  0
 32 36  1  0  0  0  0
 32 37  1  0  0  0  0
 38 39  1  0  0  0  0
 38 40  1  0  0  0  0
 39 41  1  0  0  0  0
 39 42  1  0  0  0  0
 39 43  1  0  0  0  0
M  END
$$$$

  -OEChem-05262216003D

 43 42  0     1  0  0  0  0  0999 V2000
   -3.4472   -4.9495    0.8912 C   0  0  0  0  0  0  0  0  0  0  0  0
   -2.6294   -5.6114    1.5109 O   0  0  0  0  0  0  0  0  0  0  0  0
   -4.9275   -5.2592    1.0118 C   0  0  0  0  0  0  0  0  0  0  0  0
   -5.3285   -5.5471    0.0369 H   0  0  0  0  0  0  0  0  0  0  0  0
   -5.0850   -6.0817    1.7154 H   0  0  0  0  0  0  0  0  0  0  0  0
   -5.4650   -4.3792    1.3736 H   0  0  0  0  0  0  0  0  0  0  0  0
   -3.0277   -3.9112    0.0872 N   0  0  0  0  0  0  0  0  0  0  0  0
   -1.6460   -3.4165    0.0264 C   0  0  2  0  0  0  0  0  0  0  0  0
   -1.6038   -1.8890   -0.1829 C   0  0  0  0  0  0  0  0  0  0  0  0
   -2.6084   -1.2954   -0.5606 O   0  0  0  0  0  0  0  0  0  0  0  0
   -0.9264   -4.1371   -1.1175 C   0  0  0  0  0  0  0  0  0  0  0  0
   -3.7478   -3.3060   -0.3076 H   0  0  0  0  0  0  0  0  0  0  0  0
   -1.1321   -3.6306    0.9697 H   0  0  0  0  0  0  0  0  0  0  0  0
   -1.4210   -3.9285   -2.0718 H   0  0  0  0  0  0  0  0  0  0  0  0
    0.1152   -3.8090   -1.1857 H   0  0  0  0  0  0  0  0  0  0  0  0
   -0.9363   -5.2187   -0.9484 H   0  0  0  0  0  0  0  0  0  0  0  0
   -0.4361   -1.1801    0.0390 N   0  0  0  0  0  0  0  0  0  0  0  0
   -0.2549    0.2636   -0.2086 C   0  0  2  0  0  0  0  0  0  0  0  0
   -1.2142    1.1556    0.6120 C   0  0  0  0  0  0  0  0  0  0  0  0
   -0.8251    1.6293    1.6724 O   0  0  0  0  0  0  0  0  0  0  0  0
   -0.3345    0.5737   -1.7128 C   0  0  0  0  0  0  0  0  0  0  0  0
    1.0721   -0.2290   -2.5873 S   0  0  0  0  0  0  0  0  0  0  0  0
    0.3870   -1.7240    0.2823 H   0  0  0  0  0  0  0  0  0  0  0  0
    0.7524    0.5368    0.1226 H   0  0  0  0  0  0  0  0  0  0  0  0
   -1.2833    0.2280   -2.1352 H   0  0  0  0  0  0  0  0  0  0  0  0
   -0.2792    1.6568   -1.8656 H   0  0  0  0  0  0  0  0  0  0  0  0
    0.8281    0.1491   -3.8616 H   0  0  0  0  0  0  0  0  0  0  0  0
   -2.4556    1.5207    0.1251 N   0  0  0  0  0  0  0  0  0  0  0  0
   -3.4241    2.3307    0.8757 C   0  0  2  0  0  0  0  0  0  0  0  0
   -4.8828    1.9827    0.5092 C   0  0  0  0  0  0  0  0  0  0  0  0
   -5.1424    1.3915   -0.5322 O   0  0  0  0  0  0  0  0  0  0  0  0
   -3.1431    3.8087    0.5866 C   0  0  0  0  0  0  0  0  0  0  0  0
   -2.8487    0.8772   -0.5699 H   0  0  0  0  0  0  0  0  0  0  0  0
   -3.3063    2.1431    1.9484 H   0  0  0  0  0  0  0  0  0  0  0  0
   -3.2625    4.0183   -0.4813 H   0  0  0  0  0  0  0  0  0  0  0  0
   -3.8325    4.4470    1.1469 H   0  0  0  0  0  0  0  0  0  0  0  0
   -2.1204    4.0658    0.8801 H   0  0  0  0  0  0  0  0  0  0  0  0
   -5.9174    2.3451    1.3525 N   0  0  0  0  0  0  0  0  0  0  0  0
   -7.3150    2.0257    1.0874 C   0  0  0  0  0  0  0  0  0  0  0  0
   -5.6744    2.8135    2.2203 H   0  0  0  0  0  0  0  0  0  0  0  0
   -7.6235    2.4267    0.1162 H   0  0  0  0  0  0  0  0  0  0  0  0
   -7.4649    0.9410    1.0839 H   0  0  0  0  0  0  0  0  0  0  0  0
   -7.9561    2.4625    1.8590 H   0  0  0  0  0  0  0  0  0  0  0  0
  1  2  2  0  0  0  0
  1  3  1  0  0  0  0
  1  7  1  0  0  0  0
  3  4  1  0  0  0  0
  3  5  1  0  0  0  0
  3  6  1  0  0  0  0
  7  8  1  0  0  0  0
  7 12  1  0  0  0  0
  8  9  1  0  0  0  0
  8 11  1  0  0  0  0
  8 13  1  0  0  0  0
  9 10  2  0  0  0  0
  9 17  1  0  0  0  0
 11 14  1  0  0  0  0
 11 15  1  0  0  0  0
 11 16  1  0  0  0  0
 17 18  1  0  0  0  0
 17 23  1  0  0  0  0
 18 19  1  0  0  0  0
 18 21  1  0  0  0  0
 18 24  1  0  0  0  0
 19 20  2  0  0  0  0
 19 28  1  0  0  0  0
 21 22  1  0  0  0  0
 21 25  1  0  0  0  0
 21 26  1  0  0  0  0
 22 27  1  0  0  0  0
 28 29  1  0  0  0  0
 28 33  1  0  0  0  0
 29 30  1  0  0  0  0
 29 32  1  0  0  0  0
 29 34  1  0  0  0  0
 30 31  2  0  0  0  0
 30 38  1  0  0  0  0
 32 35  1  0  0  0  0
 32 36  1  0  0  0  0
 32 37  1  0  0  0  0
 38 39  1  0  0  0  0
 38 40  1  0  0  0  0
 39 41  1  0  0  0  0
 39 42  1  0  0  0  0
 39 43  1  0  0  0  0
M  END
$$$$

  -OEChem-05262216003D

 43 42  0     1  0  0  0  0  0999 V2000
   -4.3770   -3.7607    0.8551 C   0  0  0  0  0  0  0  0  0  0  0  0
   -3.8319   -4.5496    1.6125 O   0  0  0  0  0  0  0  0  0  0  0  0
   -5.8912   -3.6889    0.7933 C   0  0  0  0  0  0  0  0  0  0  0  0
   -6.2343   -3.9494   -0.2106 H   0  0  0  0  0  0  0  0  0  0  0  0
   -6.3325   -4.3865    1.5101 H   0  0  0  0  0  0  0  0  0  0  0  0
   -6.2309   -2.6786    1.0301 H   0  0  0  0  0  0  0  0  0  0  0  0
   -3.6115   -2.9373    0.0582 N   0  0  0  0  0  0  0  0  0  0  0  0
   -2.1413   -2.9167    0.0550 C   0  0  2  0  0  0  0  0  0  0  0  0
   -1.6047   -1.5296   -0.3466 C   0  0  0  0  0  0  0  0  0  0  0  0
   -2.0430   -0.9811   -1.3524 O   0  0  0  0  0  0  0  0  0  0  0  0
   -1.6348   -3.9894   -0.9141 C   0  0  0  0  0  0  0  0  0  0  0  0
   -4.1061   -2.1747   -0.4153 H   0  0  0  0  0  0  0  0  0  0  0  0
   -1.7686   -3.1421    1.0595 H   0  0  0  0  0  0  0  0  0  0  0  0
   -2.0084   -3.7992   -1.9257 H   0  0  0  0  0  0  0  0  0  0  0  0
   -0.5409   -3.9941   -0.9415 H   0  0  0  0  0  0  0  0  0  0  0  0
   -1.9767   -4.9797   -0.5971 H   0  0  0  0  0  0  0  0  0  0  0  0
   -0.7122   -0.8487    0.4691 N   0  0  0  0  0  0  0  0  0  0  0  0
   -0.4016    0.5956    0.3742 C   0  0  2  0  0  0  0  0  0  0  0  0
   -1.6654    1.4553    0.5891 C   0  0  0  0  0  0  0  0  0  0  0  0
   -1.9013    1.9174    1.7002 O   0  0  0  0  0  0  0  0  0  0  0  0
    0.3393    0.9588   -0.9239 C   0  0  0  0  0  0  0  0  0  0  0  0
    1.9935    0.1533   -0.9382 S   0  0  0  0  0  0  0  0  0  0  0  0
   -0.4084   -1.3386    1.3064 H   0  0  0  0  0  0  0  0  0  0  0  0
    0.2742    0.8467    1.1984 H   0  0  0  0  0  0  0  0  0  0  0  0
   -0.2296    0.6520   -1.8058 H   0  0  0  0  0  0  0  0  0  0  0  0
    0.4701    2.0447   -0.9778 H   0  0  0  0  0  0  0  0  0  0  0  0
    2.4549    0.5313   -2.1506 H   0  0  0  0  0  0  0  0  0  0  0  0
   -2.6209    1.5587   -0.4048 N   0  0  0  0  0  0  0  0  0  0  0  0
   -4.0348    1.7795   -0.0765 C   0  0  2  0  0  0  0  0  0  0  0  0
   -4.6189    0.5751    0.7056 C   0  0  0  0  0  0  0  0  0  0  0  0
   -5.1627   -0.3671    0.1364 O   0  0  0  0  0  0  0  0  0  0  0  0
   -4.7789    2.0311   -1.3921 C   0  0  0  0  0  0  0  0  0  0  0  0
   -2.4551    0.8962   -1.1696 H   0  0  0  0  0  0  0  0  0  0  0  0
   -4.1382    2.6725    0.5492 H   0  0  0  0  0  0  0  0  0  0  0  0
   -4.6738    1.1740   -2.0657 H   0  0  0  0  0  0  0  0  0  0  0  0
   -5.8443    2.1924   -1.2010 H   0  0  0  0  0  0  0  0  0  0  0  0
   -4.3772    2.9178   -1.8918 H   0  0  0  0  0  0  0  0  0  0  0  0
   -4.4175    0.5093    2.0708 N   0  0  0  0  0  0  0  0  0  0  0  0
   -4.7394   -0.6551    2.8850 C   0  0  0  0  0  0  0  0  0  0  0  0
   -3.7415    1.1832    2.4384 H   0  0  0  0  0  0  0  0  0  0  0  0
   -5.7776   -0.9635    2.7246 H   0  0  0  0  0  0  0  0  0  0  0  0
   -4.0772   -1.4908    2.6384 H   0  0  0  0  0  0  0  0  0  0  0  0
   -4.6154   -0.4163    3.9457 H   0  0  0  0  0  0  0  0  0  0  0  0
  1  2  2  0  0  0  0
  1  3  1  0  0  0  0
  1  7  1  0  0  0  0
  3  4  1  0  0  0  0
  3  5  1  0  0  0  0
  3  6  1  0  0  0  0
  7  8  1  0  0  0  0
  7 12  1  0  0  0  0
  8  9  1  0  0  0  0
  8 11  1  0  0  0  0
  8 13  1  0  0  0  0
  9 10  2  0  0  0  0
  9 17  1  0  0  0  0
 11 14  1  0  0  0  0
 11 15  1  0  0  0  0
 11 16  1  0  0  0  0
 17 18  1  0  0  0  0
 17 23  1  0  0  0  0
 18 19  1  0  0  0  0
 18 21  1  0  0  0  0
 18 24  1  0  0  0  0
 19 20  2  0  0  0  0
 19 28  1  0  0  0  0
 21 22  1  0  0  0  0
 21 25  1  0  0  0  0
 21 26  1  0  0  0  0
 22 27  1  0  0  0  0
 28 29  1  0  0  0  0
 28 33  1  0  0  0  0
 29 30  1  0  0  0  0
 29 32  1  0  0  0  0
 29 34  1  0  0  0  0
 30 31  2  0  0  0  0
 30 38  1  0  0  0  0
 32 35  1  0  0  0  0
 32 36  1  0  0  0  0
 32 37  1  0  0  0  0
 38 39  1  0  0  0  0
 38 40  1  0  0  0  0
 39 41  1  0  0  0  0
 39 42  1  0  0  0  0
 39 43  1  0  0  0  0
M  END
$$$$

  -OEChem-05262216003D

 43 42  0     1  0  0  0  0  0999 V2000
   -2.7238   -3.6633    1.3270 C   0  0  0  0  0  0  0  0  0  0  0  0
   -1.5598   -4.0085    1.4756 O   0  0  0  0  0  0  0  0  0  0  0  0
   -3.6205   -3.4808    2.5353 C   0  0  0  0  0  0  0  0  0  0  0  0
   -3.2814   -4.1181    3.3564 H   0  0  0  0  0  0  0  0  0  0  0  0
   -3.5935   -2.4372    2.8584 H   0  0  0  0  0  0  0  0  0  0  0  0
   -4.6493   -3.7484    2.2830 H   0  0  0  0  0  0  0  0  0  0  0  0
   -3.1680   -3.3038    0.0724 N   0  0  0  0  0  0  0  0  0  0  0  0
   -2.2783   -3.2024   -1.0953 C   0  0  2  0  0  0  0  0  0  0  0  0
   -1.4973   -1.8692   -1.0640 C   0  0  0  0  0  0  0  0  0  0  0  0
   -1.7343   -0.9755   -1.8711 O   0  0  0  0  0  0  0  0  0  0  0  0
   -3.1464   -3.3672   -2.3484 C   0  0  0  0  0  0  0  0  0  0  0  0
   -4.0020   -2.7065    0.0751 H   0  0  0  0  0  0  0  0  0  0  0  0
   -1.5453   -4.0162   -1.0857 H   0  0  0  0  0  0  0  0  0  0  0  0
   -3.9091   -2.5829   -2.3955 H   0  0  0  0  0  0  0  0  0  0  0  0
   -2.5280   -3.3060   -3.2494 H   0  0  0  0  0  0  0  0  0  0  0  0
   -3.6476   -4.3399   -2.3378 H   0  0  0  0  0  0  0  0  0  0  0  0
   -0.6988   -1.6119    0.0374 N   0  0  0  0  0  0  0  0  0  0  0  0
   -0.3440   -0.2788    0.5681 C   0  0  2  0  0  0  0  0  0  0  0  0
   -1.5873    0.5335    0.9925 C   0  0  0  0  0  0  0  0  0  0  0  0
   -1.7486    0.8412    2.1671 O   0  0  0  0  0  0  0  0  0  0  0  0
    0.5404    0.5324   -0.3932 C   0  0  0  0  0  0  0  0  0  0  0  0
    2.1724   -0.2920   -0.6014 S   0  0  0  0  0  0  0  0  0  0  0  0
   -0.6467   -2.3972    0.6938 H   0  0  0  0  0  0  0  0  0  0  0  0
    0.2429   -0.4355    1.4790 H   0  0  0  0  0  0  0  0  0  0  0  0
    0.0578    0.6533   -1.3667 H   0  0  0  0  0  0  0  0  0  0  0  0
    0.6997    1.5337    0.0198 H   0  0  0  0  0  0  0  0  0  0  0  0
    2.7529    0.5175   -1.5138 H   0  0  0  0  0  0  0  0  0  0  0  0
   -2.5770    0.8528    0.0831 N   0  0  0  0  0  0  0  0  0  0  0  0
   -3.9172    1.2878    0.4886 C   0  0  2  0  0  0  0  0  0  0  0  0
   -4.7774    0.1422    1.0726 C   0  0  0  0  0  0  0  0  0  0  0  0
   -4.7710   -0.9802    0.5718 O   0  0  0  0  0  0  0  0  0  0  0  0
   -4.5979    1.8843   -0.7450 C   0  0  0  0  0  0  0  0  0  0  0  0
   -2.4813    0.3882   -0.8255 H   0  0  0  0  0  0  0  0  0  0  0  0
   -3.8262    2.0716    1.2478 H   0  0  0  0  0  0  0  0  0  0  0  0
   -4.7137    1.1234   -1.5241 H   0  0  0  0  0  0  0  0  0  0  0  0
   -5.5888    2.2698   -0.4860 H   0  0  0  0  0  0  0  0  0  0  0  0
   -4.0002    2.7074   -1.1487 H   0  0  0  0  0  0  0  0  0  0  0  0
   -5.6133    0.3882    2.1462 N   0  0  0  0  0  0  0  0  0  0  0  0
   -6.4503   -0.6299    2.7691 C   0  0  0  0  0  0  0  0  0  0  0  0
   -5.5245    1.2918    2.6027 H   0  0  0  0  0  0  0  0  0  0  0  0
   -7.0859   -1.1161    2.0214 H   0  0  0  0  0  0  0  0  0  0  0  0
   -5.8317   -1.3901    3.2557 H   0  0  0  0  0  0  0  0  0  0  0  0
   -7.0979   -0.1747    3.5248 H   0  0  0  0  0  0  0  0  0  0  0  0
  1  2  2  0  0  0  0
  1  3  1  0  0  0  0
  1  7  1  0  0  0  0
  3  4  1  0  0  0  0
  3  5  1  0  0  0  0
  3  6  1  0  0  0  0
  7  8  1  0  0  0  0
  7 12  1  0  0  0  0
  8  9  1  0  0  0  0
  8 11  1  0  0  0  0
  8 13  1  0  0  0  0
  9 10  2  0  0  0  0
  9 17  1  0  0  0  0
 11 14  1  0  0  0  0
 11 15  1  0  0  0  0
 11 16  1  0  0  0  0
 17 18  1  0  0  0  0
 17 23  1  0  0  0  0
 18 19  1  0  0  0  0
 18 21  1  0  0  0  0
 18 24  1  0  0  0  0
 19 20  2  0  0  0  0
 19 28  1  0  0  0  0
 21 22  1  0  0  0  0
 21 25  1  0  0  0  0
 21 26  1  0  0  0  0
 22 27  1  0  0  0  0
 28 29  1  0  0  0  0
 28 33  1  0  0  0  0
 29 30  1  0  0  0  0
 29 32  1  0  0  0  0
 29 34  1  0  0  0  0
 30 31  2  0  0  0  0
 30 38  1  0  0  0  0
 32 35  1  0  0  0  0
 32 36  1  0  0  0  0
 32 37  1  0  0  0  0
 38 39  1  0  0  0  0
 38 40  1  0  0  0  0
 39 41  1  0  0  0  0
 39 42  1  0  0  0  0
 39 43  1  0  0  0  0
M  END
$$$$

  -OEChem-05262216003D

 43 42  0     1  0  0  0  0  0999 V2000
   -2.4753   -3.8493    1.3677 C   0  0  0  0  0  0  0  0  0  0  0  0
   -1.2837   -4.1239    1.3811 O   0  0  0  0  0  0  0  0  0  0  0  0
   -3.2549   -3.7883    2.6659 C   0  0  0  0  0  0  0  0  0  0  0  0
   -4.2710   -4.1585    2.5098 H   0  0  0  0  0  0  0  0  0  0  0  0
   -2.7680   -4.4036    3.4271 H   0  0  0  0  0  0  0  0  0  0  0  0
   -3.3026   -2.7553    3.0190 H   0  0  0  0  0  0  0  0  0  0  0  0
   -3.0679   -3.4640    0.1844 N   0  0  0  0  0  0  0  0  0  0  0  0
   -2.3178   -3.2797   -1.0685 C   0  0  2  0  0  0  0  0  0  0  0  0
   -1.5981   -1.9114   -1.0778 C   0  0  0  0  0  0  0  0  0  0  0  0
   -1.9404   -1.0189   -1.8465 O   0  0  0  0  0  0  0  0  0  0  0  0
   -3.3116   -3.4488   -2.2234 C   0  0  0  0  0  0  0  0  0  0  0  0
   -3.9278   -2.9173    0.3010 H   0  0  0  0  0  0  0  0  0  0  0  0
   -1.5523   -4.0570   -1.1681 H   0  0  0  0  0  0  0  0  0  0  0  0
   -4.1072   -2.6993   -2.1596 H   0  0  0  0  0  0  0  0  0  0  0  0
   -2.8008   -3.3326   -3.1842 H   0  0  0  0  0  0  0  0  0  0  0  0
   -3.7656   -4.4438   -2.1905 H   0  0  0  0  0  0  0  0  0  0  0  0
   -0.7238   -1.6319   -0.0422 N   0  0  0  0  0  0  0  0  0  0  0  0
   -0.3156   -0.3002    0.4581 C   0  0  2  0  0  0  0  0  0  0  0  0
   -1.4960    0.5544    0.9773 C   0  0  0  0  0  0  0  0  0  0  0  0
   -1.4421    1.0449    2.0980 O   0  0  0  0  0  0  0  0  0  0  0  0
    0.4928    0.4859   -0.5862 C   0  0  0  0  0  0  0  0  0  0  0  0
    2.0892   -0.3654   -0.9239 S   0  0  0  0  0  0  0  0  0  0  0  0
   -0.5624   -2.4287    0.5817 H   0  0  0  0  0  0  0  0  0  0  0  0
    0.3438   -0.4614    1.3173 H   0  0  0  0  0  0  0  0  0  0  0  0
   -0.0735    0.6010   -1.5145 H   0  0  0  0  0  0  0  0  0  0  0  0
    0.7021    1.4899   -0.2025 H   0  0  0  0  0  0  0  0  0  0  0  0
    2.6077    0.4361   -1.8793 H   0  0  0  0  0  0  0  0  0  0  0  0
   -2.6795    0.6569    0.2722 N   0  0  0  0  0  0  0  0  0  0  0  0
   -3.9586    1.0524    0.8699 C   0  0  2  0  0  0  0  0  0  0  0  0
   -4.6887   -0.1320    1.5428 C   0  0  0  0  0  0  0  0  0  0  0  0
   -4.6935   -1.2487    1.0286 O   0  0  0  0  0  0  0  0  0  0  0  0
   -4.8208    1.6474   -0.2448 C   0  0  0  0  0  0  0  0  0  0  0  0
   -2.7041    0.1296   -0.6055 H   0  0  0  0  0  0  0  0  0  0  0  0
   -3.7902    1.8278    1.6246 H   0  0  0  0  0  0  0  0  0  0  0  0
   -5.0118    0.9001   -1.0223 H   0  0  0  0  0  0  0  0  0  0  0  0
   -5.7811    1.9875    0.1547 H   0  0  0  0  0  0  0  0  0  0  0  0
   -4.3129    2.5028   -0.7010 H   0  0  0  0  0  0  0  0  0  0  0  0
   -5.3853    0.0651    2.7209 N   0  0  0  0  0  0  0  0  0  0  0  0
   -6.0745   -0.9990    3.4411 C   0  0  0  0  0  0  0  0  0  0  0  0
   -5.2863    0.9718    3.1699 H   0  0  0  0  0  0  0  0  0  0  0  0
   -6.7096   -1.5786    2.7629 H   0  0  0  0  0  0  0  0  0  0  0  0
   -5.3513   -1.6731    3.9104 H   0  0  0  0  0  0  0  0  0  0  0  0
   -6.7116   -0.5741    4.2227 H   0  0  0  0  0  0  0  0  0  0  0  0
  1  2  2  0  0  0  0
  1  3  1  0  0  0  0
  1  7  1  0  0  0  0
  3  4  1  0  0  0  0
  3  5  1  0  0  0  0
  3  6  1  0  0  0  0
  7  8  1  0  0  0  0
  7 12  1  0  0  0  0
  8  9  1  0  0  0  0
  8 11  1  0  0  0  0
  8 13  1  0  0  0  0
  9 10  2  0  0  0  0
  9 17  1  0  0  0  0
 11 14  1  0  0  0  0
 11 15  1  0  0  0  0
 11 16  1  0  0  0  0
 17 18  1  0  0  0  0
 17 23  1  0  0  0  0
 18 19  1  0  0  0  0
 18 21  1  0  0  0  0
 18 24  1  0  0  0  0
 19 20  2  0  0  0  0
 19 28  1  0  0  0  0
 21 22  1  0  0  0  0
 21 25  1  0  0  0  0
 21 26  1  0  0  0  0
 22 27  1  0  0  0  0
 28 29  1  0  0  0  0
 28 33  1  0  0  0  0
 29 30  1  0  0  0  0
 29 32  1  0  0  0  0
 29 34  1  0  0  0  0
 30 31  2  0  0  0  0
 30 38  1  0  0  0  0
 32 35  1  0  0  0  0
 32 36  1  0  0  0  0
 32 37  1  0  0  0  0
 38 39  1  0  0  0  0
 38 40  1  0  0  0  0
 39 41  1  0  0  0  0
 39 42  1  0  0  0  0
 39 43  1  0  0  0  0
M  END
$$$$

  -OEChem-05262216003D

 43 42  0     1  0  0  0  0  0999 V2000
   -2.2755   -4.0059    1.3711 C   0  0  0  0  0  0  0  0  0  0  0  0
   -1.0810   -4.2457    1.2672 O   0  0  0  0  0  0  0  0  0  0  0  0
   -2.9452   -4.0646    2.7299 C   0  0  0  0  0  0  0  0  0  0  0  0
   -3.9836   -4.3888    2.6245 H   0  0  0  0  0  0  0  0  0  0  0  0
   -2.4202   -4.7716    3.3777 H   0  0  0  0  0  0  0  0  0  0  0  0
   -2.9275   -3.0751    3.1927 H   0  0  0  0  0  0  0  0  0  0  0  0
   -2.9715   -3.5572    0.2687 N   0  0  0  0  0  0  0  0  0  0  0  0
   -2.3395   -3.3011   -1.0376 C   0  0  2  0  0  0  0  0  0  0  0  0
   -1.6363   -1.9240   -1.0538 C   0  0  0  0  0  0  0  0  0  0  0  0
   -2.0327   -1.0185   -1.7790 O   0  0  0  0  0  0  0  0  0  0  0  0
   -3.4323   -3.4354   -2.1051 C   0  0  0  0  0  0  0  0  0  0  0  0
   -3.8338   -3.0479    0.4881 H   0  0  0  0  0  0  0  0  0  0  0  0
   -1.5771   -4.0605   -1.2420 H   0  0  0  0  0  0  0  0  0  0  0  0
   -4.2219   -2.6942   -1.9447 H   0  0  0  0  0  0  0  0  0  0  0  0
   -3.0098   -3.2820   -3.1032 H   0  0  0  0  0  0  0  0  0  0  0  0
   -3.8785   -4.4339   -2.0679 H   0  0  0  0  0  0  0  0  0  0  0  0
   -0.7322   -1.6468   -0.0442 N   0  0  0  0  0  0  0  0  0  0  0  0
   -0.2773   -0.3230    0.4396 C   0  0  2  0  0  0  0  0  0  0  0  0
   -1.4125    0.5768    0.9861 C   0  0  0  0  0  0  0  0  0  0  0  0
   -1.2214    1.2364    1.9998 O   0  0  0  0  0  0  0  0  0  0  0  0
    0.5121    0.4305   -0.6414 C   0  0  0  0  0  0  0  0  0  0  0  0
    2.0732   -0.4638   -1.0300 S   0  0  0  0  0  0  0  0  0  0  0  0
   -0.5073   -2.4578    0.5404 H   0  0  0  0  0  0  0  0  0  0  0  0
    0.4042   -0.4951    1.2794 H   0  0  0  0  0  0  0  0  0  0  0  0
   -0.0867    0.5494   -1.5488 H   0  0  0  0  0  0  0  0  0  0  0  0
    0.7606    1.4328   -0.2768 H   0  0  0  0  0  0  0  0  0  0  0  0
    2.5747    0.3165   -2.0119 H   0  0  0  0  0  0  0  0  0  0  0  0
   -2.7006    0.4883    0.4950 N   0  0  0  0  0  0  0  0  0  0  0  0
   -3.9121    0.8595    1.2305 C   0  0  2  0  0  0  0  0  0  0  0  0
   -4.5075   -0.3391    2.0015 C   0  0  0  0  0  0  0  0  0  0  0  0
   -4.5540   -1.4573    1.4916 O   0  0  0  0  0  0  0  0  0  0  0  0
   -4.9213    1.3961    0.2137 C   0  0  0  0  0  0  0  0  0  0  0  0
   -2.8057   -0.0977   -0.3369 H   0  0  0  0  0  0  0  0  0  0  0  0
   -3.6879    1.6568    1.9464 H   0  0  0  0  0  0  0  0  0  0  0  0
   -5.1706    0.6254   -0.5235 H   0  0  0  0  0  0  0  0  0  0  0  0
   -5.8420    1.7073    0.7165 H   0  0  0  0  0  0  0  0  0  0  0  0
   -4.5047    2.2601   -0.3136 H   0  0  0  0  0  0  0  0  0  0  0  0
   -5.0248   -0.1558    3.2704 N   0  0  0  0  0  0  0  0  0  0  0  0
   -5.5658   -1.2355    4.0870 C   0  0  0  0  0  0  0  0  0  0  0  0
   -4.8933    0.7581    3.6958 H   0  0  0  0  0  0  0  0  0  0  0  0
   -6.3207   -1.7998    3.5294 H   0  0  0  0  0  0  0  0  0  0  0  0
   -4.7693   -1.9198    4.3956 H   0  0  0  0  0  0  0  0  0  0  0  0
   -6.0381   -0.8275    4.9858 H   0  0  0  0  0  0  0  0  0  0  0  0
  1  2  2  0  0  0  0
  1  3  1  0  0  0  0
  1  7  1  0  0  0  0
  3  4  1  0  0  0  0
  3  5  1  0  0  0  0
  3  6  1  0  0  0  0
  7  8  1  0  0  0  0
  7 12  1  0  0  0  0
  8  9  1  0  0  0  0
  8 11  1  0  0  0  0
  8 13  1  0  0  0  0
  9 10  2  0  0  0  0
  9 17  1  0  0  0  0
 11 14  1  0  0  0  0
 11 15  1  0  0  0  0
 11 16  1  0  0  0  0
 17 18  1  0  0  0  0
 17 23  1  0  0  0  0
 18 19  1  0  0  0  0
 18 21  1  0  0  0  0
 18 24  1  0  0  0  0
 19 20  2  0  0  0  0
 19 28  1  0  0  0  0
 21 22  1  0  0  0  0
 21 25  1  0  0  0  0
 21 26  1  0  0  0  0
 22 27  1  0  0  0  0
 28 29  1  0  0  0  0
 28 33  1  0  0  0  0
 29 30  1  0  0  0  0
 29 32  1  0  0  0  0
 29 34  1  0  0  0  0
 30 31  2  0  0  0  0
 30 38  1  0  0  0  0
 32 35  1  0  0  0  0
 32 36  1  0  0  0  0
 32 37  1  0  0  0  0
 38 39  1  0  0  0  0
 38 40  1  0  0  0  0
 39 41  1  0  0  0  0
 39 42  1  0  0  0  0
 39 43  1  0  0  0  0
M  END
$$$$

  -OEChem-05262216003D

 43 42  0     1  0  0  0  0  0999 V2000
   -1.9675   -4.0520    1.4571 C   0  0  0  0  0  0  0  0  0  0  0  0
   -0.7854   -4.2565    1.2195 O   0  0  0  0  0  0  0  0  0  0  0  0
   -2.4831   -4.1407    2.8807 C   0  0  0  0  0  0  0  0  0  0  0  0
   -1.8092   -4.7509    3.4881 H   0  0  0  0  0  0  0  0  0  0  0  0
   -2.5462   -3.1405    3.3157 H   0  0  0  0  0  0  0  0  0  0  0  0
   -3.4765   -4.5958    2.8914 H   0  0  0  0  0  0  0  0  0  0  0  0
   -2.7964   -3.6278    0.4400 N   0  0  0  0  0  0  0  0  0  0  0  0
   -2.3254   -3.3514   -0.9285 C   0  0  2  0  0  0  0  0  0  0  0  0
   -1.6630   -1.9569   -1.0146 C   0  0  0  0  0  0  0  0  0  0  0  0
   -2.2028   -1.0368   -1.6166 O   0  0  0  0  0  0  0  0  0  0  0  0
   -3.5313   -3.5064   -1.8628 C   0  0  0  0  0  0  0  0  0  0  0  0
   -3.6544   -3.1616    0.7526 H   0  0  0  0  0  0  0  0  0  0  0  0
   -1.5741   -4.0915   -1.2248 H   0  0  0  0  0  0  0  0  0  0  0  0
   -4.3190   -2.7938   -1.5969 H   0  0  0  0  0  0  0  0  0  0  0  0
   -3.2338   -3.3244   -2.9002 H   0  0  0  0  0  0  0  0  0  0  0  0
   -3.9391   -4.5194   -1.7918 H   0  0  0  0  0  0  0  0  0  0  0  0
   -0.6208   -1.6795   -0.1491 N   0  0  0  0  0  0  0  0  0  0  0  0
   -0.1085   -0.3522    0.2637 C   0  0  2  0  0  0  0  0  0  0  0  0
   -1.1536    0.5435    0.9732 C   0  0  0  0  0  0  0  0  0  0  0  0
   -0.7765    1.3998    1.7626 O   0  0  0  0  0  0  0  0  0  0  0  0
    0.5120    0.3988   -0.9238 C   0  0  0  0  0  0  0  0  0  0  0  0
    2.0039   -0.4951   -1.5274 S   0  0  0  0  0  0  0  0  0  0  0  0
   -0.2880   -2.4942    0.3755 H   0  0  0  0  0  0  0  0  0  0  0  0
    0.6882   -0.5188    0.9958 H   0  0  0  0  0  0  0  0  0  0  0  0
   -0.2134    0.5094   -1.7351 H   0  0  0  0  0  0  0  0  0  0  0  0
    0.8061    1.4045   -0.6050 H   0  0  0  0  0  0  0  0  0  0  0  0
    2.3707    0.2947   -2.5595 H   0  0  0  0  0  0  0  0  0  0  0  0
   -2.5017    0.2493    0.9135 N   0  0  0  0  0  0  0  0  0  0  0  0
   -3.5318    0.6639    1.8694 C   0  0  2  0  0  0  0  0  0  0  0  0
   -4.3044   -0.5498    2.4335 C   0  0  0  0  0  0  0  0  0  0  0  0
   -4.3552   -1.6138    1.8183 O   0  0  0  0  0  0  0  0  0  0  0  0
   -4.4828    1.6211    1.1482 C   0  0  0  0  0  0  0  0  0  0  0  0
   -2.7689   -0.4161    0.1855 H   0  0  0  0  0  0  0  0  0  0  0  0
   -3.0731    1.1878    2.7143 H   0  0  0  0  0  0  0  0  0  0  0  0
   -4.9632    1.1189    0.3020 H   0  0  0  0  0  0  0  0  0  0  0  0
   -5.2607    1.9772    1.8305 H   0  0  0  0  0  0  0  0  0  0  0  0
   -3.9308    2.4878    0.7708 H   0  0  0  0  0  0  0  0  0  0  0  0
   -4.9468   -0.4549    3.6537 N   0  0  0  0  0  0  0  0  0  0  0  0
   -5.6920   -1.5510    4.2614 C   0  0  0  0  0  0  0  0  0  0  0  0
   -4.8786    0.4285    4.1517 H   0  0  0  0  0  0  0  0  0  0  0  0
   -6.5238   -1.8531    3.6163 H   0  0  0  0  0  0  0  0  0  0  0  0
   -5.0402   -2.4156    4.4251 H   0  0  0  0  0  0  0  0  0  0  0  0
   -6.1004   -1.2404    5.2280 H   0  0  0  0  0  0  0  0  0  0  0  0
  1  2  2  0  0  0  0
  1  3  1  0  0  0  0
  1  7  1  0  0  0  0
  3  4  1  0  0  0  0
  3  5  1  0  0  0  0
  3  6  1  0  0  0  0
  7  8  1  0  0  0  0
  7 12  1  0  0  0  0
  8  9  1  0  0  0  0
  8 11  1  0  0  0  0
  8 13  1  0  0  0  0
  9 10  2  0  0  0  0
  9 17  1  0  0  0  0
 11 14  1  0  0  0  0
 11 15  1  0  0  0  0
 11 16  1  0  0  0  0
 17 18  1  0  0  0  0
 17 23  1  0  0  0  0
 18 19  1  0  0  0  0
 18 21  1  0  0  0  0
 18 24  1  0  0  0  0
 19 20  2  0  0  0  0
 19 28  1  0  0  0  0
 21 22  1  0  0  0  0
 21 25  1  0  0  0  0
 21 26  1  0  0  0  0
 22 27  1  0  0  0  0
 28 29  1  0  0  0  0
 28 33  1  0  0  0  0
 29 30  1  0  0  0  0
 29 32  1  0  0  0  0
 29 34  1  0  0  0  0
 30 31  2  0  0  0  0
 30 38  1  0  0  0  0
 32 35  1  0  0  0  0
 32 36  1  0  0  0  0
 32 37  1  0  0  0  0
 38 39  1  0  0  0  0
 38 40  1  0  0  0  0
 39 41  1  0  0  0  0
 39 42  1  0  0  0  0
 39 43  1  0  0  0  0
M  END
$$$$

  -OEChem-05262216003D

 43 42  0     1  0  0  0  0  0999 V2000
   -1.6564   -4.0412    1.4987 C   0  0  0  0  0  0  0  0  0  0  0  0
   -0.5296   -4.2377    1.0662 O   0  0  0  0  0  0  0  0  0  0  0  0
   -1.9300   -4.1507    2.9861 C   0  0  0  0  0  0  0  0  0  0  0  0
   -2.9536   -4.4943    3.1558 H   0  0  0  0  0  0  0  0  0  0  0  0
   -1.2386   -4.8631    3.4443 H   0  0  0  0  0  0  0  0  0  0  0  0
   -1.8022   -3.1739    3.4592 H   0  0  0  0  0  0  0  0  0  0  0  0
   -2.6407   -3.6068    0.6359 N   0  0  0  0  0  0  0  0  0  0  0  0
   -2.4113   -3.3345   -0.7947 C   0  0  2  0  0  0  0  0  0  0  0  0
   -1.7492   -1.9521   -0.9954 C   0  0  0  0  0  0  0  0  0  0  0  0
   -2.4064   -0.9962   -1.3852 O   0  0  0  0  0  0  0  0  0  0  0  0
   -3.7617   -3.4664   -1.5091 C   0  0  0  0  0  0  0  0  0  0  0  0
   -3.4721   -3.2062    1.0827 H   0  0  0  0  0  0  0  0  0  0  0  0
   -1.7358   -4.0868   -1.2163 H   0  0  0  0  0  0  0  0  0  0  0  0
   -4.4832   -2.7458   -1.1099 H   0  0  0  0  0  0  0  0  0  0  0  0
   -3.6432   -3.2803   -2.5812 H   0  0  0  0  0  0  0  0  0  0  0  0
   -4.1661   -4.4744   -1.3749 H   0  0  0  0  0  0  0  0  0  0  0  0
   -0.5274   -1.7286   -0.3852 N   0  0  0  0  0  0  0  0  0  0  0  0
    0.0360   -0.4169    0.0125 C   0  0  2  0  0  0  0  0  0  0  0  0
   -0.8458    0.3446    1.0333 C   0  0  0  0  0  0  0  0  0  0  0  0
   -0.4520    1.3837    1.5476 O   0  0  0  0  0  0  0  0  0  0  0  0
    0.3471    0.4634   -1.2101 C   0  0  0  0  0  0  0  0  0  0  0  0
    1.6789   -0.3050   -2.2224 S   0  0  0  0  0  0  0  0  0  0  0  0
   -0.1159   -2.5641    0.0428 H   0  0  0  0  0  0  0  0  0  0  0  0
    0.9847   -0.6064    0.5238 H   0  0  0  0  0  0  0  0  0  0  0  0
   -0.5479    0.6166   -1.8197 H   0  0  0  0  0  0  0  0  0  0  0  0
    0.6858    1.4489   -0.8733 H   0  0  0  0  0  0  0  0  0  0  0  0
    1.7748    0.5901   -3.2296 H   0  0  0  0  0  0  0  0  0  0  0  0
   -2.0292   -0.2118    1.4790 N   0  0  0  0  0  0  0  0  0  0  0  0
   -2.9733    0.3795    2.4288 C   0  0  2  0  0  0  0  0  0  0  0  0
   -3.9607   -0.6861    2.9578 C   0  0  0  0  0  0  0  0  0  0  0  0
   -4.0843   -1.7692    2.3861 O   0  0  0  0  0  0  0  0  0  0  0  0
   -3.7414    1.5060    1.7272 C   0  0  0  0  0  0  0  0  0  0  0  0
   -2.3819   -0.9763    0.9062 H   0  0  0  0  0  0  0  0  0  0  0  0
   -2.4219    0.7884    3.2820 H   0  0  0  0  0  0  0  0  0  0  0  0
   -4.2810    1.1159    0.8578 H   0  0  0  0  0  0  0  0  0  0  0  0
   -4.4634    1.9643    2.4095 H   0  0  0  0  0  0  0  0  0  0  0  0
   -3.0519    2.2844    1.3858 H   0  0  0  0  0  0  0  0  0  0  0  0
   -4.7107   -0.4395    4.0926 N   0  0  0  0  0  0  0  0  0  0  0  0
   -5.6790   -1.3831    4.6390 C   0  0  0  0  0  0  0  0  0  0  0  0
   -4.6004    0.4659    4.5406 H   0  0  0  0  0  0  0  0  0  0  0  0
   -6.4888   -1.5584    3.9229 H   0  0  0  0  0  0  0  0  0  0  0  0
   -5.1971   -2.3394    4.8684 H   0  0  0  0  0  0  0  0  0  0  0  0
   -6.1136   -0.9870    5.5619 H   0  0  0  0  0  0  0  0  0  0  0  0
  1  2  2  0  0  0  0
  1  3  1  0  0  0  0
  1  7  1  0  0  0  0
  3  4  1  0  0  0  0
  3  5  1  0  0  0  0
  3  6  1  0  0  0  0
  7  8  1  0  0  0  0
  7 12  1  0  0  0  0
  8  9  1  0  0  0  0
  8 11  1  0  0  0  0
  8 13  1  0  0  0  0
  9 10  2  0  0  0  0
  9 17  1  0  0  0  0
 11 14  1  0  0  0  0
 11 15  1  0  0  0  0
 11 16  1  0  0  0  0
 17 18  1  0  0  0  0
 17 23  1  0  0  0  0
 18 19  1  0  0  0  0
 18 21  1  0  0  0  0
 18 24  1  0  0  0  0
 19 20  2  0  0  0  0
 19 28  1  0  0  0  0
 21 22  1  0  0  0  0
 21 25  1  0  0  0  0
 21 26  1  0  0  0  0
 22 27  1  0  0  0  0
 28 29  1  0  0  0  0
 28 33  1  0  0  0  0
 29 30  1  0  0  0  0
 29 32  1  0  0  0  0
 29 34  1  0  0  0  0
 30 31  2  0  0  0  0
 30 38  1  0  0  0  0
 32 35  1  0  0  0  0
 32 36  1  0  0  0  0
 32 37  1  0  0  0  0
 38 39  1  0  0  0  0
 38 40  1  0  0  0  0
 39 41  1  0  0  0  0
 39 42  1  0  0  0  0
 39 43  1  0  0  0  0
M  END
$$$$

  -OEChem-05262216003D

 43 42  0     1  0  0  0  0  0999 V2000
   -3.0909   -5.2668    0.8022 C   0  0  0  0  0  0  0  0  0  0  0  0
   -2.1384   -6.0235    0.9063 O   0  0  0  0  0  0  0  0  0  0  0  0
   -4.4257   -5.6284    1.4262 C   0  0  0  0  0  0  0  0  0  0  0  0
   -5.1876   -5.7232    0.6486 H   0  0  0  0  0  0  0  0  0  0  0  0
   -4.3468   -6.5794    1.9605 H   0  0  0  0  0  0  0  0  0  0  0  0
   -4.7291   -4.8519    2.1331 H   0  0  0  0  0  0  0  0  0  0  0  0
   -2.9534   -4.0782    0.1171 N   0  0  0  0  0  0  0  0  0  0  0  0
   -1.6726   -3.5481   -0.3667 C   0  0  2  0  0  0  0  0  0  0  0  0
   -1.6236   -2.0122   -0.2495 C   0  0  0  0  0  0  0  0  0  0  0  0
   -2.6642   -1.3658   -0.2610 O   0  0  0  0  0  0  0  0  0  0  0  0
   -1.4854   -3.9812   -1.8227 C   0  0  0  0  0  0  0  0  0  0  0  0
   -3.7388   -3.4289    0.1466 H   0  0  0  0  0  0  0  0  0  0  0  0
   -0.8518   -3.9512    0.2366 H   0  0  0  0  0  0  0  0  0  0  0  0
   -2.2916   -3.5834   -2.4476 H   0  0  0  0  0  0  0  0  0  0  0  0
   -0.5300   -3.6159   -2.2121 H   0  0  0  0  0  0  0  0  0  0  0  0
   -1.4943   -5.0737   -1.8961 H   0  0  0  0  0  0  0  0  0  0  0  0
   -0.4126   -1.3626   -0.0804 N   0  0  0  0  0  0  0  0  0  0  0  0
   -0.2008    0.1011   -0.1558 C   0  0  2  0  0  0  0  0  0  0  0  0
   -1.0062    0.9345    0.8722 C   0  0  0  0  0  0  0  0  0  0  0  0
   -1.0346    2.1570    0.7926 O   0  0  0  0  0  0  0  0  0  0  0  0
   -0.4719    0.5773   -1.5936 C   0  0  0  0  0  0  0  0  0  0  0  0
    0.7722   -0.1595   -2.7339 S   0  0  0  0  0  0  0  0  0  0  0  0
    0.4116   -1.9475   -0.1922 H   0  0  0  0  0  0  0  0  0  0  0  0
    0.8500    0.3041    0.0725 H   0  0  0  0  0  0  0  0  0  0  0  0
   -1.4858    0.3075   -1.9061 H   0  0  0  0  0  0  0  0  0  0  0  0
   -0.3919    1.6684   -1.6455 H   0  0  0  0  0  0  0  0  0  0  0  0
    0.4011    0.4026   -3.9056 H   0  0  0  0  0  0  0  0  0  0  0  0
   -1.6018    0.3275    1.9602 N   0  0  0  0  0  0  0  0  0  0  0  0
   -2.4748    0.9924    2.9325 C   0  0  2  0  0  0  0  0  0  0  0  0
   -2.6924    0.1137    4.1828 C   0  0  0  0  0  0  0  0  0  0  0  0
   -2.4705   -1.0924    4.1416 O   0  0  0  0  0  0  0  0  0  0  0  0
   -3.8243    1.2871    2.2652 C   0  0  0  0  0  0  0  0  0  0  0  0
   -1.6397   -0.6905    1.9372 H   0  0  0  0  0  0  0  0  0  0  0  0
   -2.0116    1.9305    3.2545 H   0  0  0  0  0  0  0  0  0  0  0  0
   -4.2838    0.3585    1.9104 H   0  0  0  0  0  0  0  0  0  0  0  0
   -4.5071    1.7672    2.9724 H   0  0  0  0  0  0  0  0  0  0  0  0
   -3.6926    1.9560    1.4093 H   0  0  0  0  0  0  0  0  0  0  0  0
   -3.1539    0.6753    5.3594 N   0  0  0  0  0  0  0  0  0  0  0  0
   -3.3714   -0.0904    6.5808 C   0  0  0  0  0  0  0  0  0  0  0  0
   -3.3144    1.6781    5.3708 H   0  0  0  0  0  0  0  0  0  0  0  0
   -4.0580   -0.9233    6.3949 H   0  0  0  0  0  0  0  0  0  0  0  0
   -2.4237   -0.4921    6.9545 H   0  0  0  0  0  0  0  0  0  0  0  0
   -3.8068    0.5478    7.3558 H   0  0  0  0  0  0  0  0  0  0  0  0
  1  2  2  0  0  0  0
  1  3  1  0  0  0  0
  1  7  1  0  0  0  0
  3  4  1  0  0  0  0
  3  5  1  0  0  0  0
  3  6  1  0  0  0  0
  7  8  1  0  0  0  0
  7 12  1  0  0  0  0
  8  9  1  0  0  0  0
  8 11  1  0  0  0  0
  8 13  1  0  0  0  0
  9 10  2  0  0  0  0
  9 17  1  0  0  0  0
 11 14  1  0  0  0  0
 11 15  1  0  0  0  0
 11 16  1  0  0  0  0
 17 18  1  0  0  0  0
 17 23  1  0  0  0  0
 18 19  1  0  0  0  0
 18 21  1  0  0  0  0
 18 24  1  0  0  0  0
 19 20  2  0  0  0  0
 19 28  1  0  0  0  0
 21 22  1  0  0  0  0
 21 25  1  0  0  0  0
 21 26  1  0  0  0  0
 22 27  1  0  0  0  0
 28 29  1  0  0  0  0
 28 33  1  0  0  0  0
 29 30  1  0  0  0  0
 29 32  1  0  0  0  0
 29 34  1  0  0  0  0
 30 31  2  0  0  0  0
 30 38  1  0  0  0  0
 32 35  1  0  0  0  0
 32 36  1  0  0  0  0
 32 37  1  0  0  0  0
 38 39  1  0  0  0  0
 38 40  1  0  0  0  0
 39 41  1  0  0  0  0
 39 42  1  0  0  0  0
 39 43  1  0  0  0  0
M  END
$$$$

  -OEChem-05262216003D

 43 42  0     1  0  0  0  0  0999 V2000
   -3.2520   -5.2637    0.6984 C   0  0  0  0  0  0  0  0  0  0  0  0
   -2.3303   -6.0474    0.8616 O   0  0  0  0  0  0  0  0  0  0  0  0
   -4.6453   -5.6102    1.1880 C   0  0  0  0  0  0  0  0  0  0  0  0
   -5.3495   -5.5922    0.3529 H   0  0  0  0  0  0  0  0  0  0  0  0
   -4.6511   -6.6087    1.6337 H   0  0  0  0  0  0  0  0  0  0  0  0
   -4.9661   -4.8869    1.9416 H   0  0  0  0  0  0  0  0  0  0  0  0
   -3.0253   -4.0515    0.0825 N   0  0  0  0  0  0  0  0  0  0  0  0
   -1.6940   -3.5313   -0.2528 C   0  0  2  0  0  0  0  0  0  0  0  0
   -1.6408   -1.9960   -0.1182 C   0  0  0  0  0  0  0  0  0  0  0  0
   -2.6817   -1.3500   -0.0824 O   0  0  0  0  0  0  0  0  0  0  0  0
   -1.3529   -3.9550   -1.6844 C   0  0  0  0  0  0  0  0  0  0  0  0
   -3.7935   -3.3810    0.0735 H   0  0  0  0  0  0  0  0  0  0  0  0
   -0.9494   -3.9473    0.4350 H   0  0  0  0  0  0  0  0  0  0  0  0
   -2.0793   -3.5393   -2.3903 H   0  0  0  0  0  0  0  0  0  0  0  0
   -0.3553   -3.6028   -1.9638 H   0  0  0  0  0  0  0  0  0  0  0  0
   -1.3689   -5.0462   -1.7696 H   0  0  0  0  0  0  0  0  0  0  0  0
   -0.4214   -1.3465   -0.0230 N   0  0  0  0  0  0  0  0  0  0  0  0
   -0.2248    0.1115   -0.1817 C   0  0  2  0  0  0  0  0  0  0  0  0
   -1.0105    0.9696    0.8405 C   0  0  0  0  0  0  0  0  0  0  0  0
   -1.2928    2.1388    0.6037 O   0  0  0  0  0  0  0  0  0  0  0  0
   -0.5520    0.5063   -1.6325 C   0  0  0  0  0  0  0  0  0  0  0  0
    0.6571   -0.2846   -2.7743 S   0  0  0  0  0  0  0  0  0  0  0  0
    0.3915   -1.9334   -0.1939 H   0  0  0  0  0  0  0  0  0  0  0  0
    0.8299    0.3378   -0.0010 H   0  0  0  0  0  0  0  0  0  0  0  0
   -1.5749    0.2152   -1.8921 H   0  0  0  0  0  0  0  0  0  0  0  0
   -0.4812    1.5931   -1.7471 H   0  0  0  0  0  0  0  0  0  0  0  0
    0.2396    0.2104   -3.9609 H   0  0  0  0  0  0  0  0  0  0  0  0
   -1.2803    0.4638    2.0971 N   0  0  0  0  0  0  0  0  0  0  0  0
   -2.0953    1.1284    3.1191 C   0  0  2  0  0  0  0  0  0  0  0  0
   -1.9138    0.4663    4.5011 C   0  0  0  0  0  0  0  0  0  0  0  0
   -1.4188   -0.6524    4.5930 O   0  0  0  0  0  0  0  0  0  0  0  0
   -3.5686    1.0577    2.6980 C   0  0  0  0  0  0  0  0  0  0  0  0
   -1.0670   -0.5209    2.2485 H   0  0  0  0  0  0  0  0  0  0  0  0
   -1.7880    2.1759    3.2034 H   0  0  0  0  0  0  0  0  0  0  0  0
   -3.8810    0.0152    2.5796 H   0  0  0  0  0  0  0  0  0  0  0  0
   -4.2078    1.5310    3.4489 H   0  0  0  0  0  0  0  0  0  0  0  0
   -3.7210    1.5738    1.7451 H   0  0  0  0  0  0  0  0  0  0  0  0
   -2.3151    1.1233    5.6499 N   0  0  0  0  0  0  0  0  0  0  0  0
   -2.1799    0.5539    6.9855 C   0  0  0  0  0  0  0  0  0  0  0  0
   -2.7193    2.0495    5.5462 H   0  0  0  0  0  0  0  0  0  0  0  0
   -2.7358   -0.3868    7.0597 H   0  0  0  0  0  0  0  0  0  0  0  0
   -1.1266    0.3591    7.2139 H   0  0  0  0  0  0  0  0  0  0  0  0
   -2.5739    1.2472    7.7349 H   0  0  0  0  0  0  0  0  0  0  0  0
  1  2  2  0  0  0  0
  1  3  1  0  0  0  0
  1  7  1  0  0  0  0
  3  4  1  0  0  0  0
  3  5  1  0  0  0  0
  3  6  1  0  0  0  0
  7  8  1  0  0  0  0
  7 12  1  0  0  0  0
  8  9  1  0  0  0  0
  8 11  1  0  0  0  0
  8 13  1  0  0  0  0
  9 10  2  0  0  0  0
  9 17  1  0  0  0  0
 11 14  1  0  0  0  0
 11 15  1  0  0  0  0
 11 16  1  0  0  0  0
 17 18  1  0  0  0  0
 17 23  1  0  0  0  0
 18 19  1  0  0  0  0
 18 21  1  0  0  0  0
 18 24  1  0  0  0  0
 19 20  2  0  0  0  0
 19 28  1  0  0  0  0
 21 22  1  0  0  0  0
 21 25  1  0  0  0  0
 21 26  1  0  0  0  0
 22 27  1  0  0  0  0
 28 29  1  0  0  0  0
 28 33  1  0  0  0  0
 29 30  1  0  0  0  0
 29 32  1  0  0  0  0
 29 34  1  0  0  0  0
 30 31  2  0  0  0  0
 30 38  1  0  0  0  0
 32 35  1  0  0  0  0
 32 36  1  0  0  0  0
 32 37  1  0  0  0  0
 38 39  1  0  0  0  0
 38 40  1  0  0  0  0
 39 41  1  0  0  0  0
 39 42  1  0  0  0  0
 39 43  1  0  0  0  0
M  END
$$$$

  -OEChem-05262216003D

 43 42  0     1  0  0  0  0  0999 V2000
   -3.3194   -5.2075    0.7385 C   0  0  0  0  0  0  0  0  0  0  0  0
   -2.4089   -5.9915    0.9543 O   0  0  0  0  0  0  0  0  0  0  0  0
   -4.7324   -5.5369    1.1820 C   0  0  0  0  0  0  0  0  0  0  0  0
   -5.3991   -5.5637    0.3167 H   0  0  0  0  0  0  0  0  0  0  0  0
   -4.7552   -6.5128    1.6748 H   0  0  0  0  0  0  0  0  0  0  0  0
   -5.0888   -4.7795    1.8845 H   0  0  0  0  0  0  0  0  0  0  0  0
   -3.0622   -4.0095    0.1067 N   0  0  0  0  0  0  0  0  0  0  0  0
   -1.7162   -3.5051   -0.1944 C   0  0  2  0  0  0  0  0  0  0  0  0
   -1.6547   -1.9676   -0.0910 C   0  0  0  0  0  0  0  0  0  0  0  0
   -2.6916   -1.3155   -0.0674 O   0  0  0  0  0  0  0  0  0  0  0  0
   -1.3271   -3.9634   -1.6033 C   0  0  0  0  0  0  0  0  0  0  0  0
   -3.8233   -3.3320    0.0629 H   0  0  0  0  0  0  0  0  0  0  0  0
   -0.9990   -3.9095    0.5281 H   0  0  0  0  0  0  0  0  0  0  0  0
   -2.0354   -3.5742   -2.3419 H   0  0  0  0  0  0  0  0  0  0  0  0
   -0.3248   -3.6085   -1.8620 H   0  0  0  0  0  0  0  0  0  0  0  0
   -1.3304   -5.0567   -1.6594 H   0  0  0  0  0  0  0  0  0  0  0  0
   -0.4310   -1.3256   -0.0044 N   0  0  0  0  0  0  0  0  0  0  0  0
   -0.2248    0.1261   -0.1946 C   0  0  2  0  0  0  0  0  0  0  0  0
   -1.0192    0.9907    0.8138 C   0  0  0  0  0  0  0  0  0  0  0  0
   -1.5157    2.0648    0.4929 O   0  0  0  0  0  0  0  0  0  0  0  0
   -0.5412    0.4938   -1.6548 C   0  0  0  0  0  0  0  0  0  0  0  0
    0.6692   -0.3281   -2.7732 S   0  0  0  0  0  0  0  0  0  0  0  0
    0.3766   -1.9217   -0.1657 H   0  0  0  0  0  0  0  0  0  0  0  0
    0.8293    0.3548   -0.0128 H   0  0  0  0  0  0  0  0  0  0  0  0
   -1.5648    0.2038   -1.9135 H   0  0  0  0  0  0  0  0  0  0  0  0
   -0.4633    1.5781   -1.7893 H   0  0  0  0  0  0  0  0  0  0  0  0
    0.2407    0.1198   -3.9742 H   0  0  0  0  0  0  0  0  0  0  0  0
   -1.0213    0.6318    2.1476 N   0  0  0  0  0  0  0  0  0  0  0  0
   -1.7742    1.3127    3.2063 C   0  0  2  0  0  0  0  0  0  0  0  0
   -1.2710    0.8993    4.6058 C   0  0  0  0  0  0  0  0  0  0  0  0
   -0.5638   -0.0942    4.7402 O   0  0  0  0  0  0  0  0  0  0  0  0
   -3.2603    0.9622    3.0576 C   0  0  0  0  0  0  0  0  0  0  0  0
   -0.5967   -0.2627    2.3876 H   0  0  0  0  0  0  0  0  0  0  0  0
   -1.6430    2.3953    3.1075 H   0  0  0  0  0  0  0  0  0  0  0  0
   -3.4083   -0.1192    3.1436 H   0  0  0  0  0  0  0  0  0  0  0  0
   -3.8528    1.4586    3.8316 H   0  0  0  0  0  0  0  0  0  0  0  0
   -3.6343    1.2847    2.0809 H   0  0  0  0  0  0  0  0  0  0  0  0
   -1.6117    1.6409    5.7223 N   0  0  0  0  0  0  0  0  0  0  0  0
   -1.1718    1.3047    7.0714 C   0  0  0  0  0  0  0  0  0  0  0  0
   -2.1977    2.4591    5.5835 H   0  0  0  0  0  0  0  0  0  0  0  0
   -1.5483    0.3183    7.3625 H   0  0  0  0  0  0  0  0  0  0  0  0
   -0.0780    1.2947    7.1268 H   0  0  0  0  0  0  0  0  0  0  0  0
   -1.5467    2.0430    7.7869 H   0  0  0  0  0  0  0  0  0  0  0  0
  1  2  2  0  0  0  0
  1  3  1  0  0  0  0
  1  7  1  0  0  0  0
  3  4  1  0  0  0  0
  3  5  1  0  0  0  0
  3  6  1  0  0  0  0
  7  8  1  0  0  0  0
  7 12  1  0  0  0  0
  8  9  1  0  0  0  0
  8 11  1  0  0  0  0
  8 13  1  0  0  0  0
  9 10  2  0  0  0  0
  9 17  1  0  0  0  0
 11 14  1  0  0  0  0
 11 15  1  0  0  0  0
 11 16  1  0  0  0  0
 17 18  1  0  0  0  0
 17 23  1  0  0  0  0
 18 19  1  0  0  0  0
 18 21  1  0  0  0  0
 18 24  1  0  0  0  0
 19 20  2  0  0  0  0
 19 28  1  0  0  0  0
 21 22  1  0  0  0  0
 21 25  1  0  0  0  0
 21 26  1  0  0  0  0
 22 27  1  0  0  0  0
 28 29  1  0  0  0  0
 28 33  1  0  0  0  0
 29 30  1  0  0  0  0
 29 32  1  0  0  0  0
 29 34  1  0  0  0  0
 30 31  2  0  0  0  0
 30 38  1  0  0  0  0
 32 35  1  0  0  0  0
 32 36  1  0  0  0  0
 32 37  1  0  0  0  0
 38 39  1  0  0  0  0
 38 40  1  0  0  0  0
 39 41  1  0  0  0  0
 39 42  1  0  0  0  0
 39 43  1  0  0  0  0
M  END
$$$$

  -OEChem-05262216003D

 43 42  0     1  0  0  0  0  0999 V2000
   -3.3437   -5.1984    0.7613 C   0  0  0  0  0  0  0  0  0  0  0  0
   -2.4344   -5.9727    1.0147 O   0  0  0  0  0  0  0  0  0  0  0  0
   -4.7596   -5.5150    1.2046 C   0  0  0  0  0  0  0  0  0  0  0  0
   -5.4172   -5.5833    0.3347 H   0  0  0  0  0  0  0  0  0  0  0  0
   -4.7826   -6.4684    1.7398 H   0  0  0  0  0  0  0  0  0  0  0  0
   -5.1269   -4.7295    1.8695 H   0  0  0  0  0  0  0  0  0  0  0  0
   -3.0826   -4.0226    0.0905 N   0  0  0  0  0  0  0  0  0  0  0  0
   -1.7331   -3.5192   -0.1970 C   0  0  2  0  0  0  0  0  0  0  0  0
   -1.6698   -1.9820   -0.0868 C   0  0  0  0  0  0  0  0  0  0  0  0
   -2.7065   -1.3300   -0.0756 O   0  0  0  0  0  0  0  0  0  0  0  0
   -1.3355   -3.9714   -1.6053 C   0  0  0  0  0  0  0  0  0  0  0  0
   -3.8437   -3.3469    0.0230 H   0  0  0  0  0  0  0  0  0  0  0  0
   -1.0213   -3.9281    0.5284 H   0  0  0  0  0  0  0  0  0  0  0  0
   -2.0296   -3.5650   -2.3480 H   0  0  0  0  0  0  0  0  0  0  0  0
   -0.3253   -3.6290   -1.8495 H   0  0  0  0  0  0  0  0  0  0  0  0
   -1.3539   -5.0639   -1.6712 H   0  0  0  0  0  0  0  0  0  0  0  0
   -0.4456   -1.3435    0.0169 N   0  0  0  0  0  0  0  0  0  0  0  0
   -0.2301    0.1059   -0.1734 C   0  0  2  0  0  0  0  0  0  0  0  0
   -1.0366    0.9766    0.8203 C   0  0  0  0  0  0  0  0  0  0  0  0
   -1.7110    1.9305    0.4482 O   0  0  0  0  0  0  0  0  0  0  0  0
   -0.5181    0.4707   -1.6401 C   0  0  0  0  0  0  0  0  0  0  0  0
    0.7088   -0.3581   -2.7352 S   0  0  0  0  0  0  0  0  0  0  0  0
    0.3616   -1.9430   -0.1333 H   0  0  0  0  0  0  0  0  0  0  0  0
    0.8224    0.3307    0.0232 H   0  0  0  0  0  0  0  0  0  0  0  0
   -1.5379    0.1830   -1.9167 H   0  0  0  0  0  0  0  0  0  0  0  0
   -0.4348    1.5545   -1.7747 H   0  0  0  0  0  0  0  0  0  0  0  0
    0.3104    0.1006   -3.9430 H   0  0  0  0  0  0  0  0  0  0  0  0
   -0.8170    0.8183    2.1749 N   0  0  0  0  0  0  0  0  0  0  0  0
   -1.4900    1.5770    3.2351 C   0  0  2  0  0  0  0  0  0  0  0  0
   -0.7301    1.4666    4.5738 C   0  0  0  0  0  0  0  0  0  0  0  0
    0.1426    0.6168    4.7208 O   0  0  0  0  0  0  0  0  0  0  0  0
   -2.9187    1.0405    3.3901 C   0  0  0  0  0  0  0  0  0  0  0  0
   -0.2160    0.0497    2.4684 H   0  0  0  0  0  0  0  0  0  0  0  0
   -1.5265    2.6359    2.9584 H   0  0  0  0  0  0  0  0  0  0  0  0
   -2.9011   -0.0221    3.6532 H   0  0  0  0  0  0  0  0  0  0  0  0
   -3.4526    1.5856    4.1741 H   0  0  0  0  0  0  0  0  0  0  0  0
   -3.4742    1.1557    2.4537 H   0  0  0  0  0  0  0  0  0  0  0  0
   -1.0238    2.3220    5.6198 N   0  0  0  0  0  0  0  0  0  0  0  0
   -0.3461    2.2707    6.9097 C   0  0  0  0  0  0  0  0  0  0  0  0
   -1.7461    3.0204    5.4688 H   0  0  0  0  0  0  0  0  0  0  0  0
   -0.4690    1.2839    7.3686 H   0  0  0  0  0  0  0  0  0  0  0  0
    0.7236    2.4723    6.7892 H   0  0  0  0  0  0  0  0  0  0  0  0
   -0.7651    3.0206    7.5875 H   0  0  0  0  0  0  0  0  0  0  0  0
  1  2  2  0  0  0  0
  1  3  1  0  0  0  0
  1  7  1  0  0  0  0
  3  4  1  0  0  0  0
  3  5  1  0  0  0  0
  3  6  1  0  0  0  0
  7  8  1  0  0  0  0
  7 12  1  0  0  0  0
  8  9  1  0  0  0  0
  8 11  1  0  0  0  0
  8 13  1  0  0  0  0
  9 10  2  0  0  0  0
  9 17  1  0  0  0  0
 11 14  1  0  0  0  0
 11 15  1  0  0  0  0
 11 16  1  0  0  0  0
 17 18  1  0  0  0  0
 17 23  1  0  0  0  0
 18 19  1  0  0  0  0
 18 21  1  0  0  0  0
 18 24  1  0  0  0  0
 19 20  2  0  0  0  0
 19 28  1  0  0  0  0
 21 22  1  0  0  0  0
 21 25  1  0  0  0  0
 21 26  1  0  0  0  0
 22 27  1  0  0  0  0
 28 29  1  0  0  0  0
 28 33  1  0  0  0  0
 29 30  1  0  0  0  0
 29 32  1  0  0  0  0
 29 34  1  0  0  0  0
 30 31  2  0  0  0  0
 30 38  1  0  0  0  0
 32 35  1  0  0  0  0
 32 36  1  0  0  0  0
 32 37  1  0  0  0  0
 38 39  1  0  0  0  0
 38 40  1  0  0  0  0
 39 41  1  0  0  0  0
 39 42  1  0  0  0  0
 39 43  1  0  0  0  0
M  END
$$$$

  -OEChem-05262216003D

 43 42  0     1  0  0  0  0  0999 V2000
   -3.3513   -5.2367    0.7448 C   0  0  0  0  0  0  0  0  0  0  0  0
   -2.4387   -6.0075    0.9975 O   0  0  0  0  0  0  0  0  0  0  0  0
   -4.7693   -5.5675    1.1693 C   0  0  0  0  0  0  0  0  0  0  0  0
   -5.4169   -5.6274    0.2914 H   0  0  0  0  0  0  0  0  0  0  0  0
   -4.7925   -6.5284    1.6908 H   0  0  0  0  0  0  0  0  0  0  0  0
   -5.1478   -4.7929    1.8407 H   0  0  0  0  0  0  0  0  0  0  0  0
   -3.0930   -4.0531    0.0877 N   0  0  0  0  0  0  0  0  0  0  0  0
   -1.7465   -3.5452   -0.2023 C   0  0  2  0  0  0  0  0  0  0  0  0
   -1.6860   -2.0093   -0.0767 C   0  0  0  0  0  0  0  0  0  0  0  0
   -2.7234   -1.3596   -0.0897 O   0  0  0  0  0  0  0  0  0  0  0  0
   -1.3614   -3.9829   -1.6183 C   0  0  0  0  0  0  0  0  0  0  0  0
   -3.8573   -3.3812    0.0180 H   0  0  0  0  0  0  0  0  0  0  0  0
   -1.0288   -3.9609    0.5132 H   0  0  0  0  0  0  0  0  0  0  0  0
   -2.0626   -3.5685   -2.3500 H   0  0  0  0  0  0  0  0  0  0  0  0
   -0.3533   -3.6380   -1.8677 H   0  0  0  0  0  0  0  0  0  0  0  0
   -1.3818   -5.0748   -1.6952 H   0  0  0  0  0  0  0  0  0  0  0  0
   -0.4640   -1.3731    0.0601 N   0  0  0  0  0  0  0  0  0  0  0  0
   -0.2367    0.0765   -0.1125 C   0  0  2  0  0  0  0  0  0  0  0  0
   -1.0567    0.9544    0.8642 C   0  0  0  0  0  0  0  0  0  0  0  0
   -1.8810    1.7702    0.4667 O   0  0  0  0  0  0  0  0  0  0  0  0
   -0.4919    0.4548   -1.5814 C   0  0  0  0  0  0  0  0  0  0  0  0
    0.7524   -0.3698   -2.6596 S   0  0  0  0  0  0  0  0  0  0  0  0
    0.3454   -1.9749   -0.0663 H   0  0  0  0  0  0  0  0  0  0  0  0
    0.8139    0.2917    0.1037 H   0  0  0  0  0  0  0  0  0  0  0  0
   -1.5069    0.1726   -1.8807 H   0  0  0  0  0  0  0  0  0  0  0  0
   -0.4042    1.5397   -1.7028 H   0  0  0  0  0  0  0  0  0  0  0  0
    0.3843    0.1067   -3.8699 H   0  0  0  0  0  0  0  0  0  0  0  0
   -0.6632    1.0265    2.1870 N   0  0  0  0  0  0  0  0  0  0  0  0
   -1.2642    1.9010    3.2008 C   0  0  2  0  0  0  0  0  0  0  0  0
   -0.3117    2.1133    4.3962 C   0  0  0  0  0  0  0  0  0  0  0  0
    0.6791    1.4020    4.5298 O   0  0  0  0  0  0  0  0  0  0  0  0
   -2.5801    1.2698    3.6709 C   0  0  0  0  0  0  0  0  0  0  0  0
    0.0884    0.4112    2.4953 H   0  0  0  0  0  0  0  0  0  0  0  0
   -1.4684    2.8834    2.7617 H   0  0  0  0  0  0  0  0  0  0  0  0
   -2.3961    0.2811    4.1034 H   0  0  0  0  0  0  0  0  0  0  0  0
   -3.0608    1.8982    4.4263 H   0  0  0  0  0  0  0  0  0  0  0  0
   -3.2711    1.1569    2.8292 H   0  0  0  0  0  0  0  0  0  0  0  0
   -0.5610    3.1080    5.3237 N   0  0  0  0  0  0  0  0  0  0  0  0
    0.2988    3.3651    6.4725 C   0  0  0  0  0  0  0  0  0  0  0  0
   -1.3830    3.6882    5.1833 H   0  0  0  0  0  0  0  0  0  0  0  0
    0.3685    2.4744    7.1060 H   0  0  0  0  0  0  0  0  0  0  0  0
    1.3053    3.6428    6.1424 H   0  0  0  0  0  0  0  0  0  0  0  0
   -0.1067    4.1852    7.0730 H   0  0  0  0  0  0  0  0  0  0  0  0
  1  2  2  0  0  0  0
  1  3  1  0  0  0  0
  1  7  1  0  0  0  0
  3  4  1  0  0  0  0
  3  5  1  0  0  0  0
  3  6  1  0  0  0  0
  7  8  1  0  0  0  0
  7 12  1  0  0  0  0
  8  9  1  0  0  0  0
  8 11  1  0  0  0  0
  8 13  1  0  0  0  0
  9 10  2  0  0  0  0
  9 17  1  0  0  0  0
 11 14  1  0  0  0  0
 11 15  1  0  0  0  0
 11 16  1  0  0  0  0
 17 18  1  0  0  0  0
 17 23  1  0  0  0  0
 18 19  1  0  0  0  0
 18 21  1  0  0  0  0
 18 24  1  0  0  0  0
 19 20  2  0  0  0  0
 19 28  1  0  0  0  0
 21 22  1  0  0  0  0
 21 25  1  0  0  0  0
 21 26  1  0  0  0  0
 22 27  1  0  0  0  0
 28 29  1  0  0  0  0
 28 33  1  0  0  0  0
 29 30  1  0  0  0  0
 29 32  1  0  0  0  0
 29 34  1  0  0  0  0
 30 31  2  0  0  0  0
 30 38  1  0  0  0  0
 32 35  1  0  0  0  0
 32 36  1  0  0  0  0
 32 37  1  0  0  0  0
 38 39  1  0  0  0  0
 38 40  1  0  0  0  0
 39 41  1  0  0  0  0
 39 42  1  0  0  0  0
 39 43  1  0  0  0  0
M  END
$$$$

  -OEChem-05262216003D

 43 42  0     1  0  0  0  0  0999 V2000
   -3.3438   -5.2169    0.8000 C   0  0  0  0  0  0  0  0  0  0  0  0
   -2.4254   -5.9580    1.1137 O   0  0  0  0  0  0  0  0  0  0  0  0
   -4.7647   -5.5474    1.2156 C   0  0  0  0  0  0  0  0  0  0  0  0
   -5.3818   -5.7145    0.3297 H   0  0  0  0  0  0  0  0  0  0  0  0
   -4.7766   -6.4518    1.8306 H   0  0  0  0  0  0  0  0  0  0  0  0
   -5.1867   -4.7225    1.7949 H   0  0  0  0  0  0  0  0  0  0  0  0
   -3.0889   -4.0694    0.0799 N   0  0  0  0  0  0  0  0  0  0  0  0
   -1.7432   -3.5545   -0.2038 C   0  0  2  0  0  0  0  0  0  0  0  0
   -1.6970   -2.0158   -0.1091 C   0  0  0  0  0  0  0  0  0  0  0  0
   -2.7385   -1.3774   -0.1747 O   0  0  0  0  0  0  0  0  0  0  0  0
   -1.3376   -4.0187   -1.6051 C   0  0  0  0  0  0  0  0  0  0  0  0
   -3.8597   -3.4113   -0.0356 H   0  0  0  0  0  0  0  0  0  0  0  0
   -1.0292   -3.9480    0.5277 H   0  0  0  0  0  0  0  0  0  0  0  0
   -2.0380   -3.6336   -2.3534 H   0  0  0  0  0  0  0  0  0  0  0  0
   -0.3329   -3.6635   -1.8536 H   0  0  0  0  0  0  0  0  0  0  0  0
   -1.3399   -5.1122   -1.6556 H   0  0  0  0  0  0  0  0  0  0  0  0
   -0.4828   -1.3719    0.0588 N   0  0  0  0  0  0  0  0  0  0  0  0
   -0.2466    0.0801   -0.0810 C   0  0  2  0  0  0  0  0  0  0  0  0
   -1.0740    0.9566    0.8923 C   0  0  0  0  0  0  0  0  0  0  0  0
   -2.0387    1.6116    0.5154 O   0  0  0  0  0  0  0  0  0  0  0  0
   -0.4746    0.4907   -1.5452 C   0  0  0  0  0  0  0  0  0  0  0  0
    0.7852   -0.3164   -2.6191 S   0  0  0  0  0  0  0  0  0  0  0  0
    0.3326   -1.9733   -0.0208 H   0  0  0  0  0  0  0  0  0  0  0  0
    0.8034    0.2808    0.1515 H   0  0  0  0  0  0  0  0  0  0  0  0
   -1.4845    0.2169   -1.8686 H   0  0  0  0  0  0  0  0  0  0  0  0
   -0.3838    1.5780   -1.6403 H   0  0  0  0  0  0  0  0  0  0  0  0
    0.4225    0.1638   -3.8294 H   0  0  0  0  0  0  0  0  0  0  0  0
   -0.5408    1.2639    2.1304 N   0  0  0  0  0  0  0  0  0  0  0  0
   -1.1124    2.2233    3.0836 C   0  0  2  0  0  0  0  0  0  0  0  0
   -0.0474    2.7297    4.0780 C   0  0  0  0  0  0  0  0  0  0  0  0
    1.0355    2.1595    4.1646 O   0  0  0  0  0  0  0  0  0  0  0  0
   -2.2639    1.5424    3.8332 C   0  0  0  0  0  0  0  0  0  0  0  0
    0.3355    0.8183    2.3983 H   0  0  0  0  0  0  0  0  0  0  0  0
   -1.4961    3.0944    2.5421 H   0  0  0  0  0  0  0  0  0  0  0  0
   -1.8991    0.6665    4.3793 H   0  0  0  0  0  0  0  0  0  0  0  0
   -2.7214    2.2331    4.5478 H   0  0  0  0  0  0  0  0  0  0  0  0
   -3.0370    1.2159    3.1300 H   0  0  0  0  0  0  0  0  0  0  0  0
   -0.2958    3.8373    4.8673 N   0  0  0  0  0  0  0  0  0  0  0  0
    0.6732    4.3810    5.8111 C   0  0  0  0  0  0  0  0  0  0  0  0
   -1.1958    4.2975    4.7638 H   0  0  0  0  0  0  0  0  0  0  0  0
    0.9223    3.6382    6.5764 H   0  0  0  0  0  0  0  0  0  0  0  0
    1.5918    4.6725    5.2908 H   0  0  0  0  0  0  0  0  0  0  0  0
    0.2622    5.2649    6.3084 H   0  0  0  0  0  0  0  0  0  0  0  0
  1  2  2  0  0  0  0
  1  3  1  0  0  0  0
  1  7  1  0  0  0  0
  3  4  1  0  0  0  0
  3  5  1  0  0  0  0
  3  6  1  0  0  0  0
  7  8  1  0  0  0  0
  7 12  1  0  0  0  0
  8  9  1  0  0  0  0
  8 11  1  0  0  0  0
  8 13  1  0  0  0  0
  9 10  2  0  0  0  0
  9 17  1  0  0  0  0
 11 14  1  0  0  0  0
 11 15  1  0  0  0  0
 11 16  1  0  0  0  0
 17 18  1  0  0  0  0
 17 23  1  0  0  0  0
 18 19  1  0  0  0  0
 18 21  1  0  0  0  0
 18 24  1  0  0  0  0
 19 20  2  0  0  0  0
 19 28  1  0  0  0  0
 21 22  1  0  0  0  0
 21 25  1  0  0  0  0
 21 26  1  0  0  0  0
 22 27  1  0  0  0  0
 28 29  1  0  0  0  0
 28 33  1  0  0  0  0
 29 30  1  0  0  0  0
 29 32  1  0  0  0  0
 29 34  1  0  0  0  0
 30 31  2  0  0  0  0
 30 38  1  0  0  0  0
 32 35  1  0  0  0  0
 32 36  1  0  0  0  0
 32 37  1  0  0  0  0
 38 39  1  0  0  0  0
 38 40  1  0  0  0  0
 39 41  1  0  0  0  0
 39 42  1  0  0  0  0
 39 43  1  0  0  0  0
M  END
$$$$

  -OEChem-05262216003D

 43 42  0     1  0  0  0  0  0999 V2000
   -3.3333   -5.0887    0.9729 C   0  0  0  0  0  0  0  0  0  0  0  0
   -2.4324   -5.7424    1.4752 O   0  0  0  0  0  0  0  0  0  0  0  0
   -4.7778   -5.3761    1.3367 C   0  0  0  0  0  0  0  0  0  0  0  0
   -5.3282   -5.6983    0.4494 H   0  0  0  0  0  0  0  0  0  0  0  0
   -4.8281   -6.1670    2.0904 H   0  0  0  0  0  0  0  0  0  0  0  0
   -5.2467   -4.4756    1.7409 H   0  0  0  0  0  0  0  0  0  0  0  0
   -3.0422   -4.0767    0.0835 N   0  0  0  0  0  0  0  0  0  0  0  0
   -1.6899   -3.5599   -0.1651 C   0  0  2  0  0  0  0  0  0  0  0  0
   -1.6789   -2.0178   -0.2114 C   0  0  0  0  0  0  0  0  0  0  0  0
   -2.7293   -1.4184   -0.3920 O   0  0  0  0  0  0  0  0  0  0  0  0
   -1.1912   -4.1456   -1.4882 C   0  0  0  0  0  0  0  0  0  0  0  0
   -3.8120   -3.4595   -0.1752 H   0  0  0  0  0  0  0  0  0  0  0  0
   -1.0140   -3.8652    0.6408 H   0  0  0  0  0  0  0  0  0  0  0  0
   -1.8464   -3.8433   -2.3114 H   0  0  0  0  0  0  0  0  0  0  0  0
   -0.1767   -3.7980   -1.7051 H   0  0  0  0  0  0  0  0  0  0  0  0
   -1.1783   -5.2390   -1.4360 H   0  0  0  0  0  0  0  0  0  0  0  0
   -0.4860   -1.3354   -0.0406 N   0  0  0  0  0  0  0  0  0  0  0  0
   -0.2753    0.1241   -0.1470 C   0  0  2  0  0  0  0  0  0  0  0  0
   -1.1014    0.9801    0.8460 C   0  0  0  0  0  0  0  0  0  0  0  0
   -2.2088    1.4215    0.5670 O   0  0  0  0  0  0  0  0  0  0  0  0
   -0.5225    0.5784   -1.5942 C   0  0  0  0  0  0  0  0  0  0  0  0
    0.7379   -0.1718   -2.7074 S   0  0  0  0  0  0  0  0  0  0  0  0
    0.3451   -1.9189   -0.0154 H   0  0  0  0  0  0  0  0  0  0  0  0
    0.7754    0.3284    0.0768 H   0  0  0  0  0  0  0  0  0  0  0  0
   -1.5304    0.2982   -1.9182 H   0  0  0  0  0  0  0  0  0  0  0  0
   -0.4523    1.6695   -1.6535 H   0  0  0  0  0  0  0  0  0  0  0  0
    0.3356    0.3188   -3.9009 H   0  0  0  0  0  0  0  0  0  0  0  0
   -0.4596    1.5363    1.9379 N   0  0  0  0  0  0  0  0  0  0  0  0
   -1.0381    2.5380    2.8432 C   0  0  2  0  0  0  0  0  0  0  0  0
    0.0643    3.3052    3.6041 C   0  0  0  0  0  0  0  0  0  0  0  0
    1.2322    2.9357    3.5319 O   0  0  0  0  0  0  0  0  0  0  0  0
   -1.9754    1.8288    3.8283 C   0  0  0  0  0  0  0  0  0  0  0  0
    0.5188    1.2955    2.0929 H   0  0  0  0  0  0  0  0  0  0  0  0
   -1.6086    3.2714    2.2631 H   0  0  0  0  0  0  0  0  0  0  0  0
   -1.4225    1.0899    4.4172 H   0  0  0  0  0  0  0  0  0  0  0  0
   -2.4333    2.5492    4.5124 H   0  0  0  0  0  0  0  0  0  0  0  0
   -2.7769    1.3142    3.2886 H   0  0  0  0  0  0  0  0  0  0  0  0
   -0.2481    4.4195    4.3612 N   0  0  0  0  0  0  0  0  0  0  0  0
    0.7459    5.1966    5.0922 C   0  0  0  0  0  0  0  0  0  0  0  0
   -1.2194    4.7170    4.3830 H   0  0  0  0  0  0  0  0  0  0  0  0
    1.3432    4.5448    5.7388 H   0  0  0  0  0  0  0  0  0  0  0  0
    1.4164    5.7133    4.3974 H   0  0  0  0  0  0  0  0  0  0  0  0
    0.2533    5.9451    5.7204 H   0  0  0  0  0  0  0  0  0  0  0  0
  1  2  2  0  0  0  0
  1  3  1  0  0  0  0
  1  7  1  0  0  0  0
  3  4  1  0  0  0  0
  3  5  1  0  0  0  0
  3  6  1  0  0  0  0
  7  8  1  0  0  0  0
  7 12  1  0  0  0  0
  8  9  1  0  0  0  0
  8 11  1  0  0  0  0
  8 13  1  0  0  0  0
  9 10  2  0  0  0  0
  9 17  1  0  0  0  0
 11 14  1  0  0  0  0
 11 15  1  0  0  0  0
 11 16  1  0  0  0  0
 17 18  1  0  0  0  0
 17 23  1  0  0  0  0
 18 19  1  0  0  0  0
 18 21  1  0  0  0  0
 18 24  1  0  0  0  0
 19 20  2  0  0  0  0
 19 28  1  0  0  0  0
 21 22  1  0  0  0  0
 21 25  1  0  0  0  0
 21 26  1  0  0  0  0
 22 27  1  0  0  0  0
 28 29  1  0  0  0  0
 28 33  1  0  0  0  0
 29 30  1  0  0  0  0
 29 32  1  0  0  0  0
 29 34  1  0  0  0  0
 30 31  2  0  0  0  0
 30 38  1  0  0  0  0
 32 35  1  0  0  0  0
 32 36  1  0  0  0  0
 32 37  1  0  0  0  0
 38 39  1  0  0  0  0
 38 40  1  0  0  0  0
 39 41  1  0  0  0  0
 39 42  1  0  0  0  0
 39 43  1  0  0  0  0
M  END
$$$$

  -OEChem-05262216003D

 43 42  0     1  0  0  0  0  0999 V2000
   -3.3625   -4.9806    1.0595 C   0  0  0  0  0  0  0  0  0  0  0  0
   -2.4877   -5.5859    1.6594 O   0  0  0  0  0  0  0  0  0  0  0  0
   -4.8240   -5.2630    1.3530 C   0  0  0  0  0  0  0  0  0  0  0  0
   -5.3249   -5.6115    0.4467 H   0  0  0  0  0  0  0  0  0  0  0  0
   -4.9135   -6.0337    2.1238 H   0  0  0  0  0  0  0  0  0  0  0  0
   -5.3163   -4.3532    1.7050 H   0  0  0  0  0  0  0  0  0  0  0  0
   -3.0266   -4.0318    0.1181 N   0  0  0  0  0  0  0  0  0  0  0  0
   -1.6642   -3.5304   -0.1014 C   0  0  2  0  0  0  0  0  0  0  0  0
   -1.6588   -2.0030   -0.3188 C   0  0  0  0  0  0  0  0  0  0  0  0
   -2.6921   -1.4502   -0.6692 O   0  0  0  0  0  0  0  0  0  0  0  0
   -1.0805   -4.2516   -1.3187 C   0  0  0  0  0  0  0  0  0  0  0  0
   -3.7827   -3.4448   -0.2346 H   0  0  0  0  0  0  0  0  0  0  0  0
   -1.0411   -3.7380    0.7751 H   0  0  0  0  0  0  0  0  0  0  0  0
   -1.6848   -4.0486   -2.2087 H   0  0  0  0  0  0  0  0  0  0  0  0
   -0.0565   -3.9176   -1.5103 H   0  0  0  0  0  0  0  0  0  0  0  0
   -1.0650   -5.3324   -1.1460 H   0  0  0  0  0  0  0  0  0  0  0  0
   -0.4792   -1.2959   -0.1502 N   0  0  0  0  0  0  0  0  0  0  0  0
   -0.2860    0.1693   -0.2210 C   0  0  2  0  0  0  0  0  0  0  0  0
   -1.0967    1.0056    0.8008 C   0  0  0  0  0  0  0  0  0  0  0  0
   -2.3102    1.1419    0.7399 O   0  0  0  0  0  0  0  0  0  0  0  0
   -0.5608    0.6776   -1.6446 C   0  0  0  0  0  0  0  0  0  0  0  0
    0.6865   -0.0170   -2.8076 S   0  0  0  0  0  0  0  0  0  0  0  0
    0.3393   -1.8606    0.0544 H   0  0  0  0  0  0  0  0  0  0  0  0
    0.7684    0.3686   -0.0105 H   0  0  0  0  0  0  0  0  0  0  0  0
   -1.5714    0.4032   -1.9640 H   0  0  0  0  0  0  0  0  0  0  0  0
   -0.4991    1.7708   -1.6633 H   0  0  0  0  0  0  0  0  0  0  0  0
    0.2282    0.4715   -3.9815 H   0  0  0  0  0  0  0  0  0  0  0  0
   -0.4121    1.8007    1.7024 N   0  0  0  0  0  0  0  0  0  0  0  0
   -1.0289    2.7840    2.6023 C   0  0  2  0  0  0  0  0  0  0  0  0
   -0.0028    3.8448    3.0552 C   0  0  0  0  0  0  0  0  0  0  0  0
    1.1890    3.6899    2.8080 O   0  0  0  0  0  0  0  0  0  0  0  0
   -1.6084    2.0463    3.8151 C   0  0  0  0  0  0  0  0  0  0  0  0
    0.6067    1.8054    1.6596 H   0  0  0  0  0  0  0  0  0  0  0  0
   -1.8343    3.3079    2.0763 H   0  0  0  0  0  0  0  0  0  0  0  0
   -0.8158    1.5224    4.3588 H   0  0  0  0  0  0  0  0  0  0  0  0
   -2.0945    2.7496    4.4975 H   0  0  0  0  0  0  0  0  0  0  0  0
   -2.3534    1.3111    3.4943 H   0  0  0  0  0  0  0  0  0  0  0  0
   -0.4125    4.9788    3.7323 N   0  0  0  0  0  0  0  0  0  0  0  0
    0.5069    6.0107    4.1972 C   0  0  0  0  0  0  0  0  0  0  0  0
   -1.4061    5.0854    3.9153 H   0  0  0  0  0  0  0  0  0  0  0  0
    1.2490    5.5840    4.8803 H   0  0  0  0  0  0  0  0  0  0  0  0
    1.0296    6.4681    3.3506 H   0  0  0  0  0  0  0  0  0  0  0  0
   -0.0406    6.7944    4.7296 H   0  0  0  0  0  0  0  0  0  0  0  0
  1  2  2  0  0  0  0
  1  3  1  0  0  0  0
  1  7  1  0  0  0  0
  3  4  1  0  0  0  0
  3  5  1  0  0  0  0
  3  6  1  0  0  0  0
  7  8  1  0  0  0  0
  7 12  1  0  0  0  0
  8  9  1  0  0  0  0
  8 11  1  0  0  0  0
  8 13  1  0  0  0  0
  9 10  2  0  0  0  0
  9 17  1  0  0  0  0
 11 14  1  0  0  0  0
 11 15  1  0  0  0  0
 11 16  1  0  0  0  0
 17 18  1  0  0  0  0
 17 23  1  0  0  0  0
 18 19  1  0  0  0  0
 18 21  1  0  0  0  0
 18 24  1  0  0  0  0
 19 20  2  0  0  0  0
 19 28  1  0  0  0  0
 21 22  1  0  0  0  0
 21 25  1  0  0  0  0
 21 26  1  0  0  0  0
 22 27  1  0  0  0  0
 28 29  1  0  0  0  0
 28 33  1  0  0  0  0
 29 30  1  0  0  0  0
 29 32  1  0  0  0  0
 29 34  1  0  0  0  0
 30 31  2  0  0  0  0
 30 38  1  0  0  0  0
 32 35  1  0  0  0  0
 32 36  1  0  0  0  0
 32 37  1  0  0  0  0
 38 39  1  0  0  0  0
 38 40  1  0  0  0  0
 39 41  1  0  0  0  0
 39 42  1  0  0  0  0
 39 43  1  0  0  0  0
M  END
$$$$

  -OEChem-05262216003D

 43 42  0     1  0  0  0  0  0999 V2000
   -3.5297   -4.8301    1.0360 C   0  0  0  0  0  0  0  0  0  0  0  0
   -2.7159   -5.4844    1.6698 O   0  0  0  0  0  0  0  0  0  0  0  0
   -5.0159   -5.0524    1.2435 C   0  0  0  0  0  0  0  0  0  0  0  0
   -5.4822   -5.3563    0.3030 H   0  0  0  0  0  0  0  0  0  0  0  0
   -5.1802   -5.8361    1.9883 H   0  0  0  0  0  0  0  0  0  0  0  0
   -5.4855   -4.1295    1.5931 H   0  0  0  0  0  0  0  0  0  0  0  0
   -3.1008   -3.8821    0.1325 N   0  0  0  0  0  0  0  0  0  0  0  0
   -1.7040   -3.4606   -0.0266 C   0  0  2  0  0  0  0  0  0  0  0  0
   -1.6085   -1.9684   -0.4082 C   0  0  0  0  0  0  0  0  0  0  0  0
   -2.5822   -1.4177   -0.9086 O   0  0  0  0  0  0  0  0  0  0  0  0
   -1.0535   -4.3362   -1.1019 C   0  0  0  0  0  0  0  0  0  0  0  0
   -3.8071   -3.2674   -0.2728 H   0  0  0  0  0  0  0  0  0  0  0  0
   -1.1694   -3.5909    0.9203 H   0  0  0  0  0  0  0  0  0  0  0  0
   -1.5772   -4.2208   -2.0564 H   0  0  0  0  0  0  0  0  0  0  0  0
   -0.0052   -4.0575   -1.2439 H   0  0  0  0  0  0  0  0  0  0  0  0
   -1.0934   -5.3896   -0.8073 H   0  0  0  0  0  0  0  0  0  0  0  0
   -0.4076   -1.2950   -0.2414 N   0  0  0  0  0  0  0  0  0  0  0  0
   -0.2113    0.1714   -0.2826 C   0  0  2  0  0  0  0  0  0  0  0  0
   -0.9975    0.9907    0.7724 C   0  0  0  0  0  0  0  0  0  0  0  0
   -2.1301    0.7073    1.1361 O   0  0  0  0  0  0  0  0  0  0  0  0
   -0.4718    0.7385   -1.6865 C   0  0  0  0  0  0  0  0  0  0  0  0
    0.7813    0.0803   -2.8634 S   0  0  0  0  0  0  0  0  0  0  0  0
    0.3465   -1.8499    0.1503 H   0  0  0  0  0  0  0  0  0  0  0  0
    0.8461    0.3478   -0.0656 H   0  0  0  0  0  0  0  0  0  0  0  0
   -1.4801    0.4877   -2.0280 H   0  0  0  0  0  0  0  0  0  0  0  0
   -0.3991    1.8309   -1.6646 H   0  0  0  0  0  0  0  0  0  0  0  0
    0.3153    0.5790   -4.0293 H   0  0  0  0  0  0  0  0  0  0  0  0
   -0.3404    1.9963    1.4588 N   0  0  0  0  0  0  0  0  0  0  0  0
   -0.9724    2.8842    2.4439 C   0  0  2  0  0  0  0  0  0  0  0  0
   -0.3316    4.2878    2.4232 C   0  0  0  0  0  0  0  0  0  0  0  0
    0.7064    4.4778    1.7974 O   0  0  0  0  0  0  0  0  0  0  0  0
   -0.8332    2.2453    3.8292 C   0  0  0  0  0  0  0  0  0  0  0  0
    0.5623    2.3027    1.0959 H   0  0  0  0  0  0  0  0  0  0  0  0
   -2.0348    3.0076    2.2072 H   0  0  0  0  0  0  0  0  0  0  0  0
    0.2229    2.1204    4.0885 H   0  0  0  0  0  0  0  0  0  0  0  0
   -1.3083    2.8697    4.5917 H   0  0  0  0  0  0  0  0  0  0  0  0
   -1.3142    1.2620    3.8423 H   0  0  0  0  0  0  0  0  0  0  0  0
   -0.9256    5.3430    3.0903 N   0  0  0  0  0  0  0  0  0  0  0  0
   -0.3852    6.6971    3.0888 C   0  0  0  0  0  0  0  0  0  0  0  0
   -1.7972    5.1608    3.5798 H   0  0  0  0  0  0  0  0  0  0  0  0
    0.6346    6.7038    3.4883 H   0  0  0  0  0  0  0  0  0  0  0  0
   -0.3677    7.1013    2.0711 H   0  0  0  0  0  0  0  0  0  0  0  0
   -1.0033    7.3517    3.7109 H   0  0  0  0  0  0  0  0  0  0  0  0
  1  2  2  0  0  0  0
  1  3  1  0  0  0  0
  1  7  1  0  0  0  0
  3  4  1  0  0  0  0
  3  5  1  0  0  0  0
  3  6  1  0  0  0  0
  7  8  1  0  0  0  0
  7 12  1  0  0  0  0
  8  9  1  0  0  0  0
  8 11  1  0  0  0  0
  8 13  1  0  0  0  0
  9 10  2  0  0  0  0
  9 17  1  0  0  0  0
 11 14  1  0  0  0  0
 11 15  1  0  0  0  0
 11 16  1  0  0  0  0
 17 18  1  0  0  0  0
 17 23  1  0  0  0  0
 18 19  1  0  0  0  0
 18 21  1  0  0  0  0
 18 24  1  0  0  0  0
 19 20  2  0  0  0  0
 19 28  1  0  0  0  0
 21 22  1  0  0  0  0
 21 25  1  0  0  0  0
 21 26  1  0  0  0  0
 22 27  1  0  0  0  0
 28 29  1  0  0  0  0
 28 33  1  0  0  0  0
 29 30  1  0  0  0  0
 29 32  1  0  0  0  0
 29 34  1  0  0  0  0
 30 31  2  0  0  0  0
 30 38  1  0  0  0  0
 32 35  1  0  0  0  0
 32 36  1  0  0  0  0
 32 37  1  0  0  0  0
 38 39  1  0  0  0  0
 38 40  1  0  0  0  0
 39 41  1  0  0  0  0
 39 42  1  0  0  0  0
 39 43  1  0  0  0  0
M  END
$$$$

  -OEChem-05262216003D

 43 42  0     1  0  0  0  0  0999 V2000
   -3.5557   -4.7931    1.0343 C   0  0  0  0  0  0  0  0  0  0  0  0
   -2.7539   -5.4691    1.6605 O   0  0  0  0  0  0  0  0  0  0  0  0
   -5.0454   -4.9913    1.2403 C   0  0  0  0  0  0  0  0  0  0  0  0
   -5.5218   -5.2484    0.2911 H   0  0  0  0  0  0  0  0  0  0  0  0
   -5.2231   -5.7999    1.9550 H   0  0  0  0  0  0  0  0  0  0  0  0
   -5.4929   -4.0726    1.6279 H   0  0  0  0  0  0  0  0  0  0  0  0
   -3.1100   -3.8417    0.1426 N   0  0  0  0  0  0  0  0  0  0  0  0
   -1.7071   -3.4357   -0.0006 C   0  0  2  0  0  0  0  0  0  0  0  0
   -1.5892   -1.9498   -0.3991 C   0  0  0  0  0  0  0  0  0  0  0  0
   -2.5557   -1.3831   -0.8982 O   0  0  0  0  0  0  0  0  0  0  0  0
   -1.0461   -4.3296   -1.0545 C   0  0  0  0  0  0  0  0  0  0  0  0
   -3.8055   -3.2118   -0.2574 H   0  0  0  0  0  0  0  0  0  0  0  0
   -1.1896   -3.5597    0.9566 H   0  0  0  0  0  0  0  0  0  0  0  0
   -1.5482   -4.2167   -2.0208 H   0  0  0  0  0  0  0  0  0  0  0  0
    0.0085   -4.0653   -1.1770 H   0  0  0  0  0  0  0  0  0  0  0  0
   -1.1045   -5.3800   -0.7519 H   0  0  0  0  0  0  0  0  0  0  0  0
   -0.3805   -1.2909   -0.2335 N   0  0  0  0  0  0  0  0  0  0  0  0
   -0.1802    0.1732   -0.2997 C   0  0  2  0  0  0  0  0  0  0  0  0
   -0.9749    1.0076    0.7365 C   0  0  0  0  0  0  0  0  0  0  0  0
   -1.9278    0.5583    1.3598 O   0  0  0  0  0  0  0  0  0  0  0  0
   -0.4195    0.7158   -1.7188 C   0  0  0  0  0  0  0  0  0  0  0  0
    0.8468    0.0353   -2.8681 S   0  0  0  0  0  0  0  0  0  0  0  0
    0.3520   -1.8387    0.2062 H   0  0  0  0  0  0  0  0  0  0  0  0
    0.8737    0.3527   -0.0697 H   0  0  0  0  0  0  0  0  0  0  0  0
   -1.4232    0.4611   -2.0710 H   0  0  0  0  0  0  0  0  0  0  0  0
   -0.3437    1.8079   -1.7170 H   0  0  0  0  0  0  0  0  0  0  0  0
    0.4067    0.5301   -4.0459 H   0  0  0  0  0  0  0  0  0  0  0  0
   -0.4366    2.2033    1.1772 N   0  0  0  0  0  0  0  0  0  0  0  0
   -1.0850    3.1039    2.1398 C   0  0  2  0  0  0  0  0  0  0  0  0
   -0.7629    4.5805    1.8260 C   0  0  0  0  0  0  0  0  0  0  0  0
    0.0955    4.8568    0.9941 O   0  0  0  0  0  0  0  0  0  0  0  0
   -0.6093    2.7314    3.5476 C   0  0  0  0  0  0  0  0  0  0  0  0
    0.3158    2.6113    0.6222 H   0  0  0  0  0  0  0  0  0  0  0  0
   -2.1731    2.9891    2.0826 H   0  0  0  0  0  0  0  0  0  0  0  0
    0.4763    2.8477    3.6275 H   0  0  0  0  0  0  0  0  0  0  0  0
   -1.0852    3.3704    4.2976 H   0  0  0  0  0  0  0  0  0  0  0  0
   -0.8659    1.6908    3.7705 H   0  0  0  0  0  0  0  0  0  0  0  0
   -1.4450    5.6011    2.4624 N   0  0  0  0  0  0  0  0  0  0  0  0
   -1.2058    7.0138    2.1927 C   0  0  0  0  0  0  0  0  0  0  0  0
   -2.1656    5.3421    3.1302 H   0  0  0  0  0  0  0  0  0  0  0  0
   -0.1571    7.2678    2.3796 H   0  0  0  0  0  0  0  0  0  0  0  0
   -1.4453    7.2510    1.1508 H   0  0  0  0  0  0  0  0  0  0  0  0
   -1.8316    7.6345    2.8413 H   0  0  0  0  0  0  0  0  0  0  0  0
  1  2  2  0  0  0  0
  1  3  1  0  0  0  0
  1  7  1  0  0  0  0
  3  4  1  0  0  0  0
  3  5  1  0  0  0  0
  3  6  1  0  0  0  0
  7  8  1  0  0  0  0
  7 12  1  0  0  0  0
  8  9  1  0  0  0  0
  8 11  1  0  0  0  0
  8 13  1  0  0  0  0
  9 10  2  0  0  0  0
  9 17  1  0  0  0  0
 11 14  1  0  0  0  0
 11 15  1  0  0  0  0
 11 16  1  0  0  0  0
 17 18  1  0  0  0  0
 17 23  1  0  0  0  0
 18 19  1  0  0  0  0
 18 21  1  0  0  0  0
 18 24  1  0  0  0  0
 19 20  2  0  0  0  0
 19 28  1  0  0  0  0
 21 22  1  0  0  0  0
 21 25  1  0  0  0  0
 21 26  1  0  0  0  0
 22 27  1  0  0  0  0
 28 29  1  0  0  0  0
 28 33  1  0  0  0  0
 29 30  1  0  0  0  0
 29 32  1  0  0  0  0
 29 34  1  0  0  0  0
 30 31  2  0  0  0  0
 30 38  1  0  0  0  0
 32 35  1  0  0  0  0
 32 36  1  0  0  0  0
 32 37  1  0  0  0  0
 38 39  1  0  0  0  0
 38 40  1  0  0  0  0
 39 41  1  0  0  0  0
 39 42  1  0  0  0  0
 39 43  1  0  0  0  0
M  END
$$$$

  -OEChem-05262216003D

 43 42  0     1  0  0  0  0  0999 V2000
   -3.6005   -4.7505    0.9976 C   0  0  0  0  0  0  0  0  0  0  0  0
   -2.8200   -5.4644    1.6082 O   0  0  0  0  0  0  0  0  0  0  0  0
   -5.0965   -4.9185    1.1880 C   0  0  0  0  0  0  0  0  0  0  0  0
   -5.5768   -5.1078    0.2249 H   0  0  0  0  0  0  0  0  0  0  0  0
   -5.3003   -5.7611    1.8549 H   0  0  0  0  0  0  0  0  0  0  0  0
   -5.5197   -4.0113    1.6262 H   0  0  0  0  0  0  0  0  0  0  0  0
   -3.1245   -3.7823    0.1402 N   0  0  0  0  0  0  0  0  0  0  0  0
   -1.7119   -3.3992    0.0288 C   0  0  2  0  0  0  0  0  0  0  0  0
   -1.5648   -1.9129   -0.3602 C   0  0  0  0  0  0  0  0  0  0  0  0
   -2.5331   -1.3076   -0.8103 O   0  0  0  0  0  0  0  0  0  0  0  0
   -1.0411   -4.2988   -1.0141 C   0  0  0  0  0  0  0  0  0  0  0  0
   -3.8017   -3.1227   -0.2431 H   0  0  0  0  0  0  0  0  0  0  0  0
   -1.2184   -3.5345    0.9976 H   0  0  0  0  0  0  0  0  0  0  0  0
   -1.5152   -4.1690   -1.9922 H   0  0  0  0  0  0  0  0  0  0  0  0
    0.0215   -4.0555   -1.1066 H   0  0  0  0  0  0  0  0  0  0  0  0
   -1.1288   -5.3496   -0.7207 H   0  0  0  0  0  0  0  0  0  0  0  0
   -0.3396   -1.2808   -0.2157 N   0  0  0  0  0  0  0  0  0  0  0  0
   -0.1212    0.1788   -0.3004 C   0  0  2  0  0  0  0  0  0  0  0  0
   -0.9012    1.0158    0.7444 C   0  0  0  0  0  0  0  0  0  0  0  0
   -1.6456    0.5000    1.5699 O   0  0  0  0  0  0  0  0  0  0  0  0
   -0.3669    0.7062   -1.7266 C   0  0  0  0  0  0  0  0  0  0  0  0
    0.8809   -0.0061   -2.8765 S   0  0  0  0  0  0  0  0  0  0  0  0
    0.3922   -1.8382    0.2128 H   0  0  0  0  0  0  0  0  0  0  0  0
    0.9351    0.3543   -0.0774 H   0  0  0  0  0  0  0  0  0  0  0  0
   -1.3759    0.4589   -2.0682 H   0  0  0  0  0  0  0  0  0  0  0  0
   -0.2784    1.7970   -1.7445 H   0  0  0  0  0  0  0  0  0  0  0  0
    0.4520    0.4948   -4.0558 H   0  0  0  0  0  0  0  0  0  0  0  0
   -0.5367    2.3333    0.9534 N   0  0  0  0  0  0  0  0  0  0  0  0
   -1.2315    3.2483    1.8682 C   0  0  2  0  0  0  0  0  0  0  0  0
   -1.2831    4.6761    1.2854 C   0  0  0  0  0  0  0  0  0  0  0  0
   -0.6140    4.9572    0.2961 O   0  0  0  0  0  0  0  0  0  0  0  0
   -0.5014    3.2331    3.2141 C   0  0  0  0  0  0  0  0  0  0  0  0
    0.0326    2.7765    0.2325 H   0  0  0  0  0  0  0  0  0  0  0  0
   -2.2657    2.9182    2.0146 H   0  0  0  0  0  0  0  0  0  0  0  0
    0.5379    3.5534    3.0890 H   0  0  0  0  0  0  0  0  0  0  0  0
   -0.9905    3.9042    3.9264 H   0  0  0  0  0  0  0  0  0  0  0  0
   -0.5070    2.2223    3.6348 H   0  0  0  0  0  0  0  0  0  0  0  0
   -2.0965    5.6402    1.8512 N   0  0  0  0  0  0  0  0  0  0  0  0
   -2.2290    6.9891    1.3138 C   0  0  0  0  0  0  0  0  0  0  0  0
   -2.6673    5.3685    2.6466 H   0  0  0  0  0  0  0  0  0  0  0  0
   -1.2514    7.4801    1.2637 H   0  0  0  0  0  0  0  0  0  0  0  0
   -2.6603    6.9597    0.3077 H   0  0  0  0  0  0  0  0  0  0  0  0
   -2.8833    7.5893    1.9534 H   0  0  0  0  0  0  0  0  0  0  0  0
  1  2  2  0  0  0  0
  1  3  1  0  0  0  0
  1  7  1  0  0  0  0
  3  4  1  0  0  0  0
  3  5  1  0  0  0  0
  3  6  1  0  0  0  0
  7  8  1  0  0  0  0
  7 12  1  0  0  0  0
  8  9  1  0  0  0  0
  8 11  1  0  0  0  0
  8 13  1  0  0  0  0
  9 10  2  0  0  0  0
  9 17  1  0  0  0  0
 11 14  1  0  0  0  0
 11 15  1  0  0  0  0
 11 16  1  0  0  0  0
 17 18  1  0  0  0  0
 17 23  1  0  0  0  0
 18 19  1  0  0  0  0
 18 21  1  0  0  0  0
 18 24  1  0  0  0  0
 19 20  2  0  0  0  0
 19 28  1  0  0  0  0
 21 22  1  0  0  0  0
 21 25  1  0  0  0  0
 21 26  1  0  0  0  0
 22 27  1  0  0  0  0
 28 29  1  0  0  0  0
 28 33  1  0  0  0  0
 29 30  1  0  0  0  0
 29 32  1  0  0  0  0
 29 34  1  0  0  0  0
 30 31  2  0  0  0  0
 30 38  1  0  0  0  0
 32 35  1  0  0  0  0
 32 36  1  0  0  0  0
 32 37  1  0  0  0  0
 38 39  1  0  0  0  0
 38 40  1  0  0  0  0
 39 41  1  0  0  0  0
 39 42  1  0  0  0  0
 39 43  1  0  0  0  0
M  END
$$$$

  -OEChem-05262216003D

 43 42  0     1  0  0  0  0  0999 V2000
   -3.5205   -4.9004    1.0108 C   0  0  0  0  0  0  0  0  0  0  0  0
   -2.6786   -5.6574    1.4682 O   0  0  0  0  0  0  0  0  0  0  0  0
   -4.9916   -5.1326    1.3001 C   0  0  0  0  0  0  0  0  0  0  0  0
   -5.5389   -5.2697    0.3643 H   0  0  0  0  0  0  0  0  0  0  0  0
   -5.1188   -6.0264    1.9174 H   0  0  0  0  0  0  0  0  0  0  0  0
   -5.4059   -4.2741    1.8342 H   0  0  0  0  0  0  0  0  0  0  0  0
   -3.1366   -3.8255    0.2382 N   0  0  0  0  0  0  0  0  0  0  0  0
   -1.7447   -3.4001    0.0459 C   0  0  2  0  0  0  0  0  0  0  0  0
   -1.6442   -1.8777   -0.1893 C   0  0  0  0  0  0  0  0  0  0  0  0
   -2.6603   -1.2357   -0.4360 O   0  0  0  0  0  0  0  0  0  0  0  0
   -1.1602   -4.1669   -1.1454 C   0  0  0  0  0  0  0  0  0  0  0  0
   -3.8558   -3.1466   -0.0103 H   0  0  0  0  0  0  0  0  0  0  0  0
   -1.1641   -3.6301    0.9459 H   0  0  0  0  0  0  0  0  0  0  0  0
   -1.7249   -3.9457   -2.0569 H   0  0  0  0  0  0  0  0  0  0  0  0
   -0.1145   -3.8888   -1.3077 H   0  0  0  0  0  0  0  0  0  0  0  0
   -1.2044   -5.2450   -0.9609 H   0  0  0  0  0  0  0  0  0  0  0  0
   -0.4136   -1.2502   -0.0881 N   0  0  0  0  0  0  0  0  0  0  0  0
   -0.1408    0.1895   -0.2883 C   0  0  2  0  0  0  0  0  0  0  0  0
   -0.6142    1.0705    0.8941 C   0  0  0  0  0  0  0  0  0  0  0  0
   -1.0079    0.5746    1.9436 O   0  0  0  0  0  0  0  0  0  0  0  0
   -0.6453    0.7093   -1.6509 C   0  0  0  0  0  0  0  0  0  0  0  0
    0.2927   -0.1089   -3.0064 S   0  0  0  0  0  0  0  0  0  0  0  0
    0.3611   -1.8397    0.1989 H   0  0  0  0  0  0  0  0  0  0  0  0
    0.9467    0.3058   -0.3042 H   0  0  0  0  0  0  0  0  0  0  0  0
   -1.7177    0.5397   -1.7738 H   0  0  0  0  0  0  0  0  0  0  0  0
   -0.4841    1.7888   -1.7252 H   0  0  0  0  0  0  0  0  0  0  0  0
   -0.3370    0.3970   -4.0898 H   0  0  0  0  0  0  0  0  0  0  0  0
   -0.4300    2.4408    0.8550 N   0  0  0  0  0  0  0  0  0  0  0  0
   -0.9372    3.3768    1.8660 C   0  0  2  0  0  0  0  0  0  0  0  0
   -1.2886    4.7387    1.2293 C   0  0  0  0  0  0  0  0  0  0  0  0
   -0.9509    4.9802    0.0744 O   0  0  0  0  0  0  0  0  0  0  0  0
    0.1246    3.5452    2.9576 C   0  0  0  0  0  0  0  0  0  0  0  0
   -0.1682    2.8524   -0.0404 H   0  0  0  0  0  0  0  0  0  0  0  0
   -1.8541    2.9768    2.3124 H   0  0  0  0  0  0  0  0  0  0  0  0
    1.0455    3.9589    2.5348 H   0  0  0  0  0  0  0  0  0  0  0  0
   -0.2333    4.2187    3.7419 H   0  0  0  0  0  0  0  0  0  0  0  0
    0.3551    2.5780    3.4154 H   0  0  0  0  0  0  0  0  0  0  0  0
   -1.9931    5.6904    1.9435 N   0  0  0  0  0  0  0  0  0  0  0  0
   -2.3675    6.9883    1.3948 C   0  0  0  0  0  0  0  0  0  0  0  0
   -2.2775    5.4553    2.8901 H   0  0  0  0  0  0  0  0  0  0  0  0
   -1.4753    7.5559    1.1098 H   0  0  0  0  0  0  0  0  0  0  0  0
   -3.0026    6.8618    0.5117 H   0  0  0  0  0  0  0  0  0  0  0  0
   -2.9223    7.5682    2.1387 H   0  0  0  0  0  0  0  0  0  0  0  0
  1  2  2  0  0  0  0
  1  3  1  0  0  0  0
  1  7  1  0  0  0  0
  3  4  1  0  0  0  0
  3  5  1  0  0  0  0
  3  6  1  0  0  0  0
  7  8  1  0  0  0  0
  7 12  1  0  0  0  0
  8  9  1  0  0  0  0
  8 11  1  0  0  0  0
  8 13  1  0  0  0  0
  9 10  2  0  0  0  0
  9 17  1  0  0  0  0
 11 14  1  0  0  0  0
 11 15  1  0  0  0  0
 11 16  1  0  0  0  0
 17 18  1  0  0  0  0
 17 23  1  0  0  0  0
 18 19  1  0  0  0  0
 18 21  1  0  0  0  0
 18 24  1  0  0  0  0
 19 20  2  0  0  0  0
 19 28  1  0  0  0  0
 21 22  1  0  0  0  0
 21 25  1  0  0  0  0
 21 26  1  0  0  0  0
 22 27  1  0  0  0  0
 28 29  1  0  0  0  0
 28 33  1  0  0  0  0
 29 30  1  0  0  0  0
 29 32  1  0  0  0  0
 29 34  1  0  0  0  0
 30 31  2  0  0  0  0
 30 38  1  0  0  0  0
 32 35  1  0  0  0  0
 32 36  1  0  0  0  0
 32 37  1  0  0  0  0
 38 39  1  0  0  0  0
 38 40  1  0  0  0  0
 39 41  1  0  0  0  0
 39 42  1  0  0  0  0
 39 43  1  0  0  0  0
M  END
$$$$

  -OEChem-05262216003D

 43 42  0     1  0  0  0  0  0999 V2000
   -3.4974   -4.8963    1.0230 C   0  0  0  0  0  0  0  0  0  0  0  0
   -2.6490   -5.6520    1.4703 O   0  0  0  0  0  0  0  0  0  0  0  0
   -4.9669   -5.1486    1.3037 C   0  0  0  0  0  0  0  0  0  0  0  0
   -5.5111   -5.2678    0.3638 H   0  0  0  0  0  0  0  0  0  0  0  0
   -5.0875   -6.0586    1.8980 H   0  0  0  0  0  0  0  0  0  0  0  0
   -5.3906   -4.3075    1.8578 H   0  0  0  0  0  0  0  0  0  0  0  0
   -3.1223   -3.8082    0.2646 N   0  0  0  0  0  0  0  0  0  0  0  0
   -1.7333   -3.3792    0.0586 C   0  0  2  0  0  0  0  0  0  0  0  0
   -1.6357   -1.8549   -0.1659 C   0  0  0  0  0  0  0  0  0  0  0  0
   -2.6517   -1.2104   -0.4068 O   0  0  0  0  0  0  0  0  0  0  0  0
   -1.1650   -4.1338   -1.1482 C   0  0  0  0  0  0  0  0  0  0  0  0
   -3.8477   -3.1369    0.0141 H   0  0  0  0  0  0  0  0  0  0  0  0
   -1.1404   -3.6175    0.9482 H   0  0  0  0  0  0  0  0  0  0  0  0
   -1.7460   -3.9082   -2.0481 H   0  0  0  0  0  0  0  0  0  0  0  0
   -0.1235   -3.8494   -1.3261 H   0  0  0  0  0  0  0  0  0  0  0  0
   -1.2012   -5.2135   -0.9718 H   0  0  0  0  0  0  0  0  0  0  0  0
   -0.4088   -1.2217   -0.0642 N   0  0  0  0  0  0  0  0  0  0  0  0
   -0.1412    0.2117   -0.3073 C   0  0  2  0  0  0  0  0  0  0  0  0
   -0.6465    1.1121    0.8480 C   0  0  0  0  0  0  0  0  0  0  0  0
   -0.8075    0.6528    1.9733 O   0  0  0  0  0  0  0  0  0  0  0  0
   -0.6227    0.6731   -1.7000 C   0  0  0  0  0  0  0  0  0  0  0  0
    0.3481   -0.1882   -3.0048 S   0  0  0  0  0  0  0  0  0  0  0  0
    0.3707   -1.8029    0.2278 H   0  0  0  0  0  0  0  0  0  0  0  0
    0.9447    0.3405   -0.3058 H   0  0  0  0  0  0  0  0  0  0  0  0
   -1.6917    0.4911   -1.8367 H   0  0  0  0  0  0  0  0  0  0  0  0
   -0.4630    1.7489   -1.8172 H   0  0  0  0  0  0  0  0  0  0  0  0
   -0.2543    0.2828   -4.1191 H   0  0  0  0  0  0  0  0  0  0  0  0
   -0.7727    2.4801    0.6829 N   0  0  0  0  0  0  0  0  0  0  0  0
   -1.3415    3.3919    1.6832 C   0  0  2  0  0  0  0  0  0  0  0  0
   -2.0055    4.6096    1.0043 C   0  0  0  0  0  0  0  0  0  0  0  0
   -1.8498    4.8012   -0.1980 O   0  0  0  0  0  0  0  0  0  0  0  0
   -0.2251    3.8416    2.6322 C   0  0  0  0  0  0  0  0  0  0  0  0
   -0.7214    2.8433   -0.2681 H   0  0  0  0  0  0  0  0  0  0  0  0
   -2.1174    2.8717    2.2555 H   0  0  0  0  0  0  0  0  0  0  0  0
    0.5577    4.3697    2.0786 H   0  0  0  0  0  0  0  0  0  0  0  0
   -0.6200    4.5103    3.4028 H   0  0  0  0  0  0  0  0  0  0  0  0
    0.2229    2.9747    3.1281 H   0  0  0  0  0  0  0  0  0  0  0  0
   -2.7887    5.4844    1.7347 N   0  0  0  0  0  0  0  0  0  0  0  0
   -3.4631    6.6366    1.1482 C   0  0  0  0  0  0  0  0  0  0  0  0
   -2.9238    5.2839    2.7215 H   0  0  0  0  0  0  0  0  0  0  0  0
   -2.7469    7.2714    0.6156 H   0  0  0  0  0  0  0  0  0  0  0  0
   -4.2364    6.3110    0.4444 H   0  0  0  0  0  0  0  0  0  0  0  0
   -3.9366    7.2364    1.9314 H   0  0  0  0  0  0  0  0  0  0  0  0
  1  2  2  0  0  0  0
  1  3  1  0  0  0  0
  1  7  1  0  0  0  0
  3  4  1  0  0  0  0
  3  5  1  0  0  0  0
  3  6  1  0  0  0  0
  7  8  1  0  0  0  0
  7 12  1  0  0  0  0
  8  9  1  0  0  0  0
  8 11  1  0  0  0  0
  8 13  1  0  0  0  0
  9 10  2  0  0  0  0
  9 17  1  0  0  0  0
 11 14  1  0  0  0  0
 11 15  1  0  0  0  0
 11 16  1  0  0  0  0
 17 18  1  0  0  0  0
 17 23  1  0  0  0  0
 18 19  1  0  0  0  0
 18 21  1  0  0  0  0
 18 24  1  0  0  0  0
 19 20  2  0  0  0  0
 19 28  1  0  0  0  0
 21 22  1  0  0  0  0
 21 25  1  0  0  0  0
 21 26  1  0  0  0  0
 22 27  1  0  0  0  0
 28 29  1  0  0  0  0
 28 33  1  0  0  0  0
 29 30  1  0  0  0  0
 29 32  1  0  0  0  0
 29 34  1  0  0  0  0
 30 31  2  0  0  0  0
 30 38  1  0  0  0  0
 32 35  1  0  0  0  0
 32 36  1  0  0  0  0
 32 37  1  0  0  0  0
 38 39  1  0  0  0  0
 38 40  1  0  0  0  0
 39 41  1  0  0  0  0
 39 42  1  0  0  0  0
 39 43  1  0  0  0  0
M  END
$$$$

  -OEChem-05262216003D

 43 42  0     1  0  0  0  0  0999 V2000
   -3.5194   -4.8777    0.9961 C   0  0  0  0  0  0  0  0  0  0  0  0
   -2.6760   -5.6491    1.4255 O   0  0  0  0  0  0  0  0  0  0  0  0
   -4.9911   -5.1360    1.2597 C   0  0  0  0  0  0  0  0  0  0  0  0
   -5.5249   -5.2499    0.3131 H   0  0  0  0  0  0  0  0  0  0  0  0
   -5.1140   -6.0513    1.8455 H   0  0  0  0  0  0  0  0  0  0  0  0
   -5.4236   -4.3013    1.8170 H   0  0  0  0  0  0  0  0  0  0  0  0
   -3.1354   -3.7673    0.2748 N   0  0  0  0  0  0  0  0  0  0  0  0
   -1.7427   -3.3380    0.0939 C   0  0  2  0  0  0  0  0  0  0  0  0
   -1.6379   -1.8119   -0.1081 C   0  0  0  0  0  0  0  0  0  0  0  0
   -2.6518   -1.1506   -0.3110 O   0  0  0  0  0  0  0  0  0  0  0  0
   -1.1561   -4.0735   -1.1159 C   0  0  0  0  0  0  0  0  0  0  0  0
   -3.8571   -3.0869    0.0382 H   0  0  0  0  0  0  0  0  0  0  0  0
   -1.1633   -3.5895    0.9890 H   0  0  0  0  0  0  0  0  0  0  0  0
   -1.7239   -3.8332   -2.0202 H   0  0  0  0  0  0  0  0  0  0  0  0
   -0.1123   -3.7858   -1.2739 H   0  0  0  0  0  0  0  0  0  0  0  0
   -1.1935   -5.1558   -0.9576 H   0  0  0  0  0  0  0  0  0  0  0  0
   -0.4043   -1.1906   -0.0268 N   0  0  0  0  0  0  0  0  0  0  0  0
   -0.1295    0.2306   -0.3185 C   0  0  2  0  0  0  0  0  0  0  0  0
   -0.6354    1.1552    0.8157 C   0  0  0  0  0  0  0  0  0  0  0  0
   -0.5626    0.7886    1.9833 O   0  0  0  0  0  0  0  0  0  0  0  0
   -0.6061    0.6432   -1.7276 C   0  0  0  0  0  0  0  0  0  0  0  0
    0.3629   -0.2683   -2.9998 S   0  0  0  0  0  0  0  0  0  0  0  0
    0.3851   -1.7864    0.2022 H   0  0  0  0  0  0  0  0  0  0  0  0
    0.9568    0.3600   -0.3168 H   0  0  0  0  0  0  0  0  0  0  0  0
   -1.6762    0.4614   -1.8601 H   0  0  0  0  0  0  0  0  0  0  0  0
   -0.4368    1.7131   -1.8801 H   0  0  0  0  0  0  0  0  0  0  0  0
   -0.2305    0.1695   -4.1328 H   0  0  0  0  0  0  0  0  0  0  0  0
   -1.0580    2.4480    0.5632 N   0  0  0  0  0  0  0  0  0  0  0  0
   -1.6842    3.3228    1.5616 C   0  0  2  0  0  0  0  0  0  0  0  0
   -2.6833    4.2917    0.8943 C   0  0  0  0  0  0  0  0  0  0  0  0
   -2.6949    4.4153   -0.3266 O   0  0  0  0  0  0  0  0  0  0  0  0
   -0.5848    4.0996    2.2932 C   0  0  0  0  0  0  0  0  0  0  0  0
   -1.2335    2.6958   -0.4099 H   0  0  0  0  0  0  0  0  0  0  0  0
   -2.2439    2.7177    2.2834 H   0  0  0  0  0  0  0  0  0  0  0  0
   -0.0145    4.7119    1.5874 H   0  0  0  0  0  0  0  0  0  0  0  0
   -1.0186    4.7555    3.0538 H   0  0  0  0  0  0  0  0  0  0  0  0
    0.1034    3.4076    2.7890 H   0  0  0  0  0  0  0  0  0  0  0  0
   -3.5760    5.0205    1.6581 N   0  0  0  0  0  0  0  0  0  0  0  0
   -4.5578    5.9344    1.0866 C   0  0  0  0  0  0  0  0  0  0  0  0
   -3.5663    4.8730    2.6632 H   0  0  0  0  0  0  0  0  0  0  0  0
   -4.0623    6.6981    0.4775 H   0  0  0  0  0  0  0  0  0  0  0  0
   -5.2689    5.3889    0.4574 H   0  0  0  0  0  0  0  0  0  0  0  0
   -5.1150    6.4375    1.8827 H   0  0  0  0  0  0  0  0  0  0  0  0
  1  2  2  0  0  0  0
  1  3  1  0  0  0  0
  1  7  1  0  0  0  0
  3  4  1  0  0  0  0
  3  5  1  0  0  0  0
  3  6  1  0  0  0  0
  7  8  1  0  0  0  0
  7 12  1  0  0  0  0
  8  9  1  0  0  0  0
  8 11  1  0  0  0  0
  8 13  1  0  0  0  0
  9 10  2  0  0  0  0
  9 17  1  0  0  0  0
 11 14  1  0  0  0  0
 11 15  1  0  0  0  0
 11 16  1  0  0  0  0
 17 18  1  0  0  0  0
 17 23  1  0  0  0  0
 18 19  1  0  0  0  0
 18 21  1  0  0  0  0
 18 24  1  0  0  0  0
 19 20  2  0  0  0  0
 19 28  1  0  0  0  0
 21 22  1  0  0  0  0
 21 25  1  0  0  0  0
 21 26  1  0  0  0  0
 22 27  1  0  0  0  0
 28 29  1  0  0  0  0
 28 33  1  0  0  0  0
 29 30  1  0  0  0  0
 29 32  1  0  0  0  0
 29 34  1  0  0  0  0
 30 31  2  0  0  0  0
 30 38  1  0  0  0  0
 32 35  1  0  0  0  0
 32 36  1  0  0  0  0
 32 37  1  0  0  0  0
 38 39  1  0  0  0  0
 38 40  1  0  0  0  0
 39 41  1  0  0  0  0
 39 42  1  0  0  0  0
 39 43  1  0  0  0  0
M  END
$$$$

  -OEChem-05262216003D

 43 42  0     1  0  0  0  0  0999 V2000
   -3.4877   -4.9026    0.9918 C   0  0  0  0  0  0  0  0  0  0  0  0
   -2.6353   -5.6637    1.4216 O   0  0  0  0  0  0  0  0  0  0  0  0
   -4.9567   -5.1786    1.2508 C   0  0  0  0  0  0  0  0  0  0  0  0
   -5.4856   -5.3025    0.3027 H   0  0  0  0  0  0  0  0  0  0  0  0
   -5.0704   -6.0928    1.8399 H   0  0  0  0  0  0  0  0  0  0  0  0
   -5.4009   -4.3465    1.8023 H   0  0  0  0  0  0  0  0  0  0  0  0
   -3.1177   -3.7857    0.2736 N   0  0  0  0  0  0  0  0  0  0  0  0
   -1.7304   -3.3420    0.0861 C   0  0  2  0  0  0  0  0  0  0  0  0
   -1.6396   -1.8102   -0.0774 C   0  0  0  0  0  0  0  0  0  0  0  0
   -2.6592   -1.1525   -0.2611 O   0  0  0  0  0  0  0  0  0  0  0  0
   -1.1587   -4.0458   -1.1496 C   0  0  0  0  0  0  0  0  0  0  0  0
   -3.8479   -3.1118    0.0447 H   0  0  0  0  0  0  0  0  0  0  0  0
   -1.1361   -3.6125    0.9657 H   0  0  0  0  0  0  0  0  0  0  0  0
   -1.7432   -3.7908   -2.0395 H   0  0  0  0  0  0  0  0  0  0  0  0
   -0.1197   -3.7472   -1.3187 H   0  0  0  0  0  0  0  0  0  0  0  0
   -1.1862   -5.1318   -1.0142 H   0  0  0  0  0  0  0  0  0  0  0  0
   -0.4150   -1.1734    0.0163 N   0  0  0  0  0  0  0  0  0  0  0  0
   -0.1581    0.2451   -0.3008 C   0  0  2  0  0  0  0  0  0  0  0  0
   -0.7018    1.1813    0.8038 C   0  0  0  0  0  0  0  0  0  0  0  0
   -0.4266    0.9549    1.9765 O   0  0  0  0  0  0  0  0  0  0  0  0
   -0.6156    0.6191   -1.7259 C   0  0  0  0  0  0  0  0  0  0  0  0
    0.3914   -0.3035   -2.9591 S   0  0  0  0  0  0  0  0  0  0  0  0
    0.3878   -1.7657    0.2059 H   0  0  0  0  0  0  0  0  0  0  0  0
    0.9255    0.3949   -0.2816 H   0  0  0  0  0  0  0  0  0  0  0  0
   -1.6790    0.4119   -1.8740 H   0  0  0  0  0  0  0  0  0  0  0  0
   -0.4636    1.6899   -1.8943 H   0  0  0  0  0  0  0  0  0  0  0  0
   -0.1759    0.1162   -4.1119 H   0  0  0  0  0  0  0  0  0  0  0  0
   -1.4174    2.3262    0.5032 N   0  0  0  0  0  0  0  0  0  0  0  0
   -2.0769    3.1763    1.5009 C   0  0  2  0  0  0  0  0  0  0  0  0
   -3.3039    3.8891    0.8928 C   0  0  0  0  0  0  0  0  0  0  0  0
   -3.4611    3.9090   -0.3241 O   0  0  0  0  0  0  0  0  0  0  0  0
   -1.0641    4.2013    2.0222 C   0  0  0  0  0  0  0  0  0  0  0  0
   -1.7679    2.4132   -0.4505 H   0  0  0  0  0  0  0  0  0  0  0  0
   -2.4322    2.5584    2.3327 H   0  0  0  0  0  0  0  0  0  0  0  0
   -0.6999    4.8287    1.2023 H   0  0  0  0  0  0  0  0  0  0  0  0
   -1.5226    4.8457    2.7781 H   0  0  0  0  0  0  0  0  0  0  0  0
   -0.2085    3.6930    2.4780 H   0  0  0  0  0  0  0  0  0  0  0  0
   -4.2366    4.5052    1.7068 N   0  0  0  0  0  0  0  0  0  0  0  0
   -5.4301    5.1687    1.1955 C   0  0  0  0  0  0  0  0  0  0  0  0
   -4.1017    4.4390    2.7115 H   0  0  0  0  0  0  0  0  0  0  0  0
   -5.1584    5.9403    0.4673 H   0  0  0  0  0  0  0  0  0  0  0  0
   -6.0929    4.4444    0.7106 H   0  0  0  0  0  0  0  0  0  0  0  0
   -5.9777    5.6463    2.0136 H   0  0  0  0  0  0  0  0  0  0  0  0
  1  2  2  0  0  0  0
  1  3  1  0  0  0  0
  1  7  1  0  0  0  0
  3  4  1  0  0  0  0
  3  5  1  0  0  0  0
  3  6  1  0  0  0  0
  7  8  1  0  0  0  0
  7 12  1  0  0  0  0
  8  9  1  0  0  0  0
  8 11  1  0  0  0  0
  8 13  1  0  0  0  0
  9 10  2  0  0  0  0
  9 17  1  0  0  0  0
 11 14  1  0  0  0  0
 11 15  1  0  0  0  0
 11 16  1  0  0  0  0
 17 18  1  0  0  0  0
 17 23  1  0  0  0  0
 18 19  1  0  0  0  0
 18 21  1  0  0  0  0
 18 24  1  0  0  0  0
 19 20  2  0  0  0  0
 19 28  1  0  0  0  0
 21 22  1  0  0  0  0
 21 25  1  0  0  0  0
 21 26  1  0  0  0  0
 22 27  1  0  0  0  0
 28 29  1  0  0  0  0
 28 33  1  0  0  0  0
 29 30  1  0  0  0  0
 29 32  1  0  0  0  0
 29 34  1  0  0  0  0
 30 31  2  0  0  0  0
 30 38  1  0  0  0  0
 32 35  1  0  0  0  0
 32 36  1  0  0  0  0
 32 37  1  0  0  0  0
 38 39  1  0  0  0  0
 38 40  1  0  0  0  0
 39 41  1  0  0  0  0
 39 42  1  0  0  0  0
 39 43  1  0  0  0  0
M  END
$$$$

  -OEChem-05262216003D

 43 42  0     1  0  0  0  0  0999 V2000
   -3.4567   -4.9380    0.9754 C   0  0  0  0  0  0  0  0  0  0  0  0
   -2.5925   -5.6916    1.3947 O   0  0  0  0  0  0  0  0  0  0  0  0
   -4.9204   -5.2322    1.2451 C   0  0  0  0  0  0  0  0  0  0  0  0
   -5.4531   -5.3675    0.3006 H   0  0  0  0  0  0  0  0  0  0  0  0
   -5.0185   -6.1452    1.8393 H   0  0  0  0  0  0  0  0  0  0  0  0
   -5.3728   -4.4038    1.7956 H   0  0  0  0  0  0  0  0  0  0  0  0
   -3.1039   -3.8136    0.2601 N   0  0  0  0  0  0  0  0  0  0  0  0
   -1.7227   -3.3516    0.0722 C   0  0  2  0  0  0  0  0  0  0  0  0
   -1.6488   -1.8158   -0.0551 C   0  0  0  0  0  0  0  0  0  0  0  0
   -2.6739   -1.1630   -0.2256 O   0  0  0  0  0  0  0  0  0  0  0  0
   -1.1529   -4.0182   -1.1846 C   0  0  0  0  0  0  0  0  0  0  0  0
   -3.8431   -3.1468    0.0394 H   0  0  0  0  0  0  0  0  0  0  0  0
   -1.1176   -3.6374    0.9396 H   0  0  0  0  0  0  0  0  0  0  0  0
   -1.7417   -3.7407   -2.0651 H   0  0  0  0  0  0  0  0  0  0  0  0
   -0.1157   -3.7095   -1.3483 H   0  0  0  0  0  0  0  0  0  0  0  0
   -1.1749   -5.1078   -1.0793 H   0  0  0  0  0  0  0  0  0  0  0  0
   -0.4325   -1.1664    0.0562 N   0  0  0  0  0  0  0  0  0  0  0  0
   -0.1917    0.2508   -0.2747 C   0  0  2  0  0  0  0  0  0  0  0  0
   -0.7708    1.1899    0.8065 C   0  0  0  0  0  0  0  0  0  0  0  0
   -0.3231    1.1415    1.9460 O   0  0  0  0  0  0  0  0  0  0  0  0
   -0.6304    0.6045   -1.7103 C   0  0  0  0  0  0  0  0  0  0  0  0
    0.4091   -0.3152   -2.9184 S   0  0  0  0  0  0  0  0  0  0  0  0
    0.3808   -1.7563    0.2055 H   0  0  0  0  0  0  0  0  0  0  0  0
    0.8892    0.4179   -0.2376 H   0  0  0  0  0  0  0  0  0  0  0  0
   -1.6875    0.3780   -1.8754 H   0  0  0  0  0  0  0  0  0  0  0  0
   -0.4937    1.6775   -1.8809 H   0  0  0  0  0  0  0  0  0  0  0  0
   -0.1323    0.0979   -4.0859 H   0  0  0  0  0  0  0  0  0  0  0  0
   -1.7393    2.1305    0.5080 N   0  0  0  0  0  0  0  0  0  0  0  0
   -2.4234    2.9609    1.5055 C   0  0  2  0  0  0  0  0  0  0  0  0
   -3.8238    3.3802    1.0105 C   0  0  0  0  0  0  0  0  0  0  0  0
   -4.1159    3.2712   -0.1760 O   0  0  0  0  0  0  0  0  0  0  0  0
   -1.5658    4.1987    1.7899 C   0  0  0  0  0  0  0  0  0  0  0  0
   -2.2256    2.0167   -0.3818 H   0  0  0  0  0  0  0  0  0  0  0  0
   -2.5562    2.3884    2.4298 H   0  0  0  0  0  0  0  0  0  0  0  0
   -1.4222    4.7809    0.8740 H   0  0  0  0  0  0  0  0  0  0  0  0
   -2.0465    4.8370    2.5373 H   0  0  0  0  0  0  0  0  0  0  0  0
   -0.5836    3.9028    2.1722 H   0  0  0  0  0  0  0  0  0  0  0  0
   -4.7616    3.8789    1.8957 N   0  0  0  0  0  0  0  0  0  0  0  0
   -6.1120    4.2584    1.4984 C   0  0  0  0  0  0  0  0  0  0  0  0
   -4.5057    3.9232    2.8777 H   0  0  0  0  0  0  0  0  0  0  0  0
   -6.0807    5.0197    0.7117 H   0  0  0  0  0  0  0  0  0  0  0  0
   -6.6597    3.3874    1.1237 H   0  0  0  0  0  0  0  0  0  0  0  0
   -6.6571    4.6690    2.3538 H   0  0  0  0  0  0  0  0  0  0  0  0
  1  2  2  0  0  0  0
  1  3  1  0  0  0  0
  1  7  1  0  0  0  0
  3  4  1  0  0  0  0
  3  5  1  0  0  0  0
  3  6  1  0  0  0  0
  7  8  1  0  0  0  0
  7 12  1  0  0  0  0
  8  9  1  0  0  0  0
  8 11  1  0  0  0  0
  8 13  1  0  0  0  0
  9 10  2  0  0  0  0
  9 17  1  0  0  0  0
 11 14  1  0  0  0  0
 11 15  1  0  0  0  0
 11 16  1  0  0  0  0
 17 18  1  0  0  0  0
 17 23  1  0  0  0  0
 18 19  1  0  0  0  0
 18 21  1  0  0  0  0
 18 24  1  0  0  0  0
 19 20  2  0  0  0  0
 19 28  1  0  0  0  0
 21 22  1  0  0  0  0
 21 25  1  0  0  0  0
 21 26  1  0  0  0  0
 22 27  1  0  0  0  0
 28 29  1  0  0  0  0
 28 33  1  0  0  0  0
 29 30  1  0  0  0  0
 29 32  1  0  0  0  0
 29 34  1  0  0  0  0
 30 31  2  0  0  0  0
 30 38  1  0  0  0  0
 32 35  1  0  0  0  0
 32 36  1  0  0  0  0
 32 37  1  0  0  0  0
 38 39  1  0  0  0  0
 38 40  1  0  0  0  0
 39 41  1  0  0  0  0
 39 42  1  0  0  0  0
 39 43  1  0  0  0  0
M  END
$$$$

  -OEChem-05262216003D

 43 42  0     1  0  0  0  0  0999 V2000
   -3.3959   -4.9496    0.9960 C   0  0  0  0  0  0  0  0  0  0  0  0
   -2.5232   -5.6714    1.4523 O   0  0  0  0  0  0  0  0  0  0  0  0
   -4.8539   -5.2198    1.3146 C   0  0  0  0  0  0  0  0  0  0  0  0
   -5.4102   -5.3976    0.3908 H   0  0  0  0  0  0  0  0  0  0  0  0
   -4.9428   -6.1011    1.9563 H   0  0  0  0  0  0  0  0  0  0  0  0
   -5.2869   -4.3608    1.8334 H   0  0  0  0  0  0  0  0  0  0  0  0
   -3.0589   -3.8748    0.2016 N   0  0  0  0  0  0  0  0  0  0  0  0
   -1.6851   -3.3990   -0.0035 C   0  0  2  0  0  0  0  0  0  0  0  0
   -1.6319   -1.8617   -0.1193 C   0  0  0  0  0  0  0  0  0  0  0  0
   -2.6636   -1.2223   -0.3006 O   0  0  0  0  0  0  0  0  0  0  0  0
   -1.1318   -4.0532   -1.2724 C   0  0  0  0  0  0  0  0  0  0  0  0
   -3.8064   -3.2263   -0.0448 H   0  0  0  0  0  0  0  0  0  0  0  0
   -1.0616   -3.6832    0.8512 H   0  0  0  0  0  0  0  0  0  0  0  0
   -1.7394   -3.7786   -2.1406 H   0  0  0  0  0  0  0  0  0  0  0  0
   -0.1013   -3.7328   -1.4532 H   0  0  0  0  0  0  0  0  0  0  0  0
   -1.1411   -5.1432   -1.1709 H   0  0  0  0  0  0  0  0  0  0  0  0
   -0.4347   -1.1883    0.0410 N   0  0  0  0  0  0  0  0  0  0  0  0
   -0.2260    0.2411   -0.2564 C   0  0  2  0  0  0  0  0  0  0  0  0
   -0.8617    1.1389    0.8255 C   0  0  0  0  0  0  0  0  0  0  0  0
   -0.2865    1.2872    1.8967 O   0  0  0  0  0  0  0  0  0  0  0  0
   -0.6346    0.6267   -1.6917 C   0  0  0  0  0  0  0  0  0  0  0  0
    0.4599   -0.2305   -2.8974 S   0  0  0  0  0  0  0  0  0  0  0  0
    0.3908   -1.7642    0.1786 H   0  0  0  0  0  0  0  0  0  0  0  0
    0.8490    0.4345   -0.1850 H   0  0  0  0  0  0  0  0  0  0  0  0
   -1.6802    0.3787   -1.8945 H   0  0  0  0  0  0  0  0  0  0  0  0
   -0.5238    1.7085   -1.8215 H   0  0  0  0  0  0  0  0  0  0  0  0
   -0.0402    0.2285   -4.0663 H   0  0  0  0  0  0  0  0  0  0  0  0
   -2.0392    1.8236    0.5887 N   0  0  0  0  0  0  0  0  0  0  0  0
   -2.7478    2.6227    1.5961 C   0  0  2  0  0  0  0  0  0  0  0  0
   -4.2503    2.7503    1.2652 C   0  0  0  0  0  0  0  0  0  0  0  0
   -4.6674    2.4470    0.1529 O   0  0  0  0  0  0  0  0  0  0  0  0
   -2.1047    4.0125    1.6658 C   0  0  0  0  0  0  0  0  0  0  0  0
   -2.6064    1.4790   -0.1889 H   0  0  0  0  0  0  0  0  0  0  0  0
   -2.6653    2.1325    2.5720 H   0  0  0  0  0  0  0  0  0  0  0  0
   -2.1798    4.5149    0.6960 H   0  0  0  0  0  0  0  0  0  0  0  0
   -2.6036    4.6299    2.4186 H   0  0  0  0  0  0  0  0  0  0  0  0
   -1.0469    3.9319    1.9355 H   0  0  0  0  0  0  0  0  0  0  0  0
   -5.1412    3.2184    2.2139 N   0  0  0  0  0  0  0  0  0  0  0  0
   -6.5684    3.3740    1.9595 C   0  0  0  0  0  0  0  0  0  0  0  0
   -4.7729    3.4598    3.1293 H   0  0  0  0  0  0  0  0  0  0  0  0
   -6.7357    4.0630    1.1245 H   0  0  0  0  0  0  0  0  0  0  0  0
   -7.0205    2.4072    1.7139 H   0  0  0  0  0  0  0  0  0  0  0  0
   -7.0704    3.7758    2.8449 H   0  0  0  0  0  0  0  0  0  0  0  0
  1  2  2  0  0  0  0
  1  3  1  0  0  0  0
  1  7  1  0  0  0  0
  3  4  1  0  0  0  0
  3  5  1  0  0  0  0
  3  6  1  0  0  0  0
  7  8  1  0  0  0  0
  7 12  1  0  0  0  0
  8  9  1  0  0  0  0
  8 11  1  0  0  0  0
  8 13  1  0  0  0  0
  9 10  2  0  0  0  0
  9 17  1  0  0  0  0
 11 14  1  0  0  0  0
 11 15  1  0  0  0  0
 11 16  1  0  0  0  0
 17 18  1  0  0  0  0
 17 23  1  0  0  0  0
 18 19  1  0  0  0  0
 18 21  1  0  0  0  0
 18 24  1  0  0  0  0
 19 20  2  0  0  0  0
 19 28  1  0  0  0  0
 21 22  1  0  0  0  0
 21 25  1  0  0  0  0
 21 26  1  0  0  0  0
 22 27  1  0  0  0  0
 28 29  1  0  0  0  0
 28 33  1  0  0  0  0
 29 30  1  0  0  0  0
 29 32  1  0  0  0  0
 29 34  1  0  0  0  0
 30 31  2  0  0  0  0
 30 38  1  0  0  0  0
 32 35  1  0  0  0  0
 32 36  1  0  0  0  0
 32 37  1  0  0  0  0
 38 39  1  0  0  0  0
 38 40  1  0  0  0  0
 39 41  1  0  0  0  0
 39 42  1  0  0  0  0
 39 43  1  0  0  0  0
M  END
$$$$

  -OEChem-05262216003D

 43 42  0     1  0  0  0  0  0999 V2000
   -3.3867   -4.9718    0.9644 C   0  0  0  0  0  0  0  0  0  0  0  0
   -2.5109   -5.6815    1.4334 O   0  0  0  0  0  0  0  0  0  0  0  0
   -4.8444   -5.2507    1.2804 C   0  0  0  0  0  0  0  0  0  0  0  0
   -5.3935   -5.4582    0.3587 H   0  0  0  0  0  0  0  0  0  0  0  0
   -4.9281   -6.1166    1.9432 H   0  0  0  0  0  0  0  0  0  0  0  0
   -5.2913   -4.3845    1.7747 H   0  0  0  0  0  0  0  0  0  0  0  0
   -3.0512   -3.9025    0.1614 N   0  0  0  0  0  0  0  0  0  0  0  0
   -1.6782   -3.4195   -0.0376 C   0  0  2  0  0  0  0  0  0  0  0  0
   -1.6310   -1.8802   -0.1217 C   0  0  0  0  0  0  0  0  0  0  0  0
   -2.6620   -1.2441   -0.3169 O   0  0  0  0  0  0  0  0  0  0  0  0
   -1.1264   -4.0449   -1.3219 C   0  0  0  0  0  0  0  0  0  0  0  0
   -3.8007   -3.2575   -0.0887 H   0  0  0  0  0  0  0  0  0  0  0  0
   -1.0508   -3.7190    0.8090 H   0  0  0  0  0  0  0  0  0  0  0  0
   -1.7324   -3.7482   -2.1840 H   0  0  0  0  0  0  0  0  0  0  0  0
   -0.0947   -3.7241   -1.4949 H   0  0  0  0  0  0  0  0  0  0  0  0
   -1.1399   -5.1367   -1.2452 H   0  0  0  0  0  0  0  0  0  0  0  0
   -0.4429   -1.1994    0.0752 N   0  0  0  0  0  0  0  0  0  0  0  0
   -0.2384    0.2334   -0.2121 C   0  0  2  0  0  0  0  0  0  0  0  0
   -0.9090    1.1274    0.8504 C   0  0  0  0  0  0  0  0  0  0  0  0
   -0.2555    1.5135    1.8117 O   0  0  0  0  0  0  0  0  0  0  0  0
   -0.6201    0.6248   -1.6519 C   0  0  0  0  0  0  0  0  0  0  0  0
    0.5064   -0.2203   -2.8367 S   0  0  0  0  0  0  0  0  0  0  0  0
    0.3864   -1.7726    0.2034 H   0  0  0  0  0  0  0  0  0  0  0  0
    0.8337    0.4338   -0.1183 H   0  0  0  0  0  0  0  0  0  0  0  0
   -1.6596    0.3724   -1.8785 H   0  0  0  0  0  0  0  0  0  0  0  0
   -0.5145    1.7082   -1.7720 H   0  0  0  0  0  0  0  0  0  0  0  0
    0.0192    0.2320   -4.0137 H   0  0  0  0  0  0  0  0  0  0  0  0
   -2.2160    1.5517    0.7009 N   0  0  0  0  0  0  0  0  0  0  0  0
   -2.9447    2.3350    1.7076 C   0  0  2  0  0  0  0  0  0  0  0  0
   -4.4711    2.1193    1.6201 C   0  0  0  0  0  0  0  0  0  0  0  0
   -4.9748    1.6152    0.6233 O   0  0  0  0  0  0  0  0  0  0  0  0
   -2.6086    3.8171    1.5101 C   0  0  0  0  0  0  0  0  0  0  0  0
   -2.7869    0.9909    0.0599 H   0  0  0  0  0  0  0  0  0  0  0  0
   -2.6294    2.0222    2.7088 H   0  0  0  0  0  0  0  0  0  0  0  0
   -2.9161    4.1472    0.5128 H   0  0  0  0  0  0  0  0  0  0  0  0
   -3.1227    4.4312    2.2554 H   0  0  0  0  0  0  0  0  0  0  0  0
   -1.5316    3.9809    1.6149 H   0  0  0  0  0  0  0  0  0  0  0  0
   -5.2905    2.4980    2.6682 N   0  0  0  0  0  0  0  0  0  0  0  0
   -6.7378    2.3212    2.6557 C   0  0  0  0  0  0  0  0  0  0  0  0
   -4.8496    2.9036    3.4885 H   0  0  0  0  0  0  0  0  0  0  0  0
   -7.1844    2.8742    1.8225 H   0  0  0  0  0  0  0  0  0  0  0  0
   -6.9928    1.2614    2.5515 H   0  0  0  0  0  0  0  0  0  0  0  0
   -7.1729    2.6916    3.5889 H   0  0  0  0  0  0  0  0  0  0  0  0
  1  2  2  0  0  0  0
  1  3  1  0  0  0  0
  1  7  1  0  0  0  0
  3  4  1  0  0  0  0
  3  5  1  0  0  0  0
  3  6  1  0  0  0  0
  7  8  1  0  0  0  0
  7 12  1  0  0  0  0
  8  9  1  0  0  0  0
  8 11  1  0  0  0  0
  8 13  1  0  0  0  0
  9 10  2  0  0  0  0
  9 17  1  0  0  0  0
 11 14  1  0  0  0  0
 11 15  1  0  0  0  0
 11 16  1  0  0  0  0
 17 18  1  0  0  0  0
 17 23  1  0  0  0  0
 18 19  1  0  0  0  0
 18 21  1  0  0  0  0
 18 24  1  0  0  0  0
 19 20  2  0  0  0  0
 19 28  1  0  0  0  0
 21 22  1  0  0  0  0
 21 25  1  0  0  0  0
 21 26  1  0  0  0  0
 22 27  1  0  0  0  0
 28 29  1  0  0  0  0
 28 33  1  0  0  0  0
 29 30  1  0  0  0  0
 29 32  1  0  0  0  0
 29 34  1  0  0  0  0
 30 31  2  0  0  0  0
 30 38  1  0  0  0  0
 32 35  1  0  0  0  0
 32 36  1  0  0  0  0
 32 37  1  0  0  0  0
 38 39  1  0  0  0  0
 38 40  1  0  0  0  0
 39 41  1  0  0  0  0
 39 42  1  0  0  0  0
 39 43  1  0  0  0  0
M  END
$$$$

  -OEChem-05262216003D

 43 42  0     1  0  0  0  0  0999 V2000
   -2.6084   -3.4056    1.7159 C   0  0  0  0  0  0  0  0  0  0  0  0
   -1.4542   -3.7909    1.8411 O   0  0  0  0  0  0  0  0  0  0  0  0
   -3.4484   -3.1180    2.9443 C   0  0  0  0  0  0  0  0  0  0  0  0
   -3.0790   -3.6946    3.7965 H   0  0  0  0  0  0  0  0  0  0  0  0
   -3.3951   -2.0531    3.1845 H   0  0  0  0  0  0  0  0  0  0  0  0
   -4.4903   -3.3904    2.7591 H   0  0  0  0  0  0  0  0  0  0  0  0
   -3.0874   -3.0964    0.4605 N   0  0  0  0  0  0  0  0  0  0  0  0
   -2.2334   -3.0825   -0.7381 C   0  0  2  0  0  0  0  0  0  0  0  0
   -1.4322   -1.7631   -0.8054 C   0  0  0  0  0  0  0  0  0  0  0  0
   -1.7261   -0.8891   -1.6158 O   0  0  0  0  0  0  0  0  0  0  0  0
   -3.1434   -3.3019   -1.9522 C   0  0  0  0  0  0  0  0  0  0  0  0
   -3.8836   -2.4500    0.4645 H   0  0  0  0  0  0  0  0  0  0  0  0
   -1.5139   -3.9078   -0.7042 H   0  0  0  0  0  0  0  0  0  0  0  0
   -3.8987   -2.5116   -2.0163 H   0  0  0  0  0  0  0  0  0  0  0  0
   -2.5538   -3.2951   -2.8742 H   0  0  0  0  0  0  0  0  0  0  0  0
   -3.6542   -4.2663   -1.8733 H   0  0  0  0  0  0  0  0  0  0  0  0
   -0.6192   -1.4529    0.2713 N   0  0  0  0  0  0  0  0  0  0  0  0
   -0.1228   -0.1097    0.6206 C   0  0  2  0  0  0  0  0  0  0  0  0
   -1.2885    0.6873    1.2306 C   0  0  0  0  0  0  0  0  0  0  0  0
   -1.3719    0.8668    2.4394 O   0  0  0  0  0  0  0  0  0  0  0  0
    0.6080    0.6573   -0.4977 C   0  0  0  0  0  0  0  0  0  0  0  0
    2.1625   -0.2178   -0.9463 S   0  0  0  0  0  0  0  0  0  0  0  0
   -0.5559   -2.1878    0.9824 H   0  0  0  0  0  0  0  0  0  0  0  0
    0.6106   -0.2366    1.4236 H   0  0  0  0  0  0  0  0  0  0  0  0
   -0.0186    0.7836   -1.3833 H   0  0  0  0  0  0  0  0  0  0  0  0
    0.8593    1.6599   -0.1368 H   0  0  0  0  0  0  0  0  0  0  0  0
    2.5995    0.5494   -1.9686 H   0  0  0  0  0  0  0  0  0  0  0  0
   -2.2794    1.1679    0.3961 N   0  0  0  0  0  0  0  0  0  0  0  0
   -3.5691    1.6360    0.9149 C   0  0  2  0  0  0  0  0  0  0  0  0
   -4.4787    0.4965    1.4350 C   0  0  0  0  0  0  0  0  0  0  0  0
   -4.4809   -0.6157    0.9120 O   0  0  0  0  0  0  0  0  0  0  0  0
   -4.2690    2.3912   -0.2161 C   0  0  0  0  0  0  0  0  0  0  0  0
   -2.2803    0.7222   -0.5271 H   0  0  0  0  0  0  0  0  0  0  0  0
   -3.3901    2.3331    1.7404 H   0  0  0  0  0  0  0  0  0  0  0  0
   -4.4708    1.7193   -1.0571 H   0  0  0  0  0  0  0  0  0  0  0  0
   -5.2190    2.8070    0.1330 H   0  0  0  0  0  0  0  0  0  0  0  0
   -3.6401    3.2140   -0.5702 H   0  0  0  0  0  0  0  0  0  0  0  0
   -5.3506    0.7423    2.4798 N   0  0  0  0  0  0  0  0  0  0  0  0
   -6.2413   -0.2638    3.0454 C   0  0  0  0  0  0  0  0  0  0  0  0
   -5.2688    1.6402    2.9488 H   0  0  0  0  0  0  0  0  0  0  0  0
   -6.8401   -0.7354    2.2589 H   0  0  0  0  0  0  0  0  0  0  0  0
   -5.6659   -1.0371    3.5637 H   0  0  0  0  0  0  0  0  0  0  0  0
   -6.9251    0.1991    3.7635 H   0  0  0  0  0  0  0  0  0  0  0  0
  1  2  2  0  0  0  0
  1  3  1  0  0  0  0
  1  7  1  0  0  0  0
  3  4  1  0  0  0  0
  3  5  1  0  0  0  0
  3  6  1  0  0  0  0
  7  8  1  0  0  0  0
  7 12  1  0  0  0  0
  8  9  1  0  0  0  0
  8 11  1  0  0  0  0
  8 13  1  0  0  0  0
  9 10  2  0  0  0  0
  9 17  1  0  0  0  0
 11 14  1  0  0  0  0
 11 15  1  0  0  0  0
 11 16  1  0  0  0  0
 17 18  1  0  0  0  0
 17 23  1  0  0  0  0
 18 19  1  0  0  0  0
 18 21  1  0  0  0  0
 18 24  1  0  0  0  0
 19 20  2  0  0  0  0
 19 28  1  0  0  0  0
 21 22  1  0  0  0  0
 21 25  1  0  0  0  0
 21 26  1  0  0  0  0
 22 27  1  0  0  0  0
 28 29  1  0  0  0  0
 28 33  1  0  0  0  0
 29 30  1  0  0  0  0
 29 32  1  0  0  0  0
 29 34  1  0  0  0  0
 30 31  2  0  0  0  0
 30 38  1  0  0  0  0
 32 35  1  0  0  0  0
 32 36  1  0  0  0  0
 32 37  1  0  0  0  0
 38 39  1  0  0  0  0
 38 40  1  0  0  0  0
 39 41  1  0  0  0  0
 39 42  1  0  0  0  0
 39 43  1  0  0  0  0
M  END
$$$$

  -OEChem-05262216003D

 43 42  0     1  0  0  0  0  0999 V2000
   -2.8133   -3.6793    1.5198 C   0  0  0  0  0  0  0  0  0  0  0  0
   -1.6231   -3.9469    1.6048 O   0  0  0  0  0  0  0  0  0  0  0  0
   -3.7218   -3.8712    2.7179 C   0  0  0  0  0  0  0  0  0  0  0  0
   -4.5752   -3.1921    2.6588 H   0  0  0  0  0  0  0  0  0  0  0  0
   -4.0911   -4.8993    2.7403 H   0  0  0  0  0  0  0  0  0  0  0  0
   -3.1714   -3.6704    3.6404 H   0  0  0  0  0  0  0  0  0  0  0  0
   -3.3078   -3.1725    0.3376 N   0  0  0  0  0  0  0  0  0  0  0  0
   -2.4832   -2.9720   -0.8656 C   0  0  2  0  0  0  0  0  0  0  0  0
   -1.6845   -1.6505   -0.7955 C   0  0  0  0  0  0  0  0  0  0  0  0
   -1.9109   -0.7388   -1.5851 O   0  0  0  0  0  0  0  0  0  0  0  0
   -3.4277   -3.0439   -2.0723 C   0  0  0  0  0  0  0  0  0  0  0  0
   -4.1695   -2.6268    0.4245 H   0  0  0  0  0  0  0  0  0  0  0  0
   -1.7563   -3.7858   -0.9612 H   0  0  0  0  0  0  0  0  0  0  0  0
   -4.1768   -2.2467   -2.0226 H   0  0  0  0  0  0  0  0  0  0  0  0
   -2.8638   -2.9339   -3.0042 H   0  0  0  0  0  0  0  0  0  0  0  0
   -3.9456   -4.0076   -2.0938 H   0  0  0  0  0  0  0  0  0  0  0  0
   -0.9032   -1.4064    0.3219 N   0  0  0  0  0  0  0  0  0  0  0  0
   -0.2936   -0.1185    0.7181 C   0  0  2  0  0  0  0  0  0  0  0  0
   -1.3867    0.8080    1.2812 C   0  0  0  0  0  0  0  0  0  0  0  0
   -1.4036    1.1289    2.4643 O   0  0  0  0  0  0  0  0  0  0  0  0
    0.5512    0.5689   -0.3691 C   0  0  0  0  0  0  0  0  0  0  0  0
    2.0232   -0.4631   -0.7621 S   0  0  0  0  0  0  0  0  0  0  0  0
   -0.8274   -2.1969    0.9695 H   0  0  0  0  0  0  0  0  0  0  0  0
    0.3892   -0.3242    1.5488 H   0  0  0  0  0  0  0  0  0  0  0  0
   -0.0296    0.7561   -1.2754 H   0  0  0  0  0  0  0  0  0  0  0  0
    0.8916    1.5406    0.0030 H   0  0  0  0  0  0  0  0  0  0  0  0
    2.5858    0.2567   -1.7571 H   0  0  0  0  0  0  0  0  0  0  0  0
   -2.4493    1.1532    0.4679 N   0  0  0  0  0  0  0  0  0  0  0  0
   -3.7746    1.4500    1.0169 C   0  0  2  0  0  0  0  0  0  0  0  0
   -4.3239    0.2850    1.8781 C   0  0  0  0  0  0  0  0  0  0  0  0
   -4.7382   -0.7557    1.3693 O   0  0  0  0  0  0  0  0  0  0  0  0
   -4.7032    1.7539   -0.1627 C   0  0  0  0  0  0  0  0  0  0  0  0
   -2.4263    0.6873   -0.4453 H   0  0  0  0  0  0  0  0  0  0  0  0
   -3.7139    2.3437    1.6463 H   0  0  0  0  0  0  0  0  0  0  0  0
   -4.7639    0.8940   -0.8384 H   0  0  0  0  0  0  0  0  0  0  0  0
   -5.7111    1.9858    0.1955 H   0  0  0  0  0  0  0  0  0  0  0  0
   -4.3294    2.6133   -0.7279 H   0  0  0  0  0  0  0  0  0  0  0  0
   -4.2952    0.4135    3.2535 N   0  0  0  0  0  0  0  0  0  0  0  0
   -4.6548   -0.6536    4.1769 C   0  0  0  0  0  0  0  0  0  0  0  0
   -3.6749    1.1455    3.5981 H   0  0  0  0  0  0  0  0  0  0  0  0
   -5.5649   -1.1666    3.8484 H   0  0  0  0  0  0  0  0  0  0  0  0
   -3.8411   -1.3809    4.2505 H   0  0  0  0  0  0  0  0  0  0  0  0
   -4.8405   -0.2396    5.1727 H   0  0  0  0  0  0  0  0  0  0  0  0
  1  2  2  0  0  0  0
  1  3  1  0  0  0  0
  1  7  1  0  0  0  0
  3  4  1  0  0  0  0
  3  5  1  0  0  0  0
  3  6  1  0  0  0  0
  7  8  1  0  0  0  0
  7 12  1  0  0  0  0
  8  9  1  0  0  0  0
  8 11  1  0  0  0  0
  8 13  1  0  0  0  0
  9 10  2  0  0  0  0
  9 17  1  0  0  0  0
 11 14  1  0  0  0  0
 11 15  1  0  0  0  0
 11 16  1  0  0  0  0
 17 18  1  0  0  0  0
 17 23  1  0  0  0  0
 18 19  1  0  0  0  0
 18 21  1  0  0  0  0
 18 24  1  0  0  0  0
 19 20  2  0  0  0  0
 19 28  1  0  0  0  0
 21 22  1  0  0  0  0
 21 25  1  0  0  0  0
 21 26  1  0  0  0  0
 22 27  1  0  0  0  0
 28 29  1  0  0  0  0
 28 33  1  0  0  0  0
 29 30  1  0  0  0  0
 29 32  1  0  0  0  0
 29 34  1  0  0  0  0
 30 31  2  0  0  0  0
 30 38  1  0  0  0  0
 32 35  1  0  0  0  0
 32 36  1  0  0  0  0
 32 37  1  0  0  0  0
 38 39  1  0  0  0  0
 38 40  1  0  0  0  0
 39 41  1  0  0  0  0
 39 42  1  0  0  0  0
 39 43  1  0  0  0  0
M  END
$$$$

  -OEChem-05262216003D

 43 42  0     1  0  0  0  0  0999 V2000
   -2.2675   -3.8912    1.5399 C   0  0  0  0  0  0  0  0  0  0  0  0
   -1.0989   -4.1960    1.3466 O   0  0  0  0  0  0  0  0  0  0  0  0
   -2.8257   -3.8897    2.9493 C   0  0  0  0  0  0  0  0  0  0  0  0
   -3.8878   -4.1460    2.9333 H   0  0  0  0  0  0  0  0  0  0  0  0
   -2.2955   -4.6211    3.5654 H   0  0  0  0  0  0  0  0  0  0  0  0
   -2.7066   -2.8973    3.3906 H   0  0  0  0  0  0  0  0  0  0  0  0
   -3.0265   -3.4174    0.4908 N   0  0  0  0  0  0  0  0  0  0  0  0
   -2.4762   -3.1749   -0.8536 C   0  0  2  0  0  0  0  0  0  0  0  0
   -1.7369   -1.8183   -0.9035 C   0  0  0  0  0  0  0  0  0  0  0  0
   -2.1877   -0.8749   -1.5441 O   0  0  0  0  0  0  0  0  0  0  0  0
   -3.6394   -3.2679   -1.8481 C   0  0  0  0  0  0  0  0  0  0  0  0
   -3.8236   -2.8404    0.7785 H   0  0  0  0  0  0  0  0  0  0  0  0
   -1.7515   -3.9543   -1.1126 H   0  0  0  0  0  0  0  0  0  0  0  0
   -4.4009   -2.5139   -1.6235 H   0  0  0  0  0  0  0  0  0  0  0  0
   -3.2799   -3.1053   -2.8690 H   0  0  0  0  0  0  0  0  0  0  0  0
   -4.1031   -4.2578   -1.7981 H   0  0  0  0  0  0  0  0  0  0  0  0
   -0.7422   -1.5941    0.0314 N   0  0  0  0  0  0  0  0  0  0  0  0
   -0.0803   -0.3171    0.3736 C   0  0  2  0  0  0  0  0  0  0  0  0
   -1.0150    0.5752    1.2148 C   0  0  0  0  0  0  0  0  0  0  0  0
   -0.6370    1.0347    2.2846 O   0  0  0  0  0  0  0  0  0  0  0  0
    0.4783    0.4507   -0.8360 C   0  0  0  0  0  0  0  0  0  0  0  0
    1.8337   -0.5124   -1.6237 S   0  0  0  0  0  0  0  0  0  0  0  0
   -0.4932   -2.4198    0.5845 H   0  0  0  0  0  0  0  0  0  0  0  0
    0.7754   -0.5545    1.0142 H   0  0  0  0  0  0  0  0  0  0  0  0
   -0.3036    0.6687   -1.5676 H   0  0  0  0  0  0  0  0  0  0  0  0
    0.8800    1.4110   -0.4964 H   0  0  0  0  0  0  0  0  0  0  0  0
    2.1385    0.2880   -2.6683 H   0  0  0  0  0  0  0  0  0  0  0  0
   -2.3371    0.7233    0.8412 N   0  0  0  0  0  0  0  0  0  0  0  0
   -3.4152    1.1201    1.7516 C   0  0  2  0  0  0  0  0  0  0  0  0
   -4.1414   -0.0929    2.3761 C   0  0  0  0  0  0  0  0  0  0  0  0
   -4.2747   -1.1463    1.7567 O   0  0  0  0  0  0  0  0  0  0  0  0
   -4.3987    1.9728    0.9486 C   0  0  0  0  0  0  0  0  0  0  0  0
   -2.5974    0.2105   -0.0068 H   0  0  0  0  0  0  0  0  0  0  0  0
   -3.0128    1.7325    2.5650 H   0  0  0  0  0  0  0  0  0  0  0  0
   -4.8267    1.3915    0.1251 H   0  0  0  0  0  0  0  0  0  0  0  0
   -5.2144    2.3220    1.5890 H   0  0  0  0  0  0  0  0  0  0  0  0
   -3.8881    2.8459    0.5301 H   0  0  0  0  0  0  0  0  0  0  0  0
   -4.6938    0.0113    3.6392 N   0  0  0  0  0  0  0  0  0  0  0  0
   -5.4072   -1.0727    4.3038 C   0  0  0  0  0  0  0  0  0  0  0  0
   -4.5236    0.8721    4.1523 H   0  0  0  0  0  0  0  0  0  0  0  0
   -6.2007   -1.4644    3.6586 H   0  0  0  0  0  0  0  0  0  0  0  0
   -4.7204   -1.8872    4.5543 H   0  0  0  0  0  0  0  0  0  0  0  0
   -5.8666   -0.7099    5.2283 H   0  0  0  0  0  0  0  0  0  0  0  0
  1  2  2  0  0  0  0
  1  3  1  0  0  0  0
  1  7  1  0  0  0  0
  3  4  1  0  0  0  0
  3  5  1  0  0  0  0
  3  6  1  0  0  0  0
  7  8  1  0  0  0  0
  7 12  1  0  0  0  0
  8  9  1  0  0  0  0
  8 11  1  0  0  0  0
  8 13  1  0  0  0  0
  9 10  2  0  0  0  0
  9 17  1  0  0  0  0
 11 14  1  0  0  0  0
 11 15  1  0  0  0  0
 11 16  1  0  0  0  0
 17 18  1  0  0  0  0
 17 23  1  0  0  0  0
 18 19  1  0  0  0  0
 18 21  1  0  0  0  0
 18 24  1  0  0  0  0
 19 20  2  0  0  0  0
 19 28  1  0  0  0  0
 21 22  1  0  0  0  0
 21 25  1  0  0  0  0
 21 26  1  0  0  0  0
 22 27  1  0  0  0  0
 28 29  1  0  0  0  0
 28 33  1  0  0  0  0
 29 30  1  0  0  0  0
 29 32  1  0  0  0  0
 29 34  1  0  0  0  0
 30 31  2  0  0  0  0
 30 38  1  0  0  0  0
 32 35  1  0  0  0  0
 32 36  1  0  0  0  0
 32 37  1  0  0  0  0
 38 39  1  0  0  0  0
 38 40  1  0  0  0  0
 39 41  1  0  0  0  0
 39 42  1  0  0  0  0
 39 43  1  0  0  0  0
M  END
$$$$

  -OEChem-05262216003D

 43 42  0     1  0  0  0  0  0999 V2000
   -2.2275   -4.0774    1.4692 C   0  0  0  0  0  0  0  0  0  0  0  0
   -1.0310   -4.2516    1.2867 O   0  0  0  0  0  0  0  0  0  0  0  0
   -2.8549   -4.4347    2.8035 C   0  0  0  0  0  0  0  0  0  0  0  0
   -3.3235   -5.4195    2.7388 H   0  0  0  0  0  0  0  0  0  0  0  0
   -2.0920   -4.4534    3.5863 H   0  0  0  0  0  0  0  0  0  0  0  0
   -3.6167   -3.7013    3.0734 H   0  0  0  0  0  0  0  0  0  0  0  0
   -2.9888   -3.5205    0.4637 N   0  0  0  0  0  0  0  0  0  0  0  0
   -2.4453   -3.1416   -0.8528 C   0  0  2  0  0  0  0  0  0  0  0  0
   -1.7523   -1.7600   -0.8084 C   0  0  0  0  0  0  0  0  0  0  0  0
   -2.1796   -0.8135   -1.4594 O   0  0  0  0  0  0  0  0  0  0  0  0
   -3.6049   -3.2054   -1.8548 C   0  0  0  0  0  0  0  0  0  0  0  0
   -3.8417   -3.0538    0.7799 H   0  0  0  0  0  0  0  0  0  0  0  0
   -1.6911   -3.8703   -1.1692 H   0  0  0  0  0  0  0  0  0  0  0  0
   -4.3914   -2.4950   -1.5800 H   0  0  0  0  0  0  0  0  0  0  0  0
   -3.2522   -2.9606   -2.8618 H   0  0  0  0  0  0  0  0  0  0  0  0
   -4.0348   -4.2115   -1.8751 H   0  0  0  0  0  0  0  0  0  0  0  0
   -0.8256   -1.5259    0.1903 N   0  0  0  0  0  0  0  0  0  0  0  0
   -0.1253   -0.2639    0.5199 C   0  0  2  0  0  0  0  0  0  0  0  0
   -1.0589    0.7363    1.2347 C   0  0  0  0  0  0  0  0  0  0  0  0
   -0.6574    1.3580    2.2102 O   0  0  0  0  0  0  0  0  0  0  0  0
    0.5563    0.3918   -0.6916 C   0  0  0  0  0  0  0  0  0  0  0  0
    1.9074   -0.6909   -1.3148 S   0  0  0  0  0  0  0  0  0  0  0  0
   -0.5551   -2.3661    0.7107 H   0  0  0  0  0  0  0  0  0  0  0  0
    0.6665   -0.5054    1.2362 H   0  0  0  0  0  0  0  0  0  0  0  0
   -0.1620    0.5966   -1.4896 H   0  0  0  0  0  0  0  0  0  0  0  0
    0.9859    1.3519   -0.3868 H   0  0  0  0  0  0  0  0  0  0  0  0
    2.3438    0.0310   -2.3699 H   0  0  0  0  0  0  0  0  0  0  0  0
   -2.4126    0.7243    0.9590 N   0  0  0  0  0  0  0  0  0  0  0  0
   -3.4535    1.0308    1.9404 C   0  0  2  0  0  0  0  0  0  0  0  0
   -3.8631   -0.2323    2.7285 C   0  0  0  0  0  0  0  0  0  0  0  0
   -4.1119   -1.2858    2.1442 O   0  0  0  0  0  0  0  0  0  0  0  0
   -4.6493    1.6104    1.1831 C   0  0  0  0  0  0  0  0  0  0  0  0
   -2.6719    0.1255    0.1705 H   0  0  0  0  0  0  0  0  0  0  0  0
   -3.0958    1.7863    2.6475 H   0  0  0  0  0  0  0  0  0  0  0  0
   -5.0349    0.8842    0.4600 H   0  0  0  0  0  0  0  0  0  0  0  0
   -5.4529    1.8687    1.8793 H   0  0  0  0  0  0  0  0  0  0  0  0
   -4.3530    2.5150    0.6431 H   0  0  0  0  0  0  0  0  0  0  0  0
   -3.9580   -0.1822    4.1066 N   0  0  0  0  0  0  0  0  0  0  0  0
   -4.2454   -1.3438    4.9384 C   0  0  0  0  0  0  0  0  0  0  0  0
   -3.6299    0.6681    4.5574 H   0  0  0  0  0  0  0  0  0  0  0  0
   -5.1624   -1.8408    4.6046 H   0  0  0  0  0  0  0  0  0  0  0  0
   -3.4179   -2.0590    4.8948 H   0  0  0  0  0  0  0  0  0  0  0  0
   -4.3830   -1.0370    5.9799 H   0  0  0  0  0  0  0  0  0  0  0  0
  1  2  2  0  0  0  0
  1  3  1  0  0  0  0
  1  7  1  0  0  0  0
  3  4  1  0  0  0  0
  3  5  1  0  0  0  0
  3  6  1  0  0  0  0
  7  8  1  0  0  0  0
  7 12  1  0  0  0  0
  8  9  1  0  0  0  0
  8 11  1  0  0  0  0
  8 13  1  0  0  0  0
  9 10  2  0  0  0  0
  9 17  1  0  0  0  0
 11 14  1  0  0  0  0
 11 15  1  0  0  0  0
 11 16  1  0  0  0  0
 17 18  1  0  0  0  0
 17 23  1  0  0  0  0
 18 19  1  0  0  0  0
 18 21  1  0  0  0  0
 18 24  1  0  0  0  0
 19 20  2  0  0  0  0
 19 28  1  0  0  0  0
 21 22  1  0  0  0  0
 21 25  1  0  0  0  0
 21 26  1  0  0  0  0
 22 27  1  0  0  0  0
 28 29  1  0  0  0  0
 28 33  1  0  0  0  0
 29 30  1  0  0  0  0
 29 32  1  0  0  0  0
 29 34  1  0  0  0  0
 30 31  2  0  0  0  0
 30 38  1  0  0  0  0
 32 35  1  0  0  0  0
 32 36  1  0  0  0  0
 32 37  1  0  0  0  0
 38 39  1  0  0  0  0
 38 40  1  0  0  0  0
 39 41  1  0  0  0  0
 39 42  1  0  0  0  0
 39 43  1  0  0  0  0
M  END
$$$$

  -OEChem-05262216003D

 43 42  0     1  0  0  0  0  0999 V2000
   -1.7662   -4.1082    1.4404 C   0  0  0  0  0  0  0  0  0  0  0  0
   -0.6630   -4.3380    0.9651 O   0  0  0  0  0  0  0  0  0  0  0  0
   -2.0072   -4.3001    2.9254 C   0  0  0  0  0  0  0  0  0  0  0  0
   -1.2876   -5.0146    3.3342 H   0  0  0  0  0  0  0  0  0  0  0  0
   -1.8955   -3.3462    3.4460 H   0  0  0  0  0  0  0  0  0  0  0  0
   -3.0170   -4.6815    3.0958 H   0  0  0  0  0  0  0  0  0  0  0  0
   -2.7464   -3.5662    0.6354 N   0  0  0  0  0  0  0  0  0  0  0  0
   -2.5324   -3.2174   -0.7815 C   0  0  2  0  0  0  0  0  0  0  0  0
   -1.8209   -1.8509   -0.9184 C   0  0  0  0  0  0  0  0  0  0  0  0
   -2.4230   -0.8694   -1.3334 O   0  0  0  0  0  0  0  0  0  0  0  0
   -3.9013   -3.2562   -1.4720 C   0  0  0  0  0  0  0  0  0  0  0  0
   -3.5066   -3.0964    1.1367 H   0  0  0  0  0  0  0  0  0  0  0  0
   -1.8947   -3.9680   -1.2609 H   0  0  0  0  0  0  0  0  0  0  0  0
   -4.5841   -2.5315   -1.0163 H   0  0  0  0  0  0  0  0  0  0  0  0
   -3.7978   -3.0143   -2.5345 H   0  0  0  0  0  0  0  0  0  0  0  0
   -4.3429   -4.2536   -1.3857 H   0  0  0  0  0  0  0  0  0  0  0  0
   -0.6452   -1.6660   -0.2147 N   0  0  0  0  0  0  0  0  0  0  0  0
    0.0729   -0.3975    0.0494 C   0  0  2  0  0  0  0  0  0  0  0  0
   -0.6467    0.4419    1.1281 C   0  0  0  0  0  0  0  0  0  0  0  0
   -0.0322    1.2644    1.7946 O   0  0  0  0  0  0  0  0  0  0  0  0
    0.3501    0.4366   -1.2124 C   0  0  0  0  0  0  0  0  0  0  0  0
    1.5034   -0.4690   -2.3247 S   0  0  0  0  0  0  0  0  0  0  0  0
   -0.2570   -2.5246    0.1875 H   0  0  0  0  0  0  0  0  0  0  0  0
    1.0473   -0.6572    0.4746 H   0  0  0  0  0  0  0  0  0  0  0  0
   -0.5746    0.6783   -1.7423 H   0  0  0  0  0  0  0  0  0  0  0  0
    0.8131    1.3856   -0.9214 H   0  0  0  0  0  0  0  0  0  0  0  0
    1.5937    0.4000   -3.3549 H   0  0  0  0  0  0  0  0  0  0  0  0
   -1.9474    0.1310    1.4710 N   0  0  0  0  0  0  0  0  0  0  0  0
   -2.6657    0.5475    2.6747 C   0  0  2  0  0  0  0  0  0  0  0  0
   -3.5674   -0.5906    3.2053 C   0  0  0  0  0  0  0  0  0  0  0  0
   -3.8202   -1.5754    2.5117 O   0  0  0  0  0  0  0  0  0  0  0  0
   -3.4966    1.7846    2.3262 C   0  0  0  0  0  0  0  0  0  0  0  0
   -2.4215   -0.5158    0.8391 H   0  0  0  0  0  0  0  0  0  0  0  0
   -1.9492    0.8021    3.4629 H   0  0  0  0  0  0  0  0  0  0  0  0
   -4.2261    1.5473    1.5449 H   0  0  0  0  0  0  0  0  0  0  0  0
   -4.0337    2.1499    3.2066 H   0  0  0  0  0  0  0  0  0  0  0  0
   -2.8453    2.5858    1.9620 H   0  0  0  0  0  0  0  0  0  0  0  0
   -4.0793   -0.5314    4.4879 N   0  0  0  0  0  0  0  0  0  0  0  0
   -4.9209   -1.5714    5.0676 C   0  0  0  0  0  0  0  0  0  0  0  0
   -3.8489    0.2843    5.0487 H   0  0  0  0  0  0  0  0  0  0  0  0
   -5.8242   -1.7145    4.4651 H   0  0  0  0  0  0  0  0  0  0  0  0
   -4.3765   -2.5202    5.1189 H   0  0  0  0  0  0  0  0  0  0  0  0
   -5.2244   -1.2916    6.0812 H   0  0  0  0  0  0  0  0  0  0  0  0
  1  2  2  0  0  0  0
  1  3  1  0  0  0  0
  1  7  1  0  0  0  0
  3  4  1  0  0  0  0
  3  5  1  0  0  0  0
  3  6  1  0  0  0  0
  7  8  1  0  0  0  0
  7 12  1  0  0  0  0
  8  9  1  0  0  0  0
  8 11  1  0  0  0  0
  8 13  1  0  0  0  0
  9 10  2  0  0  0  0
  9 17  1  0  0  0  0
 11 14  1  0  0  0  0
 11 15  1  0  0  0  0
 11 16  1  0  0  0  0
 17 18  1  0  0  0  0
 17 23  1  0  0  0  0
 18 19  1  0  0  0  0
 18 21  1  0  0  0  0
 18 24  1  0  0  0  0
 19 20  2  0  0  0  0
 19 28  1  0  0  0  0
 21 22  1  0  0  0  0
 21 25  1  0  0  0  0
 21 26  1  0  0  0  0
 22 27  1  0  0  0  0
 28 29  1  0  0  0  0
 28 33  1  0  0  0  0
 29 30  1  0  0  0  0
 29 32  1  0  0  0  0
 29 34  1  0  0  0  0
 30 31  2  0  0  0  0
 30 38  1  0  0  0  0
 32 35  1  0  0  0  0
 32 36  1  0  0  0  0
 32 37  1  0  0  0  0
 38 39  1  0  0  0  0
 38 40  1  0  0  0  0
 39 41  1  0  0  0  0
 39 42  1  0  0  0  0
 39 43  1  0  0  0  0
M  END
$$$$

  -OEChem-05262216003D

 43 42  0     1  0  0  0  0  0999 V2000
   -3.1467   -5.3049    0.6985 C   0  0  0  0  0  0  0  0  0  0  0  0
   -2.2037   -6.0796    0.7364 O   0  0  0  0  0  0  0  0  0  0  0  0
   -4.4598   -5.6694    1.3646 C   0  0  0  0  0  0  0  0  0  0  0  0
   -5.2601   -5.6992    0.6214 H   0  0  0  0  0  0  0  0  0  0  0  0
   -4.3821   -6.6516    1.8395 H   0  0  0  0  0  0  0  0  0  0  0  0
   -4.7081   -4.9282    2.1285 H   0  0  0  0  0  0  0  0  0  0  0  0
   -3.0150   -4.0897    0.0606 N   0  0  0  0  0  0  0  0  0  0  0  0
   -1.7383   -3.5489   -0.4217 C   0  0  2  0  0  0  0  0  0  0  0  0
   -1.6642   -2.0233   -0.2159 C   0  0  0  0  0  0  0  0  0  0  0  0
   -2.6938   -1.3657   -0.1186 O   0  0  0  0  0  0  0  0  0  0  0  0
   -1.5883   -3.8969   -1.9038 C   0  0  0  0  0  0  0  0  0  0  0  0
   -3.7838   -3.4275    0.1603 H   0  0  0  0  0  0  0  0  0  0  0  0
   -0.9099   -3.9970    0.1376 H   0  0  0  0  0  0  0  0  0  0  0  0
   -2.4074   -3.4609   -2.4847 H   0  0  0  0  0  0  0  0  0  0  0  0
   -0.6409   -3.5125   -2.2938 H   0  0  0  0  0  0  0  0  0  0  0  0
   -1.6026   -4.9829   -2.0395 H   0  0  0  0  0  0  0  0  0  0  0  0
   -0.4447   -1.4003   -0.0182 N   0  0  0  0  0  0  0  0  0  0  0  0
   -0.2016    0.0565   -0.1365 C   0  0  2  0  0  0  0  0  0  0  0  0
   -0.7505    0.8796    1.0516 C   0  0  0  0  0  0  0  0  0  0  0  0
   -0.5392    2.0847    1.1135 O   0  0  0  0  0  0  0  0  0  0  0  0
   -0.7023    0.6116   -1.4820 C   0  0  0  0  0  0  0  0  0  0  0  0
    0.2767   -0.1265   -2.8558 S   0  0  0  0  0  0  0  0  0  0  0  0
    0.3645   -2.0018   -0.1501 H   0  0  0  0  0  0  0  0  0  0  0  0
    0.8811    0.2117   -0.1104 H   0  0  0  0  0  0  0  0  0  0  0  0
   -1.7691    0.4151   -1.6226 H   0  0  0  0  0  0  0  0  0  0  0  0
   -0.5685    1.6986   -1.5000 H   0  0  0  0  0  0  0  0  0  0  0  0
   -0.2627    0.5103   -3.9193 H   0  0  0  0  0  0  0  0  0  0  0  0
   -1.4014    0.2590    2.0988 N   0  0  0  0  0  0  0  0  0  0  0  0
   -2.0063    0.9333    3.2512 C   0  0  2  0  0  0  0  0  0  0  0  0
   -2.2610   -0.0514    4.4123 C   0  0  0  0  0  0  0  0  0  0  0  0
   -2.2998   -1.2605    4.2084 O   0  0  0  0  0  0  0  0  0  0  0  0
   -3.3267    1.5737    2.8093 C   0  0  0  0  0  0  0  0  0  0  0  0
   -1.6585   -0.7167    1.9472 H   0  0  0  0  0  0  0  0  0  0  0  0
   -1.3272    1.7117    3.6137 H   0  0  0  0  0  0  0  0  0  0  0  0
   -4.0109    0.8097    2.4251 H   0  0  0  0  0  0  0  0  0  0  0  0
   -3.8070    2.0826    3.6501 H   0  0  0  0  0  0  0  0  0  0  0  0
   -3.1498    2.3097    2.0190 H   0  0  0  0  0  0  0  0  0  0  0  0
   -2.4544    0.4223    5.6972 N   0  0  0  0  0  0  0  0  0  0  0  0
   -2.6799   -0.4462    6.8465 C   0  0  0  0  0  0  0  0  0  0  0  0
   -2.3969    1.4261    5.8416 H   0  0  0  0  0  0  0  0  0  0  0  0
   -3.5541   -1.0848    6.6807 H   0  0  0  0  0  0  0  0  0  0  0  0
   -1.8069   -1.0836    7.0215 H   0  0  0  0  0  0  0  0  0  0  0  0
   -2.8568    0.1536    7.7446 H   0  0  0  0  0  0  0  0  0  0  0  0
  1  2  2  0  0  0  0
  1  3  1  0  0  0  0
  1  7  1  0  0  0  0
  3  4  1  0  0  0  0
  3  5  1  0  0  0  0
  3  6  1  0  0  0  0
  7  8  1  0  0  0  0
  7 12  1  0  0  0  0
  8  9  1  0  0  0  0
  8 11  1  0  0  0  0
  8 13  1  0  0  0  0
  9 10  2  0  0  0  0
  9 17  1  0  0  0  0
 11 14  1  0  0  0  0
 11 15  1  0  0  0  0
 11 16  1  0  0  0  0
 17 18  1  0  0  0  0
 17 23  1  0  0  0  0
 18 19  1  0  0  0  0
 18 21  1  0  0  0  0
 18 24  1  0  0  0  0
 19 20  2  0  0  0  0
 19 28  1  0  0  0  0
 21 22  1  0  0  0  0
 21 25  1  0  0  0  0
 21 26  1  0  0  0  0
 22 27  1  0  0  0  0
 28 29  1  0  0  0  0
 28 33  1  0  0  0  0
 29 30  1  0  0  0  0
 29 32  1  0  0  0  0
 29 34  1  0  0  0  0
 30 31  2  0  0  0  0
 30 38  1  0  0  0  0
 32 35  1  0  0  0  0
 32 36  1  0  0  0  0
 32 37  1  0  0  0  0
 38 39  1  0  0  0  0
 38 40  1  0  0  0  0
 39 41  1  0  0  0  0
 39 42  1  0  0  0  0
 39 43  1  0  0  0  0
M  END
$$$$

  -OEChem-05262216003D

 43 42  0     1  0  0  0  0  0999 V2000
   -3.2872   -5.3034    0.6208 C   0  0  0  0  0  0  0  0  0  0  0  0
   -2.3694   -6.1074    0.6637 O   0  0  0  0  0  0  0  0  0  0  0  0
   -4.6487   -5.6698    1.1806 C   0  0  0  0  0  0  0  0  0  0  0  0
   -5.3986   -5.6398    0.3864 H   0  0  0  0  0  0  0  0  0  0  0  0
   -4.6229   -6.6777    1.6046 H   0  0  0  0  0  0  0  0  0  0  0  0
   -4.9314   -4.9651    1.9665 H   0  0  0  0  0  0  0  0  0  0  0  0
   -3.0847   -4.0557    0.0704 N   0  0  0  0  0  0  0  0  0  0  0  0
   -1.7706   -3.5333   -0.3244 C   0  0  2  0  0  0  0  0  0  0  0  0
   -1.6780   -2.0103   -0.1012 C   0  0  0  0  0  0  0  0  0  0  0  0
   -2.6982   -1.3482    0.0517 O   0  0  0  0  0  0  0  0  0  0  0  0
   -1.5315   -3.8727   -1.7985 C   0  0  0  0  0  0  0  0  0  0  0  0
   -3.8390   -3.3758    0.1634 H   0  0  0  0  0  0  0  0  0  0  0  0
   -0.9897   -4.0015    0.2849 H   0  0  0  0  0  0  0  0  0  0  0  0
   -2.3013   -3.4137   -2.4271 H   0  0  0  0  0  0  0  0  0  0  0  0
   -0.5528   -3.5070   -2.1243 H   0  0  0  0  0  0  0  0  0  0  0  0
   -1.5611   -4.9569   -1.9466 H   0  0  0  0  0  0  0  0  0  0  0  0
   -0.4436   -1.3938    0.0096 N   0  0  0  0  0  0  0  0  0  0  0  0
   -0.2119    0.0581   -0.1696 C   0  0  2  0  0  0  0  0  0  0  0  0
   -0.7001    0.9044    1.0284 C   0  0  0  0  0  0  0  0  0  0  0  0
   -0.7439    2.1266    0.9550 O   0  0  0  0  0  0  0  0  0  0  0  0
   -0.7842    0.5624   -1.5076 C   0  0  0  0  0  0  0  0  0  0  0  0
    0.1278   -0.2243   -2.9001 S   0  0  0  0  0  0  0  0  0  0  0  0
    0.3475   -1.9996   -0.1933 H   0  0  0  0  0  0  0  0  0  0  0  0
    0.8697    0.2185   -0.2039 H   0  0  0  0  0  0  0  0  0  0  0  0
   -1.8559    0.3575   -1.5845 H   0  0  0  0  0  0  0  0  0  0  0  0
   -0.6568    1.6481   -1.5756 H   0  0  0  0  0  0  0  0  0  0  0  0
   -0.4769    0.3650   -3.9557 H   0  0  0  0  0  0  0  0  0  0  0  0
   -0.9953    0.2972    2.2326 N   0  0  0  0  0  0  0  0  0  0  0  0
   -1.5428    0.9674    3.4157 C   0  0  2  0  0  0  0  0  0  0  0  0
   -1.3890    0.0911    4.6773 C   0  0  0  0  0  0  0  0  0  0  0  0
   -1.1286   -1.1034    4.5755 O   0  0  0  0  0  0  0  0  0  0  0  0
   -3.0250    1.2724    3.1649 C   0  0  0  0  0  0  0  0  0  0  0  0
   -0.9951   -0.7220    2.2386 H   0  0  0  0  0  0  0  0  0  0  0  0
   -0.9997    1.9027    3.5866 H   0  0  0  0  0  0  0  0  0  0  0  0
   -3.5759    0.3474    2.9658 H   0  0  0  0  0  0  0  0  0  0  0  0
   -3.4701    1.7637    4.0348 H   0  0  0  0  0  0  0  0  0  0  0  0
   -3.1396    1.9353    2.3017 H   0  0  0  0  0  0  0  0  0  0  0  0
   -1.5469    0.6411    5.9364 N   0  0  0  0  0  0  0  0  0  0  0  0
   -1.4143   -0.1274    7.1684 C   0  0  0  0  0  0  0  0  0  0  0  0
   -1.7510    1.6344    5.9943 H   0  0  0  0  0  0  0  0  0  0  0  0
   -2.1133   -0.9706    7.1726 H   0  0  0  0  0  0  0  0  0  0  0  0
   -0.3951   -0.5147    7.2708 H   0  0  0  0  0  0  0  0  0  0  0  0
   -1.6327    0.5048    8.0344 H   0  0  0  0  0  0  0  0  0  0  0  0
  1  2  2  0  0  0  0
  1  3  1  0  0  0  0
  1  7  1  0  0  0  0
  3  4  1  0  0  0  0
  3  5  1  0  0  0  0
  3  6  1  0  0  0  0
  7  8  1  0  0  0  0
  7 12  1  0  0  0  0
  8  9  1  0  0  0  0
  8 11  1  0  0  0  0
  8 13  1  0  0  0  0
  9 10  2  0  0  0  0
  9 17  1  0  0  0  0
 11 14  1  0  0  0  0
 11 15  1  0  0  0  0
 11 16  1  0  0  0  0
 17 18  1  0  0  0  0
 17 23  1  0  0  0  0
 18 19  1  0  0  0  0
 18 21  1  0  0  0  0
 18 24  1  0  0  0  0
 19 20  2  0  0  0  0
 19 28  1  0  0  0  0
 21 22  1  0  0  0  0
 21 25  1  0  0  0  0
 21 26  1  0  0  0  0
 22 27  1  0  0  0  0
 28 29  1  0  0  0  0
 28 33  1  0  0  0  0
 29 30  1  0  0  0  0
 29 32  1  0  0  0  0
 29 34  1  0  0  0  0
 30 31  2  0  0  0  0
 30 38  1  0  0  0  0
 32 35  1  0  0  0  0
 32 36  1  0  0  0  0
 32 37  1  0  0  0  0
 38 39  1  0  0  0  0
 38 40  1  0  0  0  0
 39 41  1  0  0  0  0
 39 42  1  0  0  0  0
 39 43  1  0  0  0  0
M  END
$$$$

  -OEChem-05262216003D

 43 42  0     1  0  0  0  0  0999 V2000
   -3.3626   -5.2737    0.6275 C   0  0  0  0  0  0  0  0  0  0  0  0
   -2.4566   -6.0906    0.6744 O   0  0  0  0  0  0  0  0  0  0  0  0
   -4.7415   -5.6331    1.1476 C   0  0  0  0  0  0  0  0  0  0  0  0
   -5.4746   -5.5641    0.3404 H   0  0  0  0  0  0  0  0  0  0  0  0
   -4.7424   -6.6548    1.5376 H   0  0  0  0  0  0  0  0  0  0  0  0
   -5.0274   -4.9496    1.9509 H   0  0  0  0  0  0  0  0  0  0  0  0
   -3.1296   -4.0166    0.1117 N   0  0  0  0  0  0  0  0  0  0  0  0
   -1.8054   -3.5128   -0.2725 C   0  0  2  0  0  0  0  0  0  0  0  0
   -1.6897   -1.9915   -0.0488 C   0  0  0  0  0  0  0  0  0  0  0  0
   -2.6999   -1.3155    0.1087 O   0  0  0  0  0  0  0  0  0  0  0  0
   -1.5661   -3.8544   -1.7456 C   0  0  0  0  0  0  0  0  0  0  0  0
   -3.8770   -3.3279    0.1942 H   0  0  0  0  0  0  0  0  0  0  0  0
   -1.0356   -3.9944    0.3402 H   0  0  0  0  0  0  0  0  0  0  0  0
   -2.3245   -3.3795   -2.3764 H   0  0  0  0  0  0  0  0  0  0  0  0
   -0.5793   -3.5074   -2.0665 H   0  0  0  0  0  0  0  0  0  0  0  0
   -1.6156   -4.9377   -1.8957 H   0  0  0  0  0  0  0  0  0  0  0  0
   -0.4451   -1.3920    0.0393 N   0  0  0  0  0  0  0  0  0  0  0  0
   -0.2048    0.0529   -0.1740 C   0  0  2  0  0  0  0  0  0  0  0  0
   -0.6814    0.9144    1.0177 C   0  0  0  0  0  0  0  0  0  0  0  0
   -0.9607    2.0993    0.8765 O   0  0  0  0  0  0  0  0  0  0  0  0
   -0.7756    0.5281   -1.5238 C   0  0  0  0  0  0  0  0  0  0  0  0
    0.1321   -0.2986   -2.8955 S   0  0  0  0  0  0  0  0  0  0  0  0
    0.3312   -2.0093   -0.1854 H   0  0  0  0  0  0  0  0  0  0  0  0
    0.8773    0.2068   -0.2158 H   0  0  0  0  0  0  0  0  0  0  0  0
   -1.8488    0.3271   -1.5946 H   0  0  0  0  0  0  0  0  0  0  0  0
   -0.6419    1.6109   -1.6199 H   0  0  0  0  0  0  0  0  0  0  0  0
   -0.4683    0.2696   -3.9648 H   0  0  0  0  0  0  0  0  0  0  0  0
   -0.6675    0.3816    2.2915 N   0  0  0  0  0  0  0  0  0  0  0  0
   -1.1529    1.0563    3.4993 C   0  0  2  0  0  0  0  0  0  0  0  0
   -0.6300    0.3697    4.7786 C   0  0  0  0  0  0  0  0  0  0  0  0
   -0.1425   -0.7547    4.7242 O   0  0  0  0  0  0  0  0  0  0  0  0
   -2.6862    1.0423    3.4835 C   0  0  0  0  0  0  0  0  0  0  0  0
   -0.4440   -0.6091    2.3731 H   0  0  0  0  0  0  0  0  0  0  0  0
   -0.7965    2.0914    3.5058 H   0  0  0  0  0  0  0  0  0  0  0  0
   -3.0573    0.0126    3.4562 H   0  0  0  0  0  0  0  0  0  0  0  0
   -3.0857    1.5340    4.3753 H   0  0  0  0  0  0  0  0  0  0  0  0
   -3.0650    1.5694    2.6020 H   0  0  0  0  0  0  0  0  0  0  0  0
   -0.7074    1.0144    5.9994 N   0  0  0  0  0  0  0  0  0  0  0  0
   -0.2222    0.4326    7.2450 C   0  0  0  0  0  0  0  0  0  0  0  0
   -1.1006    1.9509    6.0125 H   0  0  0  0  0  0  0  0  0  0  0  0
   -0.7001   -0.5356    7.4288 H   0  0  0  0  0  0  0  0  0  0  0  0
    0.8622    0.2869    7.2017 H   0  0  0  0  0  0  0  0  0  0  0  0
   -0.4503    1.0947    8.0860 H   0  0  0  0  0  0  0  0  0  0  0  0
  1  2  2  0  0  0  0
  1  3  1  0  0  0  0
  1  7  1  0  0  0  0
  3  4  1  0  0  0  0
  3  5  1  0  0  0  0
  3  6  1  0  0  0  0
  7  8  1  0  0  0  0
  7 12  1  0  0  0  0
  8  9  1  0  0  0  0
  8 11  1  0  0  0  0
  8 13  1  0  0  0  0
  9 10  2  0  0  0  0
  9 17  1  0  0  0  0
 11 14  1  0  0  0  0
 11 15  1  0  0  0  0
 11 16  1  0  0  0  0
 17 18  1  0  0  0  0
 17 23  1  0  0  0  0
 18 19  1  0  0  0  0
 18 21  1  0  0  0  0
 18 24  1  0  0  0  0
 19 20  2  0  0  0  0
 19 28  1  0  0  0  0
 21 22  1  0  0  0  0
 21 25  1  0  0  0  0
 21 26  1  0  0  0  0
 22 27  1  0  0  0  0
 28 29  1  0  0  0  0
 28 33  1  0  0  0  0
 29 30  1  0  0  0  0
 29 32  1  0  0  0  0
 29 34  1  0  0  0  0
 30 31  2  0  0  0  0
 30 38  1  0  0  0  0
 32 35  1  0  0  0  0
 32 36  1  0  0  0  0
 32 37  1  0  0  0  0
 38 39  1  0  0  0  0
 38 40  1  0  0  0  0
 39 41  1  0  0  0  0
 39 42  1  0  0  0  0
 39 43  1  0  0  0  0
M  END
$$$$

  -OEChem-05262216003D

 43 42  0     1  0  0  0  0  0999 V2000
   -3.3898   -5.2026    0.7417 C   0  0  0  0  0  0  0  0  0  0  0  0
   -2.4817   -6.0006    0.9126 O   0  0  0  0  0  0  0  0  0  0  0  0
   -4.7895   -5.5241    1.2308 C   0  0  0  0  0  0  0  0  0  0  0  0
   -5.4833   -5.5480    0.3870 H   0  0  0  0  0  0  0  0  0  0  0  0
   -4.8010   -6.4995    1.7246 H   0  0  0  0  0  0  0  0  0  0  0  0
   -5.1196   -4.7651    1.9441 H   0  0  0  0  0  0  0  0  0  0  0  0
   -3.1426   -4.0011    0.1126 N   0  0  0  0  0  0  0  0  0  0  0  0
   -1.8015   -3.5082   -0.2272 C   0  0  2  0  0  0  0  0  0  0  0  0
   -1.6992   -1.9794   -0.0543 C   0  0  0  0  0  0  0  0  0  0  0  0
   -2.7165   -1.3077    0.0701 O   0  0  0  0  0  0  0  0  0  0  0  0
   -1.4903   -3.9047   -1.6729 C   0  0  0  0  0  0  0  0  0  0  0  0
   -3.8928   -3.3104    0.1183 H   0  0  0  0  0  0  0  0  0  0  0  0
   -1.0592   -3.9612    0.4387 H   0  0  0  0  0  0  0  0  0  0  0  0
   -2.2180   -3.4576   -2.3577 H   0  0  0  0  0  0  0  0  0  0  0  0
   -0.4900   -3.5656   -1.9590 H   0  0  0  0  0  0  0  0  0  0  0  0
   -1.5301   -4.9931   -1.7832 H   0  0  0  0  0  0  0  0  0  0  0  0
   -0.4585   -1.3714    0.0281 N   0  0  0  0  0  0  0  0  0  0  0  0
   -0.2202    0.0701   -0.2005 C   0  0  2  0  0  0  0  0  0  0  0  0
   -0.7055    0.9300    0.9886 C   0  0  0  0  0  0  0  0  0  0  0  0
   -1.2096    2.0343    0.8207 O   0  0  0  0  0  0  0  0  0  0  0  0
   -0.7899    0.5327   -1.5557 C   0  0  0  0  0  0  0  0  0  0  0  0
    0.1166   -0.3038   -2.9229 S   0  0  0  0  0  0  0  0  0  0  0  0
    0.3229   -1.9897   -0.1735 H   0  0  0  0  0  0  0  0  0  0  0  0
    0.8614    0.2280   -0.2430 H   0  0  0  0  0  0  0  0  0  0  0  0
   -1.8632    0.3332   -1.6247 H   0  0  0  0  0  0  0  0  0  0  0  0
   -0.6554    1.6144   -1.6595 H   0  0  0  0  0  0  0  0  0  0  0  0
   -0.4922    0.2469   -3.9968 H   0  0  0  0  0  0  0  0  0  0  0  0
   -0.4071    0.5286    2.2761 N   0  0  0  0  0  0  0  0  0  0  0  0
   -0.8002    1.2360    3.4997 C   0  0  2  0  0  0  0  0  0  0  0  0
    0.0267    0.7587    4.7133 C   0  0  0  0  0  0  0  0  0  0  0  0
    0.7105   -0.2569    4.6341 O   0  0  0  0  0  0  0  0  0  0  0  0
   -2.2943    0.9931    3.7496 C   0  0  0  0  0  0  0  0  0  0  0  0
    0.0352   -0.3821    2.3907 H   0  0  0  0  0  0  0  0  0  0  0  0
   -0.6214    2.3089    3.3727 H   0  0  0  0  0  0  0  0  0  0  0  0
   -2.4909   -0.0772    3.8700 H   0  0  0  0  0  0  0  0  0  0  0  0
   -2.6241    1.5126    4.6542 H   0  0  0  0  0  0  0  0  0  0  0  0
   -2.8897    1.3615    2.9078 H   0  0  0  0  0  0  0  0  0  0  0  0
    0.0072    1.4679    5.9005 N   0  0  0  0  0  0  0  0  0  0  0  0
    0.7641    1.0723    7.0825 C   0  0  0  0  0  0  0  0  0  0  0  0
   -0.5600    2.3098    5.9369 H   0  0  0  0  0  0  0  0  0  0  0  0
    0.4858    0.0606    7.3963 H   0  0  0  0  0  0  0  0  0  0  0  0
    1.8390    1.0933    6.8743 H   0  0  0  0  0  0  0  0  0  0  0  0
    0.5587    1.7580    7.9100 H   0  0  0  0  0  0  0  0  0  0  0  0
  1  2  2  0  0  0  0
  1  3  1  0  0  0  0
  1  7  1  0  0  0  0
  3  4  1  0  0  0  0
  3  5  1  0  0  0  0
  3  6  1  0  0  0  0
  7  8  1  0  0  0  0
  7 12  1  0  0  0  0
  8  9  1  0  0  0  0
  8 11  1  0  0  0  0
  8 13  1  0  0  0  0
  9 10  2  0  0  0  0
  9 17  1  0  0  0  0
 11 14  1  0  0  0  0
 11 15  1  0  0  0  0
 11 16  1  0  0  0  0
 17 18  1  0  0  0  0
 17 23  1  0  0  0  0
 18 19  1  0  0  0  0
 18 21  1  0  0  0  0
 18 24  1  0  0  0  0
 19 20  2  0  0  0  0
 19 28  1  0  0  0  0
 21 22  1  0  0  0  0
 21 25  1  0  0  0  0
 21 26  1  0  0  0  0
 22 27  1  0  0  0  0
 28 29  1  0  0  0  0
 28 33  1  0  0  0  0
 29 30  1  0  0  0  0
 29 32  1  0  0  0  0
 29 34  1  0  0  0  0
 30 31  2  0  0  0  0
 30 38  1  0  0  0  0
 32 35  1  0  0  0  0
 32 36  1  0  0  0  0
 32 37  1  0  0  0  0
 38 39  1  0  0  0  0
 38 40  1  0  0  0  0
 39 41  1  0  0  0  0
 39 42  1  0  0  0  0
 39 43  1  0  0  0  0
M  END
$$$$

  -OEChem-05262216003D

 43 42  0     1  0  0  0  0  0999 V2000
   -3.4071   -5.1922    0.7718 C   0  0  0  0  0  0  0  0  0  0  0  0
   -2.4997   -5.9828    0.9771 O   0  0  0  0  0  0  0  0  0  0  0  0
   -4.8111   -5.5009    1.2573 C   0  0  0  0  0  0  0  0  0  0  0  0
   -5.4995   -5.5398    0.4096 H   0  0  0  0  0  0  0  0  0  0  0  0
   -4.8289   -6.4663    1.7709 H   0  0  0  0  0  0  0  0  0  0  0  0
   -5.1440   -4.7266    1.9529 H   0  0  0  0  0  0  0  0  0  0  0  0
   -3.1548   -4.0081    0.1125 N   0  0  0  0  0  0  0  0  0  0  0  0
   -1.8106   -3.5192   -0.2213 C   0  0  2  0  0  0  0  0  0  0  0  0
   -1.7071   -1.9897   -0.0538 C   0  0  0  0  0  0  0  0  0  0  0  0
   -2.7264   -1.3172    0.0422 O   0  0  0  0  0  0  0  0  0  0  0  0
   -1.4949   -3.9215   -1.6643 C   0  0  0  0  0  0  0  0  0  0  0  0
   -3.9059   -3.3185    0.0934 H   0  0  0  0  0  0  0  0  0  0  0  0
   -1.0711   -3.9709    0.4488 H   0  0  0  0  0  0  0  0  0  0  0  0
   -2.2285   -3.4877   -2.3517 H   0  0  0  0  0  0  0  0  0  0  0  0
   -0.4988   -3.5725   -1.9534 H   0  0  0  0  0  0  0  0  0  0  0  0
   -1.5217   -5.0111   -1.7665 H   0  0  0  0  0  0  0  0  0  0  0  0
   -0.4663   -1.3847    0.0478 N   0  0  0  0  0  0  0  0  0  0  0  0
   -0.2155    0.0548   -0.1762 C   0  0  2  0  0  0  0  0  0  0  0  0
   -0.7138    0.9188    1.0044 C   0  0  0  0  0  0  0  0  0  0  0  0
   -1.4139    1.9094    0.8297 O   0  0  0  0  0  0  0  0  0  0  0  0
   -0.7613    0.5211   -1.5396 C   0  0  0  0  0  0  0  0  0  0  0  0
    0.1625   -0.3210   -2.8918 S   0  0  0  0  0  0  0  0  0  0  0  0
    0.3167   -2.0079   -0.1299 H   0  0  0  0  0  0  0  0  0  0  0  0
    0.8674    0.2064   -0.2059 H   0  0  0  0  0  0  0  0  0  0  0  0
   -1.8342    0.3254   -1.6256 H   0  0  0  0  0  0  0  0  0  0  0  0
   -0.6224    1.6029   -1.6385 H   0  0  0  0  0  0  0  0  0  0  0  0
   -0.4370    0.2210   -3.9751 H   0  0  0  0  0  0  0  0  0  0  0  0
   -0.1874    0.7025    2.2636 N   0  0  0  0  0  0  0  0  0  0  0  0
   -0.5129    1.4819    3.4636 C   0  0  2  0  0  0  0  0  0  0  0  0
    0.5526    1.2919    4.5640 C   0  0  0  0  0  0  0  0  0  0  0  0
    1.3880    0.3989    4.4650 O   0  0  0  0  0  0  0  0  0  0  0  0
   -1.8899    1.0429    3.9764 C   0  0  0  0  0  0  0  0  0  0  0  0
    0.4404   -0.0908    2.3849 H   0  0  0  0  0  0  0  0  0  0  0  0
   -0.5424    2.5463    3.2088 H   0  0  0  0  0  0  0  0  0  0  0  0
   -1.8781   -0.0196    4.2400 H   0  0  0  0  0  0  0  0  0  0  0  0
   -2.1729    1.6194    4.8621 H   0  0  0  0  0  0  0  0  0  0  0  0
   -2.6529    1.2013    3.2074 H   0  0  0  0  0  0  0  0  0  0  0  0
    0.5841    2.1278    5.6654 N   0  0  0  0  0  0  0  0  0  0  0  0
    1.5732    2.0098    6.7301 C   0  0  0  0  0  0  0  0  0  0  0  0
   -0.1145    2.8636    5.7197 H   0  0  0  0  0  0  0  0  0  0  0  0
    1.5151    1.0224    7.2002 H   0  0  0  0  0  0  0  0  0  0  0  0
    2.5829    2.1509    6.3305 H   0  0  0  0  0  0  0  0  0  0  0  0
    1.3957    2.7682    7.4986 H   0  0  0  0  0  0  0  0  0  0  0  0
  1  2  2  0  0  0  0
  1  3  1  0  0  0  0
  1  7  1  0  0  0  0
  3  4  1  0  0  0  0
  3  5  1  0  0  0  0
  3  6  1  0  0  0  0
  7  8  1  0  0  0  0
  7 12  1  0  0  0  0
  8  9  1  0  0  0  0
  8 11  1  0  0  0  0
  8 13  1  0  0  0  0
  9 10  2  0  0  0  0
  9 17  1  0  0  0  0
 11 14  1  0  0  0  0
 11 15  1  0  0  0  0
 11 16  1  0  0  0  0
 17 18  1  0  0  0  0
 17 23  1  0  0  0  0
 18 19  1  0  0  0  0
 18 21  1  0  0  0  0
 18 24  1  0  0  0  0
 19 20  2  0  0  0  0
 19 28  1  0  0  0  0
 21 22  1  0  0  0  0
 21 25  1  0  0  0  0
 21 26  1  0  0  0  0
 22 27  1  0  0  0  0
 28 29  1  0  0  0  0
 28 33  1  0  0  0  0
 29 30  1  0  0  0  0
 29 32  1  0  0  0  0
 29 34  1  0  0  0  0
 30 31  2  0  0  0  0
 30 38  1  0  0  0  0
 32 35  1  0  0  0  0
 32 36  1  0  0  0  0
 32 37  1  0  0  0  0
 38 39  1  0  0  0  0
 38 40  1  0  0  0  0
 39 41  1  0  0  0  0
 39 42  1  0  0  0  0
 39 43  1  0  0  0  0
M  END
$$$$

  -OEChem-05262216003D

 43 42  0     1  0  0  0  0  0999 V2000
   -3.4101   -5.1774    0.8202 C   0  0  0  0  0  0  0  0  0  0  0  0
   -2.5004   -5.9505    1.0769 O   0  0  0  0  0  0  0  0  0  0  0  0
   -4.8219   -5.4830    1.2833 C   0  0  0  0  0  0  0  0  0  0  0  0
   -5.4888   -5.5614    0.4215 H   0  0  0  0  0  0  0  0  0  0  0  0
   -4.8425   -6.4287    1.8318 H   0  0  0  0  0  0  0  0  0  0  0  0
   -5.1796   -4.6870    1.9406 H   0  0  0  0  0  0  0  0  0  0  0  0
   -3.1537   -4.0163    0.1225 N   0  0  0  0  0  0  0  0  0  0  0  0
   -1.8060   -3.5248   -0.1923 C   0  0  2  0  0  0  0  0  0  0  0  0
   -1.7182   -1.9898   -0.0662 C   0  0  0  0  0  0  0  0  0  0  0  0
   -2.7452   -1.3253   -0.0152 O   0  0  0  0  0  0  0  0  0  0  0  0
   -1.4500   -3.9687   -1.6140 C   0  0  0  0  0  0  0  0  0  0  0  0
   -3.9099   -3.3344    0.0633 H   0  0  0  0  0  0  0  0  0  0  0  0
   -1.0812   -3.9499    0.5104 H   0  0  0  0  0  0  0  0  0  0  0  0
   -2.1544   -3.5426   -2.3358 H   0  0  0  0  0  0  0  0  0  0  0  0
   -0.4401   -3.6415   -1.8792 H   0  0  0  0  0  0  0  0  0  0  0  0
   -1.4895   -5.0600   -1.6904 H   0  0  0  0  0  0  0  0  0  0  0  0
   -0.4822   -1.3764    0.0479 N   0  0  0  0  0  0  0  0  0  0  0  0
   -0.2220    0.0633   -0.1644 C   0  0  2  0  0  0  0  0  0  0  0  0
   -0.7250    0.9296    1.0131 C   0  0  0  0  0  0  0  0  0  0  0  0
   -1.6000    1.7750    0.8680 O   0  0  0  0  0  0  0  0  0  0  0  0
   -0.7528    0.5421   -1.5285 C   0  0  0  0  0  0  0  0  0  0  0  0
    0.1773   -0.2943   -2.8795 S   0  0  0  0  0  0  0  0  0  0  0  0
    0.3076   -2.0001   -0.0915 H   0  0  0  0  0  0  0  0  0  0  0  0
    0.8622    0.2084   -0.1896 H   0  0  0  0  0  0  0  0  0  0  0  0
   -1.8260    0.3521   -1.6253 H   0  0  0  0  0  0  0  0  0  0  0  0
   -0.6084    1.6241   -1.6159 H   0  0  0  0  0  0  0  0  0  0  0  0
   -0.4355    0.2365   -3.9615 H   0  0  0  0  0  0  0  0  0  0  0  0
   -0.0077    0.9329    2.1945 N   0  0  0  0  0  0  0  0  0  0  0  0
   -0.2878    1.7878    3.3543 C   0  0  2  0  0  0  0  0  0  0  0  0
    0.9418    1.8978    4.2803 C   0  0  0  0  0  0  0  0  0  0  0  0
    1.8964    1.1419    4.1300 O   0  0  0  0  0  0  0  0  0  0  0  0
   -1.4791    1.2028    4.1222 C   0  0  0  0  0  0  0  0  0  0  0  0
    0.7785    0.2899    2.2770 H   0  0  0  0  0  0  0  0  0  0  0  0
   -0.5361    2.7977    3.0113 H   0  0  0  0  0  0  0  0  0  0  0  0
   -1.2541    0.1860    4.4598 H   0  0  0  0  0  0  0  0  0  0  0  0
   -1.7128    1.8169    4.9969 H   0  0  0  0  0  0  0  0  0  0  0  0
   -2.3661    1.1680    3.4815 H   0  0  0  0  0  0  0  0  0  0  0  0
    0.9817    2.8488    5.2831 N   0  0  0  0  0  0  0  0  0  0  0  0
    2.1036    2.9959    6.2023 C   0  0  0  0  0  0  0  0  0  0  0  0
    0.1753    3.4580    5.3869 H   0  0  0  0  0  0  0  0  0  0  0  0
    2.2489    2.0757    6.7779 H   0  0  0  0  0  0  0  0  0  0  0  0
    3.0243    3.2169    5.6521 H   0  0  0  0  0  0  0  0  0  0  0  0
    1.9147    3.8156    6.9022 H   0  0  0  0  0  0  0  0  0  0  0  0
  1  2  2  0  0  0  0
  1  3  1  0  0  0  0
  1  7  1  0  0  0  0
  3  4  1  0  0  0  0
  3  5  1  0  0  0  0
  3  6  1  0  0  0  0
  7  8  1  0  0  0  0
  7 12  1  0  0  0  0
  8  9  1  0  0  0  0
  8 11  1  0  0  0  0
  8 13  1  0  0  0  0
  9 10  2  0  0  0  0
  9 17  1  0  0  0  0
 11 14  1  0  0  0  0
 11 15  1  0  0  0  0
 11 16  1  0  0  0  0
 17 18  1  0  0  0  0
 17 23  1  0  0  0  0
 18 19  1  0  0  0  0
 18 21  1  0  0  0  0
 18 24  1  0  0  0  0
 19 20  2  0  0  0  0
 19 28  1  0  0  0  0
 21 22  1  0  0  0  0
 21 25  1  0  0  0  0
 21 26  1  0  0  0  0
 22 27  1  0  0  0  0
 28 29  1  0  0  0  0
 28 33  1  0  0  0  0
 29 30  1  0  0  0  0
 29 32  1  0  0  0  0
 29 34  1  0  0  0  0
 30 31  2  0  0  0  0
 30 38  1  0  0  0  0
 32 35  1  0  0  0  0
 32 36  1  0  0  0  0
 32 37  1  0  0  0  0
 38 39  1  0  0  0  0
 38 40  1  0  0  0  0
 39 41  1  0  0  0  0
 39 42  1  0  0  0  0
 39 43  1  0  0  0  0
M  END
$$$$

  -OEChem-05262216003D

 43 42  0     1  0  0  0  0  0999 V2000
   -3.4157   -5.1786    0.8379 C   0  0  0  0  0  0  0  0  0  0  0  0
   -2.5105   -5.9546    1.1020 O   0  0  0  0  0  0  0  0  0  0  0  0
   -4.8328   -5.4774    1.2895 C   0  0  0  0  0  0  0  0  0  0  0  0
   -5.4895   -5.5673    0.4208 H   0  0  0  0  0  0  0  0  0  0  0  0
   -4.8600   -6.4156    1.8509 H   0  0  0  0  0  0  0  0  0  0  0  0
   -5.1979   -4.6719    1.9316 H   0  0  0  0  0  0  0  0  0  0  0  0
   -3.1501   -4.0203    0.1399 N   0  0  0  0  0  0  0  0  0  0  0  0
   -1.8008   -3.5373   -0.1794 C   0  0  2  0  0  0  0  0  0  0  0  0
   -1.7166   -2.0002   -0.0799 C   0  0  0  0  0  0  0  0  0  0  0  0
   -2.7476   -1.3409   -0.0835 O   0  0  0  0  0  0  0  0  0  0  0  0
   -1.4436   -4.0039   -1.5932 C   0  0  0  0  0  0  0  0  0  0  0  0
   -3.9032   -3.3357    0.0706 H   0  0  0  0  0  0  0  0  0  0  0  0
   -1.0777   -3.9518    0.5312 H   0  0  0  0  0  0  0  0  0  0  0  0
   -2.1528   -3.5958   -2.3208 H   0  0  0  0  0  0  0  0  0  0  0  0
   -0.4367   -3.6732   -1.8656 H   0  0  0  0  0  0  0  0  0  0  0  0
   -1.4755   -5.0967   -1.6497 H   0  0  0  0  0  0  0  0  0  0  0  0
   -0.4837   -1.3848    0.0582 N   0  0  0  0  0  0  0  0  0  0  0  0
   -0.2110    0.0563   -0.1286 C   0  0  2  0  0  0  0  0  0  0  0  0
   -0.7188    0.9231    1.0476 C   0  0  0  0  0  0  0  0  0  0  0  0
   -1.7453    1.5861    0.9666 O   0  0  0  0  0  0  0  0  0  0  0  0
   -0.7218    0.5635   -1.4897 C   0  0  0  0  0  0  0  0  0  0  0  0
    0.2170   -0.2549   -2.8459 S   0  0  0  0  0  0  0  0  0  0  0  0
    0.3108   -2.0106   -0.0364 H   0  0  0  0  0  0  0  0  0  0  0  0
    0.8747    0.1880   -0.1435 H   0  0  0  0  0  0  0  0  0  0  0  0
   -1.7945    0.3814   -1.6032 H   0  0  0  0  0  0  0  0  0  0  0  0
   -0.5712    1.6461   -1.5544 H   0  0  0  0  0  0  0  0  0  0  0  0
   -0.3857    0.2914   -3.9254 H   0  0  0  0  0  0  0  0  0  0  0  0
    0.1228    1.1685    2.1172 N   0  0  0  0  0  0  0  0  0  0  0  0
   -0.1529    2.1050    3.2144 C   0  0  2  0  0  0  0  0  0  0  0  0
    1.1502    2.5457    3.9141 C   0  0  0  0  0  0  0  0  0  0  0  0
    2.2033    1.9638    3.6735 O   0  0  0  0  0  0  0  0  0  0  0  0
   -1.0948    1.4261    4.2157 C   0  0  0  0  0  0  0  0  0  0  0  0
    1.0363    0.7164    2.1218 H   0  0  0  0  0  0  0  0  0  0  0  0
   -0.6347    3.0044    2.8163 H   0  0  0  0  0  0  0  0  0  0  0  0
   -0.6312    0.5226    4.6247 H   0  0  0  0  0  0  0  0  0  0  0  0
   -1.3305    2.1024    5.0427 H   0  0  0  0  0  0  0  0  0  0  0  0
   -2.0330    1.1448    3.7264 H   0  0  0  0  0  0  0  0  0  0  0  0
    1.1486    3.6034    4.8050 N   0  0  0  0  0  0  0  0  0  0  0  0
    2.3460    4.0735    5.4914 C   0  0  0  0  0  0  0  0  0  0  0  0
    0.2636    4.0706    4.9810 H   0  0  0  0  0  0  0  0  0  0  0  0
    2.7843    3.2693    6.0917 H   0  0  0  0  0  0  0  0  0  0  0  0
    3.0918    4.4194    4.7679 H   0  0  0  0  0  0  0  0  0  0  0  0
    2.0990    4.9059    6.1575 H   0  0  0  0  0  0  0  0  0  0  0  0
  1  2  2  0  0  0  0
  1  3  1  0  0  0  0
  1  7  1  0  0  0  0
  3  4  1  0  0  0  0
  3  5  1  0  0  0  0
  3  6  1  0  0  0  0
  7  8  1  0  0  0  0
  7 12  1  0  0  0  0
  8  9  1  0  0  0  0
  8 11  1  0  0  0  0
  8 13  1  0  0  0  0
  9 10  2  0  0  0  0
  9 17  1  0  0  0  0
 11 14  1  0  0  0  0
 11 15  1  0  0  0  0
 11 16  1  0  0  0  0
 17 18  1  0  0  0  0
 17 23  1  0  0  0  0
 18 19  1  0  0  0  0
 18 21  1  0  0  0  0
 18 24  1  0  0  0  0
 19 20  2  0  0  0  0
 19 28  1  0  0  0  0
 21 22  1  0  0  0  0
 21 25  1  0  0  0  0
 21 26  1  0  0  0  0
 22 27  1  0  0  0  0
 28 29  1  0  0  0  0
 28 33  1  0  0  0  0
 29 30  1  0  0  0  0
 29 32  1  0  0  0  0
 29 34  1  0  0  0  0
 30 31  2  0  0  0  0
 30 38  1  0  0  0  0
 32 35  1  0  0  0  0
 32 36  1  0  0  0  0
 32 37  1  0  0  0  0
 38 39  1  0  0  0  0
 38 40  1  0  0  0  0
 39 41  1  0  0  0  0
 39 42  1  0  0  0  0
 39 43  1  0  0  0  0
M  END
$$$$

  -OEChem-05262216003D

 43 42  0     1  0  0  0  0  0999 V2000
   -3.4088   -5.0954    0.9567 C   0  0  0  0  0  0  0  0  0  0  0  0
   -2.5020   -5.8222    1.3323 O   0  0  0  0  0  0  0  0  0  0  0  0
   -4.8406   -5.3957    1.3574 C   0  0  0  0  0  0  0  0  0  0  0  0
   -5.4428   -5.5957    0.4677 H   0  0  0  0  0  0  0  0  0  0  0  0
   -4.8729   -6.2721    2.0106 H   0  0  0  0  0  0  0  0  0  0  0  0
   -5.2649   -4.5425    1.8921 H   0  0  0  0  0  0  0  0  0  0  0  0
   -3.1320   -3.9967    0.1716 N   0  0  0  0  0  0  0  0  0  0  0  0
   -1.7775   -3.5152   -0.1269 C   0  0  2  0  0  0  0  0  0  0  0  0
   -1.7184   -1.9744   -0.1699 C   0  0  0  0  0  0  0  0  0  0  0  0
   -2.7569   -1.3402   -0.2984 O   0  0  0  0  0  0  0  0  0  0  0  0
   -1.3422   -4.1092   -1.4690 C   0  0  0  0  0  0  0  0  0  0  0  0
   -3.8939   -3.3398    0.0021 H   0  0  0  0  0  0  0  0  0  0  0  0
   -1.0856   -3.8449    0.6554 H   0  0  0  0  0  0  0  0  0  0  0  0
   -2.0188   -3.7872   -2.2670 H   0  0  0  0  0  0  0  0  0  0  0  0
   -0.3276   -3.7874   -1.7220 H   0  0  0  0  0  0  0  0  0  0  0  0
   -1.3567   -5.2027   -1.4200 H   0  0  0  0  0  0  0  0  0  0  0  0
   -0.4946   -1.3400   -0.0298 N   0  0  0  0  0  0  0  0  0  0  0  0
   -0.2161    0.1042   -0.1837 C   0  0  2  0  0  0  0  0  0  0  0  0
   -0.7078    0.9564    1.0095 C   0  0  0  0  0  0  0  0  0  0  0  0
   -1.8563    1.3723    1.0805 O   0  0  0  0  0  0  0  0  0  0  0  0
   -0.7337    0.6622   -1.5206 C   0  0  0  0  0  0  0  0  0  0  0  0
    0.1843   -0.1170   -2.9129 S   0  0  0  0  0  0  0  0  0  0  0  0
    0.3077   -1.9619   -0.0034 H   0  0  0  0  0  0  0  0  0  0  0  0
    0.8710    0.2215   -0.2083 H   0  0  0  0  0  0  0  0  0  0  0  0
   -1.8089    0.4945   -1.6304 H   0  0  0  0  0  0  0  0  0  0  0  0
   -0.5742    1.7449   -1.5488 H   0  0  0  0  0  0  0  0  0  0  0  0
   -0.4397    0.4524   -3.9679 H   0  0  0  0  0  0  0  0  0  0  0  0
    0.2106    1.4445    1.9219 N   0  0  0  0  0  0  0  0  0  0  0  0
   -0.0961    2.3962    2.9978 C   0  0  2  0  0  0  0  0  0  0  0  0
    1.1699    3.1496    3.4577 C   0  0  0  0  0  0  0  0  0  0  0  0
    2.2763    2.7834    3.0742 O   0  0  0  0  0  0  0  0  0  0  0  0
   -0.7196    1.6297    4.1702 C   0  0  0  0  0  0  0  0  0  0  0  0
    1.1940    1.2122    1.7869 H   0  0  0  0  0  0  0  0  0  0  0  0
   -0.8092    3.1434    2.6334 H   0  0  0  0  0  0  0  0  0  0  0  0
   -0.0189    0.8810    4.5535 H   0  0  0  0  0  0  0  0  0  0  0  0
   -0.9800    2.3138    4.9833 H   0  0  0  0  0  0  0  0  0  0  0  0
   -1.6330    1.1190    3.8485 H   0  0  0  0  0  0  0  0  0  0  0  0
    1.0702    4.2472    4.2927 N   0  0  0  0  0  0  0  0  0  0  0  0
    2.2237    5.0116    4.7520 C   0  0  0  0  0  0  0  0  0  0  0  0
    0.1396    4.5414    4.5756 H   0  0  0  0  0  0  0  0  0  0  0  0
    2.9515    4.3536    5.2386 H   0  0  0  0  0  0  0  0  0  0  0  0
    2.7106    5.5135    3.9094 H   0  0  0  0  0  0  0  0  0  0  0  0
    1.9110    5.7714    5.4745 H   0  0  0  0  0  0  0  0  0  0  0  0
  1  2  2  0  0  0  0
  1  3  1  0  0  0  0
  1  7  1  0  0  0  0
  3  4  1  0  0  0  0
  3  5  1  0  0  0  0
  3  6  1  0  0  0  0
  7  8  1  0  0  0  0
  7 12  1  0  0  0  0
  8  9  1  0  0  0  0
  8 11  1  0  0  0  0
  8 13  1  0  0  0  0
  9 10  2  0  0  0  0
  9 17  1  0  0  0  0
 11 14  1  0  0  0  0
 11 15  1  0  0  0  0
 11 16  1  0  0  0  0
 17 18  1  0  0  0  0
 17 23  1  0  0  0  0
 18 19  1  0  0  0  0
 18 21  1  0  0  0  0
 18 24  1  0  0  0  0
 19 20  2  0  0  0  0
 19 28  1  0  0  0  0
 21 22  1  0  0  0  0
 21 25  1  0  0  0  0
 21 26  1  0  0  0  0
 22 27  1  0  0  0  0
 28 29  1  0  0  0  0
 28 33  1  0  0  0  0
 29 30  1  0  0  0  0
 29 32  1  0  0  0  0
 29 34  1  0  0  0  0
 30 31  2  0  0  0  0
 30 38  1  0  0  0  0
 32 35  1  0  0  0  0
 32 36  1  0  0  0  0
 32 37  1  0  0  0  0
 38 39  1  0  0  0  0
 38 40  1  0  0  0  0
 39 41  1  0  0  0  0
 39 42  1  0  0  0  0
 39 43  1  0  0  0  0
M  END
$$$$

  -OEChem-05262216003D

 43 42  0     1  0  0  0  0  0999 V2000
   -3.4424   -5.0068    1.0206 C   0  0  0  0  0  0  0  0  0  0  0  0
   -2.5569   -5.7049    1.4899 O   0  0  0  0  0  0  0  0  0  0  0  0
   -4.8929   -5.2831    1.3685 C   0  0  0  0  0  0  0  0  0  0  0  0
   -5.4597   -5.4967    0.4591 H   0  0  0  0  0  0  0  0  0  0  0  0
   -4.9625   -6.1450    2.0381 H   0  0  0  0  0  0  0  0  0  0  0  0
   -5.3296   -4.4138    1.8665 H   0  0  0  0  0  0  0  0  0  0  0  0
   -3.1245   -3.9604    0.1818 N   0  0  0  0  0  0  0  0  0  0  0  0
   -1.7566   -3.4917   -0.0717 C   0  0  2  0  0  0  0  0  0  0  0  0
   -1.7028   -1.9599   -0.2450 C   0  0  0  0  0  0  0  0  0  0  0  0
   -2.7351   -1.3552   -0.5044 O   0  0  0  0  0  0  0  0  0  0  0  0
   -1.2316   -4.1926   -1.3276 C   0  0  0  0  0  0  0  0  0  0  0  0
   -3.8767   -3.3198   -0.0722 H   0  0  0  0  0  0  0  0  0  0  0  0
   -1.1156   -3.7451    0.7792 H   0  0  0  0  0  0  0  0  0  0  0  0
   -1.8570   -3.9467   -2.1917 H   0  0  0  0  0  0  0  0  0  0  0  0
   -0.2046   -3.8825   -1.5427 H   0  0  0  0  0  0  0  0  0  0  0  0
   -1.2422   -5.2779   -1.1861 H   0  0  0  0  0  0  0  0  0  0  0  0
   -0.4854   -1.3107   -0.1084 N   0  0  0  0  0  0  0  0  0  0  0  0
   -0.2142    0.1378   -0.2393 C   0  0  2  0  0  0  0  0  0  0  0  0
   -0.6927    0.9741    0.9710 C   0  0  0  0  0  0  0  0  0  0  0  0
   -1.8713    1.0561    1.2853 O   0  0  0  0  0  0  0  0  0  0  0  0
   -0.7418    0.7332   -1.5559 C   0  0  0  0  0  0  0  0  0  0  0  0
    0.1628   -0.0059   -2.9787 S   0  0  0  0  0  0  0  0  0  0  0  0
    0.3094   -1.9172    0.0675 H   0  0  0  0  0  0  0  0  0  0  0  0
    0.8729    0.2509   -0.2727 H   0  0  0  0  0  0  0  0  0  0  0  0
   -1.8178    0.5716   -1.6627 H   0  0  0  0  0  0  0  0  0  0  0  0
   -0.5801    1.8160   -1.5576 H   0  0  0  0  0  0  0  0  0  0  0  0
   -0.5107    0.5456   -4.0127 H   0  0  0  0  0  0  0  0  0  0  0  0
    0.2248    1.7116    1.6980 N   0  0  0  0  0  0  0  0  0  0  0  0
   -0.1175    2.6468    2.7784 C   0  0  2  0  0  0  0  0  0  0  0  0
    0.9677    3.7327    2.9399 C   0  0  0  0  0  0  0  0  0  0  0  0
    2.0283    3.6355    2.3307 O   0  0  0  0  0  0  0  0  0  0  0  0
   -0.2865    1.8566    4.0811 C   0  0  0  0  0  0  0  0  0  0  0  0
    1.1853    1.7491    1.3572 H   0  0  0  0  0  0  0  0  0  0  0  0
   -1.0577    3.1556    2.5394 H   0  0  0  0  0  0  0  0  0  0  0  0
    0.6451    1.3446    4.3413 H   0  0  0  0  0  0  0  0  0  0  0  0
   -0.5598    2.5233    4.9042 H   0  0  0  0  0  0  0  0  0  0  0  0
   -1.0770    1.1075    3.9716 H   0  0  0  0  0  0  0  0  0  0  0  0
    0.7535    4.8267    3.7578 N   0  0  0  0  0  0  0  0  0  0  0  0
    1.7350    5.8881    3.9489 C   0  0  0  0  0  0  0  0  0  0  0  0
   -0.1412    4.8903    4.2352 H   0  0  0  0  0  0  0  0  0  0  0  0
    2.6723    5.4782    4.3403 H   0  0  0  0  0  0  0  0  0  0  0  0
    1.9413    6.3946    3.0001 H   0  0  0  0  0  0  0  0  0  0  0  0
    1.3585    6.6283    4.6617 H   0  0  0  0  0  0  0  0  0  0  0  0
  1  2  2  0  0  0  0
  1  3  1  0  0  0  0
  1  7  1  0  0  0  0
  3  4  1  0  0  0  0
  3  5  1  0  0  0  0
  3  6  1  0  0  0  0
  7  8  1  0  0  0  0
  7 12  1  0  0  0  0
  8  9  1  0  0  0  0
  8 11  1  0  0  0  0
  8 13  1  0  0  0  0
  9 10  2  0  0  0  0
  9 17  1  0  0  0  0
 11 14  1  0  0  0  0
 11 15  1  0  0  0  0
 11 16  1  0  0  0  0
 17 18  1  0  0  0  0
 17 23  1  0  0  0  0
 18 19  1  0  0  0  0
 18 21  1  0  0  0  0
 18 24  1  0  0  0  0
 19 20  2  0  0  0  0
 19 28  1  0  0  0  0
 21 22  1  0  0  0  0
 21 25  1  0  0  0  0
 21 26  1  0  0  0  0
 22 27  1  0  0  0  0
 28 29  1  0  0  0  0
 28 33  1  0  0  0  0
 29 30  1  0  0  0  0
 29 32  1  0  0  0  0
 29 34  1  0  0  0  0
 30 31  2  0  0  0  0
 30 38  1  0  0  0  0
 32 35  1  0  0  0  0
 32 36  1  0  0  0  0
 32 37  1  0  0  0  0
 38 39  1  0  0  0  0
 38 40  1  0  0  0  0
 39 41  1  0  0  0  0
 39 42  1  0  0  0  0
 39 43  1  0  0  0  0
M  END
$$$$

  -OEChem-05262216003D

 43 42  0     1  0  0  0  0  0999 V2000
   -3.5254   -4.9208    1.0301 C   0  0  0  0  0  0  0  0  0  0  0  0
   -2.6747   -5.6448    1.5237 O   0  0  0  0  0  0  0  0  0  0  0  0
   -4.9936   -5.1550    1.3311 C   0  0  0  0  0  0  0  0  0  0  0  0
   -5.5421   -5.3282    0.4023 H   0  0  0  0  0  0  0  0  0  0  0  0
   -5.1117   -6.0283    1.9786 H   0  0  0  0  0  0  0  0  0  0  0  0
   -5.4136   -4.2820    1.8363 H   0  0  0  0  0  0  0  0  0  0  0  0
   -3.1516   -3.8827    0.2046 N   0  0  0  0  0  0  0  0  0  0  0  0
   -1.7636   -3.4592   -0.0161 C   0  0  2  0  0  0  0  0  0  0  0  0
   -1.6702   -1.9415   -0.2811 C   0  0  0  0  0  0  0  0  0  0  0  0
   -2.6814   -1.3323   -0.6099 O   0  0  0  0  0  0  0  0  0  0  0  0
   -1.1980   -4.2477   -1.2014 C   0  0  0  0  0  0  0  0  0  0  0  0
   -3.8762   -3.2233   -0.0792 H   0  0  0  0  0  0  0  0  0  0  0  0
   -1.1692   -3.6722    0.8788 H   0  0  0  0  0  0  0  0  0  0  0  0
   -1.7809   -4.0479   -2.1063 H   0  0  0  0  0  0  0  0  0  0  0  0
   -0.1571   -3.9681   -1.3889 H   0  0  0  0  0  0  0  0  0  0  0  0
   -1.2342   -5.3218   -0.9938 H   0  0  0  0  0  0  0  0  0  0  0  0
   -0.4453   -1.3047   -0.1480 N   0  0  0  0  0  0  0  0  0  0  0  0
   -0.1751    0.1452   -0.2692 C   0  0  2  0  0  0  0  0  0  0  0  0
   -0.6396    0.9766    0.9495 C   0  0  0  0  0  0  0  0  0  0  0  0
   -1.6789    0.7381    1.5494 O   0  0  0  0  0  0  0  0  0  0  0  0
   -0.6898    0.7668   -1.5786 C   0  0  0  0  0  0  0  0  0  0  0  0
    0.2232    0.0470   -3.0054 S   0  0  0  0  0  0  0  0  0  0  0  0
    0.3258   -1.9005    0.1357 H   0  0  0  0  0  0  0  0  0  0  0  0
    0.9134    0.2487   -0.2960 H   0  0  0  0  0  0  0  0  0  0  0  0
   -1.7658    0.6166   -1.6971 H   0  0  0  0  0  0  0  0  0  0  0  0
   -0.5186    1.8479   -1.5625 H   0  0  0  0  0  0  0  0  0  0  0  0
   -0.4408    0.6132   -4.0372 H   0  0  0  0  0  0  0  0  0  0  0  0
    0.2024    1.9414    1.4722 N   0  0  0  0  0  0  0  0  0  0  0  0
   -0.1488    2.8383    2.5812 C   0  0  2  0  0  0  0  0  0  0  0  0
    0.5563    4.2035    2.4388 C   0  0  0  0  0  0  0  0  0  0  0  0
    1.4480    4.3483    1.6087 O   0  0  0  0  0  0  0  0  0  0  0  0
    0.2428    2.1593    3.8976 C   0  0  0  0  0  0  0  0  0  0  0  0
    1.0130    2.2138    0.9159 H   0  0  0  0  0  0  0  0  0  0  0  0
   -1.2279    3.0272    2.5778 H   0  0  0  0  0  0  0  0  0  0  0  0
    1.3203    1.9680    3.9231 H   0  0  0  0  0  0  0  0  0  0  0  0
   -0.0201    2.7918    4.7507 H   0  0  0  0  0  0  0  0  0  0  0  0
   -0.2833    1.2051    4.0033 H   0  0  0  0  0  0  0  0  0  0  0  0
    0.1767    5.2782    3.2215 N   0  0  0  0  0  0  0  0  0  0  0  0
    0.7842    6.5992    3.1146 C   0  0  0  0  0  0  0  0  0  0  0  0
   -0.5812    5.1362    3.8833 H   0  0  0  0  0  0  0  0  0  0  0  0
    1.8619    6.5419    3.3005 H   0  0  0  0  0  0  0  0  0  0  0  0
    0.6204    7.0162    2.1153 H   0  0  0  0  0  0  0  0  0  0  0  0
    0.3440    7.2794    3.8501 H   0  0  0  0  0  0  0  0  0  0  0  0
  1  2  2  0  0  0  0
  1  3  1  0  0  0  0
  1  7  1  0  0  0  0
  3  4  1  0  0  0  0
  3  5  1  0  0  0  0
  3  6  1  0  0  0  0
  7  8  1  0  0  0  0
  7 12  1  0  0  0  0
  8  9  1  0  0  0  0
  8 11  1  0  0  0  0
  8 13  1  0  0  0  0
  9 10  2  0  0  0  0
  9 17  1  0  0  0  0
 11 14  1  0  0  0  0
 11 15  1  0  0  0  0
 11 16  1  0  0  0  0
 17 18  1  0  0  0  0
 17 23  1  0  0  0  0
 18 19  1  0  0  0  0
 18 21  1  0  0  0  0
 18 24  1  0  0  0  0
 19 20  2  0  0  0  0
 19 28  1  0  0  0  0
 21 22  1  0  0  0  0
 21 25  1  0  0  0  0
 21 26  1  0  0  0  0
 22 27  1  0  0  0  0
 28 29  1  0  0  0  0
 28 33  1  0  0  0  0
 29 30  1  0  0  0  0
 29 32  1  0  0  0  0
 29 34  1  0  0  0  0
 30 31  2  0  0  0  0
 30 38  1  0  0  0  0
 32 35  1  0  0  0  0
 32 36  1  0  0  0  0
 32 37  1  0  0  0  0
 38 39  1  0  0  0  0
 38 40  1  0  0  0  0
 39 41  1  0  0  0  0
 39 42  1  0  0  0  0
 39 43  1  0  0  0  0
M  END
$$$$

  -OEChem-05262216003D

 43 42  0     1  0  0  0  0  0999 V2000
   -3.5513   -4.8816    1.0339 C   0  0  0  0  0  0  0  0  0  0  0  0
   -2.7139   -5.6109    1.5424 O   0  0  0  0  0  0  0  0  0  0  0  0
   -5.0259   -5.1093    1.3079 C   0  0  0  0  0  0  0  0  0  0  0  0
   -5.5639   -5.2471    0.3670 H   0  0  0  0  0  0  0  0  0  0  0  0
   -5.1614   -6.0022    1.9246 H   0  0  0  0  0  0  0  0  0  0  0  0
   -5.4438   -4.2488    1.8360 H   0  0  0  0  0  0  0  0  0  0  0  0
   -3.1586   -3.8471    0.2123 N   0  0  0  0  0  0  0  0  0  0  0  0
   -1.7646   -3.4330    0.0119 C   0  0  2  0  0  0  0  0  0  0  0  0
   -1.6559   -1.9208   -0.2750 C   0  0  0  0  0  0  0  0  0  0  0  0
   -2.6603   -1.2999   -0.6054 O   0  0  0  0  0  0  0  0  0  0  0  0
   -1.1790   -4.2420   -1.1498 C   0  0  0  0  0  0  0  0  0  0  0  0
   -3.8750   -3.1843   -0.0835 H   0  0  0  0  0  0  0  0  0  0  0  0
   -1.1886   -3.6341    0.9215 H   0  0  0  0  0  0  0  0  0  0  0  0
   -1.7407   -4.0501   -2.0698 H   0  0  0  0  0  0  0  0  0  0  0  0
   -0.1318   -3.9729   -1.3183 H   0  0  0  0  0  0  0  0  0  0  0  0
   -1.2277   -5.3128   -0.9278 H   0  0  0  0  0  0  0  0  0  0  0  0
   -0.4260   -1.2948   -0.1449 N   0  0  0  0  0  0  0  0  0  0  0  0
   -0.1529    0.1530   -0.2732 C   0  0  2  0  0  0  0  0  0  0  0  0
   -0.6151    0.9900    0.9420 C   0  0  0  0  0  0  0  0  0  0  0  0
   -1.4539    0.5834    1.7358 O   0  0  0  0  0  0  0  0  0  0  0  0
   -0.6542    0.7694   -1.5915 C   0  0  0  0  0  0  0  0  0  0  0  0
    0.2710    0.0406   -3.0057 S   0  0  0  0  0  0  0  0  0  0  0  0
    0.3315   -1.8857    0.1817 H   0  0  0  0  0  0  0  0  0  0  0  0
    0.9360    0.2534   -0.2913 H   0  0  0  0  0  0  0  0  0  0  0  0
   -1.7289    0.6198   -1.7215 H   0  0  0  0  0  0  0  0  0  0  0  0
   -0.4825    1.8506   -1.5807 H   0  0  0  0  0  0  0  0  0  0  0  0
   -0.3763    0.6088   -4.0467 H   0  0  0  0  0  0  0  0  0  0  0  0
    0.0732    2.1454    1.2625 N   0  0  0  0  0  0  0  0  0  0  0  0
   -0.3033    3.0629    2.3453 C   0  0  2  0  0  0  0  0  0  0  0  0
    0.0220    4.5241    1.9700 C   0  0  0  0  0  0  0  0  0  0  0  0
    0.7108    4.7635    0.9832 O   0  0  0  0  0  0  0  0  0  0  0  0
    0.4440    2.6475    3.6162 C   0  0  0  0  0  0  0  0  0  0  0  0
    0.7076    2.5235    0.5588 H   0  0  0  0  0  0  0  0  0  0  0  0
   -1.3824    3.0040    2.5249 H   0  0  0  0  0  0  0  0  0  0  0  0
    1.5259    2.7030    3.4600 H   0  0  0  0  0  0  0  0  0  0  0  0
    0.1779    3.3027    4.4509 H   0  0  0  0  0  0  0  0  0  0  0  0
    0.1836    1.6200    3.8894 H   0  0  0  0  0  0  0  0  0  0  0  0
   -0.4751    5.5726    2.7215 N   0  0  0  0  0  0  0  0  0  0  0  0
   -0.2429    6.9737    2.3918 C   0  0  0  0  0  0  0  0  0  0  0  0
   -1.0680    5.3446    3.5145 H   0  0  0  0  0  0  0  0  0  0  0  0
    0.8306    7.1864    2.3529 H   0  0  0  0  0  0  0  0  0  0  0  0
   -0.6852    7.2172    1.4202 H   0  0  0  0  0  0  0  0  0  0  0  0
   -0.6950    7.6206    3.1495 H   0  0  0  0  0  0  0  0  0  0  0  0
  1  2  2  0  0  0  0
  1  3  1  0  0  0  0
  1  7  1  0  0  0  0
  3  4  1  0  0  0  0
  3  5  1  0  0  0  0
  3  6  1  0  0  0  0
  7  8  1  0  0  0  0
  7 12  1  0  0  0  0
  8  9  1  0  0  0  0
  8 11  1  0  0  0  0
  8 13  1  0  0  0  0
  9 10  2  0  0  0  0
  9 17  1  0  0  0  0
 11 14  1  0  0  0  0
 11 15  1  0  0  0  0
 11 16  1  0  0  0  0
 17 18  1  0  0  0  0
 17 23  1  0  0  0  0
 18 19  1  0  0  0  0
 18 21  1  0  0  0  0
 18 24  1  0  0  0  0
 19 20  2  0  0  0  0
 19 28  1  0  0  0  0
 21 22  1  0  0  0  0
 21 25  1  0  0  0  0
 21 26  1  0  0  0  0
 22 27  1  0  0  0  0
 28 29  1  0  0  0  0
 28 33  1  0  0  0  0
 29 30  1  0  0  0  0
 29 32  1  0  0  0  0
 29 34  1  0  0  0  0
 30 31  2  0  0  0  0
 30 38  1  0  0  0  0
 32 35  1  0  0  0  0
 32 36  1  0  0  0  0
 32 37  1  0  0  0  0
 38 39  1  0  0  0  0
 38 40  1  0  0  0  0
 39 41  1  0  0  0  0
 39 42  1  0  0  0  0
 39 43  1  0  0  0  0
M  END
$$$$

  -OEChem-05262216003D

 43 42  0     1  0  0  0  0  0999 V2000
   -3.5301   -4.9013    1.0166 C   0  0  0  0  0  0  0  0  0  0  0  0
   -2.6888   -5.6445    1.4975 O   0  0  0  0  0  0  0  0  0  0  0  0
   -5.0012   -5.1266    1.3102 C   0  0  0  0  0  0  0  0  0  0  0  0
   -5.5508   -5.2683    0.3766 H   0  0  0  0  0  0  0  0  0  0  0  0
   -5.1292   -6.0162    1.9331 H   0  0  0  0  0  0  0  0  0  0  0  0
   -5.4117   -4.2635    1.8401 H   0  0  0  0  0  0  0  0  0  0  0  0
   -3.1448   -3.8489    0.2144 N   0  0  0  0  0  0  0  0  0  0  0  0
   -1.7528   -3.4236    0.0233 C   0  0  2  0  0  0  0  0  0  0  0  0
   -1.6531   -1.9048   -0.2300 C   0  0  0  0  0  0  0  0  0  0  0  0
   -2.6641   -1.2749   -0.5229 O   0  0  0  0  0  0  0  0  0  0  0  0
   -1.1611   -4.2009   -1.1566 C   0  0  0  0  0  0  0  0  0  0  0  0
   -3.8636   -3.1767   -0.0537 H   0  0  0  0  0  0  0  0  0  0  0  0
   -1.1755   -3.6412    0.9284 H   0  0  0  0  0  0  0  0  0  0  0  0
   -1.7227   -3.9894   -2.0721 H   0  0  0  0  0  0  0  0  0  0  0  0
   -0.1156   -3.9209   -1.3164 H   0  0  0  0  0  0  0  0  0  0  0  0
   -1.2033   -5.2771   -0.9619 H   0  0  0  0  0  0  0  0  0  0  0  0
   -0.4241   -1.2767   -0.1094 N   0  0  0  0  0  0  0  0  0  0  0  0
   -0.1547    0.1681   -0.2706 C   0  0  2  0  0  0  0  0  0  0  0  0
   -0.6270    1.0264    0.9264 C   0  0  0  0  0  0  0  0  0  0  0  0
   -1.2436    0.5435    1.8686 O   0  0  0  0  0  0  0  0  0  0  0  0
   -0.6524    0.7394   -1.6125 C   0  0  0  0  0  0  0  0  0  0  0  0
    0.2879   -0.0287   -2.9953 S   0  0  0  0  0  0  0  0  0  0  0  0
    0.3403   -1.8644    0.2070 H   0  0  0  0  0  0  0  0  0  0  0  0
    0.9334    0.2781   -0.2827 H   0  0  0  0  0  0  0  0  0  0  0  0
   -1.7248    0.5767   -1.7451 H   0  0  0  0  0  0  0  0  0  0  0  0
   -0.4895    1.8214   -1.6396 H   0  0  0  0  0  0  0  0  0  0  0  0
   -0.3461    0.5104   -4.0599 H   0  0  0  0  0  0  0  0  0  0  0  0
   -0.1688    2.3249    1.0504 N   0  0  0  0  0  0  0  0  0  0  0  0
   -0.6079    3.2654    2.0886 C   0  0  2  0  0  0  0  0  0  0  0  0
   -0.6164    4.7118    1.5503 C   0  0  0  0  0  0  0  0  0  0  0  0
   -0.1222    4.9595    0.4546 O   0  0  0  0  0  0  0  0  0  0  0  0
    0.3303    3.1370    3.2925 C   0  0  0  0  0  0  0  0  0  0  0  0
    0.2792    2.7423    0.2344 H   0  0  0  0  0  0  0  0  0  0  0  0
   -1.6305    3.0252    2.3994 H   0  0  0  0  0  0  0  0  0  0  0  0
    1.3594    3.3701    3.0014 H   0  0  0  0  0  0  0  0  0  0  0  0
    0.0292    3.8219    4.0906 H   0  0  0  0  0  0  0  0  0  0  0  0
    0.3019    2.1164    3.6873 H   0  0  0  0  0  0  0  0  0  0  0  0
   -1.1896    5.7346    2.2826 N   0  0  0  0  0  0  0  0  0  0  0  0
   -1.2390    7.1170    1.8221 C   0  0  0  0  0  0  0  0  0  0  0  0
   -1.6063    5.4979    3.1785 H   0  0  0  0  0  0  0  0  0  0  0  0
   -0.2278    7.5016    1.6529 H   0  0  0  0  0  0  0  0  0  0  0  0
   -1.8042    7.1888    0.8868 H   0  0  0  0  0  0  0  0  0  0  0  0
   -1.7268    7.7481    2.5710 H   0  0  0  0  0  0  0  0  0  0  0  0
  1  2  2  0  0  0  0
  1  3  1  0  0  0  0
  1  7  1  0  0  0  0
  3  4  1  0  0  0  0
  3  5  1  0  0  0  0
  3  6  1  0  0  0  0
  7  8  1  0  0  0  0
  7 12  1  0  0  0  0
  8  9  1  0  0  0  0
  8 11  1  0  0  0  0
  8 13  1  0  0  0  0
  9 10  2  0  0  0  0
  9 17  1  0  0  0  0
 11 14  1  0  0  0  0
 11 15  1  0  0  0  0
 11 16  1  0  0  0  0
 17 18  1  0  0  0  0
 17 23  1  0  0  0  0
 18 19  1  0  0  0  0
 18 21  1  0  0  0  0
 18 24  1  0  0  0  0
 19 20  2  0  0  0  0
 19 28  1  0  0  0  0
 21 22  1  0  0  0  0
 21 25  1  0  0  0  0
 21 26  1  0  0  0  0
 22 27  1  0  0  0  0
 28 29  1  0  0  0  0
 28 33  1  0  0  0  0
 29 30  1  0  0  0  0
 29 32  1  0  0  0  0
 29 34  1  0  0  0  0
 30 31  2  0  0  0  0
 30 38  1  0  0  0  0
 32 35  1  0  0  0  0
 32 36  1  0  0  0  0
 32 37  1  0  0  0  0
 38 39  1  0  0  0  0
 38 40  1  0  0  0  0
 39 41  1  0  0  0  0
 39 42  1  0  0  0  0
 39 43  1  0  0  0  0
M  END
$$$$

  -OEChem-05262216003D

 43 42  0     1  0  0  0  0  0999 V2000
   -3.5248   -4.9418    1.0419 C   0  0  0  0  0  0  0  0  0  0  0  0
   -2.6691   -5.7020    1.4674 O   0  0  0  0  0  0  0  0  0  0  0  0
   -4.9893   -5.1991    1.3426 C   0  0  0  0  0  0  0  0  0  0  0  0
   -5.5495   -5.3034    0.4103 H   0  0  0  0  0  0  0  0  0  0  0  0
   -5.0988   -6.1186    1.9240 H   0  0  0  0  0  0  0  0  0  0  0  0
   -5.4030   -4.3672    1.9178 H   0  0  0  0  0  0  0  0  0  0  0  0
   -3.1624   -3.8402    0.2970 N   0  0  0  0  0  0  0  0  0  0  0  0
   -1.7777   -3.3976    0.0897 C   0  0  2  0  0  0  0  0  0  0  0  0
   -1.6963   -1.8737   -0.1456 C   0  0  0  0  0  0  0  0  0  0  0  0
   -2.7286   -1.2430   -0.3457 O   0  0  0  0  0  0  0  0  0  0  0  0
   -1.1962   -4.1532   -1.1098 C   0  0  0  0  0  0  0  0  0  0  0  0
   -3.8931   -3.1664    0.0679 H   0  0  0  0  0  0  0  0  0  0  0  0
   -1.1848   -3.6242    0.9826 H   0  0  0  0  0  0  0  0  0  0  0  0
   -1.7772   -3.9407   -2.0128 H   0  0  0  0  0  0  0  0  0  0  0  0
   -0.1580   -3.8562   -1.2861 H   0  0  0  0  0  0  0  0  0  0  0  0
   -1.2189   -5.2321   -0.9263 H   0  0  0  0  0  0  0  0  0  0  0  0
   -0.4659   -1.2417   -0.0699 N   0  0  0  0  0  0  0  0  0  0  0  0
   -0.1553    0.1847   -0.3208 C   0  0  2  0  0  0  0  0  0  0  0  0
   -0.2726    1.0463    0.9592 C   0  0  0  0  0  0  0  0  0  0  0  0
   -0.4532    0.5315    2.0569 O   0  0  0  0  0  0  0  0  0  0  0  0
   -0.8962    0.8081   -1.5236 C   0  0  0  0  0  0  0  0  0  0  0  0
   -0.3448   -0.0110   -3.0764 S   0  0  0  0  0  0  0  0  0  0  0  0
    0.3025   -1.8309    0.2348 H   0  0  0  0  0  0  0  0  0  0  0  0
    0.9056    0.2243   -0.5840 H   0  0  0  0  0  0  0  0  0  0  0  0
   -1.9810    0.7428   -1.4130 H   0  0  0  0  0  0  0  0  0  0  0  0
   -0.6541    1.8721   -1.6019 H   0  0  0  0  0  0  0  0  0  0  0  0
   -1.1727    0.5684   -3.9737 H   0  0  0  0  0  0  0  0  0  0  0  0
   -0.0189    2.4049    0.9147 N   0  0  0  0  0  0  0  0  0  0  0  0
   -0.2236    3.3258    2.0399 C   0  0  2  0  0  0  0  0  0  0  0  0
   -0.6518    4.7209    1.5371 C   0  0  0  0  0  0  0  0  0  0  0  0
   -0.6046    4.9787    0.3384 O   0  0  0  0  0  0  0  0  0  0  0  0
    1.0783    3.4127    2.8426 C   0  0  0  0  0  0  0  0  0  0  0  0
    0.0474    2.8385   -0.0059 H   0  0  0  0  0  0  0  0  0  0  0  0
   -1.0245    2.9505    2.6865 H   0  0  0  0  0  0  0  0  0  0  0  0
    1.8926    3.7828    2.2117 H   0  0  0  0  0  0  0  0  0  0  0  0
    0.9620    4.0891    3.6945 H   0  0  0  0  0  0  0  0  0  0  0  0
    1.3547    2.4247    3.2243 H   0  0  0  0  0  0  0  0  0  0  0  0
   -1.1021    5.6843    2.4207 N   0  0  0  0  0  0  0  0  0  0  0  0
   -1.5387    7.0108    2.0016 C   0  0  0  0  0  0  0  0  0  0  0  0
   -1.1566    5.4347    3.4041 H   0  0  0  0  0  0  0  0  0  0  0  0
   -0.7474    7.5145    1.4361 H   0  0  0  0  0  0  0  0  0  0  0  0
   -2.4308    6.9382    1.3707 H   0  0  0  0  0  0  0  0  0  0  0  0
   -1.7800    7.6242    2.8749 H   0  0  0  0  0  0  0  0  0  0  0  0
  1  2  2  0  0  0  0
  1  3  1  0  0  0  0
  1  7  1  0  0  0  0
  3  4  1  0  0  0  0
  3  5  1  0  0  0  0
  3  6  1  0  0  0  0
  7  8  1  0  0  0  0
  7 12  1  0  0  0  0
  8  9  1  0  0  0  0
  8 11  1  0  0  0  0
  8 13  1  0  0  0  0
  9 10  2  0  0  0  0
  9 17  1  0  0  0  0
 11 14  1  0  0  0  0
 11 15  1  0  0  0  0
 11 16  1  0  0  0  0
 17 18  1  0  0  0  0
 17 23  1  0  0  0  0
 18 19  1  0  0  0  0
 18 21  1  0  0  0  0
 18 24  1  0  0  0  0
 19 20  2  0  0  0  0
 19 28  1  0  0  0  0
 21 22  1  0  0  0  0
 21 25  1  0  0  0  0
 21 26  1  0  0  0  0
 22 27  1  0  0  0  0
 28 29  1  0  0  0  0
 28 33  1  0  0  0  0
 29 30  1  0  0  0  0
 29 32  1  0  0  0  0
 29 34  1  0  0  0  0
 30 31  2  0  0  0  0
 30 38  1  0  0  0  0
 32 35  1  0  0  0  0
 32 36  1  0  0  0  0
 32 37  1  0  0  0  0
 38 39  1  0  0  0  0
 38 40  1  0  0  0  0
 39 41  1  0  0  0  0
 39 42  1  0  0  0  0
 39 43  1  0  0  0  0
M  END
$$$$

  -OEChem-05262216003D

 43 42  0     1  0  0  0  0  0999 V2000
   -3.4716   -4.9559    1.0680 C   0  0  0  0  0  0  0  0  0  0  0  0
   -2.6010   -5.6845    1.5176 O   0  0  0  0  0  0  0  0  0  0  0  0
   -4.9317   -5.2383    1.3684 C   0  0  0  0  0  0  0  0  0  0  0  0
   -5.4833   -5.3838    0.4364 H   0  0  0  0  0  0  0  0  0  0  0  0
   -5.0233   -6.1421    1.9772 H   0  0  0  0  0  0  0  0  0  0  0  0
   -5.3687   -4.3990    1.9151 H   0  0  0  0  0  0  0  0  0  0  0  0
   -3.1305   -3.8685    0.2929 N   0  0  0  0  0  0  0  0  0  0  0  0
   -1.7551   -3.4003    0.0795 C   0  0  2  0  0  0  0  0  0  0  0  0
   -1.7007   -1.8734   -0.1425 C   0  0  0  0  0  0  0  0  0  0  0  0
   -2.7423   -1.2563   -0.3373 O   0  0  0  0  0  0  0  0  0  0  0  0
   -1.1754   -4.1358   -1.1333 C   0  0  0  0  0  0  0  0  0  0  0  0
   -3.8751   -3.2180    0.0436 H   0  0  0  0  0  0  0  0  0  0  0  0
   -1.1496   -3.6241    0.9648 H   0  0  0  0  0  0  0  0  0  0  0  0
   -1.7624   -3.9138   -2.0303 H   0  0  0  0  0  0  0  0  0  0  0  0
   -0.1398   -3.8305   -1.3106 H   0  0  0  0  0  0  0  0  0  0  0  0
   -1.1911   -5.2174   -0.9649 H   0  0  0  0  0  0  0  0  0  0  0  0
   -0.4852   -1.2162   -0.0568 N   0  0  0  0  0  0  0  0  0  0  0  0
   -0.1991    0.2089   -0.3398 C   0  0  2  0  0  0  0  0  0  0  0  0
   -0.3676    1.0889    0.9232 C   0  0  0  0  0  0  0  0  0  0  0  0
   -0.3056    0.5891    2.0410 O   0  0  0  0  0  0  0  0  0  0  0  0
   -0.9198    0.7734   -1.5852 C   0  0  0  0  0  0  0  0  0  0  0  0
   -0.3028   -0.0800   -3.0948 S   0  0  0  0  0  0  0  0  0  0  0  0
    0.2951   -1.7865    0.2548 H   0  0  0  0  0  0  0  0  0  0  0  0
    0.8678    0.2694   -0.5740 H   0  0  0  0  0  0  0  0  0  0  0  0
   -2.0055    0.6839   -1.5041 H   0  0  0  0  0  0  0  0  0  0  0  0
   -0.6995    1.8390   -1.6944 H   0  0  0  0  0  0  0  0  0  0  0  0
   -1.1122    0.4539   -4.0364 H   0  0  0  0  0  0  0  0  0  0  0  0
   -0.4533    2.4668    0.8322 N   0  0  0  0  0  0  0  0  0  0  0  0
   -0.6991    3.3681    1.9651 C   0  0  2  0  0  0  0  0  0  0  0  0
   -1.4058    4.6598    1.4996 C   0  0  0  0  0  0  0  0  0  0  0  0
   -1.5270    4.8925    0.3009 O   0  0  0  0  0  0  0  0  0  0  0  0
    0.6409    3.6976    2.6320 C   0  0  0  0  0  0  0  0  0  0  0  0
   -0.5942    2.8695   -0.0937 H   0  0  0  0  0  0  0  0  0  0  0  0
   -1.3556    2.8757    2.6911 H   0  0  0  0  0  0  0  0  0  0  0  0
    1.3062    4.2012    1.9237 H   0  0  0  0  0  0  0  0  0  0  0  0
    0.4904    4.3515    3.4959 H   0  0  0  0  0  0  0  0  0  0  0  0
    1.1295    2.7811    2.9777 H   0  0  0  0  0  0  0  0  0  0  0  0
   -1.9126    5.5592    2.4197 N   0  0  0  0  0  0  0  0  0  0  0  0
   -2.6025    6.7875    2.0430 C   0  0  0  0  0  0  0  0  0  0  0  0
   -1.8207    5.3283    3.4048 H   0  0  0  0  0  0  0  0  0  0  0  0
   -1.9661    7.4047    1.4000 H   0  0  0  0  0  0  0  0  0  0  0  0
   -3.5283    6.5570    1.5057 H   0  0  0  0  0  0  0  0  0  0  0  0
   -2.8549    7.3688    2.9351 H   0  0  0  0  0  0  0  0  0  0  0  0
  1  2  2  0  0  0  0
  1  3  1  0  0  0  0
  1  7  1  0  0  0  0
  3  4  1  0  0  0  0
  3  5  1  0  0  0  0
  3  6  1  0  0  0  0
  7  8  1  0  0  0  0
  7 12  1  0  0  0  0
  8  9  1  0  0  0  0
  8 11  1  0  0  0  0
  8 13  1  0  0  0  0
  9 10  2  0  0  0  0
  9 17  1  0  0  0  0
 11 14  1  0  0  0  0
 11 15  1  0  0  0  0
 11 16  1  0  0  0  0
 17 18  1  0  0  0  0
 17 23  1  0  0  0  0
 18 19  1  0  0  0  0
 18 21  1  0  0  0  0
 18 24  1  0  0  0  0
 19 20  2  0  0  0  0
 19 28  1  0  0  0  0
 21 22  1  0  0  0  0
 21 25  1  0  0  0  0
 21 26  1  0  0  0  0
 22 27  1  0  0  0  0
 28 29  1  0  0  0  0
 28 33  1  0  0  0  0
 29 30  1  0  0  0  0
 29 32  1  0  0  0  0
 29 34  1  0  0  0  0
 30 31  2  0  0  0  0
 30 38  1  0  0  0  0
 32 35  1  0  0  0  0
 32 36  1  0  0  0  0
 32 37  1  0  0  0  0
 38 39  1  0  0  0  0
 38 40  1  0  0  0  0
 39 41  1  0  0  0  0
 39 42  1  0  0  0  0
 39 43  1  0  0  0  0
M  END
$$$$

  -OEChem-05262216003D

 43 42  0     1  0  0  0  0  0999 V2000
   -3.4693   -4.9525    1.0573 C   0  0  0  0  0  0  0  0  0  0  0  0
   -2.5961   -5.6826    1.4990 O   0  0  0  0  0  0  0  0  0  0  0  0
   -4.9282   -5.2479    1.3499 C   0  0  0  0  0  0  0  0  0  0  0  0
   -5.4713   -5.4030    0.4146 H   0  0  0  0  0  0  0  0  0  0  0  0
   -5.0155   -6.1499    1.9623 H   0  0  0  0  0  0  0  0  0  0  0  0
   -5.3775   -4.4111    1.8902 H   0  0  0  0  0  0  0  0  0  0  0  0
   -3.1322   -3.8535    0.2966 N   0  0  0  0  0  0  0  0  0  0  0  0
   -1.7576   -3.3788    0.0922 C   0  0  2  0  0  0  0  0  0  0  0  0
   -1.7057   -1.8492   -0.1092 C   0  0  0  0  0  0  0  0  0  0  0  0
   -2.7478   -1.2250   -0.2773 O   0  0  0  0  0  0  0  0  0  0  0  0
   -1.1696   -4.0970   -1.1271 C   0  0  0  0  0  0  0  0  0  0  0  0
   -3.8786   -3.2004    0.0600 H   0  0  0  0  0  0  0  0  0  0  0  0
   -1.1538   -3.6118    0.9760 H   0  0  0  0  0  0  0  0  0  0  0  0
   -1.7575   -3.8731   -2.0230 H   0  0  0  0  0  0  0  0  0  0  0  0
   -0.1370   -3.7794   -1.3005 H   0  0  0  0  0  0  0  0  0  0  0  0
   -1.1739   -5.1800   -0.9684 H   0  0  0  0  0  0  0  0  0  0  0  0
   -0.4898   -1.1928   -0.0319 N   0  0  0  0  0  0  0  0  0  0  0  0
   -0.2044    0.2245   -0.3465 C   0  0  2  0  0  0  0  0  0  0  0  0
   -0.3838    1.1206    0.9023 C   0  0  0  0  0  0  0  0  0  0  0  0
   -0.0847    0.6890    2.0100 O   0  0  0  0  0  0  0  0  0  0  0  0
   -0.9172    0.7536   -1.6106 C   0  0  0  0  0  0  0  0  0  0  0  0
   -0.2852   -0.1383   -3.0911 S   0  0  0  0  0  0  0  0  0  0  0  0
    0.3004   -1.7686    0.2425 H   0  0  0  0  0  0  0  0  0  0  0  0
    0.8639    0.2862   -0.5739 H   0  0  0  0  0  0  0  0  0  0  0  0
   -2.0034    0.6624   -1.5366 H   0  0  0  0  0  0  0  0  0  0  0  0
   -0.6943    1.8163   -1.7443 H   0  0  0  0  0  0  0  0  0  0  0  0
   -1.0826    0.3739   -4.0549 H   0  0  0  0  0  0  0  0  0  0  0  0
   -0.7771    2.4429    0.8021 N   0  0  0  0  0  0  0  0  0  0  0  0
   -1.0774    3.3128    1.9461 C   0  0  2  0  0  0  0  0  0  0  0  0
   -2.1067    4.3953    1.5561 C   0  0  0  0  0  0  0  0  0  0  0  0
   -2.3934    4.5706    0.3759 O   0  0  0  0  0  0  0  0  0  0  0  0
    0.2248    3.9578    2.4328 C   0  0  0  0  0  0  0  0  0  0  0  0
   -1.1418    2.7543   -0.0977 H   0  0  0  0  0  0  0  0  0  0  0  0
   -1.5137    2.7183    2.7561 H   0  0  0  0  0  0  0  0  0  0  0  0
    0.6758    4.5557    1.6346 H   0  0  0  0  0  0  0  0  0  0  0  0
    0.0355    4.6082    3.2918 H   0  0  0  0  0  0  0  0  0  0  0  0
    0.9403    3.1877    2.7379 H   0  0  0  0  0  0  0  0  0  0  0  0
   -2.7187    5.1703    2.5240 N   0  0  0  0  0  0  0  0  0  0  0  0
   -3.7052    6.1998    2.2184 C   0  0  0  0  0  0  0  0  0  0  0  0
   -2.4805    4.9883    3.4946 H   0  0  0  0  0  0  0  0  0  0  0  0
   -3.2841    6.9436    1.5337 H   0  0  0  0  0  0  0  0  0  0  0  0
   -4.5917    5.7559    1.7533 H   0  0  0  0  0  0  0  0  0  0  0  0
   -4.0148    6.7114    3.1348 H   0  0  0  0  0  0  0  0  0  0  0  0
  1  2  2  0  0  0  0
  1  3  1  0  0  0  0
  1  7  1  0  0  0  0
  3  4  1  0  0  0  0
  3  5  1  0  0  0  0
  3  6  1  0  0  0  0
  7  8  1  0  0  0  0
  7 12  1  0  0  0  0
  8  9  1  0  0  0  0
  8 11  1  0  0  0  0
  8 13  1  0  0  0  0
  9 10  2  0  0  0  0
  9 17  1  0  0  0  0
 11 14  1  0  0  0  0
 11 15  1  0  0  0  0
 11 16  1  0  0  0  0
 17 18  1  0  0  0  0
 17 23  1  0  0  0  0
 18 19  1  0  0  0  0
 18 21  1  0  0  0  0
 18 24  1  0  0  0  0
 19 20  2  0  0  0  0
 19 28  1  0  0  0  0
 21 22  1  0  0  0  0
 21 25  1  0  0  0  0
 21 26  1  0  0  0  0
 22 27  1  0  0  0  0
 28 29  1  0  0  0  0
 28 33  1  0  0  0  0
 29 30  1  0  0  0  0
 29 32  1  0  0  0  0
 29 34  1  0  0  0  0
 30 31  2  0  0  0  0
 30 38  1  0  0  0  0
 32 35  1  0  0  0  0
 32 36  1  0  0  0  0
 32 37  1  0  0  0  0
 38 39  1  0  0  0  0
 38 40  1  0  0  0  0
 39 41  1  0  0  0  0
 39 42  1  0  0  0  0
 39 43  1  0  0  0  0
M  END
$$$$

  -OEChem-05262216003D

 43 42  0     1  0  0  0  0  0999 V2000
   -3.4403   -4.9748    1.0451 C   0  0  0  0  0  0  0  0  0  0  0  0
   -2.5618   -5.6995    1.4854 O   0  0  0  0  0  0  0  0  0  0  0  0
   -4.8969   -5.2712    1.3486 C   0  0  0  0  0  0  0  0  0  0  0  0
   -5.4463   -5.4324    0.4179 H   0  0  0  0  0  0  0  0  0  0  0  0
   -4.9775   -6.1701    1.9662 H   0  0  0  0  0  0  0  0  0  0  0  0
   -5.3441   -4.4320    1.8871 H   0  0  0  0  0  0  0  0  0  0  0  0
   -3.1120   -3.8768    0.2792 N   0  0  0  0  0  0  0  0  0  0  0  0
   -1.7415   -3.3905    0.0742 C   0  0  2  0  0  0  0  0  0  0  0  0
   -1.7003   -1.8554   -0.0833 C   0  0  0  0  0  0  0  0  0  0  0  0
   -2.7470   -1.2313   -0.2214 O   0  0  0  0  0  0  0  0  0  0  0  0
   -1.1674   -4.0710   -1.1726 C   0  0  0  0  0  0  0  0  0  0  0  0
   -3.8636   -3.2279    0.0469 H   0  0  0  0  0  0  0  0  0  0  0  0
   -1.1250   -3.6471    0.9427 H   0  0  0  0  0  0  0  0  0  0  0  0
   -1.7568   -3.8091   -2.0573 H   0  0  0  0  0  0  0  0  0  0  0  0
   -0.1322   -3.7588   -1.3401 H   0  0  0  0  0  0  0  0  0  0  0  0
   -1.1833   -5.1589   -1.0519 H   0  0  0  0  0  0  0  0  0  0  0  0
   -0.4920   -1.1869    0.0036 N   0  0  0  0  0  0  0  0  0  0  0  0
   -0.2283    0.2305   -0.3247 C   0  0  2  0  0  0  0  0  0  0  0  0
   -0.4389    1.1332    0.9122 C   0  0  0  0  0  0  0  0  0  0  0  0
    0.0735    0.8201    1.9806 O   0  0  0  0  0  0  0  0  0  0  0  0
   -0.9319    0.7352   -1.6036 C   0  0  0  0  0  0  0  0  0  0  0  0
   -0.2655   -0.1596   -3.0675 S   0  0  0  0  0  0  0  0  0  0  0  0
    0.3138   -1.7619    0.2321 H   0  0  0  0  0  0  0  0  0  0  0  0
    0.8415    0.3100   -0.5383 H   0  0  0  0  0  0  0  0  0  0  0  0
   -2.0175    0.6267   -1.5450 H   0  0  0  0  0  0  0  0  0  0  0  0
   -0.7237    1.8011   -1.7388 H   0  0  0  0  0  0  0  0  0  0  0  0
   -1.0442    0.3465   -4.0495 H   0  0  0  0  0  0  0  0  0  0  0  0
   -1.1344    2.3265    0.8367 N   0  0  0  0  0  0  0  0  0  0  0  0
   -1.4712    3.1717    1.9886 C   0  0  2  0  0  0  0  0  0  0  0  0
   -2.7332    4.0141    1.7027 C   0  0  0  0  0  0  0  0  0  0  0  0
   -3.1713    4.0929    0.5593 O   0  0  0  0  0  0  0  0  0  0  0  0
   -0.2791    4.0832    2.3001 C   0  0  0  0  0  0  0  0  0  0  0  0
   -1.6792    2.4931   -0.0094 H   0  0  0  0  0  0  0  0  0  0  0  0
   -1.6845    2.5394    2.8574 H   0  0  0  0  0  0  0  0  0  0  0  0
   -0.0530    4.7229    1.4413 H   0  0  0  0  0  0  0  0  0  0  0  0
   -0.4962    4.7207    3.1620 H   0  0  0  0  0  0  0  0  0  0  0  0
    0.6079    3.4854    2.5313 H   0  0  0  0  0  0  0  0  0  0  0  0
   -3.3845    4.6808    2.7245 N   0  0  0  0  0  0  0  0  0  0  0  0
   -4.5922    5.4722    2.5203 C   0  0  0  0  0  0  0  0  0  0  0  0
   -3.0148    4.5797    3.6653 H   0  0  0  0  0  0  0  0  0  0  0  0
   -4.4103    6.2711    1.7935 H   0  0  0  0  0  0  0  0  0  0  0  0
   -5.4064    4.8398    2.1513 H   0  0  0  0  0  0  0  0  0  0  0  0
   -4.9095    5.9293    3.4624 H   0  0  0  0  0  0  0  0  0  0  0  0
  1  2  2  0  0  0  0
  1  3  1  0  0  0  0
  1  7  1  0  0  0  0
  3  4  1  0  0  0  0
  3  5  1  0  0  0  0
  3  6  1  0  0  0  0
  7  8  1  0  0  0  0
  7 12  1  0  0  0  0
  8  9  1  0  0  0  0
  8 11  1  0  0  0  0
  8 13  1  0  0  0  0
  9 10  2  0  0  0  0
  9 17  1  0  0  0  0
 11 14  1  0  0  0  0
 11 15  1  0  0  0  0
 11 16  1  0  0  0  0
 17 18  1  0  0  0  0
 17 23  1  0  0  0  0
 18 19  1  0  0  0  0
 18 21  1  0  0  0  0
 18 24  1  0  0  0  0
 19 20  2  0  0  0  0
 19 28  1  0  0  0  0
 21 22  1  0  0  0  0
 21 25  1  0  0  0  0
 21 26  1  0  0  0  0
 22 27  1  0  0  0  0
 28 29  1  0  0  0  0
 28 33  1  0  0  0  0
 29 30  1  0  0  0  0
 29 32  1  0  0  0  0
 29 34  1  0  0  0  0
 30 31  2  0  0  0  0
 30 38  1  0  0  0  0
 32 35  1  0  0  0  0
 32 36  1  0  0  0  0
 32 37  1  0  0  0  0
 38 39  1  0  0  0  0
 38 40  1  0  0  0  0
 39 41  1  0  0  0  0
 39 42  1  0  0  0  0
 39 43  1  0  0  0  0
M  END
$$$$

  -OEChem-05262216003D

 43 42  0     1  0  0  0  0  0999 V2000
   -3.4256   -5.0022    1.0141 C   0  0  0  0  0  0  0  0  0  0  0  0
   -2.5411   -5.7340    1.4297 O   0  0  0  0  0  0  0  0  0  0  0  0
   -4.8774   -5.3020    1.3372 C   0  0  0  0  0  0  0  0  0  0  0  0
   -5.4436   -5.4424    0.4133 H   0  0  0  0  0  0  0  0  0  0  0  0
   -4.9502   -6.2134    1.9371 H   0  0  0  0  0  0  0  0  0  0  0  0
   -5.3125   -4.4736    1.9018 H   0  0  0  0  0  0  0  0  0  0  0  0
   -3.1070   -3.8906    0.2638 N   0  0  0  0  0  0  0  0  0  0  0  0
   -1.7388   -3.3986    0.0531 C   0  0  2  0  0  0  0  0  0  0  0  0
   -1.6980   -1.8592   -0.0513 C   0  0  0  0  0  0  0  0  0  0  0  0
   -2.7440   -1.2284   -0.1603 O   0  0  0  0  0  0  0  0  0  0  0  0
   -1.1855   -4.0356   -1.2255 C   0  0  0  0  0  0  0  0  0  0  0  0
   -3.8622   -3.2378    0.0552 H   0  0  0  0  0  0  0  0  0  0  0  0
   -1.1079   -3.6844    0.9018 H   0  0  0  0  0  0  0  0  0  0  0  0
   -1.7885   -3.7420   -2.0908 H   0  0  0  0  0  0  0  0  0  0  0  0
   -0.1523   -3.7188   -1.3981 H   0  0  0  0  0  0  0  0  0  0  0  0
   -1.2020   -5.1272   -1.1431 H   0  0  0  0  0  0  0  0  0  0  0  0
   -0.4928   -1.1888    0.0585 N   0  0  0  0  0  0  0  0  0  0  0  0
   -0.2390    0.2269   -0.2808 C   0  0  2  0  0  0  0  0  0  0  0  0
   -0.4863    1.1386    0.9388 C   0  0  0  0  0  0  0  0  0  0  0  0
    0.2018    0.9973    1.9425 O   0  0  0  0  0  0  0  0  0  0  0  0
   -0.9191    0.7140   -1.5775 C   0  0  0  0  0  0  0  0  0  0  0  0
   -0.2119   -0.1865   -3.0181 S   0  0  0  0  0  0  0  0  0  0  0  0
    0.3219   -1.7728    0.2237 H   0  0  0  0  0  0  0  0  0  0  0  0
    0.8350    0.3163   -0.4718 H   0  0  0  0  0  0  0  0  0  0  0  0
   -2.0043    0.5894   -1.5446 H   0  0  0  0  0  0  0  0  0  0  0  0
   -0.7220    1.7828   -1.7111 H   0  0  0  0  0  0  0  0  0  0  0  0
   -0.9532    0.3288   -4.0237 H   0  0  0  0  0  0  0  0  0  0  0  0
   -1.4333    2.1459    0.9128 N   0  0  0  0  0  0  0  0  0  0  0  0
   -1.7982    2.9740    2.0684 C   0  0  2  0  0  0  0  0  0  0  0  0
   -3.2403    3.5083    1.9372 C   0  0  0  0  0  0  0  0  0  0  0  0
   -3.8239    3.4447    0.8603 O   0  0  0  0  0  0  0  0  0  0  0  0
   -0.8056    4.1369    2.1745 C   0  0  0  0  0  0  0  0  0  0  0  0
   -2.1128    2.1183    0.1516 H   0  0  0  0  0  0  0  0  0  0  0  0
   -1.7517    2.3705    2.9813 H   0  0  0  0  0  0  0  0  0  0  0  0
   -0.8379    4.7496    1.2680 H   0  0  0  0  0  0  0  0  0  0  0  0
   -1.0458    4.7709    3.0330 H   0  0  0  0  0  0  0  0  0  0  0  0
    0.2133    3.7581    2.3023 H   0  0  0  0  0  0  0  0  0  0  0  0
   -3.8886    4.0578    3.0281 N   0  0  0  0  0  0  0  0  0  0  0  0
   -5.2636    4.5404    2.9810 C   0  0  0  0  0  0  0  0  0  0  0  0
   -3.3925    4.0694    3.9145 H   0  0  0  0  0  0  0  0  0  0  0  0
   -5.3736    5.3155    2.2150 H   0  0  0  0  0  0  0  0  0  0  0  0
   -5.9493    3.7178    2.7515 H   0  0  0  0  0  0  0  0  0  0  0  0
   -5.5474    4.9691    3.9470 H   0  0  0  0  0  0  0  0  0  0  0  0
  1  2  2  0  0  0  0
  1  3  1  0  0  0  0
  1  7  1  0  0  0  0
  3  4  1  0  0  0  0
  3  5  1  0  0  0  0
  3  6  1  0  0  0  0
  7  8  1  0  0  0  0
  7 12  1  0  0  0  0
  8  9  1  0  0  0  0
  8 11  1  0  0  0  0
  8 13  1  0  0  0  0
  9 10  2  0  0  0  0
  9 17  1  0  0  0  0
 11 14  1  0  0  0  0
 11 15  1  0  0  0  0
 11 16  1  0  0  0  0
 17 18  1  0  0  0  0
 17 23  1  0  0  0  0
 18 19  1  0  0  0  0
 18 21  1  0  0  0  0
 18 24  1  0  0  0  0
 19 20  2  0  0  0  0
 19 28  1  0  0  0  0
 21 22  1  0  0  0  0
 21 25  1  0  0  0  0
 21 26  1  0  0  0  0
 22 27  1  0  0  0  0
 28 29  1  0  0  0  0
 28 33  1  0  0  0  0
 29 30  1  0  0  0  0
 29 32  1  0  0  0  0
 29 34  1  0  0  0  0
 30 31  2  0  0  0  0
 30 38  1  0  0  0  0
 32 35  1  0  0  0  0
 32 36  1  0  0  0  0
 32 37  1  0  0  0  0
 38 39  1  0  0  0  0
 38 40  1  0  0  0  0
 39 41  1  0  0  0  0
 39 42  1  0  0  0  0
 39 43  1  0  0  0  0
M  END
$$$$

  -OEChem-05262216003D

 43 42  0     1  0  0  0  0  0999 V2000
   -3.4008   -5.0259    0.9866 C   0  0  0  0  0  0  0  0  0  0  0  0
   -2.5105   -5.7681    1.3702 O   0  0  0  0  0  0  0  0  0  0  0  0
   -4.8478   -5.3306    1.3243 C   0  0  0  0  0  0  0  0  0  0  0  0
   -5.4232   -5.4654    0.4053 H   0  0  0  0  0  0  0  0  0  0  0  0
   -4.9122   -6.2462    1.9189 H   0  0  0  0  0  0  0  0  0  0  0  0
   -5.2786   -4.5065    1.8984 H   0  0  0  0  0  0  0  0  0  0  0  0
   -3.0939   -3.9002    0.2531 N   0  0  0  0  0  0  0  0  0  0  0  0
   -1.7295   -3.4089    0.0246 C   0  0  2  0  0  0  0  0  0  0  0  0
   -1.6863   -1.8678   -0.0321 C   0  0  0  0  0  0  0  0  0  0  0  0
   -2.7305   -1.2304   -0.1175 O   0  0  0  0  0  0  0  0  0  0  0  0
   -1.2144   -4.0082   -1.2873 C   0  0  0  0  0  0  0  0  0  0  0  0
   -3.8508   -3.2409    0.0733 H   0  0  0  0  0  0  0  0  0  0  0  0
   -1.0788   -3.7250    0.8471 H   0  0  0  0  0  0  0  0  0  0  0  0
   -1.8430   -3.6909   -2.1258 H   0  0  0  0  0  0  0  0  0  0  0  0
   -0.1869   -3.6857   -1.4810 H   0  0  0  0  0  0  0  0  0  0  0  0
   -1.2281   -5.1018   -1.2358 H   0  0  0  0  0  0  0  0  0  0  0  0
   -0.4844   -1.1972    0.1037 N   0  0  0  0  0  0  0  0  0  0  0  0
   -0.2409    0.2184   -0.2401 C   0  0  2  0  0  0  0  0  0  0  0  0
   -0.5255    1.1302    0.9692 C   0  0  0  0  0  0  0  0  0  0  0  0
    0.2900    1.1930    1.8811 O   0  0  0  0  0  0  0  0  0  0  0  0
   -0.9055    0.6997   -1.5464 C   0  0  0  0  0  0  0  0  0  0  0  0
   -0.1705   -0.1970   -2.9758 S   0  0  0  0  0  0  0  0  0  0  0  0
    0.3359   -1.7863    0.2158 H   0  0  0  0  0  0  0  0  0  0  0  0
    0.8355    0.3183   -0.4134 H   0  0  0  0  0  0  0  0  0  0  0  0
   -1.9898    0.5669   -1.5305 H   0  0  0  0  0  0  0  0  0  0  0  0
   -0.7164    1.7709   -1.6718 H   0  0  0  0  0  0  0  0  0  0  0  0
   -0.8981    0.3085   -3.9965 H   0  0  0  0  0  0  0  0  0  0  0  0
   -1.6699    1.9036    1.0299 N   0  0  0  0  0  0  0  0  0  0  0  0
   -2.0636    2.7079    2.1938 C   0  0  2  0  0  0  0  0  0  0  0  0
   -3.5927    2.9089    2.2543 C   0  0  0  0  0  0  0  0  0  0  0  0
   -4.2839    2.6912    1.2655 O   0  0  0  0  0  0  0  0  0  0  0  0
   -1.3539    4.0640    2.1168 C   0  0  0  0  0  0  0  0  0  0  0  0
   -2.4168    1.6598    0.3764 H   0  0  0  0  0  0  0  0  0  0  0  0
   -1.7641    2.1914    3.1119 H   0  0  0  0  0  0  0  0  0  0  0  0
   -1.6402    4.5927    1.2020 H   0  0  0  0  0  0  0  0  0  0  0  0
   -1.6186    4.6864    2.9766 H   0  0  0  0  0  0  0  0  0  0  0  0
   -0.2681    3.9266    2.1143 H   0  0  0  0  0  0  0  0  0  0  0  0
   -4.1990    3.3382    3.4210 N   0  0  0  0  0  0  0  0  0  0  0  0
   -5.6392    3.5277    3.5496 C   0  0  0  0  0  0  0  0  0  0  0  0
   -3.6071    3.4893    4.2326 H   0  0  0  0  0  0  0  0  0  0  0  0
   -5.9998    4.2452    2.8047 H   0  0  0  0  0  0  0  0  0  0  0  0
   -6.1647    2.5776    3.4061 H   0  0  0  0  0  0  0  0  0  0  0  0
   -5.8841    3.9119    4.5446 H   0  0  0  0  0  0  0  0  0  0  0  0
  1  2  2  0  0  0  0
  1  3  1  0  0  0  0
  1  7  1  0  0  0  0
  3  4  1  0  0  0  0
  3  5  1  0  0  0  0
  3  6  1  0  0  0  0
  7  8  1  0  0  0  0
  7 12  1  0  0  0  0
  8  9  1  0  0  0  0
  8 11  1  0  0  0  0
  8 13  1  0  0  0  0
  9 10  2  0  0  0  0
  9 17  1  0  0  0  0
 11 14  1  0  0  0  0
 11 15  1  0  0  0  0
 11 16  1  0  0  0  0
 17 18  1  0  0  0  0
 17 23  1  0  0  0  0
 18 19  1  0  0  0  0
 18 21  1  0  0  0  0
 18 24  1  0  0  0  0
 19 20  2  0  0  0  0
 19 28  1  0  0  0  0
 21 22  1  0  0  0  0
 21 25  1  0  0  0  0
 21 26  1  0  0  0  0
 22 27  1  0  0  0  0
 28 29  1  0  0  0  0
 28 33  1  0  0  0  0
 29 30  1  0  0  0  0
 29 32  1  0  0  0  0
 29 34  1  0  0  0  0
 30 31  2  0  0  0  0
 30 38  1  0  0  0  0
 32 35  1  0  0  0  0
 32 36  1  0  0  0  0
 32 37  1  0  0  0  0
 38 39  1  0  0  0  0
 38 40  1  0  0  0  0
 39 41  1  0  0  0  0
 39 42  1  0  0  0  0
 39 43  1  0  0  0  0
M  END
$$$$

  -OEChem-05262216003D

 43 42  0     1  0  0  0  0  0999 V2000
   -3.3855   -5.0200    0.9726 C   0  0  0  0  0  0  0  0  0  0  0  0
   -2.4925   -5.7621    1.3503 O   0  0  0  0  0  0  0  0  0  0  0  0
   -4.8263   -5.3042    1.3540 C   0  0  0  0  0  0  0  0  0  0  0  0
   -5.4273   -5.4546    0.4538 H   0  0  0  0  0  0  0  0  0  0  0  0
   -4.8832   -6.2054    1.9711 H   0  0  0  0  0  0  0  0  0  0  0  0
   -5.2353   -4.4636    1.9203 H   0  0  0  0  0  0  0  0  0  0  0  0
   -3.0866   -3.9118    0.2094 N   0  0  0  0  0  0  0  0  0  0  0  0
   -1.7236   -3.4233   -0.0372 C   0  0  2  0  0  0  0  0  0  0  0  0
   -1.6704   -1.8819   -0.0373 C   0  0  0  0  0  0  0  0  0  0  0  0
   -2.7093   -1.2322   -0.0920 O   0  0  0  0  0  0  0  0  0  0  0  0
   -1.2471   -3.9743   -1.3839 C   0  0  0  0  0  0  0  0  0  0  0  0
   -3.8417   -3.2448    0.0505 H   0  0  0  0  0  0  0  0  0  0  0  0
   -1.0524   -3.7739    0.7544 H   0  0  0  0  0  0  0  0  0  0  0  0
   -1.9046   -3.6343   -2.1906 H   0  0  0  0  0  0  0  0  0  0  0  0
   -0.2288   -3.6370   -1.6004 H   0  0  0  0  0  0  0  0  0  0  0  0
   -1.2518   -5.0689   -1.3677 H   0  0  0  0  0  0  0  0  0  0  0  0
   -0.4685   -1.2195    0.1327 N   0  0  0  0  0  0  0  0  0  0  0  0
   -0.2289    0.1992   -0.1993 C   0  0  2  0  0  0  0  0  0  0  0  0
   -0.5473    1.0946    1.0106 C   0  0  0  0  0  0  0  0  0  0  0  0
    0.3384    1.3879    1.8040 O   0  0  0  0  0  0  0  0  0  0  0  0
   -0.8774    0.6960   -1.5077 C   0  0  0  0  0  0  0  0  0  0  0  0
   -0.1236   -0.1804   -2.9397 S   0  0  0  0  0  0  0  0  0  0  0  0
    0.3516   -1.8161    0.1959 H   0  0  0  0  0  0  0  0  0  0  0  0
    0.8496    0.3077   -0.3542 H   0  0  0  0  0  0  0  0  0  0  0  0
   -1.9619    0.5615   -1.5092 H   0  0  0  0  0  0  0  0  0  0  0  0
   -0.6895    1.7695   -1.6143 H   0  0  0  0  0  0  0  0  0  0  0  0
   -0.8157    0.3677   -3.9632 H   0  0  0  0  0  0  0  0  0  0  0  0
   -1.8207    1.6010    1.1858 N   0  0  0  0  0  0  0  0  0  0  0  0
   -2.2457    2.3732    2.3601 C   0  0  2  0  0  0  0  0  0  0  0  0
   -3.7565    2.2186    2.6367 C   0  0  0  0  0  0  0  0  0  0  0  0
   -4.5024    1.7634    1.7777 O   0  0  0  0  0  0  0  0  0  0  0  0
   -1.8963    3.8467    2.1251 C   0  0  0  0  0  0  0  0  0  0  0  0
   -2.5618    1.1364    0.6525 H   0  0  0  0  0  0  0  0  0  0  0  0
   -1.7139    2.0115    3.2465 H   0  0  0  0  0  0  0  0  0  0  0  0
   -2.4217    4.2275    1.2433 H   0  0  0  0  0  0  0  0  0  0  0  0
   -2.1817    4.4529    2.9900 H   0  0  0  0  0  0  0  0  0  0  0  0
   -0.8196    3.9624    1.9657 H   0  0  0  0  0  0  0  0  0  0  0  0
   -4.2862    2.5954    3.8574 N   0  0  0  0  0  0  0  0  0  0  0  0
   -5.7010    2.4705    4.1877 C   0  0  0  0  0  0  0  0  0  0  0  0
   -3.6444    2.9483    4.5610 H   0  0  0  0  0  0  0  0  0  0  0  0
   -6.3142    3.0156    3.4622 H   0  0  0  0  0  0  0  0  0  0  0  0
   -6.0035    1.4181    4.1839 H   0  0  0  0  0  0  0  0  0  0  0  0
   -5.8959    2.8838    5.1819 H   0  0  0  0  0  0  0  0  0  0  0  0
  1  2  2  0  0  0  0
  1  3  1  0  0  0  0
  1  7  1  0  0  0  0
  3  4  1  0  0  0  0
  3  5  1  0  0  0  0
  3  6  1  0  0  0  0
  7  8  1  0  0  0  0
  7 12  1  0  0  0  0
  8  9  1  0  0  0  0
  8 11  1  0  0  0  0
  8 13  1  0  0  0  0
  9 10  2  0  0  0  0
  9 17  1  0  0  0  0
 11 14  1  0  0  0  0
 11 15  1  0  0  0  0
 11 16  1  0  0  0  0
 17 18  1  0  0  0  0
 17 23  1  0  0  0  0
 18 19  1  0  0  0  0
 18 21  1  0  0  0  0
 18 24  1  0  0  0  0
 19 20  2  0  0  0  0
 19 28  1  0  0  0  0
 21 22  1  0  0  0  0
 21 25  1  0  0  0  0
 21 26  1  0  0  0  0
 22 27  1  0  0  0  0
 28 29  1  0  0  0  0
 28 33  1  0  0  0  0
 29 30  1  0  0  0  0
 29 32  1  0  0  0  0
 29 34  1  0  0  0  0
 30 31  2  0  0  0  0
 30 38  1  0  0  0  0
 32 35  1  0  0  0  0
 32 36  1  0  0  0  0
 32 37  1  0  0  0  0
 38 39  1  0  0  0  0
 38 40  1  0  0  0  0
 39 41  1  0  0  0  0
 39 42  1  0  0  0  0
 39 43  1  0  0  0  0
M  END
$$$$

  -OEChem-05262216003D

 43 42  0     1  0  0  0  0  0999 V2000
   -3.3927   -5.0275    0.9258 C   0  0  0  0  0  0  0  0  0  0  0  0
   -2.4985   -5.8002    1.2335 O   0  0  0  0  0  0  0  0  0  0  0  0
   -4.8207   -5.3008    1.3585 C   0  0  0  0  0  0  0  0  0  0  0  0
   -5.4551   -5.4400    0.4799 H   0  0  0  0  0  0  0  0  0  0  0  0
   -4.8630   -6.2051    1.9719 H   0  0  0  0  0  0  0  0  0  0  0  0
   -5.2005   -4.4600    1.9444 H   0  0  0  0  0  0  0  0  0  0  0  0
   -3.1049   -3.8963    0.1927 N   0  0  0  0  0  0  0  0  0  0  0  0
   -1.7441   -3.4299   -0.1026 C   0  0  2  0  0  0  0  0  0  0  0  0
   -1.6649   -1.8902   -0.0880 C   0  0  0  0  0  0  0  0  0  0  0  0
   -2.6906   -1.2233   -0.1725 O   0  0  0  0  0  0  0  0  0  0  0  0
   -1.3274   -3.9754   -1.4708 C   0  0  0  0  0  0  0  0  0  0  0  0
   -3.8534   -3.2111    0.0858 H   0  0  0  0  0  0  0  0  0  0  0  0
   -1.0511   -3.8012    0.6600 H   0  0  0  0  0  0  0  0  0  0  0  0
   -2.0043   -3.6122   -2.2508 H   0  0  0  0  0  0  0  0  0  0  0  0
   -0.3097   -3.6580   -1.7173 H   0  0  0  0  0  0  0  0  0  0  0  0
   -1.3563   -5.0697   -1.4659 H   0  0  0  0  0  0  0  0  0  0  0  0
   -0.4636   -1.2478    0.1517 N   0  0  0  0  0  0  0  0  0  0  0  0
   -0.1916    0.1739   -0.1430 C   0  0  2  0  0  0  0  0  0  0  0  0
   -0.5565    1.0518    1.0654 C   0  0  0  0  0  0  0  0  0  0  0  0
    0.3253    1.5772    1.7331 O   0  0  0  0  0  0  0  0  0  0  0  0
   -0.7832    0.7125   -1.4599 C   0  0  0  0  0  0  0  0  0  0  0  0
    0.0061   -0.1429   -2.8856 S   0  0  0  0  0  0  0  0  0  0  0  0
    0.3454   -1.8584    0.2255 H   0  0  0  0  0  0  0  0  0  0  0  0
    0.8937    0.2708   -0.2508 H   0  0  0  0  0  0  0  0  0  0  0  0
   -1.8693    0.6004   -1.5009 H   0  0  0  0  0  0  0  0  0  0  0  0
   -0.5723    1.7845   -1.5321 H   0  0  0  0  0  0  0  0  0  0  0  0
   -0.6332    0.4486   -3.9191 H   0  0  0  0  0  0  0  0  0  0  0  0
   -1.8840    1.3085    1.3504 N   0  0  0  0  0  0  0  0  0  0  0  0
   -2.3438    2.0524    2.5307 C   0  0  2  0  0  0  0  0  0  0  0  0
   -3.6846    1.5198    3.0806 C   0  0  0  0  0  0  0  0  0  0  0  0
   -4.3712    0.7480    2.4225 O   0  0  0  0  0  0  0  0  0  0  0  0
   -2.4712    3.5286    2.1427 C   0  0  0  0  0  0  0  0  0  0  0  0
   -2.5629    0.6831    0.9002 H   0  0  0  0  0  0  0  0  0  0  0  0
   -1.6082    1.9546    3.3361 H   0  0  0  0  0  0  0  0  0  0  0  0
   -3.2069    3.6503    1.3412 H   0  0  0  0  0  0  0  0  0  0  0  0
   -2.7883    4.1271    3.0018 H   0  0  0  0  0  0  0  0  0  0  0  0
   -1.5076    3.9128    1.7934 H   0  0  0  0  0  0  0  0  0  0  0  0
   -4.1243    1.9057    4.3338 N   0  0  0  0  0  0  0  0  0  0  0  0
   -5.3743    1.4399    4.9217 C   0  0  0  0  0  0  0  0  0  0  0  0
   -3.5321    2.5351    4.8673 H   0  0  0  0  0  0  0  0  0  0  0  0
   -6.2258    1.7474    4.3056 H   0  0  0  0  0  0  0  0  0  0  0  0
   -5.3753    0.3478    5.0034 H   0  0  0  0  0  0  0  0  0  0  0  0
   -5.5020    1.8618    5.9232 H   0  0  0  0  0  0  0  0  0  0  0  0
  1  2  2  0  0  0  0
  1  3  1  0  0  0  0
  1  7  1  0  0  0  0
  3  4  1  0  0  0  0
  3  5  1  0  0  0  0
  3  6  1  0  0  0  0
  7  8  1  0  0  0  0
  7 12  1  0  0  0  0
  8  9  1  0  0  0  0
  8 11  1  0  0  0  0
  8 13  1  0  0  0  0
  9 10  2  0  0  0  0
  9 17  1  0  0  0  0
 11 14  1  0  0  0  0
 11 15  1  0  0  0  0
 11 16  1  0  0  0  0
 17 18  1  0  0  0  0
 17 23  1  0  0  0  0
 18 19  1  0  0  0  0
 18 21  1  0  0  0  0
 18 24  1  0  0  0  0
 19 20  2  0  0  0  0
 19 28  1  0  0  0  0
 21 22  1  0  0  0  0
 21 25  1  0  0  0  0
 21 26  1  0  0  0  0
 22 27  1  0  0  0  0
 28 29  1  0  0  0  0
 28 33  1  0  0  0  0
 29 30  1  0  0  0  0
 29 32  1  0  0  0  0
 29 34  1  0  0  0  0
 30 31  2  0  0  0  0
 30 38  1  0  0  0  0
 32 35  1  0  0  0  0
 32 36  1  0  0  0  0
 32 37  1  0  0  0  0
 38 39  1  0  0  0  0
 38 40  1  0  0  0  0
 39 41  1  0  0  0  0
 39 42  1  0  0  0  0
 39 43  1  0  0  0  0
M  END
$$$$

  -OEChem-05262216003D

 43 42  0     1  0  0  0  0  0999 V2000
   -2.9156   -3.5460    1.8224 C   0  0  0  0  0  0  0  0  0  0  0  0
   -1.7381   -3.5732    2.1562 O   0  0  0  0  0  0  0  0  0  0  0  0
   -4.0121   -3.8450    2.8276 C   0  0  0  0  0  0  0  0  0  0  0  0
   -4.5594   -4.7412    2.5259 H   0  0  0  0  0  0  0  0  0  0  0  0
   -3.5830   -4.0125    3.8191 H   0  0  0  0  0  0  0  0  0  0  0  0
   -4.7103   -3.0065    2.8823 H   0  0  0  0  0  0  0  0  0  0  0  0
   -3.2393   -3.2749    0.5096 N   0  0  0  0  0  0  0  0  0  0  0  0
   -2.2445   -3.0243   -0.5437 C   0  0  2  0  0  0  0  0  0  0  0  0
   -1.6551   -1.5988   -0.4558 C   0  0  0  0  0  0  0  0  0  0  0  0
   -2.0566   -0.7011   -1.1890 O   0  0  0  0  0  0  0  0  0  0  0  0
   -2.9179   -3.3067   -1.8923 C   0  0  0  0  0  0  0  0  0  0  0  0
   -4.2158   -3.0639    0.3171 H   0  0  0  0  0  0  0  0  0  0  0  0
   -1.4106   -3.7264   -0.4359 H   0  0  0  0  0  0  0  0  0  0  0  0
   -3.7740   -2.6416   -2.0455 H   0  0  0  0  0  0  0  0  0  0  0  0
   -2.2074   -3.1496   -2.7102 H   0  0  0  0  0  0  0  0  0  0  0  0
   -3.2685   -4.3425   -1.9332 H   0  0  0  0  0  0  0  0  0  0  0  0
   -0.8368   -1.2734    0.6101 N   0  0  0  0  0  0  0  0  0  0  0  0
   -0.0958   -0.0094    0.8095 C   0  0  2  0  0  0  0  0  0  0  0  0
   -1.0066    0.9590    1.5743 C   0  0  0  0  0  0  0  0  0  0  0  0
   -0.7485    1.3141    2.7193 O   0  0  0  0  0  0  0  0  0  0  0  0
    0.5255    0.6353   -0.4430 C   0  0  0  0  0  0  0  0  0  0  0  0
    1.8348   -0.4627   -1.1251 S   0  0  0  0  0  0  0  0  0  0  0  0
   -0.7048   -2.0258    1.2935 H   0  0  0  0  0  0  0  0  0  0  0  0
    0.7429   -0.2322    1.4769 H   0  0  0  0  0  0  0  0  0  0  0  0
   -0.2245    0.8538   -1.2067 H   0  0  0  0  0  0  0  0  0  0  0  0
    0.9809    1.5904   -0.1612 H   0  0  0  0  0  0  0  0  0  0  0  0
    2.2182    0.2439   -2.2110 H   0  0  0  0  0  0  0  0  0  0  0  0
   -2.2111    1.3062    0.9921 N   0  0  0  0  0  0  0  0  0  0  0  0
   -3.3816    1.6434    1.8088 C   0  0  2  0  0  0  0  0  0  0  0  0
   -3.8031    0.4528    2.7069 C   0  0  0  0  0  0  0  0  0  0  0  0
   -4.6060   -0.3935    2.3248 O   0  0  0  0  0  0  0  0  0  0  0  0
   -4.5027    2.0772    0.8585 C   0  0  0  0  0  0  0  0  0  0  0  0
   -2.3932    0.8030    0.1175 H   0  0  0  0  0  0  0  0  0  0  0  0
   -3.1429    2.4901    2.4609 H   0  0  0  0  0  0  0  0  0  0  0  0
   -4.7569    1.2682    0.1657 H   0  0  0  0  0  0  0  0  0  0  0  0
   -5.3996    2.3423    1.4270 H   0  0  0  0  0  0  0  0  0  0  0  0
   -4.1910    2.9494    0.2755 H   0  0  0  0  0  0  0  0  0  0  0  0
   -3.1802    0.2987    3.9306 N   0  0  0  0  0  0  0  0  0  0  0  0
   -3.3194   -0.8873    4.7636 C   0  0  0  0  0  0  0  0  0  0  0  0
   -2.3303    0.8571    4.0415 H   0  0  0  0  0  0  0  0  0  0  0  0
   -4.3670   -1.1988    4.8301 H   0  0  0  0  0  0  0  0  0  0  0  0
   -2.7283   -1.7106    4.3515 H   0  0  0  0  0  0  0  0  0  0  0  0
   -2.9631   -0.6765    5.7763 H   0  0  0  0  0  0  0  0  0  0  0  0
  1  2  2  0  0  0  0
  1  3  1  0  0  0  0
  1  7  1  0  0  0  0
  3  4  1  0  0  0  0
  3  5  1  0  0  0  0
  3  6  1  0  0  0  0
  7  8  1  0  0  0  0
  7 12  1  0  0  0  0
  8  9  1  0  0  0  0
  8 11  1  0  0  0  0
  8 13  1  0  0  0  0
  9 10  2  0  0  0  0
  9 17  1  0  0  0  0
 11 14  1  0  0  0  0
 11 15  1  0  0  0  0
 11 16  1  0  0  0  0
 17 18  1  0  0  0  0
 17 23  1  0  0  0  0
 18 19  1  0  0  0  0
 18 21  1  0  0  0  0
 18 24  1  0  0  0  0
 19 20  2  0  0  0  0
 19 28  1  0  0  0  0
 21 22  1  0  0  0  0
 21 25  1  0  0  0  0
 21 26  1  0  0  0  0
 22 27  1  0  0  0  0
 28 29  1  0  0  0  0
 28 33  1  0  0  0  0
 29 30  1  0  0  0  0
 29 32  1  0  0  0  0
 29 34  1  0  0  0  0
 30 31  2  0  0  0  0
 30 38  1  0  0  0  0
 32 35  1  0  0  0  0
 32 36  1  0  0  0  0
 32 37  1  0  0  0  0
 38 39  1  0  0  0  0
 38 40  1  0  0  0  0
 39 41  1  0  0  0  0
 39 42  1  0  0  0  0
 39 43  1  0  0  0  0
M  END
$$$$

  -OEChem-05262216003D

 43 42  0     1  0  0  0  0  0999 V2000
   -2.7419   -3.7272    1.8086 C   0  0  0  0  0  0  0  0  0  0  0  0
   -1.5324   -3.7673    1.9917 O   0  0  0  0  0  0  0  0  0  0  0  0
   -3.7020   -4.1424    2.9076 C   0  0  0  0  0  0  0  0  0  0  0  0
   -4.2369   -5.0476    2.6107 H   0  0  0  0  0  0  0  0  0  0  0  0
   -3.1545   -4.3451    3.8318 H   0  0  0  0  0  0  0  0  0  0  0  0
   -4.4285   -3.3485    3.0954 H   0  0  0  0  0  0  0  0  0  0  0  0
   -3.2231   -3.3396    0.5755 N   0  0  0  0  0  0  0  0  0  0  0  0
   -2.3691   -3.0195   -0.5796 C   0  0  2  0  0  0  0  0  0  0  0  0
   -1.7460   -1.6083   -0.4747 C   0  0  0  0  0  0  0  0  0  0  0  0
   -2.1605   -0.6754   -1.1538 O   0  0  0  0  0  0  0  0  0  0  0  0
   -3.2182   -3.2031   -1.8436 C   0  0  0  0  0  0  0  0  0  0  0  0
   -4.2196   -3.1441    0.5164 H   0  0  0  0  0  0  0  0  0  0  0  0
   -1.5401   -3.7341   -0.6305 H   0  0  0  0  0  0  0  0  0  0  0  0
   -4.0700   -2.5150   -1.8416 H   0  0  0  0  0  0  0  0  0  0  0  0
   -2.6157   -3.0061   -2.7362 H   0  0  0  0  0  0  0  0  0  0  0  0
   -3.5969   -4.2280   -1.9031 H   0  0  0  0  0  0  0  0  0  0  0  0
   -0.8888   -1.3331    0.5733 N   0  0  0  0  0  0  0  0  0  0  0  0
   -0.0738   -0.1154    0.7850 C   0  0  2  0  0  0  0  0  0  0  0  0
   -0.8991    0.9033    1.5863 C   0  0  0  0  0  0  0  0  0  0  0  0
   -0.5093    1.3146    2.6736 O   0  0  0  0  0  0  0  0  0  0  0  0
    0.5348    0.5128   -0.4809 C   0  0  0  0  0  0  0  0  0  0  0  0
    1.7539   -0.6450   -1.2293 S   0  0  0  0  0  0  0  0  0  0  0  0
   -0.7181   -2.1323    1.1927 H   0  0  0  0  0  0  0  0  0  0  0  0
    0.7709   -0.3970    1.4219 H   0  0  0  0  0  0  0  0  0  0  0  0
   -0.2333    0.7816   -1.2101 H   0  0  0  0  0  0  0  0  0  0  0  0
    1.0527    1.4377   -0.2063 H   0  0  0  0  0  0  0  0  0  0  0  0
    2.1375    0.0570   -2.3182 H   0  0  0  0  0  0  0  0  0  0  0  0
   -2.2127    1.1082    1.2076 N   0  0  0  0  0  0  0  0  0  0  0  0
   -3.2757    1.3552    2.1859 C   0  0  2  0  0  0  0  0  0  0  0  0
   -3.4892    0.1152    3.0878 C   0  0  0  0  0  0  0  0  0  0  0  0
   -4.3325   -0.7369    2.8247 O   0  0  0  0  0  0  0  0  0  0  0  0
   -4.5392    1.7400    1.4094 C   0  0  0  0  0  0  0  0  0  0  0  0
   -2.4747    0.5921    0.3616 H   0  0  0  0  0  0  0  0  0  0  0  0
   -3.0014    2.1985    2.8284 H   0  0  0  0  0  0  0  0  0  0  0  0
   -4.8367    0.9342    0.7303 H   0  0  0  0  0  0  0  0  0  0  0  0
   -5.3648    1.9337    2.1011 H   0  0  0  0  0  0  0  0  0  0  0  0
   -4.3610    2.6439    0.8189 H   0  0  0  0  0  0  0  0  0  0  0  0
   -2.6287   -0.0837    4.1502 N   0  0  0  0  0  0  0  0  0  0  0  0
   -2.5678   -1.3176    4.9219 C   0  0  0  0  0  0  0  0  0  0  0  0
   -1.8052    0.5231    4.1509 H   0  0  0  0  0  0  0  0  0  0  0  0
   -3.5725   -1.6693    5.1793 H   0  0  0  0  0  0  0  0  0  0  0  0
   -2.0551   -2.0967    4.3499 H   0  0  0  0  0  0  0  0  0  0  0  0
   -2.0175   -1.1506    5.8529 H   0  0  0  0  0  0  0  0  0  0  0  0
  1  2  2  0  0  0  0
  1  3  1  0  0  0  0
  1  7  1  0  0  0  0
  3  4  1  0  0  0  0
  3  5  1  0  0  0  0
  3  6  1  0  0  0  0
  7  8  1  0  0  0  0
  7 12  1  0  0  0  0
  8  9  1  0  0  0  0
  8 11  1  0  0  0  0
  8 13  1  0  0  0  0
  9 10  2  0  0  0  0
  9 17  1  0  0  0  0
 11 14  1  0  0  0  0
 11 15  1  0  0  0  0
 11 16  1  0  0  0  0
 17 18  1  0  0  0  0
 17 23  1  0  0  0  0
 18 19  1  0  0  0  0
 18 21  1  0  0  0  0
 18 24  1  0  0  0  0
 19 20  2  0  0  0  0
 19 28  1  0  0  0  0
 21 22  1  0  0  0  0
 21 25  1  0  0  0  0
 21 26  1  0  0  0  0
 22 27  1  0  0  0  0
 28 29  1  0  0  0  0
 28 33  1  0  0  0  0
 29 30  1  0  0  0  0
 29 32  1  0  0  0  0
 29 34  1  0  0  0  0
 30 31  2  0  0  0  0
 30 38  1  0  0  0  0
 32 35  1  0  0  0  0
 32 36  1  0  0  0  0
 32 37  1  0  0  0  0
 38 39  1  0  0  0  0
 38 40  1  0  0  0  0
 39 41  1  0  0  0  0
 39 42  1  0  0  0  0
 39 43  1  0  0  0  0
M  END
$$$$

  -OEChem-05262216003D

 43 42  0     1  0  0  0  0  0999 V2000
   -3.2782   -5.1076    0.9016 C   0  0  0  0  0  0  0  0  0  0  0  0
   -2.3540   -5.8952    1.0336 O   0  0  0  0  0  0  0  0  0  0  0  0
   -4.6262   -5.3996    1.5337 C   0  0  0  0  0  0  0  0  0  0  0  0
   -5.3963   -5.4610    0.7608 H   0  0  0  0  0  0  0  0  0  0  0  0
   -4.5920   -6.3501    2.0735 H   0  0  0  0  0  0  0  0  0  0  0  0
   -4.8869   -4.6047    2.2372 H   0  0  0  0  0  0  0  0  0  0  0  0
   -3.0976   -3.9463    0.1810 N   0  0  0  0  0  0  0  0  0  0  0  0
   -1.7918   -3.4619   -0.2832 C   0  0  2  0  0  0  0  0  0  0  0  0
   -1.7086   -1.9250   -0.2055 C   0  0  0  0  0  0  0  0  0  0  0  0
   -2.7339   -1.2532   -0.2353 O   0  0  0  0  0  0  0  0  0  0  0  0
   -1.5741   -3.9377   -1.7210 C   0  0  0  0  0  0  0  0  0  0  0  0
   -3.8536   -3.2626    0.2104 H   0  0  0  0  0  0  0  0  0  0  0  0
   -0.9985   -3.8679    0.3535 H   0  0  0  0  0  0  0  0  0  0  0  0
   -2.3557   -3.5424   -2.3779 H   0  0  0  0  0  0  0  0  0  0  0  0
   -0.6018   -3.6011   -2.0941 H   0  0  0  0  0  0  0  0  0  0  0  0
   -1.6019   -5.0311   -1.7644 H   0  0  0  0  0  0  0  0  0  0  0  0
   -0.5118   -1.3007    0.0954 N   0  0  0  0  0  0  0  0  0  0  0  0
   -0.1915    0.1272   -0.1398 C   0  0  2  0  0  0  0  0  0  0  0  0
   -0.5758    0.9993    1.0698 C   0  0  0  0  0  0  0  0  0  0  0  0
    0.0919    1.9824    1.3628 O   0  0  0  0  0  0  0  0  0  0  0  0
   -0.7482    0.7077   -1.4511 C   0  0  0  0  0  0  0  0  0  0  0  0
    0.0475   -0.1308   -2.8834 S   0  0  0  0  0  0  0  0  0  0  0  0
    0.2844   -1.9294    0.1570 H   0  0  0  0  0  0  0  0  0  0  0  0
    0.8984    0.2019   -0.2135 H   0  0  0  0  0  0  0  0  0  0  0  0
   -1.8360    0.6160   -1.5079 H   0  0  0  0  0  0  0  0  0  0  0  0
   -0.5141    1.7767   -1.4949 H   0  0  0  0  0  0  0  0  0  0  0  0
   -0.5353    0.5246   -3.9115 H   0  0  0  0  0  0  0  0  0  0  0  0
   -1.6367    0.6260    1.8689 N   0  0  0  0  0  0  0  0  0  0  0  0
   -1.9409    1.1670    3.1960 C   0  0  2  0  0  0  0  0  0  0  0  0
   -2.4492    0.0670    4.1548 C   0  0  0  0  0  0  0  0  0  0  0  0
   -2.7319   -1.0501    3.7334 O   0  0  0  0  0  0  0  0  0  0  0  0
   -2.9853    2.2739    3.0297 C   0  0  0  0  0  0  0  0  0  0  0  0
   -2.1411   -0.2158    1.5756 H   0  0  0  0  0  0  0  0  0  0  0  0
   -1.0335    1.5909    3.6388 H   0  0  0  0  0  0  0  0  0  0  0  0
   -3.9048    1.8693    2.5944 H   0  0  0  0  0  0  0  0  0  0  0  0
   -3.2256    2.7262    3.9962 H   0  0  0  0  0  0  0  0  0  0  0  0
   -2.6020    3.0576    2.3684 H   0  0  0  0  0  0  0  0  0  0  0  0
   -2.5715    0.3239    5.5083 N   0  0  0  0  0  0  0  0  0  0  0  0
   -3.0040   -0.6762    6.4773 C   0  0  0  0  0  0  0  0  0  0  0  0
   -2.3042    1.2465    5.8386 H   0  0  0  0  0  0  0  0  0  0  0  0
   -3.9880   -1.0732    6.2059 H   0  0  0  0  0  0  0  0  0  0  0  0
   -2.2890   -1.5047    6.5172 H   0  0  0  0  0  0  0  0  0  0  0  0
   -3.0755   -0.2315    7.4746 H   0  0  0  0  0  0  0  0  0  0  0  0
  1  2  2  0  0  0  0
  1  3  1  0  0  0  0
  1  7  1  0  0  0  0
  3  4  1  0  0  0  0
  3  5  1  0  0  0  0
  3  6  1  0  0  0  0
  7  8  1  0  0  0  0
  7 12  1  0  0  0  0
  8  9  1  0  0  0  0
  8 11  1  0  0  0  0
  8 13  1  0  0  0  0
  9 10  2  0  0  0  0
  9 17  1  0  0  0  0
 11 14  1  0  0  0  0
 11 15  1  0  0  0  0
 11 16  1  0  0  0  0
 17 18  1  0  0  0  0
 17 23  1  0  0  0  0
 18 19  1  0  0  0  0
 18 21  1  0  0  0  0
 18 24  1  0  0  0  0
 19 20  2  0  0  0  0
 19 28  1  0  0  0  0
 21 22  1  0  0  0  0
 21 25  1  0  0  0  0
 21 26  1  0  0  0  0
 22 27  1  0  0  0  0
 28 29  1  0  0  0  0
 28 33  1  0  0  0  0
 29 30  1  0  0  0  0
 29 32  1  0  0  0  0
 29 34  1  0  0  0  0
 30 31  2  0  0  0  0
 30 38  1  0  0  0  0
 32 35  1  0  0  0  0
 32 36  1  0  0  0  0
 32 37  1  0  0  0  0
 38 39  1  0  0  0  0
 38 40  1  0  0  0  0
 39 41  1  0  0  0  0
 39 42  1  0  0  0  0
 39 43  1  0  0  0  0
M  END
$$$$

  -OEChem-05262216003D

 43 42  0     1  0  0  0  0  0999 V2000
   -3.2807   -5.3004    0.6347 C   0  0  0  0  0  0  0  0  0  0  0  0
   -2.3560   -6.0973    0.6622 O   0  0  0  0  0  0  0  0  0  0  0  0
   -4.6157   -5.6584    1.2599 C   0  0  0  0  0  0  0  0  0  0  0  0
   -5.4054   -5.6118    0.5063 H   0  0  0  0  0  0  0  0  0  0  0  0
   -4.5799   -6.6710    1.6718 H   0  0  0  0  0  0  0  0  0  0  0  0
   -4.8488   -4.9580    2.0659 H   0  0  0  0  0  0  0  0  0  0  0  0
   -3.1097   -4.0654    0.0466 N   0  0  0  0  0  0  0  0  0  0  0  0
   -1.8121   -3.5334   -0.3875 C   0  0  2  0  0  0  0  0  0  0  0  0
   -1.7194   -2.0141   -0.1416 C   0  0  0  0  0  0  0  0  0  0  0  0
   -2.7408   -1.3507   -0.0028 O   0  0  0  0  0  0  0  0  0  0  0  0
   -1.6301   -3.8441   -1.8750 C   0  0  0  0  0  0  0  0  0  0  0  0
   -3.8633   -3.3888    0.1636 H   0  0  0  0  0  0  0  0  0  0  0  0
   -1.0067   -4.0099    0.1819 H   0  0  0  0  0  0  0  0  0  0  0  0
   -2.4252   -3.3748   -2.4631 H   0  0  0  0  0  0  0  0  0  0  0  0
   -0.6661   -3.4680   -2.2309 H   0  0  0  0  0  0  0  0  0  0  0  0
   -1.6630   -4.9254   -2.0437 H   0  0  0  0  0  0  0  0  0  0  0  0
   -0.4966   -1.4104    0.0890 N   0  0  0  0  0  0  0  0  0  0  0  0
   -0.2024    0.0293   -0.1114 C   0  0  2  0  0  0  0  0  0  0  0  0
   -0.4790    0.8685    1.1522 C   0  0  0  0  0  0  0  0  0  0  0  0
    0.0002    1.9895    1.2655 O   0  0  0  0  0  0  0  0  0  0  0  0
   -0.8699    0.6478   -1.3533 C   0  0  0  0  0  0  0  0  0  0  0  0
   -0.1862   -0.1319   -2.8744 S   0  0  0  0  0  0  0  0  0  0  0  0
    0.2979   -2.0381   -0.0036 H   0  0  0  0  0  0  0  0  0  0  0  0
    0.8768    0.1134   -0.2731 H   0  0  0  0  0  0  0  0  0  0  0  0
   -1.9578    0.5448   -1.3234 H   0  0  0  0  0  0  0  0  0  0  0  0
   -0.6514    1.7209   -1.3795 H   0  0  0  0  0  0  0  0  0  0  0  0
   -0.8532    0.5543   -3.8290 H   0  0  0  0  0  0  0  0  0  0  0  0
   -1.2282    0.3424    2.1843 N   0  0  0  0  0  0  0  0  0  0  0  0
   -1.5106    0.9956    3.4651 C   0  0  2  0  0  0  0  0  0  0  0  0
   -1.7581   -0.0385    4.5845 C   0  0  0  0  0  0  0  0  0  0  0  0
   -1.9980   -1.2098    4.3104 O   0  0  0  0  0  0  0  0  0  0  0  0
   -2.7364    1.8975    3.2882 C   0  0  0  0  0  0  0  0  0  0  0  0
   -1.6534   -0.5712    2.0164 H   0  0  0  0  0  0  0  0  0  0  0  0
   -0.6510    1.6056    3.7616 H   0  0  0  0  0  0  0  0  0  0  0  0
   -3.6053    1.3040    2.9849 H   0  0  0  0  0  0  0  0  0  0  0  0
   -2.9743    2.4124    4.2239 H   0  0  0  0  0  0  0  0  0  0  0  0
   -2.5460    2.6526    2.5188 H   0  0  0  0  0  0  0  0  0  0  0  0
   -1.7042    0.3436    5.9123 N   0  0  0  0  0  0  0  0  0  0  0  0
   -1.9066   -0.5831    7.0195 C   0  0  0  0  0  0  0  0  0  0  0  0
   -1.4846    1.3143    6.1151 H   0  0  0  0  0  0  0  0  0  0  0  0
   -2.8973   -1.0455    6.9561 H   0  0  0  0  0  0  0  0  0  0  0  0
   -1.1477   -1.3726    7.0019 H   0  0  0  0  0  0  0  0  0  0  0  0
   -1.8333   -0.0541    7.9746 H   0  0  0  0  0  0  0  0  0  0  0  0
  1  2  2  0  0  0  0
  1  3  1  0  0  0  0
  1  7  1  0  0  0  0
  3  4  1  0  0  0  0
  3  5  1  0  0  0  0
  3  6  1  0  0  0  0
  7  8  1  0  0  0  0
  7 12  1  0  0  0  0
  8  9  1  0  0  0  0
  8 11  1  0  0  0  0
  8 13  1  0  0  0  0
  9 10  2  0  0  0  0
  9 17  1  0  0  0  0
 11 14  1  0  0  0  0
 11 15  1  0  0  0  0
 11 16  1  0  0  0  0
 17 18  1  0  0  0  0
 17 23  1  0  0  0  0
 18 19  1  0  0  0  0
 18 21  1  0  0  0  0
 18 24  1  0  0  0  0
 19 20  2  0  0  0  0
 19 28  1  0  0  0  0
 21 22  1  0  0  0  0
 21 25  1  0  0  0  0
 21 26  1  0  0  0  0
 22 27  1  0  0  0  0
 28 29  1  0  0  0  0
 28 33  1  0  0  0  0
 29 30  1  0  0  0  0
 29 32  1  0  0  0  0
 29 34  1  0  0  0  0
 30 31  2  0  0  0  0
 30 38  1  0  0  0  0
 32 35  1  0  0  0  0
 32 36  1  0  0  0  0
 32 37  1  0  0  0  0
 38 39  1  0  0  0  0
 38 40  1  0  0  0  0
 39 41  1  0  0  0  0
 39 42  1  0  0  0  0
 39 43  1  0  0  0  0
M  END
$$$$

  -OEChem-05262216003D

 43 42  0     1  0  0  0  0  0999 V2000
   -3.3712   -5.3508    0.5132 C   0  0  0  0  0  0  0  0  0  0  0  0
   -2.4591   -6.1623    0.5011 O   0  0  0  0  0  0  0  0  0  0  0  0
   -4.7245   -5.7321    1.0829 C   0  0  0  0  0  0  0  0  0  0  0  0
   -5.4948   -5.6349    0.3139 H   0  0  0  0  0  0  0  0  0  0  0  0
   -4.7069   -6.7672    1.4356 H   0  0  0  0  0  0  0  0  0  0  0  0
   -4.9725   -5.0785    1.9230 H   0  0  0  0  0  0  0  0  0  0  0  0
   -3.1688   -4.0792    0.0208 N   0  0  0  0  0  0  0  0  0  0  0  0
   -1.8581   -3.5480   -0.3730 C   0  0  2  0  0  0  0  0  0  0  0  0
   -1.7452   -2.0388   -0.0766 C   0  0  0  0  0  0  0  0  0  0  0  0
   -2.7539   -1.3763    0.1373 O   0  0  0  0  0  0  0  0  0  0  0  0
   -1.6529   -3.8128   -1.8673 C   0  0  0  0  0  0  0  0  0  0  0  0
   -3.9152   -3.3991    0.1621 H   0  0  0  0  0  0  0  0  0  0  0  0
   -1.0700   -4.0537    0.1959 H   0  0  0  0  0  0  0  0  0  0  0  0
   -2.4354   -3.3208   -2.4541 H   0  0  0  0  0  0  0  0  0  0  0  0
   -0.6808   -3.4324   -2.1958 H   0  0  0  0  0  0  0  0  0  0  0  0
   -1.6887   -4.8878   -2.0705 H   0  0  0  0  0  0  0  0  0  0  0  0
   -0.5034   -1.4481    0.0770 N   0  0  0  0  0  0  0  0  0  0  0  0
   -0.2166   -0.0078   -0.1278 C   0  0  2  0  0  0  0  0  0  0  0  0
   -0.3994    0.8233    1.1594 C   0  0  0  0  0  0  0  0  0  0  0  0
   -0.1460    2.0215    1.1635 O   0  0  0  0  0  0  0  0  0  0  0  0
   -0.9578    0.6138   -1.3272 C   0  0  0  0  0  0  0  0  0  0  0  0
   -0.3631   -0.1628   -2.8868 S   0  0  0  0  0  0  0  0  0  0  0  0
    0.2741   -2.0776   -0.1047 H   0  0  0  0  0  0  0  0  0  0  0  0
    0.8503    0.0732   -0.3576 H   0  0  0  0  0  0  0  0  0  0  0  0
   -2.0420    0.5128   -1.2325 H   0  0  0  0  0  0  0  0  0  0  0  0
   -0.7412    1.6864   -1.3700 H   0  0  0  0  0  0  0  0  0  0  0  0
   -1.0745    0.5379   -3.7975 H   0  0  0  0  0  0  0  0  0  0  0  0
   -0.7920    0.2154    2.3349 N   0  0  0  0  0  0  0  0  0  0  0  0
   -1.0132    0.8929    3.6161 C   0  0  2  0  0  0  0  0  0  0  0  0
   -0.9079   -0.0883    4.8030 C   0  0  0  0  0  0  0  0  0  0  0  0
   -0.9411   -1.2998    4.6139 O   0  0  0  0  0  0  0  0  0  0  0  0
   -2.3994    1.5468    3.5858 C   0  0  0  0  0  0  0  0  0  0  0  0
   -1.0303   -0.7749    2.2806 H   0  0  0  0  0  0  0  0  0  0  0  0
   -0.2492    1.6647    3.7555 H   0  0  0  0  0  0  0  0  0  0  0  0
   -3.1756    0.7881    3.4421 H   0  0  0  0  0  0  0  0  0  0  0  0
   -2.5974    2.0760    4.5224 H   0  0  0  0  0  0  0  0  0  0  0  0
   -2.4627    2.2678    2.7645 H   0  0  0  0  0  0  0  0  0  0  0  0
   -0.7688    0.3895    6.0934 N   0  0  0  0  0  0  0  0  0  0  0  0
   -0.6602   -0.4778    7.2602 C   0  0  0  0  0  0  0  0  0  0  0  0
   -0.7321    1.3966    6.2216 H   0  0  0  0  0  0  0  0  0  0  0  0
   -1.5501   -1.1094    7.3510 H   0  0  0  0  0  0  0  0  0  0  0  0
    0.2223   -1.1212    7.1789 H   0  0  0  0  0  0  0  0  0  0  0  0
   -0.5676    0.1222    8.1705 H   0  0  0  0  0  0  0  0  0  0  0  0
  1  2  2  0  0  0  0
  1  3  1  0  0  0  0
  1  7  1  0  0  0  0
  3  4  1  0  0  0  0
  3  5  1  0  0  0  0
  3  6  1  0  0  0  0
  7  8  1  0  0  0  0
  7 12  1  0  0  0  0
  8  9  1  0  0  0  0
  8 11  1  0  0  0  0
  8 13  1  0  0  0  0
  9 10  2  0  0  0  0
  9 17  1  0  0  0  0
 11 14  1  0  0  0  0
 11 15  1  0  0  0  0
 11 16  1  0  0  0  0
 17 18  1  0  0  0  0
 17 23  1  0  0  0  0
 18 19  1  0  0  0  0
 18 21  1  0  0  0  0
 18 24  1  0  0  0  0
 19 20  2  0  0  0  0
 19 28  1  0  0  0  0
 21 22  1  0  0  0  0
 21 25  1  0  0  0  0
 21 26  1  0  0  0  0
 22 27  1  0  0  0  0
 28 29  1  0  0  0  0
 28 33  1  0  0  0  0
 29 30  1  0  0  0  0
 29 32  1  0  0  0  0
 29 34  1  0  0  0  0
 30 31  2  0  0  0  0
 30 38  1  0  0  0  0
 32 35  1  0  0  0  0
 32 36  1  0  0  0  0
 32 37  1  0  0  0  0
 38 39  1  0  0  0  0
 38 40  1  0  0  0  0
 39 41  1  0  0  0  0
 39 42  1  0  0  0  0
 39 43  1  0  0  0  0
M  END
$$$$

  -OEChem-05262216003D

 43 42  0     1  0  0  0  0  0999 V2000
   -3.4440   -5.3283    0.5260 C   0  0  0  0  0  0  0  0  0  0  0  0
   -2.5459   -6.1550    0.5081 O   0  0  0  0  0  0  0  0  0  0  0  0
   -4.8099   -5.6984    1.0720 C   0  0  0  0  0  0  0  0  0  0  0  0
   -5.5674   -5.5805    0.2934 H   0  0  0  0  0  0  0  0  0  0  0  0
   -4.8114   -6.7382    1.4110 H   0  0  0  0  0  0  0  0  0  0  0  0
   -5.0612   -5.0522    1.9168 H   0  0  0  0  0  0  0  0  0  0  0  0
   -3.2130   -4.0507    0.0625 N   0  0  0  0  0  0  0  0  0  0  0  0
   -1.8922   -3.5386   -0.3235 C   0  0  2  0  0  0  0  0  0  0  0  0
   -1.7596   -2.0302   -0.0302 C   0  0  0  0  0  0  0  0  0  0  0  0
   -2.7587   -1.3591    0.2007 O   0  0  0  0  0  0  0  0  0  0  0  0
   -1.6815   -3.8088   -1.8163 C   0  0  0  0  0  0  0  0  0  0  0  0
   -3.9491   -3.3597    0.2048 H   0  0  0  0  0  0  0  0  0  0  0  0
   -1.1148   -4.0540    0.2511 H   0  0  0  0  0  0  0  0  0  0  0  0
   -2.4519   -3.3043   -2.4083 H   0  0  0  0  0  0  0  0  0  0  0  0
   -0.7015   -3.4449   -2.1397 H   0  0  0  0  0  0  0  0  0  0  0  0
   -1.7335   -4.8832   -2.0189 H   0  0  0  0  0  0  0  0  0  0  0  0
   -0.5083   -1.4494    0.0814 N   0  0  0  0  0  0  0  0  0  0  0  0
   -0.2207   -0.0131   -0.1490 C   0  0  2  0  0  0  0  0  0  0  0  0
   -0.3640    0.8278    1.1386 C   0  0  0  0  0  0  0  0  0  0  0  0
   -0.3419    2.0518    1.0947 O   0  0  0  0  0  0  0  0  0  0  0  0
   -0.9850    0.5925   -1.3440 C   0  0  0  0  0  0  0  0  0  0  0  0
   -0.4236   -0.2094   -2.9031 S   0  0  0  0  0  0  0  0  0  0  0  0
    0.2556   -2.0862   -0.1303 H   0  0  0  0  0  0  0  0  0  0  0  0
    0.8406    0.0605   -0.4048 H   0  0  0  0  0  0  0  0  0  0  0  0
   -2.0670    0.4959   -1.2252 H   0  0  0  0  0  0  0  0  0  0  0  0
   -0.7674    1.6638   -1.4098 H   0  0  0  0  0  0  0  0  0  0  0  0
   -1.1610    0.4706   -3.8093 H   0  0  0  0  0  0  0  0  0  0  0  0
   -0.4179    0.2063    2.3705 N   0  0  0  0  0  0  0  0  0  0  0  0
   -0.5548    0.8835    3.6640 C   0  0  2  0  0  0  0  0  0  0  0  0
   -0.0821   -0.0152    4.8266 C   0  0  0  0  0  0  0  0  0  0  0  0
    0.0991   -1.2153    4.6486 O   0  0  0  0  0  0  0  0  0  0  0  0
   -2.0255    1.2716    3.8552 C   0  0  0  0  0  0  0  0  0  0  0  0
   -0.4443   -0.8126    2.3713 H   0  0  0  0  0  0  0  0  0  0  0  0
    0.0642    1.7867    3.6693 H   0  0  0  0  0  0  0  0  0  0  0  0
   -2.6589    0.3786    3.8494 H   0  0  0  0  0  0  0  0  0  0  0  0
   -2.1667    1.7940    4.8059 H   0  0  0  0  0  0  0  0  0  0  0  0
   -2.3531    1.9342    3.0479 H   0  0  0  0  0  0  0  0  0  0  0  0
    0.1464    0.5239    6.0794 N   0  0  0  0  0  0  0  0  0  0  0  0
    0.5925   -0.2645    7.2218 C   0  0  0  0  0  0  0  0  0  0  0  0
   -0.0013    1.5221    6.1965 H   0  0  0  0  0  0  0  0  0  0  0  0
   -0.1284   -1.0582    7.4441 H   0  0  0  0  0  0  0  0  0  0  0  0
    1.5667   -0.7206    7.0164 H   0  0  0  0  0  0  0  0  0  0  0  0
    0.6889    0.3720    8.1066 H   0  0  0  0  0  0  0  0  0  0  0  0
  1  2  2  0  0  0  0
  1  3  1  0  0  0  0
  1  7  1  0  0  0  0
  3  4  1  0  0  0  0
  3  5  1  0  0  0  0
  3  6  1  0  0  0  0
  7  8  1  0  0  0  0
  7 12  1  0  0  0  0
  8  9  1  0  0  0  0
  8 11  1  0  0  0  0
  8 13  1  0  0  0  0
  9 10  2  0  0  0  0
  9 17  1  0  0  0  0
 11 14  1  0  0  0  0
 11 15  1  0  0  0  0
 11 16  1  0  0  0  0
 17 18  1  0  0  0  0
 17 23  1  0  0  0  0
 18 19  1  0  0  0  0
 18 21  1  0  0  0  0
 18 24  1  0  0  0  0
 19 20  2  0  0  0  0
 19 28  1  0  0  0  0
 21 22  1  0  0  0  0
 21 25  1  0  0  0  0
 21 26  1  0  0  0  0
 22 27  1  0  0  0  0
 28 29  1  0  0  0  0
 28 33  1  0  0  0  0
 29 30  1  0  0  0  0
 29 32  1  0  0  0  0
 29 34  1  0  0  0  0
 30 31  2  0  0  0  0
 30 38  1  0  0  0  0
 32 35  1  0  0  0  0
 32 36  1  0  0  0  0
 32 37  1  0  0  0  0
 38 39  1  0  0  0  0
 38 40  1  0  0  0  0
 39 41  1  0  0  0  0
 39 42  1  0  0  0  0
 39 43  1  0  0  0  0
M  END
$$$$

  -OEChem-05262216003D

 43 42  0     1  0  0  0  0  0999 V2000
   -3.4595   -5.2730    0.6410 C   0  0  0  0  0  0  0  0  0  0  0  0
   -2.5562   -6.0933    0.6754 O   0  0  0  0  0  0  0  0  0  0  0  0
   -4.8366   -5.6328    1.1663 C   0  0  0  0  0  0  0  0  0  0  0  0
   -5.5708   -5.5737    0.3591 H   0  0  0  0  0  0  0  0  0  0  0  0
   -4.8332   -6.6507    1.5664 H   0  0  0  0  0  0  0  0  0  0  0  0
   -5.1240   -4.9425    1.9632 H   0  0  0  0  0  0  0  0  0  0  0  0
   -3.2277   -4.0154    0.1260 N   0  0  0  0  0  0  0  0  0  0  0  0
   -1.9075   -3.5164   -0.2798 C   0  0  2  0  0  0  0  0  0  0  0  0
   -1.7640   -2.0025   -0.0189 C   0  0  0  0  0  0  0  0  0  0  0  0
   -2.7604   -1.3221    0.1952 O   0  0  0  0  0  0  0  0  0  0  0  0
   -1.7149   -3.8218   -1.7681 C   0  0  0  0  0  0  0  0  0  0  0  0
   -3.9694   -3.3233    0.2266 H   0  0  0  0  0  0  0  0  0  0  0  0
   -1.1271   -4.0238    0.2977 H   0  0  0  0  0  0  0  0  0  0  0  0
   -2.4819   -3.3177   -2.3649 H   0  0  0  0  0  0  0  0  0  0  0  0
   -0.7317   -3.4824   -2.1079 H   0  0  0  0  0  0  0  0  0  0  0  0
   -1.7881   -4.8995   -1.9457 H   0  0  0  0  0  0  0  0  0  0  0  0
   -0.5082   -1.4275    0.0770 N   0  0  0  0  0  0  0  0  0  0  0  0
   -0.2135    0.0036   -0.1720 C   0  0  2  0  0  0  0  0  0  0  0  0
   -0.3458    0.8498    1.1139 C   0  0  0  0  0  0  0  0  0  0  0  0
   -0.5586    2.0552    1.0645 O   0  0  0  0  0  0  0  0  0  0  0  0
   -0.9747    0.5936   -1.3776 C   0  0  0  0  0  0  0  0  0  0  0  0
   -0.4107   -0.2372   -2.9214 S   0  0  0  0  0  0  0  0  0  0  0  0
    0.2495   -2.0712   -0.1356 H   0  0  0  0  0  0  0  0  0  0  0  0
    0.8472    0.0704   -0.4301 H   0  0  0  0  0  0  0  0  0  0  0  0
   -2.0572    0.5018   -1.2592 H   0  0  0  0  0  0  0  0  0  0  0  0
   -0.7537    1.6632   -1.4617 H   0  0  0  0  0  0  0  0  0  0  0  0
   -1.1661    0.4073   -3.8384 H   0  0  0  0  0  0  0  0  0  0  0  0
   -0.0856    0.2726    2.3416 N   0  0  0  0  0  0  0  0  0  0  0  0
   -0.1464    0.9574    3.6373 C   0  0  2  0  0  0  0  0  0  0  0  0
    0.6604    0.2004    4.7142 C   0  0  0  0  0  0  0  0  0  0  0  0
    1.0498   -0.9440    4.5048 O   0  0  0  0  0  0  0  0  0  0  0  0
   -1.6163    1.0735    4.0573 C   0  0  0  0  0  0  0  0  0  0  0  0
    0.1055   -0.7282    2.3536 H   0  0  0  0  0  0  0  0  0  0  0  0
    0.2856    1.9590    3.5411 H   0  0  0  0  0  0  0  0  0  0  0  0
   -2.0665    0.0797    4.1484 H   0  0  0  0  0  0  0  0  0  0  0  0
   -1.7036    1.5862    5.0196 H   0  0  0  0  0  0  0  0  0  0  0  0
   -2.1820    1.6430    3.3132 H   0  0  0  0  0  0  0  0  0  0  0  0
    0.9559    0.8038    5.9231 N   0  0  0  0  0  0  0  0  0  0  0  0
    1.7110    0.1464    6.9832 C   0  0  0  0  0  0  0  0  0  0  0  0
    0.6316    1.7557    6.0663 H   0  0  0  0  0  0  0  0  0  0  0  0
    1.2225   -0.7878    7.2797 H   0  0  0  0  0  0  0  0  0  0  0  0
    2.7278   -0.0796    6.6455 H   0  0  0  0  0  0  0  0  0  0  0  0
    1.7743    0.7957    7.8615 H   0  0  0  0  0  0  0  0  0  0  0  0
  1  2  2  0  0  0  0
  1  3  1  0  0  0  0
  1  7  1  0  0  0  0
  3  4  1  0  0  0  0
  3  5  1  0  0  0  0
  3  6  1  0  0  0  0
  7  8  1  0  0  0  0
  7 12  1  0  0  0  0
  8  9  1  0  0  0  0
  8 11  1  0  0  0  0
  8 13  1  0  0  0  0
  9 10  2  0  0  0  0
  9 17  1  0  0  0  0
 11 14  1  0  0  0  0
 11 15  1  0  0  0  0
 11 16  1  0  0  0  0
 17 18  1  0  0  0  0
 17 23  1  0  0  0  0
 18 19  1  0  0  0  0
 18 21  1  0  0  0  0
 18 24  1  0  0  0  0
 19 20  2  0  0  0  0
 19 28  1  0  0  0  0
 21 22  1  0  0  0  0
 21 25  1  0  0  0  0
 21 26  1  0  0  0  0
 22 27  1  0  0  0  0
 28 29  1  0  0  0  0
 28 33  1  0  0  0  0
 29 30  1  0  0  0  0
 29 32  1  0  0  0  0
 29 34  1  0  0  0  0
 30 31  2  0  0  0  0
 30 38  1  0  0  0  0
 32 35  1  0  0  0  0
 32 36  1  0  0  0  0
 32 37  1  0  0  0  0
 38 39  1  0  0  0  0
 38 40  1  0  0  0  0
 39 41  1  0  0  0  0
 39 42  1  0  0  0  0
 39 43  1  0  0  0  0
M  END
$$$$

  -OEChem-05262216003D

 43 42  0     1  0  0  0  0  0999 V2000
   -3.4774   -5.2374    0.7151 C   0  0  0  0  0  0  0  0  0  0  0  0
   -2.5776   -6.0561    0.8185 O   0  0  0  0  0  0  0  0  0  0  0  0
   -4.8649   -5.5602    1.2369 C   0  0  0  0  0  0  0  0  0  0  0  0
   -5.5907   -5.5190    0.4209 H   0  0  0  0  0  0  0  0  0  0  0  0
   -4.8798   -6.5634    1.6721 H   0  0  0  0  0  0  0  0  0  0  0  0
   -5.1510   -4.8390    2.0066 H   0  0  0  0  0  0  0  0  0  0  0  0
   -3.2299   -4.0093    0.1399 N   0  0  0  0  0  0  0  0  0  0  0  0
   -1.8922   -3.5196   -0.2183 C   0  0  2  0  0  0  0  0  0  0  0  0
   -1.7683   -1.9964   -0.0028 C   0  0  0  0  0  0  0  0  0  0  0  0
   -2.7749   -1.3239    0.1861 O   0  0  0  0  0  0  0  0  0  0  0  0
   -1.6198   -3.8755   -1.6828 C   0  0  0  0  0  0  0  0  0  0  0  0
   -3.9697   -3.3099    0.1995 H   0  0  0  0  0  0  0  0  0  0  0  0
   -1.1401   -4.0017    0.4157 H   0  0  0  0  0  0  0  0  0  0  0  0
   -2.3523   -3.3918   -2.3367 H   0  0  0  0  0  0  0  0  0  0  0  0
   -0.6191   -3.5470   -1.9793 H   0  0  0  0  0  0  0  0  0  0  0  0
   -1.6840   -4.9585   -1.8280 H   0  0  0  0  0  0  0  0  0  0  0  0
   -0.5182   -1.4068    0.0764 N   0  0  0  0  0  0  0  0  0  0  0  0
   -0.2320    0.0226   -0.1883 C   0  0  2  0  0  0  0  0  0  0  0  0
   -0.3611    0.8723    1.0950 C   0  0  0  0  0  0  0  0  0  0  0  0
   -0.8098    2.0120    1.0701 O   0  0  0  0  0  0  0  0  0  0  0  0
   -1.0050    0.6039   -1.3904 C   0  0  0  0  0  0  0  0  0  0  0  0
   -0.4559   -0.2325   -2.9356 S   0  0  0  0  0  0  0  0  0  0  0  0
    0.2453   -2.0495   -0.1160 H   0  0  0  0  0  0  0  0  0  0  0  0
    0.8256    0.0927   -0.4580 H   0  0  0  0  0  0  0  0  0  0  0  0
   -2.0864    0.5131   -1.2601 H   0  0  0  0  0  0  0  0  0  0  0  0
   -0.7853    1.6731   -1.4810 H   0  0  0  0  0  0  0  0  0  0  0  0
   -1.2174    0.4142   -3.8458 H   0  0  0  0  0  0  0  0  0  0  0  0
    0.1989    0.4107    2.2703 N   0  0  0  0  0  0  0  0  0  0  0  0
    0.2126    1.1306    3.5483 C   0  0  2  0  0  0  0  0  0  0  0  0
    1.2984    0.5705    4.4918 C   0  0  0  0  0  0  0  0  0  0  0  0
    1.8569   -0.4902    4.2295 O   0  0  0  0  0  0  0  0  0  0  0  0
   -1.1716    1.0080    4.1970 C   0  0  0  0  0  0  0  0  0  0  0  0
    0.6033   -0.5244    2.2634 H   0  0  0  0  0  0  0  0  0  0  0  0
    0.4385    2.1872    3.3696 H   0  0  0  0  0  0  0  0  0  0  0  0
   -1.4188   -0.0439    4.3725 H   0  0  0  0  0  0  0  0  0  0  0  0
   -1.1975    1.5371    5.1540 H   0  0  0  0  0  0  0  0  0  0  0  0
   -1.9386    1.4404    3.5466 H   0  0  0  0  0  0  0  0  0  0  0  0
    1.6543    1.2573    5.6379 N   0  0  0  0  0  0  0  0  0  0  0  0
    2.6546    0.7748    6.5821 C   0  0  0  0  0  0  0  0  0  0  0  0
    1.1714    2.1294    5.8335 H   0  0  0  0  0  0  0  0  0  0  0  0
    2.3535   -0.1929    6.9969 H   0  0  0  0  0  0  0  0  0  0  0  0
    3.6251    0.6604    6.0879 H   0  0  0  0  0  0  0  0  0  0  0  0
    2.7689    1.4842    7.4072 H   0  0  0  0  0  0  0  0  0  0  0  0
  1  2  2  0  0  0  0
  1  3  1  0  0  0  0
  1  7  1  0  0  0  0
  3  4  1  0  0  0  0
  3  5  1  0  0  0  0
  3  6  1  0  0  0  0
  7  8  1  0  0  0  0
  7 12  1  0  0  0  0
  8  9  1  0  0  0  0
  8 11  1  0  0  0  0
  8 13  1  0  0  0  0
  9 10  2  0  0  0  0
  9 17  1  0  0  0  0
 11 14  1  0  0  0  0
 11 15  1  0  0  0  0
 11 16  1  0  0  0  0
 17 18  1  0  0  0  0
 17 23  1  0  0  0  0
 18 19  1  0  0  0  0
 18 21  1  0  0  0  0
 18 24  1  0  0  0  0
 19 20  2  0  0  0  0
 19 28  1  0  0  0  0
 21 22  1  0  0  0  0
 21 25  1  0  0  0  0
 21 26  1  0  0  0  0
 22 27  1  0  0  0  0
 28 29  1  0  0  0  0
 28 33  1  0  0  0  0
 29 30  1  0  0  0  0
 29 32  1  0  0  0  0
 29 34  1  0  0  0  0
 30 31  2  0  0  0  0
 30 38  1  0  0  0  0
 32 35  1  0  0  0  0
 32 36  1  0  0  0  0
 32 37  1  0  0  0  0
 38 39  1  0  0  0  0
 38 40  1  0  0  0  0
 39 41  1  0  0  0  0
 39 42  1  0  0  0  0
 39 43  1  0  0  0  0
M  END
$$$$

  -OEChem-05262216003D

 43 42  0     1  0  0  0  0  0999 V2000
   -3.4871   -5.2219    0.7610 C   0  0  0  0  0  0  0  0  0  0  0  0
   -2.5857   -6.0374    0.8758 O   0  0  0  0  0  0  0  0  0  0  0  0
   -4.8754   -5.5414    1.2825 C   0  0  0  0  0  0  0  0  0  0  0  0
   -5.6017   -5.4856    0.4681 H   0  0  0  0  0  0  0  0  0  0  0  0
   -4.8966   -6.5499    1.7050 H   0  0  0  0  0  0  0  0  0  0  0  0
   -5.1558   -4.8276    2.0611 H   0  0  0  0  0  0  0  0  0  0  0  0
   -3.2410   -4.0019    0.1688 N   0  0  0  0  0  0  0  0  0  0  0  0
   -1.9069   -3.5209   -0.2124 C   0  0  2  0  0  0  0  0  0  0  0  0
   -1.7694   -1.9995    0.0033 C   0  0  0  0  0  0  0  0  0  0  0  0
   -2.7738   -1.3171    0.1639 O   0  0  0  0  0  0  0  0  0  0  0  0
   -1.6698   -3.8728   -1.6837 C   0  0  0  0  0  0  0  0  0  0  0  0
   -3.9810   -3.3018    0.2171 H   0  0  0  0  0  0  0  0  0  0  0  0
   -1.1451   -4.0103    0.4040 H   0  0  0  0  0  0  0  0  0  0  0  0
   -2.4219   -3.3929   -2.3183 H   0  0  0  0  0  0  0  0  0  0  0  0
   -0.6794   -3.5371   -2.0061 H   0  0  0  0  0  0  0  0  0  0  0  0
   -1.7316   -4.9561   -1.8279 H   0  0  0  0  0  0  0  0  0  0  0  0
   -0.5138   -1.4242    0.1012 N   0  0  0  0  0  0  0  0  0  0  0  0
   -0.2057   -0.0008   -0.1642 C   0  0  2  0  0  0  0  0  0  0  0  0
   -0.3454    0.8577    1.1119 C   0  0  0  0  0  0  0  0  0  0  0  0
   -1.0072    1.8886    1.1263 O   0  0  0  0  0  0  0  0  0  0  0  0
   -0.9480    0.5832   -1.3836 C   0  0  0  0  0  0  0  0  0  0  0  0
   -0.3781   -0.2675   -2.9139 S   0  0  0  0  0  0  0  0  0  0  0  0
    0.2455   -2.0771   -0.0711 H   0  0  0  0  0  0  0  0  0  0  0  0
    0.8567    0.0543   -0.4184 H   0  0  0  0  0  0  0  0  0  0  0  0
   -2.0329    0.5025   -1.2749 H   0  0  0  0  0  0  0  0  0  0  0  0
   -0.7168    1.6501   -1.4714 H   0  0  0  0  0  0  0  0  0  0  0  0
   -1.1183    0.3787   -3.8422 H   0  0  0  0  0  0  0  0  0  0  0  0
    0.4387    0.5663    2.2122 N   0  0  0  0  0  0  0  0  0  0  0  0
    0.4917    1.3556    3.4485 C   0  0  2  0  0  0  0  0  0  0  0  0
    1.7971    1.0904    4.2281 C   0  0  0  0  0  0  0  0  0  0  0  0
    2.5277    0.1587    3.9068 O   0  0  0  0  0  0  0  0  0  0  0  0
   -0.7279    1.0020    4.3080 C   0  0  0  0  0  0  0  0  0  0  0  0
    1.0486   -0.2482    2.1599 H   0  0  0  0  0  0  0  0  0  0  0  0
    0.4652    2.4223    3.2019 H   0  0  0  0  0  0  0  0  0  0  0  0
   -0.7182   -0.0614    4.5678 H   0  0  0  0  0  0  0  0  0  0  0  0
   -0.7310    1.5871    5.2323 H   0  0  0  0  0  0  0  0  0  0  0  0
   -1.6530    1.2175    3.7636 H   0  0  0  0  0  0  0  0  0  0  0  0
    2.1622    1.9045    5.2845 N   0  0  0  0  0  0  0  0  0  0  0  0
    3.3843    1.7141    6.0564 C   0  0  0  0  0  0  0  0  0  0  0  0
    1.5444    2.6756    5.5210 H   0  0  0  0  0  0  0  0  0  0  0  0
    3.3975    0.7195    6.5145 H   0  0  0  0  0  0  0  0  0  0  0  0
    4.2641    1.8168    5.4127 H   0  0  0  0  0  0  0  0  0  0  0  0
    3.4497    2.4617    6.8526 H   0  0  0  0  0  0  0  0  0  0  0  0
  1  2  2  0  0  0  0
  1  3  1  0  0  0  0
  1  7  1  0  0  0  0
  3  4  1  0  0  0  0
  3  5  1  0  0  0  0
  3  6  1  0  0  0  0
  7  8  1  0  0  0  0
  7 12  1  0  0  0  0
  8  9  1  0  0  0  0
  8 11  1  0  0  0  0
  8 13  1  0  0  0  0
  9 10  2  0  0  0  0
  9 17  1  0  0  0  0
 11 14  1  0  0  0  0
 11 15  1  0  0  0  0
 11 16  1  0  0  0  0
 17 18  1  0  0  0  0
 17 23  1  0  0  0  0
 18 19  1  0  0  0  0
 18 21  1  0  0  0  0
 18 24  1  0  0  0  0
 19 20  2  0  0  0  0
 19 28  1  0  0  0  0
 21 22  1  0  0  0  0
 21 25  1  0  0  0  0
 21 26  1  0  0  0  0
 22 27  1  0  0  0  0
 28 29  1  0  0  0  0
 28 33  1  0  0  0  0
 29 30  1  0  0  0  0
 29 32  1  0  0  0  0
 29 34  1  0  0  0  0
 30 31  2  0  0  0  0
 30 38  1  0  0  0  0
 32 35  1  0  0  0  0
 32 36  1  0  0  0  0
 32 37  1  0  0  0  0
 38 39  1  0  0  0  0
 38 40  1  0  0  0  0
 39 41  1  0  0  0  0
 39 42  1  0  0  0  0
 39 43  1  0  0  0  0
M  END
$$$$

  -OEChem-05262216003D

 43 42  0     1  0  0  0  0  0999 V2000
   -3.4771   -5.1911    0.8354 C   0  0  0  0  0  0  0  0  0  0  0  0
   -2.5745   -5.9932    1.0177 O   0  0  0  0  0  0  0  0  0  0  0  0
   -4.8794   -5.4946    1.3280 C   0  0  0  0  0  0  0  0  0  0  0  0
   -5.5786   -5.4858    0.4886 H   0  0  0  0  0  0  0  0  0  0  0  0
   -4.9084   -6.4800    1.8015 H   0  0  0  0  0  0  0  0  0  0  0  0
   -5.1895   -4.7432    2.0581 H   0  0  0  0  0  0  0  0  0  0  0  0
   -3.2226   -4.0001    0.1900 N   0  0  0  0  0  0  0  0  0  0  0  0
   -1.8822   -3.5246   -0.1742 C   0  0  2  0  0  0  0  0  0  0  0  0
   -1.7626   -1.9947   -0.0122 C   0  0  0  0  0  0  0  0  0  0  0  0
   -2.7783   -1.3195    0.0964 O   0  0  0  0  0  0  0  0  0  0  0  0
   -1.6059   -3.9325   -1.6241 C   0  0  0  0  0  0  0  0  0  0  0  0
   -3.9671   -3.3029    0.1878 H   0  0  0  0  0  0  0  0  0  0  0  0
   -1.1338   -3.9845    0.4799 H   0  0  0  0  0  0  0  0  0  0  0  0
   -2.3439   -3.4814   -2.2952 H   0  0  0  0  0  0  0  0  0  0  0  0
   -0.6093   -3.6051   -1.9347 H   0  0  0  0  0  0  0  0  0  0  0  0
   -1.6591   -5.0210   -1.7276 H   0  0  0  0  0  0  0  0  0  0  0  0
   -0.5127   -1.4075    0.0913 N   0  0  0  0  0  0  0  0  0  0  0  0
   -0.2010    0.0169   -0.1658 C   0  0  2  0  0  0  0  0  0  0  0  0
   -0.3455    0.8724    1.1122 C   0  0  0  0  0  0  0  0  0  0  0  0
   -1.1944    1.7500    1.2079 O   0  0  0  0  0  0  0  0  0  0  0  0
   -0.9420    0.6135   -1.3795 C   0  0  0  0  0  0  0  0  0  0  0  0
   -0.3782   -0.2259   -2.9186 S   0  0  0  0  0  0  0  0  0  0  0  0
    0.2559   -2.0592   -0.0363 H   0  0  0  0  0  0  0  0  0  0  0  0
    0.8608    0.0711   -0.4223 H   0  0  0  0  0  0  0  0  0  0  0  0
   -2.0270    0.5354   -1.2700 H   0  0  0  0  0  0  0  0  0  0  0  0
   -0.7087    1.6807   -1.4554 H   0  0  0  0  0  0  0  0  0  0  0  0
   -1.1331    0.4156   -3.8382 H   0  0  0  0  0  0  0  0  0  0  0  0
    0.6250    0.7930    2.0936 N   0  0  0  0  0  0  0  0  0  0  0  0
    0.6924    1.6433    3.2885 C   0  0  2  0  0  0  0  0  0  0  0  0
    2.1240    1.6855    3.8647 C   0  0  0  0  0  0  0  0  0  0  0  0
    2.9778    0.9103    3.4456 O   0  0  0  0  0  0  0  0  0  0  0  0
   -0.2913    1.1011    4.3324 C   0  0  0  0  0  0  0  0  0  0  0  0
    1.3915    0.1358    1.9561 H   0  0  0  0  0  0  0  0  0  0  0  0
    0.4120    2.6684    3.0243 H   0  0  0  0  0  0  0  0  0  0  0  0
   -0.0251    0.0772    4.6133 H   0  0  0  0  0  0  0  0  0  0  0  0
   -0.2807    1.7238    5.2318 H   0  0  0  0  0  0  0  0  0  0  0  0
   -1.3100    1.0972    3.9312 H   0  0  0  0  0  0  0  0  0  0  0  0
    2.4622    2.5982    4.8470 N   0  0  0  0  0  0  0  0  0  0  0  0
    3.7958    2.6894    5.4290 C   0  0  0  0  0  0  0  0  0  0  0  0
    1.7391    3.2352    5.1687 H   0  0  0  0  0  0  0  0  0  0  0  0
    4.0830    1.7348    5.8825 H   0  0  0  0  0  0  0  0  0  0  0  0
    4.5311    2.9491    4.6603 H   0  0  0  0  0  0  0  0  0  0  0  0
    3.8193    3.4603    6.2053 H   0  0  0  0  0  0  0  0  0  0  0  0
  1  2  2  0  0  0  0
  1  3  1  0  0  0  0
  1  7  1  0  0  0  0
  3  4  1  0  0  0  0
  3  5  1  0  0  0  0
  3  6  1  0  0  0  0
  7  8  1  0  0  0  0
  7 12  1  0  0  0  0
  8  9  1  0  0  0  0
  8 11  1  0  0  0  0
  8 13  1  0  0  0  0
  9 10  2  0  0  0  0
  9 17  1  0  0  0  0
 11 14  1  0  0  0  0
 11 15  1  0  0  0  0
 11 16  1  0  0  0  0
 17 18  1  0  0  0  0
 17 23  1  0  0  0  0
 18 19  1  0  0  0  0
 18 21  1  0  0  0  0
 18 24  1  0  0  0  0
 19 20  2  0  0  0  0
 19 28  1  0  0  0  0
 21 22  1  0  0  0  0
 21 25  1  0  0  0  0
 21 26  1  0  0  0  0
 22 27  1  0  0  0  0
 28 29  1  0  0  0  0
 28 33  1  0  0  0  0
 29 30  1  0  0  0  0
 29 32  1  0  0  0  0
 29 34  1  0  0  0  0
 30 31  2  0  0  0  0
 30 38  1  0  0  0  0
 32 35  1  0  0  0  0
 32 36  1  0  0  0  0
 32 37  1  0  0  0  0
 38 39  1  0  0  0  0
 38 40  1  0  0  0  0
 39 41  1  0  0  0  0
 39 42  1  0  0  0  0
 39 43  1  0  0  0  0
M  END
$$$$

  -OEChem-05262216003D

 43 42  0     1  0  0  0  0  0999 V2000
   -3.4554   -5.1326    0.9383 C   0  0  0  0  0  0  0  0  0  0  0  0
   -2.5428   -5.8956    1.2147 O   0  0  0  0  0  0  0  0  0  0  0  0
   -4.8713   -5.4444    1.3850 C   0  0  0  0  0  0  0  0  0  0  0  0
   -5.5217   -5.5500    0.5135 H   0  0  0  0  0  0  0  0  0  0  0  0
   -4.8904   -6.3778    1.9542 H   0  0  0  0  0  0  0  0  0  0  0  0
   -5.2496   -4.6381    2.0181 H   0  0  0  0  0  0  0  0  0  0  0  0
   -3.1995   -3.9818    0.2235 N   0  0  0  0  0  0  0  0  0  0  0  0
   -1.8540   -3.5018   -0.1170 C   0  0  2  0  0  0  0  0  0  0  0  0
   -1.7692   -1.9616   -0.0788 C   0  0  0  0  0  0  0  0  0  0  0  0
   -2.8015   -1.3040   -0.0793 O   0  0  0  0  0  0  0  0  0  0  0  0
   -1.4944   -4.0227   -1.5115 C   0  0  0  0  0  0  0  0  0  0  0  0
   -3.9581   -3.3050    0.1407 H   0  0  0  0  0  0  0  0  0  0  0  0
   -1.1305   -3.8855    0.6102 H   0  0  0  0  0  0  0  0  0  0  0  0
   -2.2057   -3.6482   -2.2544 H   0  0  0  0  0  0  0  0  0  0  0  0
   -0.4900   -3.6974   -1.7978 H   0  0  0  0  0  0  0  0  0  0  0  0
   -1.5196   -5.1169   -1.5254 H   0  0  0  0  0  0  0  0  0  0  0  0
   -0.5273   -1.3566    0.0270 N   0  0  0  0  0  0  0  0  0  0  0  0
   -0.2033    0.0688   -0.2067 C   0  0  2  0  0  0  0  0  0  0  0  0
   -0.3391    0.9074    1.0827 C   0  0  0  0  0  0  0  0  0  0  0  0
   -1.3363    1.5791    1.3128 O   0  0  0  0  0  0  0  0  0  0  0  0
   -0.9459    0.7062   -1.3968 C   0  0  0  0  0  0  0  0  0  0  0  0
   -0.4111   -0.1014   -2.9625 S   0  0  0  0  0  0  0  0  0  0  0  0
    0.2528   -2.0058   -0.0078 H   0  0  0  0  0  0  0  0  0  0  0  0
    0.8563    0.1132   -0.4739 H   0  0  0  0  0  0  0  0  0  0  0  0
   -2.0305    0.6424   -1.2772 H   0  0  0  0  0  0  0  0  0  0  0  0
   -0.6977    1.7714   -1.4471 H   0  0  0  0  0  0  0  0  0  0  0  0
   -1.2117    0.5304   -3.8492 H   0  0  0  0  0  0  0  0  0  0  0  0
    0.7538    1.0562    1.9168 N   0  0  0  0  0  0  0  0  0  0  0  0
    0.8038    1.9328    3.0937 C   0  0  2  0  0  0  0  0  0  0  0  0
    2.2582    2.2947    3.4616 C   0  0  0  0  0  0  0  0  0  0  0  0
    3.1918    1.6950    2.9381 O   0  0  0  0  0  0  0  0  0  0  0  0
    0.1171    1.2204    4.2650 C   0  0  0  0  0  0  0  0  0  0  0  0
    1.6222    0.5892    1.6585 H   0  0  0  0  0  0  0  0  0  0  0  0
    0.2762    2.8680    2.8771 H   0  0  0  0  0  0  0  0  0  0  0  0
    0.6330    0.2834    4.4982 H   0  0  0  0  0  0  0  0  0  0  0  0
    0.1223    1.8526    5.1577 H   0  0  0  0  0  0  0  0  0  0  0  0
   -0.9235    0.9908    4.0145 H   0  0  0  0  0  0  0  0  0  0  0  0
    2.5227    3.2992    4.3740 N   0  0  0  0  0  0  0  0  0  0  0  0
    3.8714    3.6945    4.7629 C   0  0  0  0  0  0  0  0  0  0  0  0
    1.7295    3.7880    4.7792 H   0  0  0  0  0  0  0  0  0  0  0  0
    4.4126    2.8445    5.1920 H   0  0  0  0  0  0  0  0  0  0  0  0
    4.4277    4.0644    3.8953 H   0  0  0  0  0  0  0  0  0  0  0  0
    3.8307    4.4908    5.5126 H   0  0  0  0  0  0  0  0  0  0  0  0
  1  2  2  0  0  0  0
  1  3  1  0  0  0  0
  1  7  1  0  0  0  0
  3  4  1  0  0  0  0
  3  5  1  0  0  0  0
  3  6  1  0  0  0  0
  7  8  1  0  0  0  0
  7 12  1  0  0  0  0
  8  9  1  0  0  0  0
  8 11  1  0  0  0  0
  8 13  1  0  0  0  0
  9 10  2  0  0  0  0
  9 17  1  0  0  0  0
 11 14  1  0  0  0  0
 11 15  1  0  0  0  0
 11 16  1  0  0  0  0
 17 18  1  0  0  0  0
 17 23  1  0  0  0  0
 18 19  1  0  0  0  0
 18 21  1  0  0  0  0
 18 24  1  0  0  0  0
 19 20  2  0  0  0  0
 19 28  1  0  0  0  0
 21 22  1  0  0  0  0
 21 25  1  0  0  0  0
 21 26  1  0  0  0  0
 22 27  1  0  0  0  0
 28 29  1  0  0  0  0
 28 33  1  0  0  0  0
 29 30  1  0  0  0  0
 29 32  1  0  0  0  0
 29 34  1  0  0  0  0
 30 31  2  0  0  0  0
 30 38  1  0  0  0  0
 32 35  1  0  0  0  0
 32 36  1  0  0  0  0
 32 37  1  0  0  0  0
 38 39  1  0  0  0  0
 38 40  1  0  0  0  0
 39 41  1  0  0  0  0
 39 42  1  0  0  0  0
 39 43  1  0  0  0  0
M  END
$$$$

  -OEChem-05262216003D

 43 42  0     1  0  0  0  0  0999 V2000
   -3.4704   -5.0834    0.9890 C   0  0  0  0  0  0  0  0  0  0  0  0
   -2.5687   -5.8376    1.3199 O   0  0  0  0  0  0  0  0  0  0  0  0
   -4.8995   -5.3781    1.4041 C   0  0  0  0  0  0  0  0  0  0  0  0
   -5.5327   -5.4742    0.5188 H   0  0  0  0  0  0  0  0  0  0  0  0
   -4.9423   -6.3127    1.9707 H   0  0  0  0  0  0  0  0  0  0  0  0
   -5.2809   -4.5679    2.0304 H   0  0  0  0  0  0  0  0  0  0  0  0
   -3.1896   -3.9592    0.2425 N   0  0  0  0  0  0  0  0  0  0  0  0
   -1.8335   -3.4963   -0.0782 C   0  0  2  0  0  0  0  0  0  0  0  0
   -1.7504   -1.9556   -0.1249 C   0  0  0  0  0  0  0  0  0  0  0  0
   -2.7857   -1.3084   -0.2109 O   0  0  0  0  0  0  0  0  0  0  0  0
   -1.4281   -4.0968   -1.4274 C   0  0  0  0  0  0  0  0  0  0  0  0
   -3.9443   -3.2872    0.1038 H   0  0  0  0  0  0  0  0  0  0  0  0
   -1.1357   -3.8366    0.6944 H   0  0  0  0  0  0  0  0  0  0  0  0
   -2.1119   -3.7630   -2.2146 H   0  0  0  0  0  0  0  0  0  0  0  0
   -0.4126   -3.7916   -1.6968 H   0  0  0  0  0  0  0  0  0  0  0  0
   -1.4583   -5.1900   -1.3793 H   0  0  0  0  0  0  0  0  0  0  0  0
   -0.5113   -1.3427   -0.0141 N   0  0  0  0  0  0  0  0  0  0  0  0
   -0.1837    0.0862   -0.2265 C   0  0  2  0  0  0  0  0  0  0  0  0
   -0.3128    0.9142    1.0703 C   0  0  0  0  0  0  0  0  0  0  0  0
   -1.3965    1.3166    1.4708 O   0  0  0  0  0  0  0  0  0  0  0  0
   -0.9273    0.7555   -1.3962 C   0  0  0  0  0  0  0  0  0  0  0  0
   -0.4093   -0.0201   -2.9834 S   0  0  0  0  0  0  0  0  0  0  0  0
    0.2726   -1.9862    0.0329 H   0  0  0  0  0  0  0  0  0  0  0  0
    0.8745    0.1264   -0.4996 H   0  0  0  0  0  0  0  0  0  0  0  0
   -2.0113    0.6978   -1.2709 H   0  0  0  0  0  0  0  0  0  0  0  0
   -0.6712    1.8195   -1.4243 H   0  0  0  0  0  0  0  0  0  0  0  0
   -1.2254    0.6235   -3.8473 H   0  0  0  0  0  0  0  0  0  0  0  0
    0.8244    1.3207    1.7444 N   0  0  0  0  0  0  0  0  0  0  0  0
    0.8336    2.2218    2.9041 C   0  0  2  0  0  0  0  0  0  0  0  0
    2.1869    2.9522    3.0355 C   0  0  0  0  0  0  0  0  0  0  0  0
    3.1439    2.5945    2.3561 O   0  0  0  0  0  0  0  0  0  0  0  0
    0.5422    1.3980    4.1636 C   0  0  0  0  0  0  0  0  0  0  0  0
    1.7316    1.0961    1.3368 H   0  0  0  0  0  0  0  0  0  0  0  0
    0.0580    2.9857    2.7817 H   0  0  0  0  0  0  0  0  0  0  0  0
    1.3089    0.6292    4.3032 H   0  0  0  0  0  0  0  0  0  0  0  0
    0.5261    2.0396    5.0495 H   0  0  0  0  0  0  0  0  0  0  0  0
   -0.4323    0.9063    4.0791 H   0  0  0  0  0  0  0  0  0  0  0  0
    2.3310    4.0180    3.9048 N   0  0  0  0  0  0  0  0  0  0  0  0
    3.5750    4.7632    4.0591 C   0  0  0  0  0  0  0  0  0  0  0  0
    1.5135    4.3089    4.4335 H   0  0  0  0  0  0  0  0  0  0  0  0
    4.4053    4.0844    4.2814 H   0  0  0  0  0  0  0  0  0  0  0  0
    3.8066    5.3144    3.1418 H   0  0  0  0  0  0  0  0  0  0  0  0
    3.4884    5.4791    4.8821 H   0  0  0  0  0  0  0  0  0  0  0  0
  1  2  2  0  0  0  0
  1  3  1  0  0  0  0
  1  7  1  0  0  0  0
  3  4  1  0  0  0  0
  3  5  1  0  0  0  0
  3  6  1  0  0  0  0
  7  8  1  0  0  0  0
  7 12  1  0  0  0  0
  8  9  1  0  0  0  0
  8 11  1  0  0  0  0
  8 13  1  0  0  0  0
  9 10  2  0  0  0  0
  9 17  1  0  0  0  0
 11 14  1  0  0  0  0
 11 15  1  0  0  0  0
 11 16  1  0  0  0  0
 17 18  1  0  0  0  0
 17 23  1  0  0  0  0
 18 19  1  0  0  0  0
 18 21  1  0  0  0  0
 18 24  1  0  0  0  0
 19 20  2  0  0  0  0
 19 28  1  0  0  0  0
 21 22  1  0  0  0  0
 21 25  1  0  0  0  0
 21 26  1  0  0  0  0
 22 27  1  0  0  0  0
 28 29  1  0  0  0  0
 28 33  1  0  0  0  0
 29 30  1  0  0  0  0
 29 32  1  0  0  0  0
 29 34  1  0  0  0  0
 30 31  2  0  0  0  0
 30 38  1  0  0  0  0
 32 35  1  0  0  0  0
 32 36  1  0  0  0  0
 32 37  1  0  0  0  0
 38 39  1  0  0  0  0
 38 40  1  0  0  0  0
 39 41  1  0  0  0  0
 39 42  1  0  0  0  0
 39 43  1  0  0  0  0
M  END
$$$$

  -OEChem-05262216003D

 43 42  0     1  0  0  0  0  0999 V2000
   -3.4640   -5.0227    1.0593 C   0  0  0  0  0  0  0  0  0  0  0  0
   -2.5730   -5.7470    1.4753 O   0  0  0  0  0  0  0  0  0  0  0  0
   -4.9089   -5.3049    1.4259 C   0  0  0  0  0  0  0  0  0  0  0  0
   -5.4970   -5.4786    0.5215 H   0  0  0  0  0  0  0  0  0  0  0  0
   -4.9708   -6.1923    2.0622 H   0  0  0  0  0  0  0  0  0  0  0  0
   -5.3286   -4.4536    1.9673 H   0  0  0  0  0  0  0  0  0  0  0  0
   -3.1577   -3.9412    0.2617 N   0  0  0  0  0  0  0  0  0  0  0  0
   -1.7930   -3.4746   -0.0147 C   0  0  2  0  0  0  0  0  0  0  0  0
   -1.7371   -1.9408   -0.1858 C   0  0  0  0  0  0  0  0  0  0  0  0
   -2.7800   -1.3294   -0.3809 O   0  0  0  0  0  0  0  0  0  0  0  0
   -1.2903   -4.1722   -1.2826 C   0  0  0  0  0  0  0  0  0  0  0  0
   -3.9115   -3.2879    0.0488 H   0  0  0  0  0  0  0  0  0  0  0  0
   -1.1396   -3.7339    0.8252 H   0  0  0  0  0  0  0  0  0  0  0  0
   -1.9272   -3.9187   -2.1361 H   0  0  0  0  0  0  0  0  0  0  0  0
   -0.2652   -3.8656   -1.5110 H   0  0  0  0  0  0  0  0  0  0  0  0
   -1.3034   -5.2586   -1.1488 H   0  0  0  0  0  0  0  0  0  0  0  0
   -0.5115   -1.2986   -0.0871 N   0  0  0  0  0  0  0  0  0  0  0  0
   -0.2071    0.1368   -0.2924 C   0  0  2  0  0  0  0  0  0  0  0  0
   -0.3301    0.9606    1.0076 C   0  0  0  0  0  0  0  0  0  0  0  0
   -1.3855    1.0417    1.6206 O   0  0  0  0  0  0  0  0  0  0  0  0
   -0.9683    0.8182   -1.4428 C   0  0  0  0  0  0  0  0  0  0  0  0
   -0.4634    0.0735   -3.0486 S   0  0  0  0  0  0  0  0  0  0  0  0
    0.2768   -1.9133    0.0894 H   0  0  0  0  0  0  0  0  0  0  0  0
    0.8475    0.1849   -0.5774 H   0  0  0  0  0  0  0  0  0  0  0  0
   -2.0502    0.7509   -1.3049 H   0  0  0  0  0  0  0  0  0  0  0  0
   -0.7198    1.8841   -1.4591 H   0  0  0  0  0  0  0  0  0  0  0  0
   -1.3259    0.6894   -3.8868 H   0  0  0  0  0  0  0  0  0  0  0  0
    0.7696    1.6421    1.4971 N   0  0  0  0  0  0  0  0  0  0  0  0
    0.7552    2.5274    2.6693 C   0  0  2  0  0  0  0  0  0  0  0  0
    1.9045    3.5564    2.6053 C   0  0  0  0  0  0  0  0  0  0  0  0
    2.7796    3.4444    1.7528 O   0  0  0  0  0  0  0  0  0  0  0  0
    0.8705    1.6711    3.9362 C   0  0  0  0  0  0  0  0  0  0  0  0
    1.6124    1.6664    0.9229 H   0  0  0  0  0  0  0  0  0  0  0  0
   -0.1868    3.0860    2.6941 H   0  0  0  0  0  0  0  0  0  0  0  0
    1.8070    1.1044    3.9305 H   0  0  0  0  0  0  0  0  0  0  0  0
    0.8486    2.3003    4.8309 H   0  0  0  0  0  0  0  0  0  0  0  0
    0.0363    0.9647    3.9959 H   0  0  0  0  0  0  0  0  0  0  0  0
    1.9528    4.6159    3.4926 N   0  0  0  0  0  0  0  0  0  0  0  0
    3.0024    5.6285    3.4776 C   0  0  0  0  0  0  0  0  0  0  0  0
    1.2005    4.6977    4.1706 H   0  0  0  0  0  0  0  0  0  0  0  0
    3.9903    5.1607    3.5509 H   0  0  0  0  0  0  0  0  0  0  0  0
    2.9570    6.2140    2.5530 H   0  0  0  0  0  0  0  0  0  0  0  0
    2.8822    6.3095    4.3259 H   0  0  0  0  0  0  0  0  0  0  0  0
  1  2  2  0  0  0  0
  1  3  1  0  0  0  0
  1  7  1  0  0  0  0
  3  4  1  0  0  0  0
  3  5  1  0  0  0  0
  3  6  1  0  0  0  0
  7  8  1  0  0  0  0
  7 12  1  0  0  0  0
  8  9  1  0  0  0  0
  8 11  1  0  0  0  0
  8 13  1  0  0  0  0
  9 10  2  0  0  0  0
  9 17  1  0  0  0  0
 11 14  1  0  0  0  0
 11 15  1  0  0  0  0
 11 16  1  0  0  0  0
 17 18  1  0  0  0  0
 17 23  1  0  0  0  0
 18 19  1  0  0  0  0
 18 21  1  0  0  0  0
 18 24  1  0  0  0  0
 19 20  2  0  0  0  0
 19 28  1  0  0  0  0
 21 22  1  0  0  0  0
 21 25  1  0  0  0  0
 21 26  1  0  0  0  0
 22 27  1  0  0  0  0
 28 29  1  0  0  0  0
 28 33  1  0  0  0  0
 29 30  1  0  0  0  0
 29 32  1  0  0  0  0
 29 34  1  0  0  0  0
 30 31  2  0  0  0  0
 30 38  1  0  0  0  0
 32 35  1  0  0  0  0
 32 36  1  0  0  0  0
 32 37  1  0  0  0  0
 38 39  1  0  0  0  0
 38 40  1  0  0  0  0
 39 41  1  0  0  0  0
 39 42  1  0  0  0  0
 39 43  1  0  0  0  0
M  END
$$$$

  -OEChem-05262216003D

 43 42  0     1  0  0  0  0  0999 V2000
   -3.5262   -4.9593    1.0564 C   0  0  0  0  0  0  0  0  0  0  0  0
   -2.6596   -5.6992    1.4961 O   0  0  0  0  0  0  0  0  0  0  0  0
   -4.9838   -5.2073    1.3952 C   0  0  0  0  0  0  0  0  0  0  0  0
   -5.5633   -5.3330    0.4775 H   0  0  0  0  0  0  0  0  0  0  0  0
   -5.0818   -6.1126    2.0006 H   0  0  0  0  0  0  0  0  0  0  0  0
   -5.3846   -4.3613    1.9588 H   0  0  0  0  0  0  0  0  0  0  0  0
   -3.1813   -3.8912    0.2565 N   0  0  0  0  0  0  0  0  0  0  0  0
   -1.8013   -3.4552    0.0098 C   0  0  2  0  0  0  0  0  0  0  0  0
   -1.7161   -1.9297   -0.2115 C   0  0  0  0  0  0  0  0  0  0  0  0
   -2.7447   -1.3075   -0.4486 O   0  0  0  0  0  0  0  0  0  0  0  0
   -1.2648   -4.2067   -1.2128 C   0  0  0  0  0  0  0  0  0  0  0  0
   -3.9162   -3.2240    0.0210 H   0  0  0  0  0  0  0  0  0  0  0  0
   -1.1823   -3.6934    0.8815 H   0  0  0  0  0  0  0  0  0  0  0  0
   -1.8705   -3.9810   -2.0965 H   0  0  0  0  0  0  0  0  0  0  0  0
   -0.2291   -3.9193   -1.4174 H   0  0  0  0  0  0  0  0  0  0  0  0
   -1.2943   -5.2867   -1.0362 H   0  0  0  0  0  0  0  0  0  0  0  0
   -0.4824   -1.3047   -0.1065 N   0  0  0  0  0  0  0  0  0  0  0  0
   -0.1644    0.1302   -0.2896 C   0  0  2  0  0  0  0  0  0  0  0  0
   -0.2725    0.9399    1.0208 C   0  0  0  0  0  0  0  0  0  0  0  0
   -1.1696    0.7424    1.8293 O   0  0  0  0  0  0  0  0  0  0  0  0
   -0.9108    0.8412   -1.4321 C   0  0  0  0  0  0  0  0  0  0  0  0
   -0.4029    0.1165   -3.0460 S   0  0  0  0  0  0  0  0  0  0  0  0
    0.2878   -1.9186    0.1377 H   0  0  0  0  0  0  0  0  0  0  0  0
    0.8922    0.1657   -0.5696 H   0  0  0  0  0  0  0  0  0  0  0  0
   -1.9943    0.7852   -1.3034 H   0  0  0  0  0  0  0  0  0  0  0  0
   -0.6498    1.9045   -1.4310 H   0  0  0  0  0  0  0  0  0  0  0  0
   -1.2698    0.7348   -3.8778 H   0  0  0  0  0  0  0  0  0  0  0  0
    0.7192    1.8457    1.3499 N   0  0  0  0  0  0  0  0  0  0  0  0
    0.6778    2.7369    2.5171 C   0  0  2  0  0  0  0  0  0  0  0  0
    1.4162    4.0614    2.2304 C   0  0  0  0  0  0  0  0  0  0  0  0
    2.1081    4.1696    1.2231 O   0  0  0  0  0  0  0  0  0  0  0  0
    1.3083    2.0108    3.7098 C   0  0  0  0  0  0  0  0  0  0  0  0
    1.4000    2.0842    0.6284 H   0  0  0  0  0  0  0  0  0  0  0  0
   -0.3614    2.9874    2.7560 H   0  0  0  0  0  0  0  0  0  0  0  0
    2.3518    1.7579    3.4966 H   0  0  0  0  0  0  0  0  0  0  0  0
    1.2771    2.6407    4.6037 H   0  0  0  0  0  0  0  0  0  0  0  0
    0.7619    1.0862    3.9224 H   0  0  0  0  0  0  0  0  0  0  0  0
    1.2898    5.1403    3.0856 N   0  0  0  0  0  0  0  0  0  0  0  0
    1.9375    6.4253    2.8507 C   0  0  0  0  0  0  0  0  0  0  0  0
    0.6923    5.0307    3.9002 H   0  0  0  0  0  0  0  0  0  0  0  0
    3.0260    6.3067    2.8260 H   0  0  0  0  0  0  0  0  0  0  0  0
    1.6077    6.8525    1.8976 H   0  0  0  0  0  0  0  0  0  0  0  0
    1.6845    7.1283    3.6501 H   0  0  0  0  0  0  0  0  0  0  0  0
  1  2  2  0  0  0  0
  1  3  1  0  0  0  0
  1  7  1  0  0  0  0
  3  4  1  0  0  0  0
  3  5  1  0  0  0  0
  3  6  1  0  0  0  0
  7  8  1  0  0  0  0
  7 12  1  0  0  0  0
  8  9  1  0  0  0  0
  8 11  1  0  0  0  0
  8 13  1  0  0  0  0
  9 10  2  0  0  0  0
  9 17  1  0  0  0  0
 11 14  1  0  0  0  0
 11 15  1  0  0  0  0
 11 16  1  0  0  0  0
 17 18  1  0  0  0  0
 17 23  1  0  0  0  0
 18 19  1  0  0  0  0
 18 21  1  0  0  0  0
 18 24  1  0  0  0  0
 19 20  2  0  0  0  0
 19 28  1  0  0  0  0
 21 22  1  0  0  0  0
 21 25  1  0  0  0  0
 21 26  1  0  0  0  0
 22 27  1  0  0  0  0
 28 29  1  0  0  0  0
 28 33  1  0  0  0  0
 29 30  1  0  0  0  0
 29 32  1  0  0  0  0
 29 34  1  0  0  0  0
 30 31  2  0  0  0  0
 30 38  1  0  0  0  0
 32 35  1  0  0  0  0
 32 36  1  0  0  0  0
 32 37  1  0  0  0  0
 38 39  1  0  0  0  0
 38 40  1  0  0  0  0
 39 41  1  0  0  0  0
 39 42  1  0  0  0  0
 39 43  1  0  0  0  0
M  END
$$$$

  -OEChem-05262216003D

 43 42  0     1  0  0  0  0  0999 V2000
   -3.5322   -4.9479    1.0587 C   0  0  0  0  0  0  0  0  0  0  0  0
   -2.6735   -5.6900    1.5099 O   0  0  0  0  0  0  0  0  0  0  0  0
   -4.9955   -5.1973    1.3712 C   0  0  0  0  0  0  0  0  0  0  0  0
   -5.5605   -5.3141    0.4433 H   0  0  0  0  0  0  0  0  0  0  0  0
   -5.1045   -6.1079    1.9669 H   0  0  0  0  0  0  0  0  0  0  0  0
   -5.4044   -4.3554    1.9352 H   0  0  0  0  0  0  0  0  0  0  0  0
   -3.1743   -3.8760    0.2696 N   0  0  0  0  0  0  0  0  0  0  0  0
   -1.7912   -3.4392    0.0429 C   0  0  2  0  0  0  0  0  0  0  0  0
   -1.7059   -1.9165   -0.1995 C   0  0  0  0  0  0  0  0  0  0  0  0
   -2.7334   -1.2940   -0.4430 O   0  0  0  0  0  0  0  0  0  0  0  0
   -1.2291   -4.2047   -1.1594 C   0  0  0  0  0  0  0  0  0  0  0  0
   -3.9053   -3.2081    0.0254 H   0  0  0  0  0  0  0  0  0  0  0  0
   -1.1884   -3.6632    0.9295 H   0  0  0  0  0  0  0  0  0  0  0  0
   -1.8178   -3.9906   -2.0571 H   0  0  0  0  0  0  0  0  0  0  0  0
   -0.1902   -3.9184   -1.3479 H   0  0  0  0  0  0  0  0  0  0  0  0
   -1.2599   -5.2825   -0.9713 H   0  0  0  0  0  0  0  0  0  0  0  0
   -0.4739   -1.2890   -0.0995 N   0  0  0  0  0  0  0  0  0  0  0  0
   -0.1596    0.1451   -0.2954 C   0  0  2  0  0  0  0  0  0  0  0  0
   -0.2701    0.9682    1.0070 C   0  0  0  0  0  0  0  0  0  0  0  0
   -0.9541    0.5957    1.9520 O   0  0  0  0  0  0  0  0  0  0  0  0
   -0.9009    0.8430   -1.4511 C   0  0  0  0  0  0  0  0  0  0  0  0
   -0.3804    0.1049   -3.0552 S   0  0  0  0  0  0  0  0  0  0  0  0
    0.2905   -1.8917    0.1870 H   0  0  0  0  0  0  0  0  0  0  0  0
    0.8992    0.1807   -0.5676 H   0  0  0  0  0  0  0  0  0  0  0  0
   -1.9853    0.7865   -1.3295 H   0  0  0  0  0  0  0  0  0  0  0  0
   -0.6417    1.9069   -1.4619 H   0  0  0  0  0  0  0  0  0  0  0  0
   -1.2332    0.7229   -3.9021 H   0  0  0  0  0  0  0  0  0  0  0  0
    0.5309    2.0821    1.1780 N   0  0  0  0  0  0  0  0  0  0  0  0
    0.4478    2.9971    2.3239 C   0  0  2  0  0  0  0  0  0  0  0  0
    0.8066    4.4396    1.9077 C   0  0  0  0  0  0  0  0  0  0  0  0
    1.2864    4.6543    0.7992 O   0  0  0  0  0  0  0  0  0  0  0  0
    1.3951    2.4963    3.4189 C   0  0  0  0  0  0  0  0  0  0  0  0
    1.0234    2.4372    0.3579 H   0  0  0  0  0  0  0  0  0  0  0  0
   -0.5765    3.0129    2.7121 H   0  0  0  0  0  0  0  0  0  0  0  0
    2.4270    2.4785    3.0540 H   0  0  0  0  0  0  0  0  0  0  0  0
    1.3466    3.1468    4.2971 H   0  0  0  0  0  0  0  0  0  0  0  0
    1.1172    1.4833    3.7272 H   0  0  0  0  0  0  0  0  0  0  0  0
    0.5753    5.5000    2.7643 N   0  0  0  0  0  0  0  0  0  0  0  0
    0.8608    6.8872    2.4173 C   0  0  0  0  0  0  0  0  0  0  0  0
    0.1527    5.2950    3.6651 H   0  0  0  0  0  0  0  0  0  0  0  0
    1.9153    7.0073    2.1474 H   0  0  0  0  0  0  0  0  0  0  0  0
    0.2422    7.2059    1.5718 H   0  0  0  0  0  0  0  0  0  0  0  0
    0.6474    7.5416    3.2679 H   0  0  0  0  0  0  0  0  0  0  0  0
  1  2  2  0  0  0  0
  1  3  1  0  0  0  0
  1  7  1  0  0  0  0
  3  4  1  0  0  0  0
  3  5  1  0  0  0  0
  3  6  1  0  0  0  0
  7  8  1  0  0  0  0
  7 12  1  0  0  0  0
  8  9  1  0  0  0  0
  8 11  1  0  0  0  0
  8 13  1  0  0  0  0
  9 10  2  0  0  0  0
  9 17  1  0  0  0  0
 11 14  1  0  0  0  0
 11 15  1  0  0  0  0
 11 16  1  0  0  0  0
 17 18  1  0  0  0  0
 17 23  1  0  0  0  0
 18 19  1  0  0  0  0
 18 21  1  0  0  0  0
 18 24  1  0  0  0  0
 19 20  2  0  0  0  0
 19 28  1  0  0  0  0
 21 22  1  0  0  0  0
 21 25  1  0  0  0  0
 21 26  1  0  0  0  0
 22 27  1  0  0  0  0
 28 29  1  0  0  0  0
 28 33  1  0  0  0  0
 29 30  1  0  0  0  0
 29 32  1  0  0  0  0
 29 34  1  0  0  0  0
 30 31  2  0  0  0  0
 30 38  1  0  0  0  0
 32 35  1  0  0  0  0
 32 36  1  0  0  0  0
 32 37  1  0  0  0  0
 38 39  1  0  0  0  0
 38 40  1  0  0  0  0
 39 41  1  0  0  0  0
 39 42  1  0  0  0  0
 39 43  1  0  0  0  0
M  END
$$$$

  -OEChem-05262216003D

 43 42  0     1  0  0  0  0  0999 V2000
   -3.5328   -4.9430    1.0500 C   0  0  0  0  0  0  0  0  0  0  0  0
   -2.6768   -5.6890    1.4996 O   0  0  0  0  0  0  0  0  0  0  0  0
   -4.9978   -5.1947    1.3523 C   0  0  0  0  0  0  0  0  0  0  0  0
   -5.5567   -5.3066    0.4203 H   0  0  0  0  0  0  0  0  0  0  0  0
   -5.1090   -6.1085    1.9423 H   0  0  0  0  0  0  0  0  0  0  0  0
   -5.4109   -4.3564    1.9185 H   0  0  0  0  0  0  0  0  0  0  0  0
   -3.1704   -3.8639    0.2729 N   0  0  0  0  0  0  0  0  0  0  0  0
   -1.7859   -3.4216    0.0639 C   0  0  2  0  0  0  0  0  0  0  0  0
   -1.7018   -1.8983   -0.1735 C   0  0  0  0  0  0  0  0  0  0  0  0
   -2.7305   -1.2717   -0.4018 O   0  0  0  0  0  0  0  0  0  0  0  0
   -1.2063   -4.1806   -1.1346 C   0  0  0  0  0  0  0  0  0  0  0  0
   -3.9011   -3.1963    0.0271 H   0  0  0  0  0  0  0  0  0  0  0  0
   -1.1928   -3.6458    0.9571 H   0  0  0  0  0  0  0  0  0  0  0  0
   -1.7849   -3.9659   -2.0387 H   0  0  0  0  0  0  0  0  0  0  0  0
   -0.1666   -3.8886   -1.3092 H   0  0  0  0  0  0  0  0  0  0  0  0
   -1.2333   -5.2593   -0.9512 H   0  0  0  0  0  0  0  0  0  0  0  0
   -0.4693   -1.2714   -0.0830 N   0  0  0  0  0  0  0  0  0  0  0  0
   -0.1534    0.1599   -0.2978 C   0  0  2  0  0  0  0  0  0  0  0  0
   -0.2625    0.9993    0.9956 C   0  0  0  0  0  0  0  0  0  0  0  0
   -0.7023    0.5244    2.0358 O   0  0  0  0  0  0  0  0  0  0  0  0
   -0.8982    0.8342   -1.4677 C   0  0  0  0  0  0  0  0  0  0  0  0
   -0.3753    0.0672   -3.0566 S   0  0  0  0  0  0  0  0  0  0  0  0
    0.2916   -1.8673    0.2269 H   0  0  0  0  0  0  0  0  0  0  0  0
    0.9059    0.1954   -0.5681 H   0  0  0  0  0  0  0  0  0  0  0  0
   -1.9820    0.7779   -1.3452 H   0  0  0  0  0  0  0  0  0  0  0  0
   -0.6446    1.8984   -1.5032 H   0  0  0  0  0  0  0  0  0  0  0  0
   -1.2059    0.6917   -3.9202 H   0  0  0  0  0  0  0  0  0  0  0  0
    0.2903    2.2660    1.0386 N   0  0  0  0  0  0  0  0  0  0  0  0
    0.1467    3.1963    2.1652 C   0  0  2  0  0  0  0  0  0  0  0  0
    0.0955    4.6574    1.6698 C   0  0  0  0  0  0  0  0  0  0  0  0
    0.3444    4.9142    0.4960 O   0  0  0  0  0  0  0  0  0  0  0  0
    1.3233    2.9846    3.1229 C   0  0  0  0  0  0  0  0  0  0  0  0
    0.5736    2.6828    0.1516 H   0  0  0  0  0  0  0  0  0  0  0  0
   -0.7914    2.9975    2.6949 H   0  0  0  0  0  0  0  0  0  0  0  0
    2.2716    3.1839    2.6136 H   0  0  0  0  0  0  0  0  0  0  0  0
    1.2429    3.6522    3.9859 H   0  0  0  0  0  0  0  0  0  0  0  0
    1.3336    1.9525    3.4878 H   0  0  0  0  0  0  0  0  0  0  0  0
   -0.2464    5.6839    2.5305 N   0  0  0  0  0  0  0  0  0  0  0  0
   -0.3303    7.0793    2.1165 C   0  0  0  0  0  0  0  0  0  0  0  0
   -0.4650    5.4410    3.4924 H   0  0  0  0  0  0  0  0  0  0  0  0
    0.6315    7.4190    1.7179 H   0  0  0  0  0  0  0  0  0  0  0  0
   -1.0961    7.2042    1.3437 H   0  0  0  0  0  0  0  0  0  0  0  0
   -0.5931    7.7124    2.9693 H   0  0  0  0  0  0  0  0  0  0  0  0
  1  2  2  0  0  0  0
  1  3  1  0  0  0  0
  1  7  1  0  0  0  0
  3  4  1  0  0  0  0
  3  5  1  0  0  0  0
  3  6  1  0  0  0  0
  7  8  1  0  0  0  0
  7 12  1  0  0  0  0
  8  9  1  0  0  0  0
  8 11  1  0  0  0  0
  8 13  1  0  0  0  0
  9 10  2  0  0  0  0
  9 17  1  0  0  0  0
 11 14  1  0  0  0  0
 11 15  1  0  0  0  0
 11 16  1  0  0  0  0
 17 18  1  0  0  0  0
 17 23  1  0  0  0  0
 18 19  1  0  0  0  0
 18 21  1  0  0  0  0
 18 24  1  0  0  0  0
 19 20  2  0  0  0  0
 19 28  1  0  0  0  0
 21 22  1  0  0  0  0
 21 25  1  0  0  0  0
 21 26  1  0  0  0  0
 22 27  1  0  0  0  0
 28 29  1  0  0  0  0
 28 33  1  0  0  0  0
 29 30  1  0  0  0  0
 29 32  1  0  0  0  0
 29 34  1  0  0  0  0
 30 31  2  0  0  0  0
 30 38  1  0  0  0  0
 32 35  1  0  0  0  0
 32 36  1  0  0  0  0
 32 37  1  0  0  0  0
 38 39  1  0  0  0  0
 38 40  1  0  0  0  0
 39 41  1  0  0  0  0
 39 42  1  0  0  0  0
 39 43  1  0  0  0  0
M  END
$$$$

  -OEChem-05262216003D

 43 42  0     1  0  0  0  0  0999 V2000
   -3.4792   -4.9520    1.1295 C   0  0  0  0  0  0  0  0  0  0  0  0
   -2.6066   -5.6395    1.6364 O   0  0  0  0  0  0  0  0  0  0  0  0
   -4.9407   -5.2521    1.4041 C   0  0  0  0  0  0  0  0  0  0  0  0
   -5.4692   -5.4266    0.4638 H   0  0  0  0  0  0  0  0  0  0  0  0
   -5.0318   -6.1441    2.0301 H   0  0  0  0  0  0  0  0  0  0  0  0
   -5.4031   -4.4088    1.9227 H   0  0  0  0  0  0  0  0  0  0  0  0
   -3.1396   -3.8941    0.3142 N   0  0  0  0  0  0  0  0  0  0  0  0
   -1.7695   -3.4026    0.1198 C   0  0  2  0  0  0  0  0  0  0  0  0
   -1.7414   -1.8880   -0.1822 C   0  0  0  0  0  0  0  0  0  0  0  0
   -2.7971   -1.3135   -0.4224 O   0  0  0  0  0  0  0  0  0  0  0  0
   -1.1306   -4.1890   -1.0306 C   0  0  0  0  0  0  0  0  0  0  0  0
   -3.8907   -3.2738    0.0129 H   0  0  0  0  0  0  0  0  0  0  0  0
   -1.1905   -3.5640    1.0355 H   0  0  0  0  0  0  0  0  0  0  0  0
   -1.6883   -4.0283   -1.9590 H   0  0  0  0  0  0  0  0  0  0  0  0
   -0.0954   -3.8714   -1.1874 H   0  0  0  0  0  0  0  0  0  0  0  0
   -1.1304   -5.2604   -0.8055 H   0  0  0  0  0  0  0  0  0  0  0  0
   -0.5308   -1.2149   -0.1175 N   0  0  0  0  0  0  0  0  0  0  0  0
   -0.2209    0.2083   -0.4025 C   0  0  2  0  0  0  0  0  0  0  0  0
    0.0030    1.0158    0.8984 C   0  0  0  0  0  0  0  0  0  0  0  0
    0.0334    0.4555    1.9882 O   0  0  0  0  0  0  0  0  0  0  0  0
   -1.1811    0.9349   -1.3694 C   0  0  0  0  0  0  0  0  0  0  0  0
   -1.0740    0.1776   -3.0447 S   0  0  0  0  0  0  0  0  0  0  0  0
    0.2290   -1.7607    0.2789 H   0  0  0  0  0  0  0  0  0  0  0  0
    0.7494    0.2106   -0.9071 H   0  0  0  0  0  0  0  0  0  0  0  0
   -2.2079    0.9225   -0.9944 H   0  0  0  0  0  0  0  0  0  0  0  0
   -0.8969    1.9870   -1.4618 H   0  0  0  0  0  0  0  0  0  0  0  0
   -2.1261    0.7676   -3.6540 H   0  0  0  0  0  0  0  0  0  0  0  0
    0.3041    2.3651    0.8512 N   0  0  0  0  0  0  0  0  0  0  0  0
    0.4384    3.2355    2.0264 C   0  0  2  0  0  0  0  0  0  0  0  0
    0.0669    4.6937    1.6787 C   0  0  0  0  0  0  0  0  0  0  0  0
   -0.1246    5.0130    0.5095 O   0  0  0  0  0  0  0  0  0  0  0  0
    1.8798    3.1502    2.5413 C   0  0  0  0  0  0  0  0  0  0  0  0
    0.2057    2.8400   -0.0461 H   0  0  0  0  0  0  0  0  0  0  0  0
   -0.2475    2.9006    2.8121 H   0  0  0  0  0  0  0  0  0  0  0  0
    2.5820    3.4892    1.7729 H   0  0  0  0  0  0  0  0  0  0  0  0
    2.0086    3.7734    3.4313 H   0  0  0  0  0  0  0  0  0  0  0  0
    2.1278    2.1179    2.8080 H   0  0  0  0  0  0  0  0  0  0  0  0
   -0.0712    5.6452    2.6728 N   0  0  0  0  0  0  0  0  0  0  0  0
   -0.4428    7.0311    2.4112 C   0  0  0  0  0  0  0  0  0  0  0  0
    0.0665    5.3463    3.6338 H   0  0  0  0  0  0  0  0  0  0  0  0
    0.2550    7.4897    1.7027 H   0  0  0  0  0  0  0  0  0  0  0  0
   -1.4538    7.0853    1.9944 H   0  0  0  0  0  0  0  0  0  0  0  0
   -0.4198    7.6108    3.3391 H   0  0  0  0  0  0  0  0  0  0  0  0
  1  2  2  0  0  0  0
  1  3  1  0  0  0  0
  1  7  1  0  0  0  0
  3  4  1  0  0  0  0
  3  5  1  0  0  0  0
  3  6  1  0  0  0  0
  7  8  1  0  0  0  0
  7 12  1  0  0  0  0
  8  9  1  0  0  0  0
  8 11  1  0  0  0  0
  8 13  1  0  0  0  0
  9 10  2  0  0  0  0
  9 17  1  0  0  0  0
 11 14  1  0  0  0  0
 11 15  1  0  0  0  0
 11 16  1  0  0  0  0
 17 18  1  0  0  0  0
 17 23  1  0  0  0  0
 18 19  1  0  0  0  0
 18 21  1  0  0  0  0
 18 24  1  0  0  0  0
 19 20  2  0  0  0  0
 19 28  1  0  0  0  0
 21 22  1  0  0  0  0
 21 25  1  0  0  0  0
 21 26  1  0  0  0  0
 22 27  1  0  0  0  0
 28 29  1  0  0  0  0
 28 33  1  0  0  0  0
 29 30  1  0  0  0  0
 29 32  1  0  0  0  0
 29 34  1  0  0  0  0
 30 31  2  0  0  0  0
 30 38  1  0  0  0  0
 32 35  1  0  0  0  0
 32 36  1  0  0  0  0
 32 37  1  0  0  0  0
 38 39  1  0  0  0  0
 38 40  1  0  0  0  0
 39 41  1  0  0  0  0
 39 42  1  0  0  0  0
 39 43  1  0  0  0  0
M  END
$$$$

  -OEChem-05262216003D

 43 42  0     1  0  0  0  0  0999 V2000
   -3.4713   -4.9389    1.1398 C   0  0  0  0  0  0  0  0  0  0  0  0
   -2.5947   -5.6120    1.6590 O   0  0  0  0  0  0  0  0  0  0  0  0
   -4.9310   -5.2600    1.3993 C   0  0  0  0  0  0  0  0  0  0  0  0
   -5.4456   -5.4516    0.4546 H   0  0  0  0  0  0  0  0  0  0  0  0
   -5.0149   -6.1475    2.0325 H   0  0  0  0  0  0  0  0  0  0  0  0
   -5.4123   -4.4196    1.9049 H   0  0  0  0  0  0  0  0  0  0  0  0
   -3.1373   -3.8787    0.3248 N   0  0  0  0  0  0  0  0  0  0  0  0
   -1.7694   -3.3801    0.1318 C   0  0  2  0  0  0  0  0  0  0  0  0
   -1.7484   -1.8680   -0.1811 C   0  0  0  0  0  0  0  0  0  0  0  0
   -2.8052   -1.2965   -0.4237 O   0  0  0  0  0  0  0  0  0  0  0  0
   -1.1218   -4.1706   -1.0105 C   0  0  0  0  0  0  0  0  0  0  0  0
   -3.8922   -3.2656    0.0176 H   0  0  0  0  0  0  0  0  0  0  0  0
   -1.1914   -3.5309    1.0502 H   0  0  0  0  0  0  0  0  0  0  0  0
   -1.6826   -4.0275   -1.9398 H   0  0  0  0  0  0  0  0  0  0  0  0
   -0.0911   -3.8413   -1.1718 H   0  0  0  0  0  0  0  0  0  0  0  0
   -1.1077   -5.2392   -0.7730 H   0  0  0  0  0  0  0  0  0  0  0  0
   -0.5425   -1.1882   -0.1125 N   0  0  0  0  0  0  0  0  0  0  0  0
   -0.2329    0.2289   -0.4229 C   0  0  2  0  0  0  0  0  0  0  0  0
   -0.0360    1.0480    0.8756 C   0  0  0  0  0  0  0  0  0  0  0  0
    0.2353    0.4789    1.9274 O   0  0  0  0  0  0  0  0  0  0  0  0
   -1.1742    0.9226   -1.4323 C   0  0  0  0  0  0  0  0  0  0  0  0
   -1.0168    0.1209   -3.0817 S   0  0  0  0  0  0  0  0  0  0  0  0
    0.2201   -1.7265    0.2895 H   0  0  0  0  0  0  0  0  0  0  0  0
    0.7488    0.2295   -0.9055 H   0  0  0  0  0  0  0  0  0  0  0  0
   -2.2105    0.9147   -1.0851 H   0  0  0  0  0  0  0  0  0  0  0  0
   -0.8914    1.9722   -1.5517 H   0  0  0  0  0  0  0  0  0  0  0  0
   -2.0581    0.6873   -3.7301 H   0  0  0  0  0  0  0  0  0  0  0  0
   -0.0426    2.4309    0.8667 N   0  0  0  0  0  0  0  0  0  0  0  0
    0.0386    3.2770    2.0632 C   0  0  2  0  0  0  0  0  0  0  0  0
   -0.6935    4.6174    1.8385 C   0  0  0  0  0  0  0  0  0  0  0  0
   -1.0899    4.9179    0.7168 O   0  0  0  0  0  0  0  0  0  0  0  0
    1.5156    3.5150    2.3962 C   0  0  0  0  0  0  0  0  0  0  0  0
   -0.3605    2.8949    0.0163 H   0  0  0  0  0  0  0  0  0  0  0  0
   -0.4474    2.7738    2.9061 H   0  0  0  0  0  0  0  0  0  0  0  0
    2.0183    4.0207    1.5655 H   0  0  0  0  0  0  0  0  0  0  0  0
    1.6142    4.1343    3.2928 H   0  0  0  0  0  0  0  0  0  0  0  0
    2.0217    2.5620    2.5810 H   0  0  0  0  0  0  0  0  0  0  0  0
   -0.9180    5.4838    2.8923 N   0  0  0  0  0  0  0  0  0  0  0  0
   -1.6071    6.7605    2.7469 C   0  0  0  0  0  0  0  0  0  0  0  0
   -0.5968    5.1992    3.8131 H   0  0  0  0  0  0  0  0  0  0  0  0
   -1.1016    7.3868    2.0042 H   0  0  0  0  0  0  0  0  0  0  0  0
   -2.6433    6.6037    2.4292 H   0  0  0  0  0  0  0  0  0  0  0  0
   -1.6147    7.2964    3.7008 H   0  0  0  0  0  0  0  0  0  0  0  0
  1  2  2  0  0  0  0
  1  3  1  0  0  0  0
  1  7  1  0  0  0  0
  3  4  1  0  0  0  0
  3  5  1  0  0  0  0
  3  6  1  0  0  0  0
  7  8  1  0  0  0  0
  7 12  1  0  0  0  0
  8  9  1  0  0  0  0
  8 11  1  0  0  0  0
  8 13  1  0  0  0  0
  9 10  2  0  0  0  0
  9 17  1  0  0  0  0
 11 14  1  0  0  0  0
 11 15  1  0  0  0  0
 11 16  1  0  0  0  0
 17 18  1  0  0  0  0
 17 23  1  0  0  0  0
 18 19  1  0  0  0  0
 18 21  1  0  0  0  0
 18 24  1  0  0  0  0
 19 20  2  0  0  0  0
 19 28  1  0  0  0  0
 21 22  1  0  0  0  0
 21 25  1  0  0  0  0
 21 26  1  0  0  0  0
 22 27  1  0  0  0  0
 28 29  1  0  0  0  0
 28 33  1  0  0  0  0
 29 30  1  0  0  0  0
 29 32  1  0  0  0  0
 29 34  1  0  0  0  0
 30 31  2  0  0  0  0
 30 38  1  0  0  0  0
 32 35  1  0  0  0  0
 32 36  1  0  0  0  0
 32 37  1  0  0  0  0
 38 39  1  0  0  0  0
 38 40  1  0  0  0  0
 39 41  1  0  0  0  0
 39 42  1  0  0  0  0
 39 43  1  0  0  0  0
M  END
$$$$

  -OEChem-05262216003D

 43 42  0     1  0  0  0  0  0999 V2000
   -3.4507   -4.9577    1.1270 C   0  0  0  0  0  0  0  0  0  0  0  0
   -2.5682   -5.6305    1.6364 O   0  0  0  0  0  0  0  0  0  0  0  0
   -4.9078   -5.2818    1.3984 C   0  0  0  0  0  0  0  0  0  0  0  0
   -5.4264   -5.4810    0.4576 H   0  0  0  0  0  0  0  0  0  0  0  0
   -4.9850   -6.1661    2.0372 H   0  0  0  0  0  0  0  0  0  0  0  0
   -5.3899   -4.4401    1.9019 H   0  0  0  0  0  0  0  0  0  0  0  0
   -3.1251   -3.8929    0.3145 N   0  0  0  0  0  0  0  0  0  0  0  0
   -1.7606   -3.3851    0.1201 C   0  0  2  0  0  0  0  0  0  0  0  0
   -1.7492   -1.8663   -0.1589 C   0  0  0  0  0  0  0  0  0  0  0  0
   -2.8107   -1.2942   -0.3789 O   0  0  0  0  0  0  0  0  0  0  0  0
   -1.1220   -4.1484   -1.0450 C   0  0  0  0  0  0  0  0  0  0  0  0
   -3.8843   -3.2819    0.0140 H   0  0  0  0  0  0  0  0  0  0  0  0
   -1.1729   -3.5543    1.0288 H   0  0  0  0  0  0  0  0  0  0  0  0
   -1.6907   -3.9854   -1.9662 H   0  0  0  0  0  0  0  0  0  0  0  0
   -0.0930   -3.8140   -1.2075 H   0  0  0  0  0  0  0  0  0  0  0  0
   -1.1045   -5.2218   -0.8312 H   0  0  0  0  0  0  0  0  0  0  0  0
   -0.5507   -1.1747   -0.0825 N   0  0  0  0  0  0  0  0  0  0  0  0
   -0.2571    0.2408   -0.4102 C   0  0  2  0  0  0  0  0  0  0  0  0
   -0.0918    1.0712    0.8844 C   0  0  0  0  0  0  0  0  0  0  0  0
    0.4137    0.5520    1.8734 O   0  0  0  0  0  0  0  0  0  0  0  0
   -1.1835    0.9042   -1.4531 C   0  0  0  0  0  0  0  0  0  0  0  0
   -0.9734    0.0769   -3.0845 S   0  0  0  0  0  0  0  0  0  0  0  0
    0.2290   -1.7124    0.2868 H   0  0  0  0  0  0  0  0  0  0  0  0
    0.7344    0.2495   -0.8725 H   0  0  0  0  0  0  0  0  0  0  0  0
   -2.2284    0.8908   -1.1322 H   0  0  0  0  0  0  0  0  0  0  0  0
   -0.9051    1.9542   -1.5824 H   0  0  0  0  0  0  0  0  0  0  0  0
   -1.9823    0.6411   -3.7842 H   0  0  0  0  0  0  0  0  0  0  0  0
   -0.4129    2.4154    0.9422 N   0  0  0  0  0  0  0  0  0  0  0  0
   -0.3701    3.2364    2.1587 C   0  0  2  0  0  0  0  0  0  0  0  0
   -1.3789    4.4022    2.0714 C   0  0  0  0  0  0  0  0  0  0  0  0
   -1.9359    4.6494    1.0064 O   0  0  0  0  0  0  0  0  0  0  0  0
    1.0548    3.7704    2.3427 C   0  0  0  0  0  0  0  0  0  0  0  0
   -0.9457    2.8034    0.1641 H   0  0  0  0  0  0  0  0  0  0  0  0
   -0.6453    2.6256    3.0253 H   0  0  0  0  0  0  0  0  0  0  0  0
    1.3461    4.3852    1.4851 H   0  0  0  0  0  0  0  0  0  0  0  0
    1.1240    4.3800    3.2485 H   0  0  0  0  0  0  0  0  0  0  0  0
    1.7634    2.9412    2.4332 H   0  0  0  0  0  0  0  0  0  0  0  0
   -1.6717    5.1709    3.1832 N   0  0  0  0  0  0  0  0  0  0  0  0
   -2.6186    6.2801    3.1616 C   0  0  0  0  0  0  0  0  0  0  0  0
   -1.2125    4.9319    4.0574 H   0  0  0  0  0  0  0  0  0  0  0  0
   -2.3250    7.0210    2.4101 H   0  0  0  0  0  0  0  0  0  0  0  0
   -3.6258    5.9202    2.9260 H   0  0  0  0  0  0  0  0  0  0  0  0
   -2.6470    6.7732    4.1383 H   0  0  0  0  0  0  0  0  0  0  0  0
  1  2  2  0  0  0  0
  1  3  1  0  0  0  0
  1  7  1  0  0  0  0
  3  4  1  0  0  0  0
  3  5  1  0  0  0  0
  3  6  1  0  0  0  0
  7  8  1  0  0  0  0
  7 12  1  0  0  0  0
  8  9  1  0  0  0  0
  8 11  1  0  0  0  0
  8 13  1  0  0  0  0
  9 10  2  0  0  0  0
  9 17  1  0  0  0  0
 11 14  1  0  0  0  0
 11 15  1  0  0  0  0
 11 16  1  0  0  0  0
 17 18  1  0  0  0  0
 17 23  1  0  0  0  0
 18 19  1  0  0  0  0
 18 21  1  0  0  0  0
 18 24  1  0  0  0  0
 19 20  2  0  0  0  0
 19 28  1  0  0  0  0
 21 22  1  0  0  0  0
 21 25  1  0  0  0  0
 21 26  1  0  0  0  0
 22 27  1  0  0  0  0
 28 29  1  0  0  0  0
 28 33  1  0  0  0  0
 29 30  1  0  0  0  0
 29 32  1  0  0  0  0
 29 34  1  0  0  0  0
 30 31  2  0  0  0  0
 30 38  1  0  0  0  0
 32 35  1  0  0  0  0
 32 36  1  0  0  0  0
 32 37  1  0  0  0  0
 38 39  1  0  0  0  0
 38 40  1  0  0  0  0
 39 41  1  0  0  0  0
 39 42  1  0  0  0  0
 39 43  1  0  0  0  0
M  END
$$$$

  -OEChem-05262216003D

 43 42  0     1  0  0  0  0  0999 V2000
   -3.4062   -4.9906    1.1204 C   0  0  0  0  0  0  0  0  0  0  0  0
   -2.5048   -5.6524    1.6108 O   0  0  0  0  0  0  0  0  0  0  0  0
   -4.8533   -5.3370    1.4159 C   0  0  0  0  0  0  0  0  0  0  0  0
   -5.3801   -5.5606    0.4852 H   0  0  0  0  0  0  0  0  0  0  0  0
   -4.9055   -6.2122    2.0694 H   0  0  0  0  0  0  0  0  0  0  0  0
   -5.3442   -4.4965    1.9123 H   0  0  0  0  0  0  0  0  0  0  0  0
   -3.1105   -3.9208    0.3029 N   0  0  0  0  0  0  0  0  0  0  0  0
   -1.7562   -3.3968    0.0830 C   0  0  2  0  0  0  0  0  0  0  0  0
   -1.7616   -1.8736   -0.1683 C   0  0  0  0  0  0  0  0  0  0  0  0
   -2.8268   -1.3046   -0.3767 O   0  0  0  0  0  0  0  0  0  0  0  0
   -1.1400   -4.1336   -1.1103 C   0  0  0  0  0  0  0  0  0  0  0  0
   -3.8834   -3.3198    0.0180 H   0  0  0  0  0  0  0  0  0  0  0  0
   -1.1447   -3.5768    0.9739 H   0  0  0  0  0  0  0  0  0  0  0  0
   -1.7354   -3.9643   -2.0132 H   0  0  0  0  0  0  0  0  0  0  0  0
   -0.1202   -3.7829   -1.2949 H   0  0  0  0  0  0  0  0  0  0  0  0
   -1.1038   -5.2096   -0.9129 H   0  0  0  0  0  0  0  0  0  0  0  0
   -0.5729   -1.1701   -0.0647 N   0  0  0  0  0  0  0  0  0  0  0  0
   -0.2905    0.2474   -0.3870 C   0  0  2  0  0  0  0  0  0  0  0  0
   -0.1665    1.0735    0.9124 C   0  0  0  0  0  0  0  0  0  0  0  0
    0.5282    0.6429    1.8259 O   0  0  0  0  0  0  0  0  0  0  0  0
   -1.1912    0.9019   -1.4562 C   0  0  0  0  0  0  0  0  0  0  0  0
   -0.9225    0.0793   -3.0814 S   0  0  0  0  0  0  0  0  0  0  0  0
    0.2180   -1.7125    0.2726 H   0  0  0  0  0  0  0  0  0  0  0  0
    0.7135    0.2687   -0.8219 H   0  0  0  0  0  0  0  0  0  0  0  0
   -2.2456    0.8725   -1.1701 H   0  0  0  0  0  0  0  0  0  0  0  0
   -0.9197    1.9565   -1.5681 H   0  0  0  0  0  0  0  0  0  0  0  0
   -1.8780    0.6747   -3.8287 H   0  0  0  0  0  0  0  0  0  0  0  0
   -0.7748    2.3063    1.0669 N   0  0  0  0  0  0  0  0  0  0  0  0
   -0.7664    3.0943    2.3056 C   0  0  2  0  0  0  0  0  0  0  0  0
   -1.9770    4.0509    2.3641 C   0  0  0  0  0  0  0  0  0  0  0  0
   -2.6713    4.2228    1.3675 O   0  0  0  0  0  0  0  0  0  0  0  0
    0.5434    3.8866    2.3787 C   0  0  0  0  0  0  0  0  0  0  0  0
   -1.4663    2.5794    0.3684 H   0  0  0  0  0  0  0  0  0  0  0  0
   -0.8336    2.4220    3.1677 H   0  0  0  0  0  0  0  0  0  0  0  0
    0.6261    4.5672    1.5253 H   0  0  0  0  0  0  0  0  0  0  0  0
    0.5865    4.4747    3.3001 H   0  0  0  0  0  0  0  0  0  0  0  0
    1.4014    3.2073    2.3665 H   0  0  0  0  0  0  0  0  0  0  0  0
   -2.2941    4.7174    3.5335 N   0  0  0  0  0  0  0  0  0  0  0  0
   -3.4240    5.6315    3.6523 C   0  0  0  0  0  0  0  0  0  0  0  0
   -1.7078    4.5502    4.3462 H   0  0  0  0  0  0  0  0  0  0  0  0
   -3.3197    6.4643    2.9489 H   0  0  0  0  0  0  0  0  0  0  0  0
   -4.3632    5.1088    3.4426 H   0  0  0  0  0  0  0  0  0  0  0  0
   -3.4747    6.0408    4.6657 H   0  0  0  0  0  0  0  0  0  0  0  0
  1  2  2  0  0  0  0
  1  3  1  0  0  0  0
  1  7  1  0  0  0  0
  3  4  1  0  0  0  0
  3  5  1  0  0  0  0
  3  6  1  0  0  0  0
  7  8  1  0  0  0  0
  7 12  1  0  0  0  0
  8  9  1  0  0  0  0
  8 11  1  0  0  0  0
  8 13  1  0  0  0  0
  9 10  2  0  0  0  0
  9 17  1  0  0  0  0
 11 14  1  0  0  0  0
 11 15  1  0  0  0  0
 11 16  1  0  0  0  0
 17 18  1  0  0  0  0
 17 23  1  0  0  0  0
 18 19  1  0  0  0  0
 18 21  1  0  0  0  0
 18 24  1  0  0  0  0
 19 20  2  0  0  0  0
 19 28  1  0  0  0  0
 21 22  1  0  0  0  0
 21 25  1  0  0  0  0
 21 26  1  0  0  0  0
 22 27  1  0  0  0  0
 28 29  1  0  0  0  0
 28 33  1  0  0  0  0
 29 30  1  0  0  0  0
 29 32  1  0  0  0  0
 29 34  1  0  0  0  0
 30 31  2  0  0  0  0
 30 38  1  0  0  0  0
 32 35  1  0  0  0  0
 32 36  1  0  0  0  0
 32 37  1  0  0  0  0
 38 39  1  0  0  0  0
 38 40  1  0  0  0  0
 39 41  1  0  0  0  0
 39 42  1  0  0  0  0
 39 43  1  0  0  0  0
M  END
$$$$

  -OEChem-05262216003D

 43 42  0     1  0  0  0  0  0999 V2000
   -3.3995   -5.0097    1.0924 C   0  0  0  0  0  0  0  0  0  0  0  0
   -2.4982   -5.6856    1.5631 O   0  0  0  0  0  0  0  0  0  0  0  0
   -4.8458   -5.3477    1.3996 C   0  0  0  0  0  0  0  0  0  0  0  0
   -5.3857   -5.5496    0.4713 H   0  0  0  0  0  0  0  0  0  0  0  0
   -4.8985   -6.2345    2.0373 H   0  0  0  0  0  0  0  0  0  0  0  0
   -5.3227   -4.5116    1.9174 H   0  0  0  0  0  0  0  0  0  0  0  0
   -3.1060   -3.9290    0.2891 N   0  0  0  0  0  0  0  0  0  0  0  0
   -1.7516   -3.4071    0.0668 C   0  0  2  0  0  0  0  0  0  0  0  0
   -1.7536   -1.8759   -0.1291 C   0  0  0  0  0  0  0  0  0  0  0  0
   -2.8198   -1.2940   -0.2913 O   0  0  0  0  0  0  0  0  0  0  0  0
   -1.1630   -4.1038   -1.1643 C   0  0  0  0  0  0  0  0  0  0  0  0
   -3.8786   -3.3172    0.0271 H   0  0  0  0  0  0  0  0  0  0  0  0
   -1.1261   -3.6223    0.9400 H   0  0  0  0  0  0  0  0  0  0  0  0
   -1.7709   -3.8916   -2.0496 H   0  0  0  0  0  0  0  0  0  0  0  0
   -0.1420   -3.7585   -1.3530 H   0  0  0  0  0  0  0  0  0  0  0  0
   -1.1372   -5.1875   -1.0110 H   0  0  0  0  0  0  0  0  0  0  0  0
   -0.5645   -1.1744   -0.0189 N   0  0  0  0  0  0  0  0  0  0  0  0
   -0.2899    0.2421   -0.3493 C   0  0  2  0  0  0  0  0  0  0  0  0
   -0.1799    1.0766    0.9427 C   0  0  0  0  0  0  0  0  0  0  0  0
    0.6839    0.7888    1.7625 O   0  0  0  0  0  0  0  0  0  0  0  0
   -1.1846    0.8903   -1.4269 C   0  0  0  0  0  0  0  0  0  0  0  0
   -0.9021    0.0637   -3.0474 S   0  0  0  0  0  0  0  0  0  0  0  0
    0.2415   -1.7323    0.2504 H   0  0  0  0  0  0  0  0  0  0  0  0
    0.7171    0.2654   -0.7773 H   0  0  0  0  0  0  0  0  0  0  0  0
   -2.2420    0.8571   -1.1524 H   0  0  0  0  0  0  0  0  0  0  0  0
   -0.9164    1.9465   -1.5333 H   0  0  0  0  0  0  0  0  0  0  0  0
   -1.8371    0.6746   -3.8078 H   0  0  0  0  0  0  0  0  0  0  0  0
   -1.0241    2.1401    1.2047 N   0  0  0  0  0  0  0  0  0  0  0  0
   -1.0484    2.8947    2.4641 C   0  0  2  0  0  0  0  0  0  0  0  0
   -2.4281    3.5460    2.6988 C   0  0  0  0  0  0  0  0  0  0  0  0
   -3.2534    3.5802    1.7923 O   0  0  0  0  0  0  0  0  0  0  0  0
    0.0475    3.9651    2.4181 C   0  0  0  0  0  0  0  0  0  0  0  0
   -1.8446    2.2407    0.6059 H   0  0  0  0  0  0  0  0  0  0  0  0
   -0.8576    2.2154    3.3020 H   0  0  0  0  0  0  0  0  0  0  0  0
   -0.1297    4.6573    1.5888 H   0  0  0  0  0  0  0  0  0  0  0  0
    0.0680    4.5356    3.3513 H   0  0  0  0  0  0  0  0  0  0  0  0
    1.0287    3.5000    2.2802 H   0  0  0  0  0  0  0  0  0  0  0  0
   -2.7512    4.0871    3.9296 N   0  0  0  0  0  0  0  0  0  0  0  0
   -4.0435    4.6969    4.2206 C   0  0  0  0  0  0  0  0  0  0  0  0
   -2.0567    4.0278    4.6686 H   0  0  0  0  0  0  0  0  0  0  0  0
   -4.2389    5.5283    3.5350 H   0  0  0  0  0  0  0  0  0  0  0  0
   -4.8466    3.9596    4.1178 H   0  0  0  0  0  0  0  0  0  0  0  0
   -4.0578    5.0839    5.2441 H   0  0  0  0  0  0  0  0  0  0  0  0
  1  2  2  0  0  0  0
  1  3  1  0  0  0  0
  1  7  1  0  0  0  0
  3  4  1  0  0  0  0
  3  5  1  0  0  0  0
  3  6  1  0  0  0  0
  7  8  1  0  0  0  0
  7 12  1  0  0  0  0
  8  9  1  0  0  0  0
  8 11  1  0  0  0  0
  8 13  1  0  0  0  0
  9 10  2  0  0  0  0
  9 17  1  0  0  0  0
 11 14  1  0  0  0  0
 11 15  1  0  0  0  0
 11 16  1  0  0  0  0
 17 18  1  0  0  0  0
 17 23  1  0  0  0  0
 18 19  1  0  0  0  0
 18 21  1  0  0  0  0
 18 24  1  0  0  0  0
 19 20  2  0  0  0  0
 19 28  1  0  0  0  0
 21 22  1  0  0  0  0
 21 25  1  0  0  0  0
 21 26  1  0  0  0  0
 22 27  1  0  0  0  0
 28 29  1  0  0  0  0
 28 33  1  0  0  0  0
 29 30  1  0  0  0  0
 29 32  1  0  0  0  0
 29 34  1  0  0  0  0
 30 31  2  0  0  0  0
 30 38  1  0  0  0  0
 32 35  1  0  0  0  0
 32 36  1  0  0  0  0
 32 37  1  0  0  0  0
 38 39  1  0  0  0  0
 38 40  1  0  0  0  0
 39 41  1  0  0  0  0
 39 42  1  0  0  0  0
 39 43  1  0  0  0  0
M  END
$$$$

  -OEChem-05262216003D

 43 42  0     1  0  0  0  0  0999 V2000
   -3.3864   -5.0379    1.0624 C   0  0  0  0  0  0  0  0  0  0  0  0
   -2.4813   -5.7286    1.5036 O   0  0  0  0  0  0  0  0  0  0  0  0
   -4.8299   -5.3728    1.3870 C   0  0  0  0  0  0  0  0  0  0  0  0
   -5.3822   -5.5717    0.4654 H   0  0  0  0  0  0  0  0  0  0  0  0
   -4.8773   -6.2592    2.0254 H   0  0  0  0  0  0  0  0  0  0  0  0
   -5.2982   -4.5360    1.9108 H   0  0  0  0  0  0  0  0  0  0  0  0
   -3.0996   -3.9440    0.2746 N   0  0  0  0  0  0  0  0  0  0  0  0
   -1.7468   -3.4208    0.0425 C   0  0  2  0  0  0  0  0  0  0  0  0
   -1.7471   -1.8820   -0.0837 C   0  0  0  0  0  0  0  0  0  0  0  0
   -2.8129   -1.2884   -0.1993 O   0  0  0  0  0  0  0  0  0  0  0  0
   -1.1942   -4.0613   -1.2347 C   0  0  0  0  0  0  0  0  0  0  0  0
   -3.8726   -3.3188    0.0474 H   0  0  0  0  0  0  0  0  0  0  0  0
   -1.0994   -3.6807    0.8873 H   0  0  0  0  0  0  0  0  0  0  0  0
   -1.8201   -3.8008   -2.0944 H   0  0  0  0  0  0  0  0  0  0  0  0
   -0.1748   -3.7152   -1.4294 H   0  0  0  0  0  0  0  0  0  0  0  0
   -1.1746   -5.1513   -1.1353 H   0  0  0  0  0  0  0  0  0  0  0  0
   -0.5571   -1.1838    0.0336 N   0  0  0  0  0  0  0  0  0  0  0  0
   -0.2882    0.2310   -0.3072 C   0  0  2  0  0  0  0  0  0  0  0  0
   -0.1926    1.0773    0.9752 C   0  0  0  0  0  0  0  0  0  0  0  0
    0.8002    0.9744    1.6854 O   0  0  0  0  0  0  0  0  0  0  0  0
   -1.1833    0.8720   -1.3884 C   0  0  0  0  0  0  0  0  0  0  0  0
   -0.8979    0.0366   -3.0039 S   0  0  0  0  0  0  0  0  0  0  0  0
    0.2585   -1.7551    0.2378 H   0  0  0  0  0  0  0  0  0  0  0  0
    0.7196    0.2570   -0.7332 H   0  0  0  0  0  0  0  0  0  0  0  0
   -2.2414    0.8394   -1.1170 H   0  0  0  0  0  0  0  0  0  0  0  0
   -0.9167    1.9286   -1.4960 H   0  0  0  0  0  0  0  0  0  0  0  0
   -1.8263    0.6473   -3.7729 H   0  0  0  0  0  0  0  0  0  0  0  0
   -1.2145    1.9244    1.3610 N   0  0  0  0  0  0  0  0  0  0  0  0
   -1.2594    2.6372    2.6438 C   0  0  2  0  0  0  0  0  0  0  0  0
   -2.7106    2.9568    3.0601 C   0  0  0  0  0  0  0  0  0  0  0  0
   -3.6209    2.8542    2.2453 O   0  0  0  0  0  0  0  0  0  0  0  0
   -0.4438    3.9288    2.5181 C   0  0  0  0  0  0  0  0  0  0  0  0
   -2.1017    1.8344    0.8628 H   0  0  0  0  0  0  0  0  0  0  0  0
   -0.8241    2.0070    3.4269 H   0  0  0  0  0  0  0  0  0  0  0  0
   -0.8644    4.5718    1.7383 H   0  0  0  0  0  0  0  0  0  0  0  0
   -0.4465    4.4794    3.4634 H   0  0  0  0  0  0  0  0  0  0  0  0
    0.5946    3.7004    2.2580 H   0  0  0  0  0  0  0  0  0  0  0  0
   -3.0006    3.3541    4.3525 N   0  0  0  0  0  0  0  0  0  0  0  0
   -4.3515    3.6532    4.8123 C   0  0  0  0  0  0  0  0  0  0  0  0
   -2.2315    3.4083    5.0140 H   0  0  0  0  0  0  0  0  0  0  0  0
   -4.7876    4.4641    4.2193 H   0  0  0  0  0  0  0  0  0  0  0  0
   -4.9904    2.7682    4.7234 H   0  0  0  0  0  0  0  0  0  0  0  0
   -4.3349    3.9639    5.8615 H   0  0  0  0  0  0  0  0  0  0  0  0
  1  2  2  0  0  0  0
  1  3  1  0  0  0  0
  1  7  1  0  0  0  0
  3  4  1  0  0  0  0
  3  5  1  0  0  0  0
  3  6  1  0  0  0  0
  7  8  1  0  0  0  0
  7 12  1  0  0  0  0
  8  9  1  0  0  0  0
  8 11  1  0  0  0  0
  8 13  1  0  0  0  0
  9 10  2  0  0  0  0
  9 17  1  0  0  0  0
 11 14  1  0  0  0  0
 11 15  1  0  0  0  0
 11 16  1  0  0  0  0
 17 18  1  0  0  0  0
 17 23  1  0  0  0  0
 18 19  1  0  0  0  0
 18 21  1  0  0  0  0
 18 24  1  0  0  0  0
 19 20  2  0  0  0  0
 19 28  1  0  0  0  0
 21 22  1  0  0  0  0
 21 25  1  0  0  0  0
 21 26  1  0  0  0  0
 22 27  1  0  0  0  0
 28 29  1  0  0  0  0
 28 33  1  0  0  0  0
 29 30  1  0  0  0  0
 29 32  1  0  0  0  0
 29 34  1  0  0  0  0
 30 31  2  0  0  0  0
 30 38  1  0  0  0  0
 32 35  1  0  0  0  0
 32 36  1  0  0  0  0
 32 37  1  0  0  0  0
 38 39  1  0  0  0  0
 38 40  1  0  0  0  0
 39 41  1  0  0  0  0
 39 42  1  0  0  0  0
 39 43  1  0  0  0  0
M  END
$$$$

  -OEChem-05262216003D

 43 42  0     1  0  0  0  0  0999 V2000
   -3.3820   -5.0503    1.0213 C   0  0  0  0  0  0  0  0  0  0  0  0
   -2.4711   -5.7661    1.4071 O   0  0  0  0  0  0  0  0  0  0  0  0
   -4.8159   -5.3715    1.3987 C   0  0  0  0  0  0  0  0  0  0  0  0
   -5.4029   -5.5679    0.4982 H   0  0  0  0  0  0  0  0  0  0  0  0
   -4.8478   -6.2557    2.0416 H   0  0  0  0  0  0  0  0  0  0  0  0
   -5.2581   -4.5296    1.9371 H   0  0  0  0  0  0  0  0  0  0  0  0
   -3.1080   -3.9388    0.2536 N   0  0  0  0  0  0  0  0  0  0  0  0
   -1.7559   -3.4267   -0.0034 C   0  0  2  0  0  0  0  0  0  0  0  0
   -1.7361   -1.8857   -0.0747 C   0  0  0  0  0  0  0  0  0  0  0  0
   -2.7931   -1.2700   -0.1463 O   0  0  0  0  0  0  0  0  0  0  0  0
   -1.2504   -4.0306   -1.3163 C   0  0  0  0  0  0  0  0  0  0  0  0
   -3.8779   -3.2929    0.0795 H   0  0  0  0  0  0  0  0  0  0  0  0
   -1.0870   -3.7233    0.8118 H   0  0  0  0  0  0  0  0  0  0  0  0
   -1.9014   -3.7389   -2.1467 H   0  0  0  0  0  0  0  0  0  0  0  0
   -0.2345   -3.6870   -1.5335 H   0  0  0  0  0  0  0  0  0  0  0  0
   -1.2382   -5.1232   -1.2494 H   0  0  0  0  0  0  0  0  0  0  0  0
   -0.5392   -1.2064    0.0735 N   0  0  0  0  0  0  0  0  0  0  0  0
   -0.2606    0.2070   -0.2610 C   0  0  2  0  0  0  0  0  0  0  0  0
   -0.1914    1.0453    1.0261 C   0  0  0  0  0  0  0  0  0  0  0  0
    0.8769    1.1751    1.6102 O   0  0  0  0  0  0  0  0  0  0  0  0
   -1.1393    0.8640   -1.3444 C   0  0  0  0  0  0  0  0  0  0  0  0
   -0.8490    0.0380   -2.9639 S   0  0  0  0  0  0  0  0  0  0  0  0
    0.2747   -1.8009    0.2043 H   0  0  0  0  0  0  0  0  0  0  0  0
    0.7536    0.2307   -0.6727 H   0  0  0  0  0  0  0  0  0  0  0  0
   -2.2001    0.8411   -1.0834 H   0  0  0  0  0  0  0  0  0  0  0  0
   -0.8601    1.9188   -1.4379 H   0  0  0  0  0  0  0  0  0  0  0  0
   -1.7591    0.6704   -3.7371 H   0  0  0  0  0  0  0  0  0  0  0  0
   -1.3284    1.6396    1.5395 N   0  0  0  0  0  0  0  0  0  0  0  0
   -1.3897    2.3279    2.8355 C   0  0  2  0  0  0  0  0  0  0  0  0
   -2.8077    2.2741    3.4429 C   0  0  0  0  0  0  0  0  0  0  0  0
   -3.7622    1.9307    2.7551 O   0  0  0  0  0  0  0  0  0  0  0  0
   -0.9482    3.7818    2.6375 C   0  0  0  0  0  0  0  0  0  0  0  0
   -2.2204    1.3296    1.1461 H   0  0  0  0  0  0  0  0  0  0  0  0
   -0.7133    1.8366    3.5429 H   0  0  0  0  0  0  0  0  0  0  0  0
   -1.6169    4.2919    1.9366 H   0  0  0  0  0  0  0  0  0  0  0  0
   -0.9624    4.3213    3.5891 H   0  0  0  0  0  0  0  0  0  0  0  0
    0.0698    3.8196    2.2374 H   0  0  0  0  0  0  0  0  0  0  0  0
   -3.0164    2.6020    4.7701 N   0  0  0  0  0  0  0  0  0  0  0  0
   -4.3249    2.5437    5.4113 C   0  0  0  0  0  0  0  0  0  0  0  0
   -2.2065    2.8622    5.3251 H   0  0  0  0  0  0  0  0  0  0  0  0
   -5.0377    3.1911    4.8894 H   0  0  0  0  0  0  0  0  0  0  0  0
   -4.7100    1.5184    5.4036 H   0  0  0  0  0  0  0  0  0  0  0  0
   -4.2529    2.8788    6.4506 H   0  0  0  0  0  0  0  0  0  0  0  0
  1  2  2  0  0  0  0
  1  3  1  0  0  0  0
  1  7  1  0  0  0  0
  3  4  1  0  0  0  0
  3  5  1  0  0  0  0
  3  6  1  0  0  0  0
  7  8  1  0  0  0  0
  7 12  1  0  0  0  0
  8  9  1  0  0  0  0
  8 11  1  0  0  0  0
  8 13  1  0  0  0  0
  9 10  2  0  0  0  0
  9 17  1  0  0  0  0
 11 14  1  0  0  0  0
 11 15  1  0  0  0  0
 11 16  1  0  0  0  0
 17 18  1  0  0  0  0
 17 23  1  0  0  0  0
 18 19  1  0  0  0  0
 18 21  1  0  0  0  0
 18 24  1  0  0  0  0
 19 20  2  0  0  0  0
 19 28  1  0  0  0  0
 21 22  1  0  0  0  0
 21 25  1  0  0  0  0
 21 26  1  0  0  0  0
 22 27  1  0  0  0  0
 28 29  1  0  0  0  0
 28 33  1  0  0  0  0
 29 30  1  0  0  0  0
 29 32  1  0  0  0  0
 29 34  1  0  0  0  0
 30 31  2  0  0  0  0
 30 38  1  0  0  0  0
 32 35  1  0  0  0  0
 32 36  1  0  0  0  0
 32 37  1  0  0  0  0
 38 39  1  0  0  0  0
 38 40  1  0  0  0  0
 39 41  1  0  0  0  0
 39 42  1  0  0  0  0
 39 43  1  0  0  0  0
M  END
$$$$

  -OEChem-05262216003D

 43 42  0     1  0  0  0  0  0999 V2000
   -3.4018   -5.0670    0.9548 C   0  0  0  0  0  0  0  0  0  0  0  0
   -2.4969   -5.8397    1.2295 O   0  0  0  0  0  0  0  0  0  0  0  0
   -4.8208   -5.3630    1.4025 C   0  0  0  0  0  0  0  0  0  0  0  0
   -5.4733   -5.4655    0.5320 H   0  0  0  0  0  0  0  0  0  0  0  0
   -4.8484   -6.2934    1.9765 H   0  0  0  0  0  0  0  0  0  0  0  0
   -5.1904   -4.5497    2.0320 H   0  0  0  0  0  0  0  0  0  0  0  0
   -3.1339   -3.9139    0.2489 N   0  0  0  0  0  0  0  0  0  0  0  0
   -1.7826   -3.4315   -0.0628 C   0  0  2  0  0  0  0  0  0  0  0  0
   -1.7152   -1.8909   -0.0477 C   0  0  0  0  0  0  0  0  0  0  0  0
   -2.7510   -1.2371   -0.0857 O   0  0  0  0  0  0  0  0  0  0  0  0
   -1.3791   -3.9691   -1.4385 C   0  0  0  0  0  0  0  0  0  0  0  0
   -3.8903   -3.2351    0.1627 H   0  0  0  0  0  0  0  0  0  0  0  0
   -1.0771   -3.7981    0.6904 H   0  0  0  0  0  0  0  0  0  0  0  0
   -2.0696   -3.6087   -2.2080 H   0  0  0  0  0  0  0  0  0  0  0  0
   -0.3678   -3.6423   -1.6986 H   0  0  0  0  0  0  0  0  0  0  0  0
   -1.3982   -5.0637   -1.4377 H   0  0  0  0  0  0  0  0  0  0  0  0
   -0.5063   -1.2489    0.1546 N   0  0  0  0  0  0  0  0  0  0  0  0
   -0.1910    0.1569   -0.1825 C   0  0  2  0  0  0  0  0  0  0  0  0
   -0.1665    1.0047    1.0975 C   0  0  0  0  0  0  0  0  0  0  0  0
    0.8972    1.3990    1.5578 O   0  0  0  0  0  0  0  0  0  0  0  0
   -1.0173    0.8255   -1.2986 C   0  0  0  0  0  0  0  0  0  0  0  0
   -0.6891   -0.0171   -2.9020 S   0  0  0  0  0  0  0  0  0  0  0  0
    0.2914   -1.8717    0.2490 H   0  0  0  0  0  0  0  0  0  0  0  0
    0.8389    0.1609   -0.5538 H   0  0  0  0  0  0  0  0  0  0  0  0
   -2.0863    0.8295   -1.0733 H   0  0  0  0  0  0  0  0  0  0  0  0
   -0.7115    1.8732   -1.3876 H   0  0  0  0  0  0  0  0  0  0  0  0
   -1.5363    0.6519   -3.7147 H   0  0  0  0  0  0  0  0  0  0  0  0
   -1.3561    1.3499    1.7085 N   0  0  0  0  0  0  0  0  0  0  0  0
   -1.4484    2.0296    3.0069 C   0  0  2  0  0  0  0  0  0  0  0  0
   -2.6555    1.5393    3.8352 C   0  0  0  0  0  0  0  0  0  0  0  0
   -3.5196    0.8395    3.3207 O   0  0  0  0  0  0  0  0  0  0  0  0
   -1.5469    3.5358    2.7478 C   0  0  0  0  0  0  0  0  0  0  0  0
   -2.1834    0.8298    1.4012 H   0  0  0  0  0  0  0  0  0  0  0  0
   -0.5496    1.8237    3.5975 H   0  0  0  0  0  0  0  0  0  0  0  0
   -2.4448    3.7648    2.1649 H   0  0  0  0  0  0  0  0  0  0  0  0
   -1.5932    4.0881    3.6911 H   0  0  0  0  0  0  0  0  0  0  0  0
   -0.6709    3.8816    2.1898 H   0  0  0  0  0  0  0  0  0  0  0  0
   -2.7717    1.8790    5.1710 N   0  0  0  0  0  0  0  0  0  0  0  0
   -3.8852    1.4547    6.0113 C   0  0  0  0  0  0  0  0  0  0  0  0
   -2.0359    2.4482    5.5786 H   0  0  0  0  0  0  0  0  0  0  0  0
   -4.8339    1.8171    5.6014 H   0  0  0  0  0  0  0  0  0  0  0  0
   -3.9231    0.3621    6.0751 H   0  0  0  0  0  0  0  0  0  0  0  0
   -3.7704    1.8560    7.0227 H   0  0  0  0  0  0  0  0  0  0  0  0
  1  2  2  0  0  0  0
  1  3  1  0  0  0  0
  1  7  1  0  0  0  0
  3  4  1  0  0  0  0
  3  5  1  0  0  0  0
  3  6  1  0  0  0  0
  7  8  1  0  0  0  0
  7 12  1  0  0  0  0
  8  9  1  0  0  0  0
  8 11  1  0  0  0  0
  8 13  1  0  0  0  0
  9 10  2  0  0  0  0
  9 17  1  0  0  0  0
 11 14  1  0  0  0  0
 11 15  1  0  0  0  0
 11 16  1  0  0  0  0
 17 18  1  0  0  0  0
 17 23  1  0  0  0  0
 18 19  1  0  0  0  0
 18 21  1  0  0  0  0
 18 24  1  0  0  0  0
 19 20  2  0  0  0  0
 19 28  1  0  0  0  0
 21 22  1  0  0  0  0
 21 25  1  0  0  0  0
 21 26  1  0  0  0  0
 22 27  1  0  0  0  0
 28 29  1  0  0  0  0
 28 33  1  0  0  0  0
 29 30  1  0  0  0  0
 29 32  1  0  0  0  0
 29 34  1  0  0  0  0
 30 31  2  0  0  0  0
 30 38  1  0  0  0  0
 32 35  1  0  0  0  0
 32 36  1  0  0  0  0
 32 37  1  0  0  0  0
 38 39  1  0  0  0  0
 38 40  1  0  0  0  0
 39 41  1  0  0  0  0
 39 42  1  0  0  0  0
 39 43  1  0  0  0  0
M  END
$$$$

  -OEChem-05262216003D

 43 42  0     1  0  0  0  0  0999 V2000
   -3.4129   -5.0532    0.9313 C   0  0  0  0  0  0  0  0  0  0  0  0
   -2.5108   -5.8583    1.1031 O   0  0  0  0  0  0  0  0  0  0  0  0
   -4.8039   -5.3442    1.4625 C   0  0  0  0  0  0  0  0  0  0  0  0
   -5.5225   -5.3558    0.6394 H   0  0  0  0  0  0  0  0  0  0  0  0
   -4.8219   -6.3182    1.9599 H   0  0  0  0  0  0  0  0  0  0  0  0
   -5.0970   -4.5762    2.1829 H   0  0  0  0  0  0  0  0  0  0  0  0
   -3.1656   -3.8740    0.2611 N   0  0  0  0  0  0  0  0  0  0  0  0
   -1.8253   -3.4086   -0.1160 C   0  0  2  0  0  0  0  0  0  0  0  0
   -1.7189   -1.8722   -0.0444 C   0  0  0  0  0  0  0  0  0  0  0  0
   -2.7354   -1.1866   -0.0528 O   0  0  0  0  0  0  0  0  0  0  0  0
   -1.5165   -3.8967   -1.5333 C   0  0  0  0  0  0  0  0  0  0  0  0
   -3.9090   -3.1758    0.2569 H   0  0  0  0  0  0  0  0  0  0  0  0
   -1.0837   -3.8215    0.5758 H   0  0  0  0  0  0  0  0  0  0  0  0
   -2.2476   -3.4972   -2.2434 H   0  0  0  0  0  0  0  0  0  0  0  0
   -0.5182   -3.5717   -1.8423 H   0  0  0  0  0  0  0  0  0  0  0  0
   -1.5523   -4.9901   -1.5730 H   0  0  0  0  0  0  0  0  0  0  0  0
   -0.4985   -1.2678    0.1988 N   0  0  0  0  0  0  0  0  0  0  0  0
   -0.1328    0.1243   -0.1471 C   0  0  2  0  0  0  0  0  0  0  0  0
   -0.1375    0.9861    1.1229 C   0  0  0  0  0  0  0  0  0  0  0  0
    0.8681    1.5887    1.4748 O   0  0  0  0  0  0  0  0  0  0  0  0
   -0.9107    0.7965   -1.2935 C   0  0  0  0  0  0  0  0  0  0  0  0
   -0.5625   -0.0809   -2.8740 S   0  0  0  0  0  0  0  0  0  0  0  0
    0.2785   -1.9190    0.2721 H   0  0  0  0  0  0  0  0  0  0  0  0
    0.9094    0.0997   -0.4822 H   0  0  0  0  0  0  0  0  0  0  0  0
   -1.9848    0.8326   -1.0955 H   0  0  0  0  0  0  0  0  0  0  0  0
   -0.5731    1.8337   -1.3904 H   0  0  0  0  0  0  0  0  0  0  0  0
   -1.3586    0.6058   -3.7228 H   0  0  0  0  0  0  0  0  0  0  0  0
   -1.3107    1.0995    1.8423 N   0  0  0  0  0  0  0  0  0  0  0  0
   -1.4107    1.7127    3.1725 C   0  0  2  0  0  0  0  0  0  0  0  0
   -2.2686    0.8678    4.1403 C   0  0  0  0  0  0  0  0  0  0  0  0
   -2.8753   -0.1190    3.7394 O   0  0  0  0  0  0  0  0  0  0  0  0
   -2.0009    3.1141    2.9973 C   0  0  0  0  0  0  0  0  0  0  0  0
   -2.0482    0.4368    1.5823 H   0  0  0  0  0  0  0  0  0  0  0  0
   -0.4157    1.7988    3.6213 H   0  0  0  0  0  0  0  0  0  0  0  0
   -3.0082    3.0552    2.5726 H   0  0  0  0  0  0  0  0  0  0  0  0
   -2.0565    3.6318    3.9594 H   0  0  0  0  0  0  0  0  0  0  0  0
   -1.3720    3.7055    2.3242 H   0  0  0  0  0  0  0  0  0  0  0  0
   -2.3544    1.2098    5.4779 N   0  0  0  0  0  0  0  0  0  0  0  0
   -3.1413    0.4570    6.4474 C   0  0  0  0  0  0  0  0  0  0  0  0
   -1.8304    2.0214    5.7916 H   0  0  0  0  0  0  0  0  0  0  0  0
   -4.1876    0.3984    6.1290 H   0  0  0  0  0  0  0  0  0  0  0  0
   -2.7475   -0.5593    6.5540 H   0  0  0  0  0  0  0  0  0  0  0  0
   -3.1065    0.9465    7.4253 H   0  0  0  0  0  0  0  0  0  0  0  0
  1  2  2  0  0  0  0
  1  3  1  0  0  0  0
  1  7  1  0  0  0  0
  3  4  1  0  0  0  0
  3  5  1  0  0  0  0
  3  6  1  0  0  0  0
  7  8  1  0  0  0  0
  7 12  1  0  0  0  0
  8  9  1  0  0  0  0
  8 11  1  0  0  0  0
  8 13  1  0  0  0  0
  9 10  2  0  0  0  0
  9 17  1  0  0  0  0
 11 14  1  0  0  0  0
 11 15  1  0  0  0  0
 11 16  1  0  0  0  0
 17 18  1  0  0  0  0
 17 23  1  0  0  0  0
 18 19  1  0  0  0  0
 18 21  1  0  0  0  0
 18 24  1  0  0  0  0
 19 20  2  0  0  0  0
 19 28  1  0  0  0  0
 21 22  1  0  0  0  0
 21 25  1  0  0  0  0
 21 26  1  0  0  0  0
 22 27  1  0  0  0  0
 28 29  1  0  0  0  0
 28 33  1  0  0  0  0
 29 30  1  0  0  0  0
 29 32  1  0  0  0  0
 29 34  1  0  0  0  0
 30 31  2  0  0  0  0
 30 38  1  0  0  0  0
 32 35  1  0  0  0  0
 32 36  1  0  0  0  0
 32 37  1  0  0  0  0
 38 39  1  0  0  0  0
 38 40  1  0  0  0  0
 39 41  1  0  0  0  0
 39 42  1  0  0  0  0
 39 43  1  0  0  0  0
M  END
$$$$

  -OEChem-05262216003D

 43 42  0     1  0  0  0  0  0999 V2000
   -3.4204   -5.0975    0.8683 C   0  0  0  0  0  0  0  0  0  0  0  0
   -2.5207   -5.9145    0.9883 O   0  0  0  0  0  0  0  0  0  0  0  0
   -4.7954   -5.3900    1.4386 C   0  0  0  0  0  0  0  0  0  0  0  0
   -5.5501   -5.3236    0.6511 H   0  0  0  0  0  0  0  0  0  0  0  0
   -4.8200   -6.3963    1.8664 H   0  0  0  0  0  0  0  0  0  0  0  0
   -5.0328   -4.6675    2.2235 H   0  0  0  0  0  0  0  0  0  0  0  0
   -3.1832   -3.8986    0.2303 N   0  0  0  0  0  0  0  0  0  0  0  0
   -1.8482   -3.4240   -0.1547 C   0  0  2  0  0  0  0  0  0  0  0  0
   -1.7417   -1.8894   -0.0495 C   0  0  0  0  0  0  0  0  0  0  0  0
   -2.7569   -1.2020   -0.0365 O   0  0  0  0  0  0  0  0  0  0  0  0
   -1.5561   -3.8778   -1.5875 C   0  0  0  0  0  0  0  0  0  0  0  0
   -3.9233   -3.1981    0.2669 H   0  0  0  0  0  0  0  0  0  0  0  0
   -1.0980   -3.8522    0.5191 H   0  0  0  0  0  0  0  0  0  0  0  0
   -2.2981   -3.4652   -2.2786 H   0  0  0  0  0  0  0  0  0  0  0  0
   -0.5634   -3.5415   -1.9023 H   0  0  0  0  0  0  0  0  0  0  0  0
   -1.5874   -4.9699   -1.6525 H   0  0  0  0  0  0  0  0  0  0  0  0
   -0.5242   -1.2909    0.2184 N   0  0  0  0  0  0  0  0  0  0  0  0
   -0.1370    0.0970   -0.1275 C   0  0  2  0  0  0  0  0  0  0  0  0
   -0.1625    0.9771    1.1307 C   0  0  0  0  0  0  0  0  0  0  0  0
    0.7555    1.7487    1.3736 O   0  0  0  0  0  0  0  0  0  0  0  0
   -0.8946    0.7636   -1.2897 C   0  0  0  0  0  0  0  0  0  0  0  0
   -0.5329   -0.1279   -2.8592 S   0  0  0  0  0  0  0  0  0  0  0  0
    0.2462   -1.9492    0.2976 H   0  0  0  0  0  0  0  0  0  0  0  0
    0.9110    0.0627   -0.4423 H   0  0  0  0  0  0  0  0  0  0  0  0
   -1.9709    0.8060   -1.1049 H   0  0  0  0  0  0  0  0  0  0  0  0
   -0.5498    1.7983   -1.3900 H   0  0  0  0  0  0  0  0  0  0  0  0
   -1.2966    0.5718   -3.7270 H   0  0  0  0  0  0  0  0  0  0  0  0
   -1.2364    0.8755    1.9920 N   0  0  0  0  0  0  0  0  0  0  0  0
   -1.2791    1.4314    3.3492 C   0  0  2  0  0  0  0  0  0  0  0  0
   -1.7890    0.3972    4.3772 C   0  0  0  0  0  0  0  0  0  0  0  0
   -2.2928   -0.6567    4.0042 O   0  0  0  0  0  0  0  0  0  0  0  0
   -2.1860    2.6642    3.3184 C   0  0  0  0  0  0  0  0  0  0  0  0
   -1.9014    0.1274    1.7754 H   0  0  0  0  0  0  0  0  0  0  0  0
   -0.2747    1.7327    3.6645 H   0  0  0  0  0  0  0  0  0  0  0  0
   -3.2017    2.3840    3.0207 H   0  0  0  0  0  0  0  0  0  0  0  0
   -2.2286    3.1376    4.3038 H   0  0  0  0  0  0  0  0  0  0  0  0
   -1.8020    3.3964    2.6008 H   0  0  0  0  0  0  0  0  0  0  0  0
   -1.6788    0.6449    5.7337 N   0  0  0  0  0  0  0  0  0  0  0  0
   -2.1534   -0.2805    6.7557 C   0  0  0  0  0  0  0  0  0  0  0  0
   -1.2426    1.5159    6.0216 H   0  0  0  0  0  0  0  0  0  0  0  0
   -3.2328   -0.4362    6.6577 H   0  0  0  0  0  0  0  0  0  0  0  0
   -1.6481   -1.2477    6.6619 H   0  0  0  0  0  0  0  0  0  0  0  0
   -1.9517    0.1196    7.7541 H   0  0  0  0  0  0  0  0  0  0  0  0
  1  2  2  0  0  0  0
  1  3  1  0  0  0  0
  1  7  1  0  0  0  0
  3  4  1  0  0  0  0
  3  5  1  0  0  0  0
  3  6  1  0  0  0  0
  7  8  1  0  0  0  0
  7 12  1  0  0  0  0
  8  9  1  0  0  0  0
  8 11  1  0  0  0  0
  8 13  1  0  0  0  0
  9 10  2  0  0  0  0
  9 17  1  0  0  0  0
 11 14  1  0  0  0  0
 11 15  1  0  0  0  0
 11 16  1  0  0  0  0
 17 18  1  0  0  0  0
 17 23  1  0  0  0  0
 18 19  1  0  0  0  0
 18 21  1  0  0  0  0
 18 24  1  0  0  0  0
 19 20  2  0  0  0  0
 19 28  1  0  0  0  0
 21 22  1  0  0  0  0
 21 25  1  0  0  0  0
 21 26  1  0  0  0  0
 22 27  1  0  0  0  0
 28 29  1  0  0  0  0
 28 33  1  0  0  0  0
 29 30  1  0  0  0  0
 29 32  1  0  0  0  0
 29 34  1  0  0  0  0
 30 31  2  0  0  0  0
 30 38  1  0  0  0  0
 32 35  1  0  0  0  0
 32 36  1  0  0  0  0
 32 37  1  0  0  0  0
 38 39  1  0  0  0  0
 38 40  1  0  0  0  0
 39 41  1  0  0  0  0
 39 42  1  0  0  0  0
 39 43  1  0  0  0  0
M  END
$$$$

  -OEChem-05262216003D

 43 42  0     1  0  0  0  0  0999 V2000
   -3.4309   -5.2052    0.7333 C   0  0  0  0  0  0  0  0  0  0  0  0
   -2.5242   -6.0164    0.8373 O   0  0  0  0  0  0  0  0  0  0  0  0
   -4.8110   -5.5295    1.2731 C   0  0  0  0  0  0  0  0  0  0  0  0
   -5.5525   -5.4536    0.4743 H   0  0  0  0  0  0  0  0  0  0  0  0
   -4.8295   -6.5456    1.6765 H   0  0  0  0  0  0  0  0  0  0  0  0
   -5.0721   -4.8296    2.0706 H   0  0  0  0  0  0  0  0  0  0  0  0
   -3.1987   -3.9825    0.1405 N   0  0  0  0  0  0  0  0  0  0  0  0
   -1.8669   -3.4810   -0.2192 C   0  0  2  0  0  0  0  0  0  0  0  0
   -1.7769   -1.9502   -0.0569 C   0  0  0  0  0  0  0  0  0  0  0  0
   -2.8009   -1.2798    0.0067 O   0  0  0  0  0  0  0  0  0  0  0  0
   -1.5652   -3.8782   -1.6663 C   0  0  0  0  0  0  0  0  0  0  0  0
   -3.9489   -3.2935    0.1841 H   0  0  0  0  0  0  0  0  0  0  0  0
   -1.1159   -3.9277    0.4411 H   0  0  0  0  0  0  0  0  0  0  0  0
   -2.3039   -3.4396   -2.3450 H   0  0  0  0  0  0  0  0  0  0  0  0
   -0.5714   -3.5280   -1.9614 H   0  0  0  0  0  0  0  0  0  0  0  0
   -1.5942   -4.9672   -1.7744 H   0  0  0  0  0  0  0  0  0  0  0  0
   -0.5572   -1.3467    0.1919 N   0  0  0  0  0  0  0  0  0  0  0  0
   -0.1894    0.0561   -0.1236 C   0  0  2  0  0  0  0  0  0  0  0  0
   -0.1764    0.9200    1.1490 C   0  0  0  0  0  0  0  0  0  0  0  0
    0.5955    1.8641    1.2524 O   0  0  0  0  0  0  0  0  0  0  0  0
   -0.9892    0.7385   -1.2480 C   0  0  0  0  0  0  0  0  0  0  0  0
   -0.6604   -0.1124   -2.8473 S   0  0  0  0  0  0  0  0  0  0  0  0
    0.2200   -2.0012    0.2234 H   0  0  0  0  0  0  0  0  0  0  0  0
    0.8490    0.0376   -0.4706 H   0  0  0  0  0  0  0  0  0  0  0  0
   -2.0600    0.7604   -1.0309 H   0  0  0  0  0  0  0  0  0  0  0  0
   -0.6633    1.7806   -1.3359 H   0  0  0  0  0  0  0  0  0  0  0  0
   -1.4482    0.6068   -3.6767 H   0  0  0  0  0  0  0  0  0  0  0  0
   -1.0243    0.6046    2.1908 N   0  0  0  0  0  0  0  0  0  0  0  0
   -0.9494    1.1615    3.5448 C   0  0  2  0  0  0  0  0  0  0  0  0
   -1.1735    0.0710    4.6154 C   0  0  0  0  0  0  0  0  0  0  0  0
   -1.5808   -1.0405    4.2939 O   0  0  0  0  0  0  0  0  0  0  0  0
   -2.0041    2.2645    3.6592 C   0  0  0  0  0  0  0  0  0  0  0  0
   -1.5868   -0.2399    2.0654 H   0  0  0  0  0  0  0  0  0  0  0  0
    0.0426    1.5918    3.7181 H   0  0  0  0  0  0  0  0  0  0  0  0
   -3.0056    1.8533    3.4970 H   0  0  0  0  0  0  0  0  0  0  0  0
   -1.9725    2.7272    4.6497 H   0  0  0  0  0  0  0  0  0  0  0  0
   -1.8204    3.0409    2.9098 H   0  0  0  0  0  0  0  0  0  0  0  0
   -0.9055    0.3288    5.9474 N   0  0  0  0  0  0  0  0  0  0  0  0
   -1.0874   -0.6587    7.0048 C   0  0  0  0  0  0  0  0  0  0  0  0
   -0.5516    1.2499    6.1881 H   0  0  0  0  0  0  0  0  0  0  0  0
   -2.1313   -0.9872    7.0463 H   0  0  0  0  0  0  0  0  0  0  0  0
   -0.4503   -1.5319    6.8284 H   0  0  0  0  0  0  0  0  0  0  0  0
   -0.8225   -0.2282    7.9752 H   0  0  0  0  0  0  0  0  0  0  0  0
  1  2  2  0  0  0  0
  1  3  1  0  0  0  0
  1  7  1  0  0  0  0
  3  4  1  0  0  0  0
  3  5  1  0  0  0  0
  3  6  1  0  0  0  0
  7  8  1  0  0  0  0
  7 12  1  0  0  0  0
  8  9  1  0  0  0  0
  8 11  1  0  0  0  0
  8 13  1  0  0  0  0
  9 10  2  0  0  0  0
  9 17  1  0  0  0  0
 11 14  1  0  0  0  0
 11 15  1  0  0  0  0
 11 16  1  0  0  0  0
 17 18  1  0  0  0  0
 17 23  1  0  0  0  0
 18 19  1  0  0  0  0
 18 21  1  0  0  0  0
 18 24  1  0  0  0  0
 19 20  2  0  0  0  0
 19 28  1  0  0  0  0
 21 22  1  0  0  0  0
 21 25  1  0  0  0  0
 21 26  1  0  0  0  0
 22 27  1  0  0  0  0
 28 29  1  0  0  0  0
 28 33  1  0  0  0  0
 29 30  1  0  0  0  0
 29 32  1  0  0  0  0
 29 34  1  0  0  0  0
 30 31  2  0  0  0  0
 30 38  1  0  0  0  0
 32 35  1  0  0  0  0
 32 36  1  0  0  0  0
 32 37  1  0  0  0  0
 38 39  1  0  0  0  0
 38 40  1  0  0  0  0
 39 41  1  0  0  0  0
 39 42  1  0  0  0  0
 39 43  1  0  0  0  0
M  END
$$$$

  -OEChem-05262216003D

 43 42  0     1  0  0  0  0  0999 V2000
   -3.5037   -5.2995    0.5600 C   0  0  0  0  0  0  0  0  0  0  0  0
   -2.6024   -6.1202    0.6305 O   0  0  0  0  0  0  0  0  0  0  0  0
   -4.8955   -5.6510    1.0498 C   0  0  0  0  0  0  0  0  0  0  0  0
   -5.6191   -5.5219    0.2415 H   0  0  0  0  0  0  0  0  0  0  0  0
   -4.9253   -6.6909    1.3868 H   0  0  0  0  0  0  0  0  0  0  0  0
   -5.1715   -5.0018    1.8843 H   0  0  0  0  0  0  0  0  0  0  0  0
   -3.2542   -4.0446    0.0471 N   0  0  0  0  0  0  0  0  0  0  0  0
   -1.9151   -3.5364   -0.2754 C   0  0  2  0  0  0  0  0  0  0  0  0
   -1.8139   -2.0158   -0.0381 C   0  0  0  0  0  0  0  0  0  0  0  0
   -2.8338   -1.3520    0.1050 O   0  0  0  0  0  0  0  0  0  0  0  0
   -1.6077   -3.8655   -1.7389 C   0  0  0  0  0  0  0  0  0  0  0  0
   -4.0002   -3.3531    0.1185 H   0  0  0  0  0  0  0  0  0  0  0  0
   -1.1727   -4.0201    0.3690 H   0  0  0  0  0  0  0  0  0  0  0  0
   -2.3373   -3.3858   -2.3993 H   0  0  0  0  0  0  0  0  0  0  0  0
   -0.6082   -3.5134   -2.0116 H   0  0  0  0  0  0  0  0  0  0  0  0
   -1.6484   -4.9474   -1.9009 H   0  0  0  0  0  0  0  0  0  0  0  0
   -0.5794   -1.4245    0.1671 N   0  0  0  0  0  0  0  0  0  0  0  0
   -0.2270   -0.0090   -0.1117 C   0  0  2  0  0  0  0  0  0  0  0  0
   -0.1344    0.8234    1.1812 C   0  0  0  0  0  0  0  0  0  0  0  0
    0.4371    1.9060    1.1809 O   0  0  0  0  0  0  0  0  0  0  0  0
   -1.0824    0.7058   -1.1751 C   0  0  0  0  0  0  0  0  0  0  0  0
   -0.8241   -0.0887   -2.8163 S   0  0  0  0  0  0  0  0  0  0  0  0
    0.1954   -2.0802    0.1081 H   0  0  0  0  0  0  0  0  0  0  0  0
    0.7911   -0.0166   -0.5134 H   0  0  0  0  0  0  0  0  0  0  0  0
   -2.1416    0.7156   -0.9066 H   0  0  0  0  0  0  0  0  0  0  0  0
   -0.7660    1.7522   -1.2440 H   0  0  0  0  0  0  0  0  0  0  0  0
   -1.6396    0.6652   -3.5863 H   0  0  0  0  0  0  0  0  0  0  0  0
   -0.6609    0.3335    2.3587 N   0  0  0  0  0  0  0  0  0  0  0  0
   -0.5038    0.9405    3.6837 C   0  0  2  0  0  0  0  0  0  0  0  0
   -0.4098   -0.1326    4.7896 C   0  0  0  0  0  0  0  0  0  0  0  0
   -0.6883   -1.3019    4.5451 O   0  0  0  0  0  0  0  0  0  0  0  0
   -1.6970    1.8690    3.9265 C   0  0  0  0  0  0  0  0  0  0  0  0
   -1.0845   -0.5941    2.3151 H   0  0  0  0  0  0  0  0  0  0  0  0
    0.4221    1.5243    3.7156 H   0  0  0  0  0  0  0  0  0  0  0  0
   -2.6332    1.3022    3.9016 H   0  0  0  0  0  0  0  0  0  0  0  0
   -1.6122    2.3603    4.9002 H   0  0  0  0  0  0  0  0  0  0  0  0
   -1.7380    2.6423    3.1529 H   0  0  0  0  0  0  0  0  0  0  0  0
    0.0085    0.2099    6.0623 N   0  0  0  0  0  0  0  0  0  0  0  0
    0.1399   -0.7545    7.1477 C   0  0  0  0  0  0  0  0  0  0  0  0
    0.2477    1.1820    6.2342 H   0  0  0  0  0  0  0  0  0  0  0  0
   -0.8269   -1.2204    7.3656 H   0  0  0  0  0  0  0  0  0  0  0  0
    0.8563   -1.5382    6.8790 H   0  0  0  0  0  0  0  0  0  0  0  0
    0.4961   -0.2570    8.0548 H   0  0  0  0  0  0  0  0  0  0  0  0
  1  2  2  0  0  0  0
  1  3  1  0  0  0  0
  1  7  1  0  0  0  0
  3  4  1  0  0  0  0
  3  5  1  0  0  0  0
  3  6  1  0  0  0  0
  7  8  1  0  0  0  0
  7 12  1  0  0  0  0
  8  9  1  0  0  0  0
  8 11  1  0  0  0  0
  8 13  1  0  0  0  0
  9 10  2  0  0  0  0
  9 17  1  0  0  0  0
 11 14  1  0  0  0  0
 11 15  1  0  0  0  0
 11 16  1  0  0  0  0
 17 18  1  0  0  0  0
 17 23  1  0  0  0  0
 18 19  1  0  0  0  0
 18 21  1  0  0  0  0
 18 24  1  0  0  0  0
 19 20  2  0  0  0  0
 19 28  1  0  0  0  0
 21 22  1  0  0  0  0
 21 25  1  0  0  0  0
 21 26  1  0  0  0  0
 22 27  1  0  0  0  0
 28 29  1  0  0  0  0
 28 33  1  0  0  0  0
 29 30  1  0  0  0  0
 29 32  1  0  0  0  0
 29 34  1  0  0  0  0
 30 31  2  0  0  0  0
 30 38  1  0  0  0  0
 32 35  1  0  0  0  0
 32 36  1  0  0  0  0
 32 37  1  0  0  0  0
 38 39  1  0  0  0  0
 38 40  1  0  0  0  0
 39 41  1  0  0  0  0
 39 42  1  0  0  0  0
 39 43  1  0  0  0  0
M  END
$$$$

  -OEChem-05262216003D

 43 42  0     1  0  0  0  0  0999 V2000
   -3.5442   -5.3166    0.5405 C   0  0  0  0  0  0  0  0  0  0  0  0
   -2.6474   -6.1438    0.5813 O   0  0  0  0  0  0  0  0  0  0  0  0
   -4.9354   -5.6745    1.0287 C   0  0  0  0  0  0  0  0  0  0  0  0
   -5.6582   -5.5505    0.2187 H   0  0  0  0  0  0  0  0  0  0  0  0
   -4.9610   -6.7141    1.3675 H   0  0  0  0  0  0  0  0  0  0  0  0
   -5.2175   -5.0260    1.8619 H   0  0  0  0  0  0  0  0  0  0  0  0
   -3.2928   -4.0505    0.0570 N   0  0  0  0  0  0  0  0  0  0  0  0
   -1.9573   -3.5442   -0.2834 C   0  0  2  0  0  0  0  0  0  0  0  0
   -1.8365   -2.0305   -0.0102 C   0  0  0  0  0  0  0  0  0  0  0  0
   -2.8463   -1.3656    0.1883 O   0  0  0  0  0  0  0  0  0  0  0  0
   -1.6883   -3.8373   -1.7622 C   0  0  0  0  0  0  0  0  0  0  0  0
   -4.0338   -3.3568    0.1536 H   0  0  0  0  0  0  0  0  0  0  0  0
   -1.2035   -4.0507    0.3294 H   0  0  0  0  0  0  0  0  0  0  0  0
   -2.4317   -3.3382   -2.3923 H   0  0  0  0  0  0  0  0  0  0  0  0
   -0.6943   -3.4821   -2.0512 H   0  0  0  0  0  0  0  0  0  0  0  0
   -1.7383   -4.9145   -1.9502 H   0  0  0  0  0  0  0  0  0  0  0  0
   -0.5884   -1.4513    0.1455 N   0  0  0  0  0  0  0  0  0  0  0  0
   -0.2437   -0.0326   -0.1282 C   0  0  2  0  0  0  0  0  0  0  0  0
   -0.0834    0.7842    1.1705 C   0  0  0  0  0  0  0  0  0  0  0  0
    0.2652    1.9572    1.1300 O   0  0  0  0  0  0  0  0  0  0  0  0
   -1.1356    0.6890   -1.1583 C   0  0  0  0  0  0  0  0  0  0  0  0
   -0.9260   -0.0937   -2.8121 S   0  0  0  0  0  0  0  0  0  0  0  0
    0.1767   -2.1098    0.0229 H   0  0  0  0  0  0  0  0  0  0  0  0
    0.7573   -0.0400   -0.5698 H   0  0  0  0  0  0  0  0  0  0  0  0
   -2.1854    0.6956   -0.8550 H   0  0  0  0  0  0  0  0  0  0  0  0
   -0.8240    1.7361   -1.2339 H   0  0  0  0  0  0  0  0  0  0  0  0
   -1.7509    0.6764   -3.5558 H   0  0  0  0  0  0  0  0  0  0  0  0
   -0.2611    0.1782    2.3980 N   0  0  0  0  0  0  0  0  0  0  0  0
   -0.0103    0.7975    3.7031 C   0  0  2  0  0  0  0  0  0  0  0  0
    0.3989   -0.2524    4.7587 C   0  0  0  0  0  0  0  0  0  0  0  0
    0.3102   -1.4500    4.5079 O   0  0  0  0  0  0  0  0  0  0  0  0
   -1.2806    1.5368    4.1350 C   0  0  0  0  0  0  0  0  0  0  0  0
   -0.5090   -0.8110    2.3884 H   0  0  0  0  0  0  0  0  0  0  0  0
    0.8140    1.5131    3.6167 H   0  0  0  0  0  0  0  0  0  0  0  0
   -2.1156    0.8356    4.2356 H   0  0  0  0  0  0  0  0  0  0  0  0
   -1.1276    2.0384    5.0951 H   0  0  0  0  0  0  0  0  0  0  0  0
   -1.5501    2.2934    3.3910 H   0  0  0  0  0  0  0  0  0  0  0  0
    0.8896    0.1446    5.9892 N   0  0  0  0  0  0  0  0  0  0  0  0
    1.3175   -0.7940    7.0196 C   0  0  0  0  0  0  0  0  0  0  0  0
    0.9681    1.1416    6.1670 H   0  0  0  0  0  0  0  0  0  0  0  0
    0.4943   -1.4613    7.2967 H   0  0  0  0  0  0  0  0  0  0  0  0
    2.1566   -1.3993    6.6603 H   0  0  0  0  0  0  0  0  0  0  0  0
    1.6389   -0.2536    7.9153 H   0  0  0  0  0  0  0  0  0  0  0  0
  1  2  2  0  0  0  0
  1  3  1  0  0  0  0
  1  7  1  0  0  0  0
  3  4  1  0  0  0  0
  3  5  1  0  0  0  0
  3  6  1  0  0  0  0
  7  8  1  0  0  0  0
  7 12  1  0  0  0  0
  8  9  1  0  0  0  0
  8 11  1  0  0  0  0
  8 13  1  0  0  0  0
  9 10  2  0  0  0  0
  9 17  1  0  0  0  0
 11 14  1  0  0  0  0
 11 15  1  0  0  0  0
 11 16  1  0  0  0  0
 17 18  1  0  0  0  0
 17 23  1  0  0  0  0
 18 19  1  0  0  0  0
 18 21  1  0  0  0  0
 18 24  1  0  0  0  0
 19 20  2  0  0  0  0
 19 28  1  0  0  0  0
 21 22  1  0  0  0  0
 21 25  1  0  0  0  0
 21 26  1  0  0  0  0
 22 27  1  0  0  0  0
 28 29  1  0  0  0  0
 28 33  1  0  0  0  0
 29 30  1  0  0  0  0
 29 32  1  0  0  0  0
 29 34  1  0  0  0  0
 30 31  2  0  0  0  0
 30 38  1  0  0  0  0
 32 35  1  0  0  0  0
 32 36  1  0  0  0  0
 32 37  1  0  0  0  0
 38 39  1  0  0  0  0
 38 40  1  0  0  0  0
 39 41  1  0  0  0  0
 39 42  1  0  0  0  0
 39 43  1  0  0  0  0
M  END
$$$$

  -OEChem-05262216003D

 43 42  0     1  0  0  0  0  0999 V2000
   -3.5490   -5.2861    0.6176 C   0  0  0  0  0  0  0  0  0  0  0  0
   -2.6496   -6.1101    0.6708 O   0  0  0  0  0  0  0  0  0  0  0  0
   -4.9386   -5.6410    1.1126 C   0  0  0  0  0  0  0  0  0  0  0  0
   -5.6564   -5.5698    0.2917 H   0  0  0  0  0  0  0  0  0  0  0  0
   -4.9499   -6.6623    1.5035 H   0  0  0  0  0  0  0  0  0  0  0  0
   -5.2377   -4.9559    1.9097 H   0  0  0  0  0  0  0  0  0  0  0  0
   -3.2999   -4.0267    0.1150 N   0  0  0  0  0  0  0  0  0  0  0  0
   -1.9661   -3.5269   -0.2414 C   0  0  2  0  0  0  0  0  0  0  0  0
   -1.8405   -2.0089    0.0042 C   0  0  0  0  0  0  0  0  0  0  0  0
   -2.8466   -1.3437    0.2188 O   0  0  0  0  0  0  0  0  0  0  0  0
   -1.7053   -3.8511   -1.7152 C   0  0  0  0  0  0  0  0  0  0  0  0
   -4.0394   -3.3306    0.2068 H   0  0  0  0  0  0  0  0  0  0  0  0
   -1.2104   -4.0223    0.3777 H   0  0  0  0  0  0  0  0  0  0  0  0
   -2.4508   -3.3631   -2.3512 H   0  0  0  0  0  0  0  0  0  0  0  0
   -0.7119   -3.5059   -2.0171 H   0  0  0  0  0  0  0  0  0  0  0  0
   -1.7596   -4.9319   -1.8802 H   0  0  0  0  0  0  0  0  0  0  0  0
   -0.5865   -1.4309    0.1125 N   0  0  0  0  0  0  0  0  0  0  0  0
   -0.2470   -0.0117   -0.1653 C   0  0  2  0  0  0  0  0  0  0  0  0
   -0.0327    0.7911    1.1369 C   0  0  0  0  0  0  0  0  0  0  0  0
    0.0895    2.0095    1.1152 O   0  0  0  0  0  0  0  0  0  0  0  0
   -1.1731    0.7119   -1.1657 C   0  0  0  0  0  0  0  0  0  0  0  0
   -1.0145   -0.0693   -2.8262 S   0  0  0  0  0  0  0  0  0  0  0  0
    0.1697   -2.0912   -0.0482 H   0  0  0  0  0  0  0  0  0  0  0  0
    0.7379   -0.0189   -0.6418 H   0  0  0  0  0  0  0  0  0  0  0  0
   -2.2128    0.7178   -0.8299 H   0  0  0  0  0  0  0  0  0  0  0  0
   -0.8666    1.7596   -1.2526 H   0  0  0  0  0  0  0  0  0  0  0  0
   -1.8935    0.6762   -3.5324 H   0  0  0  0  0  0  0  0  0  0  0  0
    0.1419    0.1282    2.3358 N   0  0  0  0  0  0  0  0  0  0  0  0
    0.4537    0.7528    3.6255 C   0  0  2  0  0  0  0  0  0  0  0  0
    1.1532   -0.2428    4.5759 C   0  0  0  0  0  0  0  0  0  0  0  0
    1.1980   -1.4365    4.2957 O   0  0  0  0  0  0  0  0  0  0  0  0
   -0.8512    1.2637    4.2454 C   0  0  0  0  0  0  0  0  0  0  0  0
    0.0618   -0.8877    2.3188 H   0  0  0  0  0  0  0  0  0  0  0  0
    1.1358    1.5950    3.4688 H   0  0  0  0  0  0  0  0  0  0  0  0
   -1.5455    0.4337    4.4120 H   0  0  0  0  0  0  0  0  0  0  0  0
   -0.6569    1.7543    5.2035 H   0  0  0  0  0  0  0  0  0  0  0  0
   -1.3301    1.9887    3.5796 H   0  0  0  0  0  0  0  0  0  0  0  0
    1.7490    0.2000    5.7427 N   0  0  0  0  0  0  0  0  0  0  0  0
    2.4318   -0.6852    6.6789 C   0  0  0  0  0  0  0  0  0  0  0  0
    1.7057    1.1945    5.9460 H   0  0  0  0  0  0  0  0  0  0  0  0
    1.7457   -1.4531    7.0518 H   0  0  0  0  0  0  0  0  0  0  0  0
    3.2797   -1.1776    6.1912 H   0  0  0  0  0  0  0  0  0  0  0  0
    2.8074   -0.1148    7.5338 H   0  0  0  0  0  0  0  0  0  0  0  0
  1  2  2  0  0  0  0
  1  3  1  0  0  0  0
  1  7  1  0  0  0  0
  3  4  1  0  0  0  0
  3  5  1  0  0  0  0
  3  6  1  0  0  0  0
  7  8  1  0  0  0  0
  7 12  1  0  0  0  0
  8  9  1  0  0  0  0
  8 11  1  0  0  0  0
  8 13  1  0  0  0  0
  9 10  2  0  0  0  0
  9 17  1  0  0  0  0
 11 14  1  0  0  0  0
 11 15  1  0  0  0  0
 11 16  1  0  0  0  0
 17 18  1  0  0  0  0
 17 23  1  0  0  0  0
 18 19  1  0  0  0  0
 18 21  1  0  0  0  0
 18 24  1  0  0  0  0
 19 20  2  0  0  0  0
 19 28  1  0  0  0  0
 21 22  1  0  0  0  0
 21 25  1  0  0  0  0
 21 26  1  0  0  0  0
 22 27  1  0  0  0  0
 28 29  1  0  0  0  0
 28 33  1  0  0  0  0
 29 30  1  0  0  0  0
 29 32  1  0  0  0  0
 29 34  1  0  0  0  0
 30 31  2  0  0  0  0
 30 38  1  0  0  0  0
 32 35  1  0  0  0  0
 32 36  1  0  0  0  0
 32 37  1  0  0  0  0
 38 39  1  0  0  0  0
 38 40  1  0  0  0  0
 39 41  1  0  0  0  0
 39 42  1  0  0  0  0
 39 43  1  0  0  0  0
M  END
$$$$

  -OEChem-05262216003D

 43 42  0     1  0  0  0  0  0999 V2000
   -3.5465   -5.2570    0.6927 C   0  0  0  0  0  0  0  0  0  0  0  0
   -2.6477   -6.0823    0.7340 O   0  0  0  0  0  0  0  0  0  0  0  0
   -4.9251   -5.6046    1.2217 C   0  0  0  0  0  0  0  0  0  0  0  0
   -5.6562   -5.5634    0.4108 H   0  0  0  0  0  0  0  0  0  0  0  0
   -4.9236   -6.6133    1.6440 H   0  0  0  0  0  0  0  0  0  0  0  0
   -5.2153   -4.8967    2.0019 H   0  0  0  0  0  0  0  0  0  0  0  0
   -3.3067   -4.0026    0.1733 N   0  0  0  0  0  0  0  0  0  0  0  0
   -1.9800   -3.5095   -0.2185 C   0  0  2  0  0  0  0  0  0  0  0  0
   -1.8366   -1.9922    0.0247 C   0  0  0  0  0  0  0  0  0  0  0  0
   -2.8350   -1.3181    0.2472 O   0  0  0  0  0  0  0  0  0  0  0  0
   -1.7603   -3.8347   -1.6990 C   0  0  0  0  0  0  0  0  0  0  0  0
   -4.0437   -3.3047    0.2716 H   0  0  0  0  0  0  0  0  0  0  0  0
   -1.2107   -4.0105    0.3786 H   0  0  0  0  0  0  0  0  0  0  0  0
   -2.5178   -3.3407   -2.3161 H   0  0  0  0  0  0  0  0  0  0  0  0
   -0.7722   -3.4966   -2.0259 H   0  0  0  0  0  0  0  0  0  0  0  0
   -1.8270   -4.9151   -1.8633 H   0  0  0  0  0  0  0  0  0  0  0  0
   -0.5755   -1.4254    0.1137 N   0  0  0  0  0  0  0  0  0  0  0  0
   -0.2280   -0.0121   -0.1831 C   0  0  2  0  0  0  0  0  0  0  0  0
    0.0056    0.7970    1.1127 C   0  0  0  0  0  0  0  0  0  0  0  0
   -0.1069    2.0165    1.1347 O   0  0  0  0  0  0  0  0  0  0  0  0
   -1.1568    0.7037   -1.1877 C   0  0  0  0  0  0  0  0  0  0  0  0
   -1.0121   -0.1010   -2.8384 S   0  0  0  0  0  0  0  0  0  0  0  0
    0.1699   -2.0943   -0.0613 H   0  0  0  0  0  0  0  0  0  0  0  0
    0.7523   -0.0306   -0.6680 H   0  0  0  0  0  0  0  0  0  0  0  0
   -2.1938    0.7201   -0.8444 H   0  0  0  0  0  0  0  0  0  0  0  0
   -0.8458    1.7487   -1.2915 H   0  0  0  0  0  0  0  0  0  0  0  0
   -1.9063    0.6249   -3.5454 H   0  0  0  0  0  0  0  0  0  0  0  0
    0.4895    0.1596    2.2388 N   0  0  0  0  0  0  0  0  0  0  0  0
    0.8535    0.8106    3.5020 C   0  0  2  0  0  0  0  0  0  0  0  0
    1.8544   -0.0474    4.3058 C   0  0  0  0  0  0  0  0  0  0  0  0
    2.0902   -1.2024    3.9649 O   0  0  0  0  0  0  0  0  0  0  0  0
   -0.4242    1.0463    4.3156 C   0  0  0  0  0  0  0  0  0  0  0  0
    0.6092   -0.8508    2.1884 H   0  0  0  0  0  0  0  0  0  0  0  0
    1.3347    1.7719    3.2926 H   0  0  0  0  0  0  0  0  0  0  0  0
   -0.9180    0.0941    4.5354 H   0  0  0  0  0  0  0  0  0  0  0  0
   -0.1926    1.5463    5.2607 H   0  0  0  0  0  0  0  0  0  0  0  0
   -1.1213    1.6778    3.7556 H   0  0  0  0  0  0  0  0  0  0  0  0
    2.5019    0.4780    5.4090 N   0  0  0  0  0  0  0  0  0  0  0  0
    3.4661   -0.2723    6.2050 C   0  0  0  0  0  0  0  0  0  0  0  0
    2.2969    1.4404    5.6620 H   0  0  0  0  0  0  0  0  0  0  0  0
    3.0156   -1.1959    6.5845 H   0  0  0  0  0  0  0  0  0  0  0  0
    4.3424   -0.5295    5.6007 H   0  0  0  0  0  0  0  0  0  0  0  0
    3.7974    0.3250    7.0601 H   0  0  0  0  0  0  0  0  0  0  0  0
  1  2  2  0  0  0  0
  1  3  1  0  0  0  0
  1  7  1  0  0  0  0
  3  4  1  0  0  0  0
  3  5  1  0  0  0  0
  3  6  1  0  0  0  0
  7  8  1  0  0  0  0
  7 12  1  0  0  0  0
  8  9  1  0  0  0  0
  8 11  1  0  0  0  0
  8 13  1  0  0  0  0
  9 10  2  0  0  0  0
  9 17  1  0  0  0  0
 11 14  1  0  0  0  0
 11 15  1  0  0  0  0
 11 16  1  0  0  0  0
 17 18  1  0  0  0  0
 17 23  1  0  0  0  0
 18 19  1  0  0  0  0
 18 21  1  0  0  0  0
 18 24  1  0  0  0  0
 19 20  2  0  0  0  0
 19 28  1  0  0  0  0
 21 22  1  0  0  0  0
 21 25  1  0  0  0  0
 21 26  1  0  0  0  0
 22 27  1  0  0  0  0
 28 29  1  0  0  0  0
 28 33  1  0  0  0  0
 29 30  1  0  0  0  0
 29 32  1  0  0  0  0
 29 34  1  0  0  0  0
 30 31  2  0  0  0  0
 30 38  1  0  0  0  0
 32 35  1  0  0  0  0
 32 36  1  0  0  0  0
 32 37  1  0  0  0  0
 38 39  1  0  0  0  0
 38 40  1  0  0  0  0
 39 41  1  0  0  0  0
 39 42  1  0  0  0  0
 39 43  1  0  0  0  0
M  END
$$$$

  -OEChem-05262216003D

 43 42  0     1  0  0  0  0  0999 V2000
   -3.5242   -5.2122    0.8076 C   0  0  0  0  0  0  0  0  0  0  0  0
   -2.6155   -6.0189    0.9263 O   0  0  0  0  0  0  0  0  0  0  0  0
   -4.9121   -5.5479    1.3200 C   0  0  0  0  0  0  0  0  0  0  0  0
   -5.6264   -5.5391    0.4931 H   0  0  0  0  0  0  0  0  0  0  0  0
   -4.9156   -6.5409    1.7785 H   0  0  0  0  0  0  0  0  0  0  0  0
   -5.2217   -4.8140    2.0681 H   0  0  0  0  0  0  0  0  0  0  0  0
   -3.2887   -3.9905    0.2139 N   0  0  0  0  0  0  0  0  0  0  0  0
   -1.9584   -3.4999   -0.1694 C   0  0  2  0  0  0  0  0  0  0  0  0
   -1.8302   -1.9744    0.0260 C   0  0  0  0  0  0  0  0  0  0  0  0
   -2.8377   -1.3044    0.2161 O   0  0  0  0  0  0  0  0  0  0  0  0
   -1.7108   -3.8723   -1.6343 C   0  0  0  0  0  0  0  0  0  0  0  0
   -4.0348   -3.2970    0.2600 H   0  0  0  0  0  0  0  0  0  0  0  0
   -1.1949   -3.9736    0.4572 H   0  0  0  0  0  0  0  0  0  0  0  0
   -2.4579   -3.4004   -2.2810 H   0  0  0  0  0  0  0  0  0  0  0  0
   -0.7174   -3.5431   -1.9535 H   0  0  0  0  0  0  0  0  0  0  0  0
   -1.7722   -4.9574   -1.7648 H   0  0  0  0  0  0  0  0  0  0  0  0
   -0.5724   -1.3977    0.0998 N   0  0  0  0  0  0  0  0  0  0  0  0
   -0.2290    0.0132   -0.2075 C   0  0  2  0  0  0  0  0  0  0  0  0
    0.0119    0.8229    1.0864 C   0  0  0  0  0  0  0  0  0  0  0  0
   -0.3454    1.9896    1.1948 O   0  0  0  0  0  0  0  0  0  0  0  0
   -1.1643    0.7249   -1.2081 C   0  0  0  0  0  0  0  0  0  0  0  0
   -1.0342   -0.0851   -2.8572 S   0  0  0  0  0  0  0  0  0  0  0  0
    0.1763   -2.0669   -0.0552 H   0  0  0  0  0  0  0  0  0  0  0  0
    0.7474   -0.0059   -0.7010 H   0  0  0  0  0  0  0  0  0  0  0  0
   -2.1985    0.7426   -0.8563 H   0  0  0  0  0  0  0  0  0  0  0  0
   -0.8529    1.7695   -1.3156 H   0  0  0  0  0  0  0  0  0  0  0  0
   -1.9383    0.6372   -3.5561 H   0  0  0  0  0  0  0  0  0  0  0  0
    0.7814    0.2756    2.0950 N   0  0  0  0  0  0  0  0  0  0  0  0
    1.1830    0.9586    3.3300 C   0  0  2  0  0  0  0  0  0  0  0  0
    2.4376    0.3026    3.9454 C   0  0  0  0  0  0  0  0  0  0  0  0
    2.8482   -0.7683    3.5091 O   0  0  0  0  0  0  0  0  0  0  0  0
    0.0131    0.9077    4.3195 C   0  0  0  0  0  0  0  0  0  0  0  0
    1.1227   -0.6750    1.9648 H   0  0  0  0  0  0  0  0  0  0  0  0
    1.4283    2.0027    3.1084 H   0  0  0  0  0  0  0  0  0  0  0  0
   -0.2454   -0.1304    4.5519 H   0  0  0  0  0  0  0  0  0  0  0  0
    0.2729    1.4196    5.2507 H   0  0  0  0  0  0  0  0  0  0  0  0
   -0.8683    1.3980    3.8942 H   0  0  0  0  0  0  0  0  0  0  0  0
    3.1126    0.9137    4.9861 N   0  0  0  0  0  0  0  0  0  0  0  0
    4.3039    0.3498    5.6095 C   0  0  0  0  0  0  0  0  0  0  0  0
    2.7562    1.8041    5.3210 H   0  0  0  0  0  0  0  0  0  0  0  0
    4.1010   -0.6584    5.9863 H   0  0  0  0  0  0  0  0  0  0  0  0
    5.1251    0.2975    4.8869 H   0  0  0  0  0  0  0  0  0  0  0  0
    4.6217    0.9729    6.4511 H   0  0  0  0  0  0  0  0  0  0  0  0
  1  2  2  0  0  0  0
  1  3  1  0  0  0  0
  1  7  1  0  0  0  0
  3  4  1  0  0  0  0
  3  5  1  0  0  0  0
  3  6  1  0  0  0  0
  7  8  1  0  0  0  0
  7 12  1  0  0  0  0
  8  9  1  0  0  0  0
  8 11  1  0  0  0  0
  8 13  1  0  0  0  0
  9 10  2  0  0  0  0
  9 17  1  0  0  0  0
 11 14  1  0  0  0  0
 11 15  1  0  0  0  0
 11 16  1  0  0  0  0
 17 18  1  0  0  0  0
 17 23  1  0  0  0  0
 18 19  1  0  0  0  0
 18 21  1  0  0  0  0
 18 24  1  0  0  0  0
 19 20  2  0  0  0  0
 19 28  1  0  0  0  0
 21 22  1  0  0  0  0
 21 25  1  0  0  0  0
 21 26  1  0  0  0  0
 22 27  1  0  0  0  0
 28 29  1  0  0  0  0
 28 33  1  0  0  0  0
 29 30  1  0  0  0  0
 29 32  1  0  0  0  0
 29 34  1  0  0  0  0
 30 31  2  0  0  0  0
 30 38  1  0  0  0  0
 32 35  1  0  0  0  0
 32 36  1  0  0  0  0
 32 37  1  0  0  0  0
 38 39  1  0  0  0  0
 38 40  1  0  0  0  0
 39 41  1  0  0  0  0
 39 42  1  0  0  0  0
 39 43  1  0  0  0  0
M  END
$$$$

  -OEChem-05262216003D

 43 42  0     1  0  0  0  0  0999 V2000
   -3.5162   -5.1826    0.8731 C   0  0  0  0  0  0  0  0  0  0  0  0
   -2.6079   -5.9864    1.0151 O   0  0  0  0  0  0  0  0  0  0  0  0
   -4.9081   -5.5083    1.3814 C   0  0  0  0  0  0  0  0  0  0  0  0
   -5.6187   -5.5038    0.5513 H   0  0  0  0  0  0  0  0  0  0  0  0
   -4.9173   -6.4972    1.8480 H   0  0  0  0  0  0  0  0  0  0  0  0
   -5.2185   -4.7673    2.1220 H   0  0  0  0  0  0  0  0  0  0  0  0
   -3.2747   -3.9723    0.2587 N   0  0  0  0  0  0  0  0  0  0  0  0
   -1.9428   -3.4918   -0.1308 C   0  0  2  0  0  0  0  0  0  0  0  0
   -1.8231   -1.9593    0.0076 C   0  0  0  0  0  0  0  0  0  0  0  0
   -2.8391   -1.2887    0.1403 O   0  0  0  0  0  0  0  0  0  0  0  0
   -1.6822   -3.9191   -1.5782 C   0  0  0  0  0  0  0  0  0  0  0  0
   -4.0220   -3.2787    0.2772 H   0  0  0  0  0  0  0  0  0  0  0  0
   -1.1846   -3.9387    0.5209 H   0  0  0  0  0  0  0  0  0  0  0  0
   -2.4267   -3.4747   -2.2468 H   0  0  0  0  0  0  0  0  0  0  0  0
   -0.6878   -3.5989   -1.9035 H   0  0  0  0  0  0  0  0  0  0  0  0
   -1.7399   -5.0087   -1.6671 H   0  0  0  0  0  0  0  0  0  0  0  0
   -0.5668   -1.3792    0.0878 N   0  0  0  0  0  0  0  0  0  0  0  0
   -0.2118    0.0283   -0.2183 C   0  0  2  0  0  0  0  0  0  0  0  0
    0.0228    0.8350    1.0782 C   0  0  0  0  0  0  0  0  0  0  0  0
   -0.5510    1.8953    1.2946 O   0  0  0  0  0  0  0  0  0  0  0  0
   -1.1357    0.7486   -1.2218 C   0  0  0  0  0  0  0  0  0  0  0  0
   -1.0037   -0.0618   -2.8707 S   0  0  0  0  0  0  0  0  0  0  0  0
    0.1888   -2.0503   -0.0145 H   0  0  0  0  0  0  0  0  0  0  0  0
    0.7651    0.0024   -0.7101 H   0  0  0  0  0  0  0  0  0  0  0  0
   -2.1713    0.7748   -0.8741 H   0  0  0  0  0  0  0  0  0  0  0  0
   -0.8146    1.7905   -1.3236 H   0  0  0  0  0  0  0  0  0  0  0  0
   -1.9126    0.6544   -3.5690 H   0  0  0  0  0  0  0  0  0  0  0  0
    1.0156    0.4357    1.9533 N   0  0  0  0  0  0  0  0  0  0  0  0
    1.4270    1.1619    3.1608 C   0  0  2  0  0  0  0  0  0  0  0  0
    2.8684    0.7904    3.5697 C   0  0  0  0  0  0  0  0  0  0  0  0
    3.4296   -0.1636    3.0399 O   0  0  0  0  0  0  0  0  0  0  0  0
    0.4455    0.8290    4.2904 C   0  0  0  0  0  0  0  0  0  0  0  0
    1.5525   -0.3969    1.7165 H   0  0  0  0  0  0  0  0  0  0  0  0
    1.4045    2.2397    2.9675 H   0  0  0  0  0  0  0  0  0  0  0  0
    0.4514   -0.2459    4.4984 H   0  0  0  0  0  0  0  0  0  0  0  0
    0.7164    1.3630    5.2061 H   0  0  0  0  0  0  0  0  0  0  0  0
   -0.5715    1.1231    4.0108 H   0  0  0  0  0  0  0  0  0  0  0  0
    3.5438    1.5317    4.5217 N   0  0  0  0  0  0  0  0  0  0  0  0
    4.9117    1.2459    4.9382 C   0  0  0  0  0  0  0  0  0  0  0  0
    3.0623    2.3297    4.9263 H   0  0  0  0  0  0  0  0  0  0  0  0
    4.9974    0.2145    5.2965 H   0  0  0  0  0  0  0  0  0  0  0  0
    5.6040    1.3869    4.1017 H   0  0  0  0  0  0  0  0  0  0  0  0
    5.2080    1.9174    5.7499 H   0  0  0  0  0  0  0  0  0  0  0  0
  1  2  2  0  0  0  0
  1  3  1  0  0  0  0
  1  7  1  0  0  0  0
  3  4  1  0  0  0  0
  3  5  1  0  0  0  0
  3  6  1  0  0  0  0
  7  8  1  0  0  0  0
  7 12  1  0  0  0  0
  8  9  1  0  0  0  0
  8 11  1  0  0  0  0
  8 13  1  0  0  0  0
  9 10  2  0  0  0  0
  9 17  1  0  0  0  0
 11 14  1  0  0  0  0
 11 15  1  0  0  0  0
 11 16  1  0  0  0  0
 17 18  1  0  0  0  0
 17 23  1  0  0  0  0
 18 19  1  0  0  0  0
 18 21  1  0  0  0  0
 18 24  1  0  0  0  0
 19 20  2  0  0  0  0
 19 28  1  0  0  0  0
 21 22  1  0  0  0  0
 21 25  1  0  0  0  0
 21 26  1  0  0  0  0
 22 27  1  0  0  0  0
 28 29  1  0  0  0  0
 28 33  1  0  0  0  0
 29 30  1  0  0  0  0
 29 32  1  0  0  0  0
 29 34  1  0  0  0  0
 30 31  2  0  0  0  0
 30 38  1  0  0  0  0
 32 35  1  0  0  0  0
 32 36  1  0  0  0  0
 32 37  1  0  0  0  0
 38 39  1  0  0  0  0
 38 40  1  0  0  0  0
 39 41  1  0  0  0  0
 39 42  1  0  0  0  0
 39 43  1  0  0  0  0
M  END
$$$$

  -OEChem-05262216003D

 43 42  0     1  0  0  0  0  0999 V2000
   -3.5031   -5.1382    0.9514 C   0  0  0  0  0  0  0  0  0  0  0  0
   -2.5914   -5.9176    1.1804 O   0  0  0  0  0  0  0  0  0  0  0  0
   -4.9100   -5.4509    1.4242 C   0  0  0  0  0  0  0  0  0  0  0  0
   -5.5914   -5.4816    0.5705 H   0  0  0  0  0  0  0  0  0  0  0  0
   -4.9311   -6.4218    1.9273 H   0  0  0  0  0  0  0  0  0  0  0  0
   -5.2480   -4.6831    2.1246 H   0  0  0  0  0  0  0  0  0  0  0  0
   -3.2526   -3.9669    0.2695 N   0  0  0  0  0  0  0  0  0  0  0  0
   -1.9104   -3.4886   -0.0848 C   0  0  2  0  0  0  0  0  0  0  0  0
   -1.8163   -1.9491   -0.0341 C   0  0  0  0  0  0  0  0  0  0  0  0
   -2.8478   -1.2912    0.0102 O   0  0  0  0  0  0  0  0  0  0  0  0
   -1.5725   -3.9967   -1.4895 C   0  0  0  0  0  0  0  0  0  0  0  0
   -4.0083   -3.2840    0.2164 H   0  0  0  0  0  0  0  0  0  0  0  0
   -1.1798   -3.8838    0.6291 H   0  0  0  0  0  0  0  0  0  0  0  0
   -2.2908   -3.6088   -2.2192 H   0  0  0  0  0  0  0  0  0  0  0  0
   -0.5695   -3.6752   -1.7852 H   0  0  0  0  0  0  0  0  0  0  0  0
   -1.6055   -5.0906   -1.5146 H   0  0  0  0  0  0  0  0  0  0  0  0
   -0.5673   -1.3527    0.0493 N   0  0  0  0  0  0  0  0  0  0  0  0
   -0.2093    0.0566   -0.2427 C   0  0  2  0  0  0  0  0  0  0  0  0
    0.0225    0.8473    1.0628 C   0  0  0  0  0  0  0  0  0  0  0  0
   -0.7363    1.7386    1.4222 O   0  0  0  0  0  0  0  0  0  0  0  0
   -1.1359    0.8000   -1.2251 C   0  0  0  0  0  0  0  0  0  0  0  0
   -1.0275    0.0160   -2.8881 S   0  0  0  0  0  0  0  0  0  0  0  0
    0.2002   -2.0171    0.0296 H   0  0  0  0  0  0  0  0  0  0  0  0
    0.7631    0.0357   -0.7436 H   0  0  0  0  0  0  0  0  0  0  0  0
   -2.1680    0.8268   -0.8663 H   0  0  0  0  0  0  0  0  0  0  0  0
   -0.8092    1.8417   -1.3092 H   0  0  0  0  0  0  0  0  0  0  0  0
   -1.9851    0.7069   -3.5456 H   0  0  0  0  0  0  0  0  0  0  0  0
    1.1870    0.6467    1.7810 N   0  0  0  0  0  0  0  0  0  0  0  0
    1.5976    1.4240    2.9569 C   0  0  2  0  0  0  0  0  0  0  0  0
    3.1292    1.3846    3.1435 C   0  0  0  0  0  0  0  0  0  0  0  0
    3.8080    0.6108    2.4757 O   0  0  0  0  0  0  0  0  0  0  0  0
    0.8906    0.8534    4.1916 C   0  0  0  0  0  0  0  0  0  0  0  0
    1.8745   -0.0050    1.4051 H   0  0  0  0  0  0  0  0  0  0  0  0
    1.3079    2.4720    2.8247 H   0  0  0  0  0  0  0  0  0  0  0  0
    1.1656   -0.1958    4.3398 H   0  0  0  0  0  0  0  0  0  0  0  0
    1.1667    1.4154    5.0885 H   0  0  0  0  0  0  0  0  0  0  0  0
   -0.1958    0.9141    4.0698 H   0  0  0  0  0  0  0  0  0  0  0  0
    3.7500    2.2234    4.0504 N   0  0  0  0  0  0  0  0  0  0  0  0
    5.1924    2.2466    4.2627 C   0  0  0  0  0  0  0  0  0  0  0  0
    3.1649    2.8701    4.5718 H   0  0  0  0  0  0  0  0  0  0  0  0
    5.5631    1.2434    4.4992 H   0  0  0  0  0  0  0  0  0  0  0  0
    5.7049    2.6092    3.3655 H   0  0  0  0  0  0  0  0  0  0  0  0
    5.4419    2.9095    5.0970 H   0  0  0  0  0  0  0  0  0  0  0  0
  1  2  2  0  0  0  0
  1  3  1  0  0  0  0
  1  7  1  0  0  0  0
  3  4  1  0  0  0  0
  3  5  1  0  0  0  0
  3  6  1  0  0  0  0
  7  8  1  0  0  0  0
  7 12  1  0  0  0  0
  8  9  1  0  0  0  0
  8 11  1  0  0  0  0
  8 13  1  0  0  0  0
  9 10  2  0  0  0  0
  9 17  1  0  0  0  0
 11 14  1  0  0  0  0
 11 15  1  0  0  0  0
 11 16  1  0  0  0  0
 17 18  1  0  0  0  0
 17 23  1  0  0  0  0
 18 19  1  0  0  0  0
 18 21  1  0  0  0  0
 18 24  1  0  0  0  0
 19 20  2  0  0  0  0
 19 28  1  0  0  0  0
 21 22  1  0  0  0  0
 21 25  1  0  0  0  0
 21 26  1  0  0  0  0
 22 27  1  0  0  0  0
 28 29  1  0  0  0  0
 28 33  1  0  0  0  0
 29 30  1  0  0  0  0
 29 32  1  0  0  0  0
 29 34  1  0  0  0  0
 30 31  2  0  0  0  0
 30 38  1  0  0  0  0
 32 35  1  0  0  0  0
 32 36  1  0  0  0  0
 32 37  1  0  0  0  0
 38 39  1  0  0  0  0
 38 40  1  0  0  0  0
 39 41  1  0  0  0  0
 39 42  1  0  0  0  0
 39 43  1  0  0  0  0
M  END
$$$$

  -OEChem-05262216003D

 43 42  0     1  0  0  0  0  0999 V2000
   -3.4838   -5.0911    1.0182 C   0  0  0  0  0  0  0  0  0  0  0  0
   -2.5767   -5.8455    1.3336 O   0  0  0  0  0  0  0  0  0  0  0  0
   -4.9085   -5.3897    1.4458 C   0  0  0  0  0  0  0  0  0  0  0  0
   -5.5481   -5.4890    0.5654 H   0  0  0  0  0  0  0  0  0  0  0  0
   -4.9442   -6.3230    2.0150 H   0  0  0  0  0  0  0  0  0  0  0  0
   -5.2876   -4.5793    2.0735 H   0  0  0  0  0  0  0  0  0  0  0  0
   -3.2138   -3.9585    0.2804 N   0  0  0  0  0  0  0  0  0  0  0  0
   -1.8627   -3.4818   -0.0409 C   0  0  2  0  0  0  0  0  0  0  0  0
   -1.7973   -1.9403   -0.0924 C   0  0  0  0  0  0  0  0  0  0  0  0
   -2.8437   -1.3061   -0.1341 O   0  0  0  0  0  0  0  0  0  0  0  0
   -1.4476   -4.0812   -1.3879 C   0  0  0  0  0  0  0  0  0  0  0  0
   -3.9720   -3.2871    0.1588 H   0  0  0  0  0  0  0  0  0  0  0  0
   -1.1622   -3.8124    0.7334 H   0  0  0  0  0  0  0  0  0  0  0  0
   -2.1343   -3.7585   -2.1775 H   0  0  0  0  0  0  0  0  0  0  0  0
   -0.4353   -3.7645   -1.6565 H   0  0  0  0  0  0  0  0  0  0  0  0
   -1.4634   -5.1747   -1.3364 H   0  0  0  0  0  0  0  0  0  0  0  0
   -0.5594   -1.3194   -0.0108 N   0  0  0  0  0  0  0  0  0  0  0  0
   -0.2141    0.0983   -0.2771 C   0  0  2  0  0  0  0  0  0  0  0  0
    0.0225    0.8668    1.0397 C   0  0  0  0  0  0  0  0  0  0  0  0
   -0.8633    1.5256    1.5683 O   0  0  0  0  0  0  0  0  0  0  0  0
   -1.1574    0.8677   -1.2215 C   0  0  0  0  0  0  0  0  0  0  0  0
   -1.0836    0.1346   -2.9092 S   0  0  0  0  0  0  0  0  0  0  0  0
    0.2213   -1.9661    0.0480 H   0  0  0  0  0  0  0  0  0  0  0  0
    0.7496    0.0917   -0.7942 H   0  0  0  0  0  0  0  0  0  0  0  0
   -2.1823    0.8799   -0.8417 H   0  0  0  0  0  0  0  0  0  0  0  0
   -0.8353    1.9124   -1.2803 H   0  0  0  0  0  0  0  0  0  0  0  0
   -2.0898    0.8083   -3.5091 H   0  0  0  0  0  0  0  0  0  0  0  0
    1.2924    0.9141    1.5841 N   0  0  0  0  0  0  0  0  0  0  0  0
    1.6790    1.7176    2.7506 C   0  0  2  0  0  0  0  0  0  0  0  0
    3.1911    2.0262    2.7359 C   0  0  0  0  0  0  0  0  0  0  0  0
    3.9260    1.4479    1.9415 O   0  0  0  0  0  0  0  0  0  0  0  0
    1.2998    0.9500    4.0221 C   0  0  0  0  0  0  0  0  0  0  0  0
    2.0520    0.4715    1.0679 H   0  0  0  0  0  0  0  0  0  0  0  0
    1.1464    2.6746    2.7314 H   0  0  0  0  0  0  0  0  0  0  0  0
    1.8273   -0.0084    4.0616 H   0  0  0  0  0  0  0  0  0  0  0  0
    1.5597    1.5285    4.9135 H   0  0  0  0  0  0  0  0  0  0  0  0
    0.2226    0.7554    4.0427 H   0  0  0  0  0  0  0  0  0  0  0  0
    3.7285    2.9612    3.6012 N   0  0  0  0  0  0  0  0  0  0  0  0
    5.1452    3.3048    3.6279 C   0  0  0  0  0  0  0  0  0  0  0  0
    3.0951    3.4329    4.2404 H   0  0  0  0  0  0  0  0  0  0  0  0
    5.7503    2.4200    3.8531 H   0  0  0  0  0  0  0  0  0  0  0  0
    5.4590    3.7096    2.6599 H   0  0  0  0  0  0  0  0  0  0  0  0
    5.3373    4.0593    4.3969 H   0  0  0  0  0  0  0  0  0  0  0  0
  1  2  2  0  0  0  0
  1  3  1  0  0  0  0
  1  7  1  0  0  0  0
  3  4  1  0  0  0  0
  3  5  1  0  0  0  0
  3  6  1  0  0  0  0
  7  8  1  0  0  0  0
  7 12  1  0  0  0  0
  8  9  1  0  0  0  0
  8 11  1  0  0  0  0
  8 13  1  0  0  0  0
  9 10  2  0  0  0  0
  9 17  1  0  0  0  0
 11 14  1  0  0  0  0
 11 15  1  0  0  0  0
 11 16  1  0  0  0  0
 17 18  1  0  0  0  0
 17 23  1  0  0  0  0
 18 19  1  0  0  0  0
 18 21  1  0  0  0  0
 18 24  1  0  0  0  0
 19 20  2  0  0  0  0
 19 28  1  0  0  0  0
 21 22  1  0  0  0  0
 21 25  1  0  0  0  0
 21 26  1  0  0  0  0
 22 27  1  0  0  0  0
 28 29  1  0  0  0  0
 28 33  1  0  0  0  0
 29 30  1  0  0  0  0
 29 32  1  0  0  0  0
 29 34  1  0  0  0  0
 30 31  2  0  0  0  0
 30 38  1  0  0  0  0
 32 35  1  0  0  0  0
 32 36  1  0  0  0  0
 32 37  1  0  0  0  0
 38 39  1  0  0  0  0
 38 40  1  0  0  0  0
 39 41  1  0  0  0  0
 39 42  1  0  0  0  0
 39 43  1  0  0  0  0
M  END
$$$$

  -OEChem-05262216003D

 43 42  0     1  0  0  0  0  0999 V2000
   -3.4912   -5.0456    1.0581 C   0  0  0  0  0  0  0  0  0  0  0  0
   -2.5907   -5.7870    1.4200 O   0  0  0  0  0  0  0  0  0  0  0  0
   -4.9243   -5.3327    1.4640 C   0  0  0  0  0  0  0  0  0  0  0  0
   -5.5512   -5.4317    0.5747 H   0  0  0  0  0  0  0  0  0  0  0  0
   -4.9751   -6.2630    2.0364 H   0  0  0  0  0  0  0  0  0  0  0  0
   -5.3068   -4.5171    2.0824 H   0  0  0  0  0  0  0  0  0  0  0  0
   -3.2044   -3.9387    0.2885 N   0  0  0  0  0  0  0  0  0  0  0  0
   -1.8454   -3.4705   -0.0108 C   0  0  2  0  0  0  0  0  0  0  0  0
   -1.7830   -1.9334   -0.1410 C   0  0  0  0  0  0  0  0  0  0  0  0
   -2.8293   -1.3099   -0.2670 O   0  0  0  0  0  0  0  0  0  0  0  0
   -1.3788   -4.1373   -1.3083 C   0  0  0  0  0  0  0  0  0  0  0  0
   -3.9605   -3.2749    0.1202 H   0  0  0  0  0  0  0  0  0  0  0  0
   -1.1726   -3.7555    0.8050 H   0  0  0  0  0  0  0  0  0  0  0  0
   -2.0408   -3.8654   -2.1367 H   0  0  0  0  0  0  0  0  0  0  0  0
   -0.3612   -3.8238   -1.5593 H   0  0  0  0  0  0  0  0  0  0  0  0
   -1.3872   -5.2263   -1.1984 H   0  0  0  0  0  0  0  0  0  0  0  0
   -0.5467   -1.3089   -0.0563 N   0  0  0  0  0  0  0  0  0  0  0  0
   -0.1960    0.1100   -0.3070 C   0  0  2  0  0  0  0  0  0  0  0  0
    0.0469    0.8694    1.0133 C   0  0  0  0  0  0  0  0  0  0  0  0
   -0.8827    1.2442    1.7147 O   0  0  0  0  0  0  0  0  0  0  0  0
   -1.1401    0.9028   -1.2286 C   0  0  0  0  0  0  0  0  0  0  0  0
   -1.0874    0.1943   -2.9282 S   0  0  0  0  0  0  0  0  0  0  0  0
    0.2305   -1.9457    0.0887 H   0  0  0  0  0  0  0  0  0  0  0  0
    0.7630    0.0998   -0.8325 H   0  0  0  0  0  0  0  0  0  0  0  0
   -2.1609    0.9162   -0.8372 H   0  0  0  0  0  0  0  0  0  0  0  0
   -0.8107    1.9458   -1.2752 H   0  0  0  0  0  0  0  0  0  0  0  0
   -2.1255    0.8457   -3.4972 H   0  0  0  0  0  0  0  0  0  0  0  0
    1.3363    1.1832    1.4020 N   0  0  0  0  0  0  0  0  0  0  0  0
    1.6823    2.0155    2.5616 C   0  0  2  0  0  0  0  0  0  0  0  0
    3.0490    2.7053    2.3623 C   0  0  0  0  0  0  0  0  0  0  0  0
    3.7689    2.3757    1.4252 O   0  0  0  0  0  0  0  0  0  0  0  0
    1.7024    1.1306    3.8132 C   0  0  0  0  0  0  0  0  0  0  0  0
    2.0934    0.9875    0.7471 H   0  0  0  0  0  0  0  0  0  0  0  0
    0.9316    2.8033    2.6869 H   0  0  0  0  0  0  0  0  0  0  0  0
    2.4479    0.3358    3.7082 H   0  0  0  0  0  0  0  0  0  0  0  0
    1.9462    1.7232    4.7000 H   0  0  0  0  0  0  0  0  0  0  0  0
    0.7217    0.6695    3.9688 H   0  0  0  0  0  0  0  0  0  0  0  0
    3.4674    3.7059    3.2199 N   0  0  0  0  0  0  0  0  0  0  0  0
    4.7364    4.4087    3.0710 C   0  0  0  0  0  0  0  0  0  0  0  0
    2.8412    3.9742    3.9738 H   0  0  0  0  0  0  0  0  0  0  0  0
    5.5713    3.7000    3.0845 H   0  0  0  0  0  0  0  0  0  0  0  0
    4.7600    4.9632    2.1268 H   0  0  0  0  0  0  0  0  0  0  0  0
    4.8746    5.1187    3.8921 H   0  0  0  0  0  0  0  0  0  0  0  0
  1  2  2  0  0  0  0
  1  3  1  0  0  0  0
  1  7  1  0  0  0  0
  3  4  1  0  0  0  0
  3  5  1  0  0  0  0
  3  6  1  0  0  0  0
  7  8  1  0  0  0  0
  7 12  1  0  0  0  0
  8  9  1  0  0  0  0
  8 11  1  0  0  0  0
  8 13  1  0  0  0  0
  9 10  2  0  0  0  0
  9 17  1  0  0  0  0
 11 14  1  0  0  0  0
 11 15  1  0  0  0  0
 11 16  1  0  0  0  0
 17 18  1  0  0  0  0
 17 23  1  0  0  0  0
 18 19  1  0  0  0  0
 18 21  1  0  0  0  0
 18 24  1  0  0  0  0
 19 20  2  0  0  0  0
 19 28  1  0  0  0  0
 21 22  1  0  0  0  0
 21 25  1  0  0  0  0
 21 26  1  0  0  0  0
 22 27  1  0  0  0  0
 28 29  1  0  0  0  0
 28 33  1  0  0  0  0
 29 30  1  0  0  0  0
 29 32  1  0  0  0  0
 29 34  1  0  0  0  0
 30 31  2  0  0  0  0
 30 38  1  0  0  0  0
 32 35  1  0  0  0  0
 32 36  1  0  0  0  0
 32 37  1  0  0  0  0
 38 39  1  0  0  0  0
 38 40  1  0  0  0  0
 39 41  1  0  0  0  0
 39 42  1  0  0  0  0
 39 43  1  0  0  0  0
M  END
$$$$

  -OEChem-05262216003D

 43 42  0     1  0  0  0  0  0999 V2000
   -3.4542   -5.0346    1.0984 C   0  0  0  0  0  0  0  0  0  0  0  0
   -2.5528   -5.7518    1.5043 O   0  0  0  0  0  0  0  0  0  0  0  0
   -4.8950   -5.3436    1.4592 C   0  0  0  0  0  0  0  0  0  0  0  0
   -5.4680   -5.5579    0.5539 H   0  0  0  0  0  0  0  0  0  0  0  0
   -4.9397   -6.2138    2.1203 H   0  0  0  0  0  0  0  0  0  0  0  0
   -5.3431   -4.4890    1.9720 H   0  0  0  0  0  0  0  0  0  0  0  0
   -3.1627   -3.9374    0.3170 N   0  0  0  0  0  0  0  0  0  0  0  0
   -1.8040   -3.4500    0.0492 C   0  0  2  0  0  0  0  0  0  0  0  0
   -1.7732   -1.9204   -0.1583 C   0  0  0  0  0  0  0  0  0  0  0  0
   -2.8303   -1.3304   -0.3438 O   0  0  0  0  0  0  0  0  0  0  0  0
   -1.2674   -4.1678   -1.1932 C   0  0  0  0  0  0  0  0  0  0  0  0
   -3.9252   -3.2935    0.1062 H   0  0  0  0  0  0  0  0  0  0  0  0
   -1.1600   -3.6767    0.9055 H   0  0  0  0  0  0  0  0  0  0  0  0
   -1.8974   -3.9494   -2.0617 H   0  0  0  0  0  0  0  0  0  0  0  0
   -0.2459   -3.8444   -1.4144 H   0  0  0  0  0  0  0  0  0  0  0  0
   -1.2580   -5.2506   -1.0321 H   0  0  0  0  0  0  0  0  0  0  0  0
   -0.5522   -1.2650   -0.0880 N   0  0  0  0  0  0  0  0  0  0  0  0
   -0.2353    0.1598   -0.3514 C   0  0  2  0  0  0  0  0  0  0  0  0
    0.0028    0.9453    0.9538 C   0  0  0  0  0  0  0  0  0  0  0  0
   -0.8646    1.0322    1.8121 O   0  0  0  0  0  0  0  0  0  0  0  0
   -1.1990    0.9328   -1.2676 C   0  0  0  0  0  0  0  0  0  0  0  0
   -1.1479    0.2219   -2.9656 S   0  0  0  0  0  0  0  0  0  0  0  0
    0.2345   -1.8708    0.1227 H   0  0  0  0  0  0  0  0  0  0  0  0
    0.7202    0.1586   -0.8832 H   0  0  0  0  0  0  0  0  0  0  0  0
   -2.2164    0.9254   -0.8668 H   0  0  0  0  0  0  0  0  0  0  0  0
   -0.8907    1.9820   -1.3193 H   0  0  0  0  0  0  0  0  0  0  0  0
   -2.2189    0.8321   -3.5187 H   0  0  0  0  0  0  0  0  0  0  0  0
    1.2201    1.5621    1.1760 N   0  0  0  0  0  0  0  0  0  0  0  0
    1.5364    2.4010    2.3392 C   0  0  2  0  0  0  0  0  0  0  0  0
    2.6953    3.3713    2.0238 C   0  0  0  0  0  0  0  0  0  0  0  0
    3.2876    3.2882    0.9527 O   0  0  0  0  0  0  0  0  0  0  0  0
    1.9023    1.4920    3.5185 C   0  0  0  0  0  0  0  0  0  0  0  0
    1.8894    1.5899    0.4062 H   0  0  0  0  0  0  0  0  0  0  0  0
    0.6619    3.0053    2.6036 H   0  0  0  0  0  0  0  0  0  0  0  0
    2.7798    0.8844    3.2752 H   0  0  0  0  0  0  0  0  0  0  0  0
    2.1255    2.0871    4.4087 H   0  0  0  0  0  0  0  0  0  0  0  0
    1.0703    0.8218    3.7562 H   0  0  0  0  0  0  0  0  0  0  0  0
    3.0758    4.3405    2.9336 N   0  0  0  0  0  0  0  0  0  0  0  0
    4.1755    5.2687    2.6994 C   0  0  0  0  0  0  0  0  0  0  0  0
    2.5702    4.3871    3.8136 H   0  0  0  0  0  0  0  0  0  0  0  0
    5.1065    4.7211    2.5175 H   0  0  0  0  0  0  0  0  0  0  0  0
    3.9645    5.9024    1.8316 H   0  0  0  0  0  0  0  0  0  0  0  0
    4.3193    5.9138    3.5716 H   0  0  0  0  0  0  0  0  0  0  0  0
  1  2  2  0  0  0  0
  1  3  1  0  0  0  0
  1  7  1  0  0  0  0
  3  4  1  0  0  0  0
  3  5  1  0  0  0  0
  3  6  1  0  0  0  0
  7  8  1  0  0  0  0
  7 12  1  0  0  0  0
  8  9  1  0  0  0  0
  8 11  1  0  0  0  0
  8 13  1  0  0  0  0
  9 10  2  0  0  0  0
  9 17  1  0  0  0  0
 11 14  1  0  0  0  0
 11 15  1  0  0  0  0
 11 16  1  0  0  0  0
 17 18  1  0  0  0  0
 17 23  1  0  0  0  0
 18 19  1  0  0  0  0
 18 21  1  0  0  0  0
 18 24  1  0  0  0  0
 19 20  2  0  0  0  0
 19 28  1  0  0  0  0
 21 22  1  0  0  0  0
 21 25  1  0  0  0  0
 21 26  1  0  0  0  0
 22 27  1  0  0  0  0
 28 29  1  0  0  0  0
 28 33  1  0  0  0  0
 29 30  1  0  0  0  0
 29 32  1  0  0  0  0
 29 34  1  0  0  0  0
 30 31  2  0  0  0  0
 30 38  1  0  0  0  0
 32 35  1  0  0  0  0
 32 36  1  0  0  0  0
 32 37  1  0  0  0  0
 38 39  1  0  0  0  0
 38 40  1  0  0  0  0
 39 41  1  0  0  0  0
 39 42  1  0  0  0  0
 39 43  1  0  0  0  0
M  END
$$$$

  -OEChem-05262216003D

 43 42  0     1  0  0  0  0  0999 V2000
   -3.5390   -4.9515    1.1100 C   0  0  0  0  0  0  0  0  0  0  0  0
   -2.6737   -5.6830    1.5656 O   0  0  0  0  0  0  0  0  0  0  0  0
   -4.9984   -5.1992    1.4418 C   0  0  0  0  0  0  0  0  0  0  0  0
   -5.5818   -5.2855    0.5219 H   0  0  0  0  0  0  0  0  0  0  0  0
   -5.1031   -6.1254    2.0136 H   0  0  0  0  0  0  0  0  0  0  0  0
   -5.3900   -4.3708    2.0373 H   0  0  0  0  0  0  0  0  0  0  0  0
   -3.1905   -3.8883    0.3053 N   0  0  0  0  0  0  0  0  0  0  0  0
   -1.8110   -3.4468    0.0653 C   0  0  2  0  0  0  0  0  0  0  0  0
   -1.7361   -1.9276   -0.2026 C   0  0  0  0  0  0  0  0  0  0  0  0
   -2.7731   -1.3206   -0.4434 O   0  0  0  0  0  0  0  0  0  0  0  0
   -1.2502   -4.2287   -1.1273 C   0  0  0  0  0  0  0  0  0  0  0  0
   -3.9270   -3.2306    0.0497 H   0  0  0  0  0  0  0  0  0  0  0  0
   -1.2026   -3.6534    0.9525 H   0  0  0  0  0  0  0  0  0  0  0  0
   -1.8430   -4.0310   -2.0263 H   0  0  0  0  0  0  0  0  0  0  0  0
   -0.2130   -3.9415   -1.3242 H   0  0  0  0  0  0  0  0  0  0  0  0
   -1.2758   -5.3036   -0.9224 H   0  0  0  0  0  0  0  0  0  0  0  0
   -0.5025   -1.2977   -0.1202 N   0  0  0  0  0  0  0  0  0  0  0  0
   -0.1581    0.1261   -0.3545 C   0  0  2  0  0  0  0  0  0  0  0  0
    0.0975    0.8844    0.9641 C   0  0  0  0  0  0  0  0  0  0  0  0
   -0.5972    0.6950    1.9538 O   0  0  0  0  0  0  0  0  0  0  0  0
   -1.1006    0.9417   -1.2568 C   0  0  0  0  0  0  0  0  0  0  0  0
   -1.0634    0.2732   -2.9726 S   0  0  0  0  0  0  0  0  0  0  0  0
    0.2536   -1.8992    0.1910 H   0  0  0  0  0  0  0  0  0  0  0  0
    0.7998    0.1122   -0.8821 H   0  0  0  0  0  0  0  0  0  0  0  0
   -2.1189    0.9483   -0.8584 H   0  0  0  0  0  0  0  0  0  0  0  0
   -0.7688    1.9845   -1.2852 H   0  0  0  0  0  0  0  0  0  0  0  0
   -2.1163    0.9242   -3.5142 H   0  0  0  0  0  0  0  0  0  0  0  0
    1.1873    1.7276    1.0732 N   0  0  0  0  0  0  0  0  0  0  0  0
    1.4619    2.5830    2.2354 C   0  0  2  0  0  0  0  0  0  0  0  0
    2.1608    3.8913    1.8079 C   0  0  0  0  0  0  0  0  0  0  0  0
    2.5652    4.0189    0.6568 O   0  0  0  0  0  0  0  0  0  0  0  0
    2.3317    1.7965    3.2215 C   0  0  0  0  0  0  0  0  0  0  0  0
    1.6847    1.9671    0.2149 H   0  0  0  0  0  0  0  0  0  0  0  0
    0.5217    2.8596    2.7249 H   0  0  0  0  0  0  0  0  0  0  0  0
    3.2804    1.5142    2.7538 H   0  0  0  0  0  0  0  0  0  0  0  0
    2.5457    2.3962    4.1113 H   0  0  0  0  0  0  0  0  0  0  0  0
    1.8147    0.8852    3.5391 H   0  0  0  0  0  0  0  0  0  0  0  0
    2.3208    4.9332    2.7027 N   0  0  0  0  0  0  0  0  0  0  0  0
    2.9438    6.2030    2.3479 C   0  0  0  0  0  0  0  0  0  0  0  0
    1.9508    4.8112    3.6411 H   0  0  0  0  0  0  0  0  0  0  0  0
    3.9477    6.0390    1.9418 H   0  0  0  0  0  0  0  0  0  0  0  0
    2.3420    6.7281    1.5986 H   0  0  0  0  0  0  0  0  0  0  0  0
    3.0311    6.8416    3.2320 H   0  0  0  0  0  0  0  0  0  0  0  0
  1  2  2  0  0  0  0
  1  3  1  0  0  0  0
  1  7  1  0  0  0  0
  3  4  1  0  0  0  0
  3  5  1  0  0  0  0
  3  6  1  0  0  0  0
  7  8  1  0  0  0  0
  7 12  1  0  0  0  0
  8  9  1  0  0  0  0
  8 11  1  0  0  0  0
  8 13  1  0  0  0  0
  9 10  2  0  0  0  0
  9 17  1  0  0  0  0
 11 14  1  0  0  0  0
 11 15  1  0  0  0  0
 11 16  1  0  0  0  0
 17 18  1  0  0  0  0
 17 23  1  0  0  0  0
 18 19  1  0  0  0  0
 18 21  1  0  0  0  0
 18 24  1  0  0  0  0
 19 20  2  0  0  0  0
 19 28  1  0  0  0  0
 21 22  1  0  0  0  0
 21 25  1  0  0  0  0
 21 26  1  0  0  0  0
 22 27  1  0  0  0  0
 28 29  1  0  0  0  0
 28 33  1  0  0  0  0
 29 30  1  0  0  0  0
 29 32  1  0  0  0  0
 29 34  1  0  0  0  0
 30 31  2  0  0  0  0
 30 38  1  0  0  0  0
 32 35  1  0  0  0  0
 32 36  1  0  0  0  0
 32 37  1  0  0  0  0
 38 39  1  0  0  0  0
 38 40  1  0  0  0  0
 39 41  1  0  0  0  0
 39 42  1  0  0  0  0
 39 43  1  0  0  0  0
M  END
$$$$

  -OEChem-05262216003D

 43 42  0     1  0  0  0  0  0999 V2000
   -3.5285   -4.9419    1.1175 C   0  0  0  0  0  0  0  0  0  0  0  0
   -2.6661   -5.6602    1.5988 O   0  0  0  0  0  0  0  0  0  0  0  0
   -4.9932   -5.2062    1.4108 C   0  0  0  0  0  0  0  0  0  0  0  0
   -5.5401   -5.3494    0.4758 H   0  0  0  0  0  0  0  0  0  0  0  0
   -5.0998   -6.1059    2.0231 H   0  0  0  0  0  0  0  0  0  0  0  0
   -5.4234   -4.3590    1.9506 H   0  0  0  0  0  0  0  0  0  0  0  0
   -3.1736   -3.8827    0.3107 N   0  0  0  0  0  0  0  0  0  0  0  0
   -1.7942   -3.4293    0.0950 C   0  0  2  0  0  0  0  0  0  0  0  0
   -1.7326   -1.9158   -0.2056 C   0  0  0  0  0  0  0  0  0  0  0  0
   -2.7745   -1.3216   -0.4577 O   0  0  0  0  0  0  0  0  0  0  0  0
   -1.1931   -4.2320   -1.0643 C   0  0  0  0  0  0  0  0  0  0  0  0
   -3.9111   -3.2350    0.0340 H   0  0  0  0  0  0  0  0  0  0  0  0
   -1.2062   -3.6061    1.0022 H   0  0  0  0  0  0  0  0  0  0  0  0
   -1.7637   -4.0612   -1.9830 H   0  0  0  0  0  0  0  0  0  0  0  0
   -0.1540   -3.9380   -1.2400 H   0  0  0  0  0  0  0  0  0  0  0  0
   -1.2129   -5.3025   -0.8361 H   0  0  0  0  0  0  0  0  0  0  0  0
   -0.5068   -1.2714   -0.1283 N   0  0  0  0  0  0  0  0  0  0  0  0
   -0.1784    0.1563   -0.3628 C   0  0  2  0  0  0  0  0  0  0  0  0
    0.0760    0.9238    0.9517 C   0  0  0  0  0  0  0  0  0  0  0  0
   -0.3846    0.5377    2.0186 O   0  0  0  0  0  0  0  0  0  0  0  0
   -1.1274    0.9564   -1.2749 C   0  0  0  0  0  0  0  0  0  0  0  0
   -1.0655    0.2798   -2.9864 S   0  0  0  0  0  0  0  0  0  0  0  0
    0.2479   -1.8525    0.2229 H   0  0  0  0  0  0  0  0  0  0  0  0
    0.7822    0.1511   -0.8860 H   0  0  0  0  0  0  0  0  0  0  0  0
   -2.1495    0.9490   -0.8861 H   0  0  0  0  0  0  0  0  0  0  0  0
   -0.8130    2.0047   -1.3073 H   0  0  0  0  0  0  0  0  0  0  0  0
   -2.1224    0.9116   -3.5419 H   0  0  0  0  0  0  0  0  0  0  0  0
    0.9496    1.9950    0.9587 N   0  0  0  0  0  0  0  0  0  0  0  0
    1.1936    2.8638    2.1173 C   0  0  2  0  0  0  0  0  0  0  0  0
    1.5196    4.3041    1.6663 C   0  0  0  0  0  0  0  0  0  0  0  0
    1.7081    4.5430    0.4778 O   0  0  0  0  0  0  0  0  0  0  0  0
    2.3484    2.2748    2.9345 C   0  0  0  0  0  0  0  0  0  0  0  0
    1.2439    2.3658    0.0545 H   0  0  0  0  0  0  0  0  0  0  0  0
    0.2946    2.9110    2.7415 H   0  0  0  0  0  0  0  0  0  0  0  0
    3.2600    2.2288    2.3300 H   0  0  0  0  0  0  0  0  0  0  0  0
    2.5465    2.8876    3.8189 H   0  0  0  0  0  0  0  0  0  0  0  0
    2.1002    1.2621    3.2681 H   0  0  0  0  0  0  0  0  0  0  0  0
    1.5818    5.3378    2.5824 N   0  0  0  0  0  0  0  0  0  0  0  0
    1.8651    6.7189    2.2101 C   0  0  0  0  0  0  0  0  0  0  0  0
    1.4019    5.1173    3.5577 H   0  0  0  0  0  0  0  0  0  0  0  0
    2.8371    6.7899    1.7105 H   0  0  0  0  0  0  0  0  0  0  0  0
    1.0929    7.0994    1.5332 H   0  0  0  0  0  0  0  0  0  0  0  0
    1.8880    7.3542    3.1006 H   0  0  0  0  0  0  0  0  0  0  0  0
  1  2  2  0  0  0  0
  1  3  1  0  0  0  0
  1  7  1  0  0  0  0
  3  4  1  0  0  0  0
  3  5  1  0  0  0  0
  3  6  1  0  0  0  0
  7  8  1  0  0  0  0
  7 12  1  0  0  0  0
  8  9  1  0  0  0  0
  8 11  1  0  0  0  0
  8 13  1  0  0  0  0
  9 10  2  0  0  0  0
  9 17  1  0  0  0  0
 11 14  1  0  0  0  0
 11 15  1  0  0  0  0
 11 16  1  0  0  0  0
 17 18  1  0  0  0  0
 17 23  1  0  0  0  0
 18 19  1  0  0  0  0
 18 21  1  0  0  0  0
 18 24  1  0  0  0  0
 19 20  2  0  0  0  0
 19 28  1  0  0  0  0
 21 22  1  0  0  0  0
 21 25  1  0  0  0  0
 21 26  1  0  0  0  0
 22 27  1  0  0  0  0
 28 29  1  0  0  0  0
 28 33  1  0  0  0  0
 29 30  1  0  0  0  0
 29 32  1  0  0  0  0
 29 34  1  0  0  0  0
 30 31  2  0  0  0  0
 30 38  1  0  0  0  0
 32 35  1  0  0  0  0
 32 36  1  0  0  0  0
 32 37  1  0  0  0  0
 38 39  1  0  0  0  0
 38 40  1  0  0  0  0
 39 41  1  0  0  0  0
 39 42  1  0  0  0  0
 39 43  1  0  0  0  0
M  END
$$$$

  -OEChem-05262216003D

 43 42  0     1  0  0  0  0  0999 V2000
   -3.5085   -4.9457    1.1266 C   0  0  0  0  0  0  0  0  0  0  0  0
   -2.6420   -5.6484    1.6232 O   0  0  0  0  0  0  0  0  0  0  0  0
   -4.9728   -5.2349    1.3973 C   0  0  0  0  0  0  0  0  0  0  0  0
   -5.4975   -5.4128    0.4556 H   0  0  0  0  0  0  0  0  0  0  0  0
   -5.0723   -6.1215    2.0298 H   0  0  0  0  0  0  0  0  0  0  0  0
   -5.4315   -4.3846    1.9074 H   0  0  0  0  0  0  0  0  0  0  0  0
   -3.1592   -3.8821    0.3226 N   0  0  0  0  0  0  0  0  0  0  0  0
   -1.7833   -3.4133    0.1152 C   0  0  2  0  0  0  0  0  0  0  0  0
   -1.7353   -1.9014   -0.1968 C   0  0  0  0  0  0  0  0  0  0  0  0
   -2.7824   -1.3167   -0.4500 O   0  0  0  0  0  0  0  0  0  0  0  0
   -1.1633   -4.2168   -1.0335 C   0  0  0  0  0  0  0  0  0  0  0  0
   -3.9031   -3.2481    0.0313 H   0  0  0  0  0  0  0  0  0  0  0  0
   -1.2005   -3.5772    1.0281 H   0  0  0  0  0  0  0  0  0  0  0  0
   -1.7299   -4.0623   -1.9576 H   0  0  0  0  0  0  0  0  0  0  0  0
   -0.1276   -3.9091   -1.2052 H   0  0  0  0  0  0  0  0  0  0  0  0
   -1.1688   -5.2854   -0.7957 H   0  0  0  0  0  0  0  0  0  0  0  0
   -0.5161   -1.2443   -0.1253 N   0  0  0  0  0  0  0  0  0  0  0  0
   -0.1962    0.1821   -0.3804 C   0  0  2  0  0  0  0  0  0  0  0  0
    0.0470    0.9687    0.9270 C   0  0  0  0  0  0  0  0  0  0  0  0
   -0.1670    0.4652    2.0234 O   0  0  0  0  0  0  0  0  0  0  0  0
   -1.1497    0.9523   -1.3154 C   0  0  0  0  0  0  0  0  0  0  0  0
   -1.0696    0.2442   -3.0125 S   0  0  0  0  0  0  0  0  0  0  0  0
    0.2380   -1.8068    0.2573 H   0  0  0  0  0  0  0  0  0  0  0  0
    0.7689    0.1800   -0.8954 H   0  0  0  0  0  0  0  0  0  0  0  0
   -2.1736    0.9419   -0.9328 H   0  0  0  0  0  0  0  0  0  0  0  0
   -0.8491    2.0029   -1.3715 H   0  0  0  0  0  0  0  0  0  0  0  0
   -2.1132    0.8782   -3.5907 H   0  0  0  0  0  0  0  0  0  0  0  0
    0.6516    2.2111    0.8822 N   0  0  0  0  0  0  0  0  0  0  0  0
    0.8423    3.0892    2.0435 C   0  0  2  0  0  0  0  0  0  0  0  0
    0.7959    4.5743    1.6244 C   0  0  0  0  0  0  0  0  0  0  0  0
    0.7763    4.8730    0.4345 O   0  0  0  0  0  0  0  0  0  0  0  0
    2.1869    2.7516    2.6965 C   0  0  0  0  0  0  0  0  0  0  0  0
    0.7482    2.6538   -0.0321 H   0  0  0  0  0  0  0  0  0  0  0  0
    0.0364    2.9268    2.7676 H   0  0  0  0  0  0  0  0  0  0  0  0
    3.0066    2.9135    1.9892 H   0  0  0  0  0  0  0  0  0  0  0  0
    2.3568    3.3789    3.5767 H   0  0  0  0  0  0  0  0  0  0  0  0
    2.2030    1.7041    3.0144 H   0  0  0  0  0  0  0  0  0  0  0  0
    0.7637    5.5779    2.5748 N   0  0  0  0  0  0  0  0  0  0  0  0
    0.7198    6.9960    2.2380 C   0  0  0  0  0  0  0  0  0  0  0  0
    0.7669    5.3031    3.5530 H   0  0  0  0  0  0  0  0  0  0  0  0
    1.5988    7.2769    1.6482 H   0  0  0  0  0  0  0  0  0  0  0  0
   -0.1805    7.2248    1.6581 H   0  0  0  0  0  0  0  0  0  0  0  0
    0.7067    7.6015    3.1493 H   0  0  0  0  0  0  0  0  0  0  0  0
  1  2  2  0  0  0  0
  1  3  1  0  0  0  0
  1  7  1  0  0  0  0
  3  4  1  0  0  0  0
  3  5  1  0  0  0  0
  3  6  1  0  0  0  0
  7  8  1  0  0  0  0
  7 12  1  0  0  0  0
  8  9  1  0  0  0  0
  8 11  1  0  0  0  0
  8 13  1  0  0  0  0
  9 10  2  0  0  0  0
  9 17  1  0  0  0  0
 11 14  1  0  0  0  0
 11 15  1  0  0  0  0
 11 16  1  0  0  0  0
 17 18  1  0  0  0  0
 17 23  1  0  0  0  0
 18 19  1  0  0  0  0
 18 21  1  0  0  0  0
 18 24  1  0  0  0  0
 19 20  2  0  0  0  0
 19 28  1  0  0  0  0
 21 22  1  0  0  0  0
 21 25  1  0  0  0  0
 21 26  1  0  0  0  0
 22 27  1  0  0  0  0
 28 29  1  0  0  0  0
 28 33  1  0  0  0  0
 29 30  1  0  0  0  0
 29 32  1  0  0  0  0
 29 34  1  0  0  0  0
 30 31  2  0  0  0  0
 30 38  1  0  0  0  0
 32 35  1  0  0  0  0
 32 36  1  0  0  0  0
 32 37  1  0  0  0  0
 38 39  1  0  0  0  0
 38 40  1  0  0  0  0
 39 41  1  0  0  0  0
 39 42  1  0  0  0  0
 39 43  1  0  0  0  0
M  END
$$$$

  -OEChem-05262216003D

 43 42  0     1  0  0  0  0  0999 V2000
   -3.4836   -4.9412    1.1833 C   0  0  0  0  0  0  0  0  0  0  0  0
   -2.6047   -5.6098    1.7043 O   0  0  0  0  0  0  0  0  0  0  0  0
   -4.9425   -5.2705    1.4381 C   0  0  0  0  0  0  0  0  0  0  0  0
   -5.4546   -5.4583    0.4914 H   0  0  0  0  0  0  0  0  0  0  0  0
   -5.0229   -6.1629    2.0649 H   0  0  0  0  0  0  0  0  0  0  0  0
   -5.4294   -4.4360    1.9483 H   0  0  0  0  0  0  0  0  0  0  0  0
   -3.1517   -3.8796    0.3692 N   0  0  0  0  0  0  0  0  0  0  0  0
   -1.7854   -3.3763    0.1753 C   0  0  2  0  0  0  0  0  0  0  0  0
   -1.7697   -1.8687   -0.1632 C   0  0  0  0  0  0  0  0  0  0  0  0
   -2.8357   -1.3033   -0.3796 O   0  0  0  0  0  0  0  0  0  0  0  0
   -1.1273   -4.1831   -0.9494 C   0  0  0  0  0  0  0  0  0  0  0  0
   -3.9080   -3.2712    0.0561 H   0  0  0  0  0  0  0  0  0  0  0  0
   -1.2132   -3.5092    1.1001 H   0  0  0  0  0  0  0  0  0  0  0  0
   -1.6846   -4.0604   -1.8838 H   0  0  0  0  0  0  0  0  0  0  0  0
   -0.0977   -3.8509   -1.1115 H   0  0  0  0  0  0  0  0  0  0  0  0
   -1.1078   -5.2469   -0.6923 H   0  0  0  0  0  0  0  0  0  0  0  0
   -0.5599   -1.1902   -0.1249 N   0  0  0  0  0  0  0  0  0  0  0  0
   -0.2332    0.2201   -0.4557 C   0  0  2  0  0  0  0  0  0  0  0  0
    0.3545    0.9600    0.7687 C   0  0  0  0  0  0  0  0  0  0  0  0
    0.6053    0.3504    1.8027 O   0  0  0  0  0  0  0  0  0  0  0  0
   -1.3240    1.0497   -1.1646 C   0  0  0  0  0  0  0  0  0  0  0  0
   -1.6616    0.3605   -2.8399 S   0  0  0  0  0  0  0  0  0  0  0  0
    0.2017   -1.7240    0.2868 H   0  0  0  0  0  0  0  0  0  0  0  0
    0.5899    0.1716   -1.1745 H   0  0  0  0  0  0  0  0  0  0  0  0
   -2.2369    1.0670   -0.5617 H   0  0  0  0  0  0  0  0  0  0  0  0
   -1.0024    2.0880   -1.2857 H   0  0  0  0  0  0  0  0  0  0  0  0
   -2.8713    0.9080   -3.0890 H   0  0  0  0  0  0  0  0  0  0  0  0
    0.7301    2.2881    0.6858 N   0  0  0  0  0  0  0  0  0  0  0  0
    1.1764    3.1010    1.8245 C   0  0  2  0  0  0  0  0  0  0  0  0
    0.7628    4.5772    1.6444 C   0  0  0  0  0  0  0  0  0  0  0  0
    0.2917    4.9540    0.5761 O   0  0  0  0  0  0  0  0  0  0  0  0
    2.6983    2.9752    1.9500 C   0  0  0  0  0  0  0  0  0  0  0  0
    0.4454    2.8060   -0.1457 H   0  0  0  0  0  0  0  0  0  0  0  0
    0.7057    2.7396    2.7453 H   0  0  0  0  0  0  0  0  0  0  0  0
    3.1894    3.3425    1.0430 H   0  0  0  0  0  0  0  0  0  0  0  0
    3.0638    3.5543    2.8034 H   0  0  0  0  0  0  0  0  0  0  0  0
    2.9812    1.9283    2.0998 H   0  0  0  0  0  0  0  0  0  0  0  0
    0.9024    5.4809    2.6814 N   0  0  0  0  0  0  0  0  0  0  0  0
    0.5158    6.8831    2.5780 C   0  0  0  0  0  0  0  0  0  0  0  0
    1.2772    5.1369    3.5609 H   0  0  0  0  0  0  0  0  0  0  0  0
    1.0532    7.3698    1.7569 H   0  0  0  0  0  0  0  0  0  0  0  0
   -0.5606    6.9713    2.3961 H   0  0  0  0  0  0  0  0  0  0  0  0
    0.7542    7.4113    3.5064 H   0  0  0  0  0  0  0  0  0  0  0  0
  1  2  2  0  0  0  0
  1  3  1  0  0  0  0
  1  7  1  0  0  0  0
  3  4  1  0  0  0  0
  3  5  1  0  0  0  0
  3  6  1  0  0  0  0
  7  8  1  0  0  0  0
  7 12  1  0  0  0  0
  8  9  1  0  0  0  0
  8 11  1  0  0  0  0
  8 13  1  0  0  0  0
  9 10  2  0  0  0  0
  9 17  1  0  0  0  0
 11 14  1  0  0  0  0
 11 15  1  0  0  0  0
 11 16  1  0  0  0  0
 17 18  1  0  0  0  0
 17 23  1  0  0  0  0
 18 19  1  0  0  0  0
 18 21  1  0  0  0  0
 18 24  1  0  0  0  0
 19 20  2  0  0  0  0
 19 28  1  0  0  0  0
 21 22  1  0  0  0  0
 21 25  1  0  0  0  0
 21 26  1  0  0  0  0
 22 27  1  0  0  0  0
 28 29  1  0  0  0  0
 28 33  1  0  0  0  0
 29 30  1  0  0  0  0
 29 32  1  0  0  0  0
 29 34  1  0  0  0  0
 30 31  2  0  0  0  0
 30 38  1  0  0  0  0
 32 35  1  0  0  0  0
 32 36  1  0  0  0  0
 32 37  1  0  0  0  0
 38 39  1  0  0  0  0
 38 40  1  0  0  0  0
 39 41  1  0  0  0  0
 39 42  1  0  0  0  0
 39 43  1  0  0  0  0
M  END
$$$$

  -OEChem-05262216003D

 43 42  0     1  0  0  0  0  0999 V2000
   -3.4238   -4.9961    1.1676 C   0  0  0  0  0  0  0  0  0  0  0  0
   -2.5250   -5.6512    1.6718 O   0  0  0  0  0  0  0  0  0  0  0  0
   -4.8726   -5.3470    1.4489 C   0  0  0  0  0  0  0  0  0  0  0  0
   -5.3954   -5.5529    0.5119 H   0  0  0  0  0  0  0  0  0  0  0  0
   -4.9286   -6.2339    2.0863 H   0  0  0  0  0  0  0  0  0  0  0  0
   -5.3655   -4.5152    1.9579 H   0  0  0  0  0  0  0  0  0  0  0  0
   -3.1250   -3.9271    0.3504 N   0  0  0  0  0  0  0  0  0  0  0  0
   -1.7724   -3.3950    0.1411 C   0  0  2  0  0  0  0  0  0  0  0  0
   -1.7906   -1.8778   -0.1489 C   0  0  0  0  0  0  0  0  0  0  0  0
   -2.8673   -1.3297   -0.3566 O   0  0  0  0  0  0  0  0  0  0  0  0
   -1.1297   -4.1539   -1.0245 C   0  0  0  0  0  0  0  0  0  0  0  0
   -3.8978   -3.3316    0.0535 H   0  0  0  0  0  0  0  0  0  0  0  0
   -1.1751   -3.5478    1.0465 H   0  0  0  0  0  0  0  0  0  0  0  0
   -1.7028   -3.9971   -1.9440 H   0  0  0  0  0  0  0  0  0  0  0  0
   -0.1045   -3.8096   -1.1900 H   0  0  0  0  0  0  0  0  0  0  0  0
   -1.1014   -5.2270   -0.8096 H   0  0  0  0  0  0  0  0  0  0  0  0
   -0.5995   -1.1700   -0.0823 N   0  0  0  0  0  0  0  0  0  0  0  0
   -0.2963    0.2427   -0.4231 C   0  0  2  0  0  0  0  0  0  0  0  0
    0.2337    1.0041    0.8164 C   0  0  0  0  0  0  0  0  0  0  0  0
    0.6991    0.3790    1.7633 O   0  0  0  0  0  0  0  0  0  0  0  0
   -1.3837    1.0248   -1.1914 C   0  0  0  0  0  0  0  0  0  0  0  0
   -1.6304    0.2922   -2.8643 S   0  0  0  0  0  0  0  0  0  0  0  0
    0.1781   -1.6943    0.3119 H   0  0  0  0  0  0  0  0  0  0  0  0
    0.5544    0.2087   -1.1100 H   0  0  0  0  0  0  0  0  0  0  0  0
   -2.3210    1.0343   -0.6267 H   0  0  0  0  0  0  0  0  0  0  0  0
   -1.0815    2.0664   -1.3290 H   0  0  0  0  0  0  0  0  0  0  0  0
   -2.7838    0.8924   -3.2301 H   0  0  0  0  0  0  0  0  0  0  0  0
    0.3001    2.3858    0.8511 N   0  0  0  0  0  0  0  0  0  0  0  0
    0.7259    3.1813    2.0103 C   0  0  2  0  0  0  0  0  0  0  0  0
    0.0864    4.5868    1.9815 C   0  0  0  0  0  0  0  0  0  0  0  0
   -0.5243    4.9606    0.9851 O   0  0  0  0  0  0  0  0  0  0  0  0
    2.2552    3.2883    2.0029 C   0  0  0  0  0  0  0  0  0  0  0  0
   -0.1637    2.9011    0.1032 H   0  0  0  0  0  0  0  0  0  0  0  0
    0.3997    2.6898    2.9333 H   0  0  0  0  0  0  0  0  0  0  0  0
    2.5991    3.7859    1.0905 H   0  0  0  0  0  0  0  0  0  0  0  0
    2.6050    3.8622    2.8661 H   0  0  0  0  0  0  0  0  0  0  0  0
    2.7073    2.2926    2.0480 H   0  0  0  0  0  0  0  0  0  0  0  0
    0.1879    5.4320    3.0713 N   0  0  0  0  0  0  0  0  0  0  0  0
   -0.3963    6.7676    3.1058 C   0  0  0  0  0  0  0  0  0  0  0  0
    0.6915    5.0935    3.8862 H   0  0  0  0  0  0  0  0  0  0  0  0
    0.0122    7.3864    2.2999 H   0  0  0  0  0  0  0  0  0  0  0  0
   -1.4838    6.7134    2.9910 H   0  0  0  0  0  0  0  0  0  0  0  0
   -0.1735    7.2538    4.0603 H   0  0  0  0  0  0  0  0  0  0  0  0
  1  2  2  0  0  0  0
  1  3  1  0  0  0  0
  1  7  1  0  0  0  0
  3  4  1  0  0  0  0
  3  5  1  0  0  0  0
  3  6  1  0  0  0  0
  7  8  1  0  0  0  0
  7 12  1  0  0  0  0
  8  9  1  0  0  0  0
  8 11  1  0  0  0  0
  8 13  1  0  0  0  0
  9 10  2  0  0  0  0
  9 17  1  0  0  0  0
 11 14  1  0  0  0  0
 11 15  1  0  0  0  0
 11 16  1  0  0  0  0
 17 18  1  0  0  0  0
 17 23  1  0  0  0  0
 18 19  1  0  0  0  0
 18 21  1  0  0  0  0
 18 24  1  0  0  0  0
 19 20  2  0  0  0  0
 19 28  1  0  0  0  0
 21 22  1  0  0  0  0
 21 25  1  0  0  0  0
 21 26  1  0  0  0  0
 22 27  1  0  0  0  0
 28 29  1  0  0  0  0
 28 33  1  0  0  0  0
 29 30  1  0  0  0  0
 29 32  1  0  0  0  0
 29 34  1  0  0  0  0
 30 31  2  0  0  0  0
 30 38  1  0  0  0  0
 32 35  1  0  0  0  0
 32 36  1  0  0  0  0
 32 37  1  0  0  0  0
 38 39  1  0  0  0  0
 38 40  1  0  0  0  0
 39 41  1  0  0  0  0
 39 42  1  0  0  0  0
 39 43  1  0  0  0  0
M  END
$$$$

  -OEChem-05262216003D

 43 42  0     1  0  0  0  0  0999 V2000
   -3.4125   -4.9975    1.1625 C   0  0  0  0  0  0  0  0  0  0  0  0
   -2.5127   -5.6458    1.6731 O   0  0  0  0  0  0  0  0  0  0  0  0
   -4.8604   -5.3551    1.4413 C   0  0  0  0  0  0  0  0  0  0  0  0
   -5.3795   -5.5701    0.5041 H   0  0  0  0  0  0  0  0  0  0  0  0
   -4.9134   -6.2384    2.0842 H   0  0  0  0  0  0  0  0  0  0  0  0
   -5.3597   -4.5230    1.9438 H   0  0  0  0  0  0  0  0  0  0  0  0
   -3.1156   -3.9322    0.3397 N   0  0  0  0  0  0  0  0  0  0  0  0
   -1.7653   -3.3909    0.1361 C   0  0  2  0  0  0  0  0  0  0  0  0
   -1.7910   -1.8686   -0.1272 C   0  0  0  0  0  0  0  0  0  0  0  0
   -2.8701   -1.3172   -0.3120 O   0  0  0  0  0  0  0  0  0  0  0  0
   -1.1231   -4.1258   -1.0455 C   0  0  0  0  0  0  0  0  0  0  0  0
   -3.8907   -3.3407    0.0413 H   0  0  0  0  0  0  0  0  0  0  0  0
   -1.1633   -3.5571    1.0362 H   0  0  0  0  0  0  0  0  0  0  0  0
   -1.6975   -3.9522   -1.9614 H   0  0  0  0  0  0  0  0  0  0  0  0
   -0.0987   -3.7766   -1.2063 H   0  0  0  0  0  0  0  0  0  0  0  0
   -1.0921   -5.2027   -0.8518 H   0  0  0  0  0  0  0  0  0  0  0  0
   -0.6037   -1.1550   -0.0615 N   0  0  0  0  0  0  0  0  0  0  0  0
   -0.3082    0.2541   -0.4198 C   0  0  2  0  0  0  0  0  0  0  0  0
    0.2061    1.0190    0.8219 C   0  0  0  0  0  0  0  0  0  0  0  0
    0.8731    0.4218    1.6600 O   0  0  0  0  0  0  0  0  0  0  0  0
   -1.3909    1.0217   -1.2089 C   0  0  0  0  0  0  0  0  0  0  0  0
   -1.6174    0.2647   -2.8738 S   0  0  0  0  0  0  0  0  0  0  0  0
    0.1878   -1.6828    0.2991 H   0  0  0  0  0  0  0  0  0  0  0  0
    0.5509    0.2197   -1.0965 H   0  0  0  0  0  0  0  0  0  0  0  0
   -2.3339    1.0394   -0.6539 H   0  0  0  0  0  0  0  0  0  0  0  0
   -1.0848    2.0611   -1.3597 H   0  0  0  0  0  0  0  0  0  0  0  0
   -2.7627    0.8636   -3.2677 H   0  0  0  0  0  0  0  0  0  0  0  0
   -0.0045    2.3751    0.9946 N   0  0  0  0  0  0  0  0  0  0  0  0
    0.3690    3.1360    2.1932 C   0  0  2  0  0  0  0  0  0  0  0  0
   -0.5377    4.3735    2.3672 C   0  0  0  0  0  0  0  0  0  0  0  0
   -1.3045    4.7009    1.4673 O   0  0  0  0  0  0  0  0  0  0  0  0
    1.8375    3.5583    2.0712 C   0  0  0  0  0  0  0  0  0  0  0  0
   -0.6576    2.8353    0.3607 H   0  0  0  0  0  0  0  0  0  0  0  0
    0.2439    2.5074    3.0815 H   0  0  0  0  0  0  0  0  0  0  0  0
    1.9814    4.1940    1.1915 H   0  0  0  0  0  0  0  0  0  0  0  0
    2.1532    4.1144    2.9590 H   0  0  0  0  0  0  0  0  0  0  0  0
    2.4802    2.6778    1.9728 H   0  0  0  0  0  0  0  0  0  0  0  0
   -0.5038    5.1162    3.5331 N   0  0  0  0  0  0  0  0  0  0  0  0
   -1.3357    6.2926    3.7575 C   0  0  0  0  0  0  0  0  0  0  0  0
    0.1321    4.8157    4.2661 H   0  0  0  0  0  0  0  0  0  0  0  0
   -1.1321    7.0570    3.0000 H   0  0  0  0  0  0  0  0  0  0  0  0
   -2.3968    6.0259    3.7125 H   0  0  0  0  0  0  0  0  0  0  0  0
   -1.1286    6.7203    4.7432 H   0  0  0  0  0  0  0  0  0  0  0  0
  1  2  2  0  0  0  0
  1  3  1  0  0  0  0
  1  7  1  0  0  0  0
  3  4  1  0  0  0  0
  3  5  1  0  0  0  0
  3  6  1  0  0  0  0
  7  8  1  0  0  0  0
  7 12  1  0  0  0  0
  8  9  1  0  0  0  0
  8 11  1  0  0  0  0
  8 13  1  0  0  0  0
  9 10  2  0  0  0  0
  9 17  1  0  0  0  0
 11 14  1  0  0  0  0
 11 15  1  0  0  0  0
 11 16  1  0  0  0  0
 17 18  1  0  0  0  0
 17 23  1  0  0  0  0
 18 19  1  0  0  0  0
 18 21  1  0  0  0  0
 18 24  1  0  0  0  0
 19 20  2  0  0  0  0
 19 28  1  0  0  0  0
 21 22  1  0  0  0  0
 21 25  1  0  0  0  0
 21 26  1  0  0  0  0
 22 27  1  0  0  0  0
 28 29  1  0  0  0  0
 28 33  1  0  0  0  0
 29 30  1  0  0  0  0
 29 32  1  0  0  0  0
 29 34  1  0  0  0  0
 30 31  2  0  0  0  0
 30 38  1  0  0  0  0
 32 35  1  0  0  0  0
 32 36  1  0  0  0  0
 32 37  1  0  0  0  0
 38 39  1  0  0  0  0
 38 40  1  0  0  0  0
 39 41  1  0  0  0  0
 39 42  1  0  0  0  0
 39 43  1  0  0  0  0
M  END
$$$$

  -OEChem-05262216003D

 43 42  0     1  0  0  0  0  0999 V2000
   -3.3952   -5.0175    1.1407 C   0  0  0  0  0  0  0  0  0  0  0  0
   -2.4864   -5.6759    1.6220 O   0  0  0  0  0  0  0  0  0  0  0  0
   -4.8384   -5.3813    1.4343 C   0  0  0  0  0  0  0  0  0  0  0  0
   -5.3664   -5.5950    0.5019 H   0  0  0  0  0  0  0  0  0  0  0  0
   -4.8809   -6.2666    2.0748 H   0  0  0  0  0  0  0  0  0  0  0  0
   -5.3354   -4.5529    1.9447 H   0  0  0  0  0  0  0  0  0  0  0  0
   -3.1129   -3.9355    0.3349 N   0  0  0  0  0  0  0  0  0  0  0  0
   -1.7656   -3.3941    0.1145 C   0  0  2  0  0  0  0  0  0  0  0  0
   -1.7933   -1.8684   -0.1241 C   0  0  0  0  0  0  0  0  0  0  0  0
   -2.8726   -1.3133   -0.2959 O   0  0  0  0  0  0  0  0  0  0  0  0
   -1.1471   -4.1131   -1.0888 C   0  0  0  0  0  0  0  0  0  0  0  0
   -3.8929   -3.3378    0.0620 H   0  0  0  0  0  0  0  0  0  0  0  0
   -1.1481   -3.5747    1.0011 H   0  0  0  0  0  0  0  0  0  0  0  0
   -1.7457   -3.9370   -1.9882 H   0  0  0  0  0  0  0  0  0  0  0  0
   -0.1303   -3.7538   -1.2722 H   0  0  0  0  0  0  0  0  0  0  0  0
   -1.1034   -5.1913   -0.9049 H   0  0  0  0  0  0  0  0  0  0  0  0
   -0.6090   -1.1528   -0.0389 N   0  0  0  0  0  0  0  0  0  0  0  0
   -0.3181    0.2571   -0.3933 C   0  0  2  0  0  0  0  0  0  0  0  0
    0.1715    1.0200    0.8573 C   0  0  0  0  0  0  0  0  0  0  0  0
    1.0158    0.4978    1.5764 O   0  0  0  0  0  0  0  0  0  0  0  0
   -1.3862    1.0215   -1.2044 C   0  0  0  0  0  0  0  0  0  0  0  0
   -1.5751    0.2659   -2.8741 S   0  0  0  0  0  0  0  0  0  0  0  0
    0.1923   -1.6929    0.2794 H   0  0  0  0  0  0  0  0  0  0  0  0
    0.5534    0.2281   -1.0544 H   0  0  0  0  0  0  0  0  0  0  0  0
   -2.3428    1.0349   -0.6733 H   0  0  0  0  0  0  0  0  0  0  0  0
   -1.0761    2.0622   -1.3422 H   0  0  0  0  0  0  0  0  0  0  0  0
   -2.6930    0.8901   -3.3055 H   0  0  0  0  0  0  0  0  0  0  0  0
   -0.2942    2.2799    1.1873 N   0  0  0  0  0  0  0  0  0  0  0  0
    0.0498    3.0069    2.4159 C   0  0  2  0  0  0  0  0  0  0  0  0
   -1.0580    4.0147    2.7907 C   0  0  0  0  0  0  0  0  0  0  0  0
   -1.9616    4.2554    1.9968 O   0  0  0  0  0  0  0  0  0  0  0  0
    1.3850    3.7304    2.2057 C   0  0  0  0  0  0  0  0  0  0  0  0
   -1.1020    2.6307    0.6723 H   0  0  0  0  0  0  0  0  0  0  0  0
    0.1463    2.2997    3.2467 H   0  0  0  0  0  0  0  0  0  0  0  0
    1.3068    4.4462    1.3812 H   0  0  0  0  0  0  0  0  0  0  0  0
    1.6767    4.2715    3.1107 H   0  0  0  0  0  0  0  0  0  0  0  0
    2.1749    3.0110    1.9681 H   0  0  0  0  0  0  0  0  0  0  0  0
   -1.0501    4.6463    4.0208 N   0  0  0  0  0  0  0  0  0  0  0  0
   -2.0722    5.5990    4.4379 C   0  0  0  0  0  0  0  0  0  0  0  0
   -0.2973    4.4184    4.6637 H   0  0  0  0  0  0  0  0  0  0  0  0
   -2.1132    6.4463    3.7451 H   0  0  0  0  0  0  0  0  0  0  0  0
   -3.0558    5.1181    4.4654 H   0  0  0  0  0  0  0  0  0  0  0  0
   -1.8465    5.9824    5.4378 H   0  0  0  0  0  0  0  0  0  0  0  0
  1  2  2  0  0  0  0
  1  3  1  0  0  0  0
  1  7  1  0  0  0  0
  3  4  1  0  0  0  0
  3  5  1  0  0  0  0
  3  6  1  0  0  0  0
  7  8  1  0  0  0  0
  7 12  1  0  0  0  0
  8  9  1  0  0  0  0
  8 11  1  0  0  0  0
  8 13  1  0  0  0  0
  9 10  2  0  0  0  0
  9 17  1  0  0  0  0
 11 14  1  0  0  0  0
 11 15  1  0  0  0  0
 11 16  1  0  0  0  0
 17 18  1  0  0  0  0
 17 23  1  0  0  0  0
 18 19  1  0  0  0  0
 18 21  1  0  0  0  0
 18 24  1  0  0  0  0
 19 20  2  0  0  0  0
 19 28  1  0  0  0  0
 21 22  1  0  0  0  0
 21 25  1  0  0  0  0
 21 26  1  0  0  0  0
 22 27  1  0  0  0  0
 28 29  1  0  0  0  0
 28 33  1  0  0  0  0
 29 30  1  0  0  0  0
 29 32  1  0  0  0  0
 29 34  1  0  0  0  0
 30 31  2  0  0  0  0
 30 38  1  0  0  0  0
 32 35  1  0  0  0  0
 32 36  1  0  0  0  0
 32 37  1  0  0  0  0
 38 39  1  0  0  0  0
 38 40  1  0  0  0  0
 39 41  1  0  0  0  0
 39 42  1  0  0  0  0
 39 43  1  0  0  0  0
M  END
$$$$

  -OEChem-05262216003D

 43 42  0     1  0  0  0  0  0999 V2000
   -3.3748   -5.0374    1.1192 C   0  0  0  0  0  0  0  0  0  0  0  0
   -2.4584   -5.7006    1.5787 O   0  0  0  0  0  0  0  0  0  0  0  0
   -4.8131   -5.4075    1.4279 C   0  0  0  0  0  0  0  0  0  0  0  0
   -5.3400   -5.6517    0.5025 H   0  0  0  0  0  0  0  0  0  0  0  0
   -4.8454   -6.2758    2.0921 H   0  0  0  0  0  0  0  0  0  0  0  0
   -5.3178   -4.5705    1.9169 H   0  0  0  0  0  0  0  0  0  0  0  0
   -3.1058   -3.9444    0.3240 N   0  0  0  0  0  0  0  0  0  0  0  0
   -1.7624   -3.3987    0.0913 C   0  0  2  0  0  0  0  0  0  0  0  0
   -1.7927   -1.8676   -0.1074 C   0  0  0  0  0  0  0  0  0  0  0  0
   -2.8737   -1.3058   -0.2399 O   0  0  0  0  0  0  0  0  0  0  0  0
   -1.1680   -4.0885   -1.1407 C   0  0  0  0  0  0  0  0  0  0  0  0
   -3.8903   -3.3431    0.0733 H   0  0  0  0  0  0  0  0  0  0  0  0
   -1.1274   -3.6014    0.9605 H   0  0  0  0  0  0  0  0  0  0  0  0
   -1.7835   -3.8903   -2.0242 H   0  0  0  0  0  0  0  0  0  0  0  0
   -0.1542   -3.7261   -1.3347 H   0  0  0  0  0  0  0  0  0  0  0  0
   -1.1217   -5.1709   -0.9836 H   0  0  0  0  0  0  0  0  0  0  0  0
   -0.6086   -1.1526   -0.0175 N   0  0  0  0  0  0  0  0  0  0  0  0
   -0.3240    0.2581   -0.3705 C   0  0  2  0  0  0  0  0  0  0  0  0
    0.1587    1.0186    0.8811 C   0  0  0  0  0  0  0  0  0  0  0  0
    1.1508    0.6112    1.4734 O   0  0  0  0  0  0  0  0  0  0  0  0
   -1.3956    1.0270   -1.1712 C   0  0  0  0  0  0  0  0  0  0  0  0
   -1.5982    0.2807   -2.8438 S   0  0  0  0  0  0  0  0  0  0  0  0
    0.2046   -1.7077    0.2383 H   0  0  0  0  0  0  0  0  0  0  0  0
    0.5462    0.2343   -1.0340 H   0  0  0  0  0  0  0  0  0  0  0  0
   -2.3494    1.0384   -0.6353 H   0  0  0  0  0  0  0  0  0  0  0  0
   -1.0825    2.0684   -1.2982 H   0  0  0  0  0  0  0  0  0  0  0  0
   -2.7173    0.9088   -3.2662 H   0  0  0  0  0  0  0  0  0  0  0  0
   -0.5147    2.1185    1.3800 N   0  0  0  0  0  0  0  0  0  0  0  0
   -0.1975    2.7918    2.6457 C   0  0  2  0  0  0  0  0  0  0  0  0
   -1.4321    3.5304    3.2056 C   0  0  0  0  0  0  0  0  0  0  0  0
   -2.4243    3.6864    2.5016 O   0  0  0  0  0  0  0  0  0  0  0  0
    0.9521    3.7778    2.4093 C   0  0  0  0  0  0  0  0  0  0  0  0
   -1.4285    2.3291    0.9772 H   0  0  0  0  0  0  0  0  0  0  0  0
    0.1085    2.0484    3.3895 H   0  0  0  0  0  0  0  0  0  0  0  0
    0.6640    4.5292    1.6671 H   0  0  0  0  0  0  0  0  0  0  0  0
    1.2170    4.2895    3.3394 H   0  0  0  0  0  0  0  0  0  0  0  0
    1.8387    3.2495    2.0448 H   0  0  0  0  0  0  0  0  0  0  0  0
   -1.4388    4.0122    4.5018 N   0  0  0  0  0  0  0  0  0  0  0  0
   -2.5774    4.7076    5.0906 C   0  0  0  0  0  0  0  0  0  0  0  0
   -0.6084    3.8599    5.0668 H   0  0  0  0  0  0  0  0  0  0  0  0
   -2.7992    5.6223    4.5309 H   0  0  0  0  0  0  0  0  0  0  0  0
   -3.4653    4.0666    5.0828 H   0  0  0  0  0  0  0  0  0  0  0  0
   -2.3590    4.9813    6.1273 H   0  0  0  0  0  0  0  0  0  0  0  0
  1  2  2  0  0  0  0
  1  3  1  0  0  0  0
  1  7  1  0  0  0  0
  3  4  1  0  0  0  0
  3  5  1  0  0  0  0
  3  6  1  0  0  0  0
  7  8  1  0  0  0  0
  7 12  1  0  0  0  0
  8  9  1  0  0  0  0
  8 11  1  0  0  0  0
  8 13  1  0  0  0  0
  9 10  2  0  0  0  0
  9 17  1  0  0  0  0
 11 14  1  0  0  0  0
 11 15  1  0  0  0  0
 11 16  1  0  0  0  0
 17 18  1  0  0  0  0
 17 23  1  0  0  0  0
 18 19  1  0  0  0  0
 18 21  1  0  0  0  0
 18 24  1  0  0  0  0
 19 20  2  0  0  0  0
 19 28  1  0  0  0  0
 21 22  1  0  0  0  0
 21 25  1  0  0  0  0
 21 26  1  0  0  0  0
 22 27  1  0  0  0  0
 28 29  1  0  0  0  0
 28 33  1  0  0  0  0
 29 30  1  0  0  0  0
 29 32  1  0  0  0  0
 29 34  1  0  0  0  0
 30 31  2  0  0  0  0
 30 38  1  0  0  0  0
 32 35  1  0  0  0  0
 32 36  1  0  0  0  0
 32 37  1  0  0  0  0
 38 39  1  0  0  0  0
 38 40  1  0  0  0  0
 39 41  1  0  0  0  0
 39 42  1  0  0  0  0
 39 43  1  0  0  0  0
M  END
$$$$

  -OEChem-05262216003D

 43 42  0     1  0  0  0  0  0999 V2000
   -3.3705   -5.0553    1.0915 C   0  0  0  0  0  0  0  0  0  0  0  0
   -2.4460   -5.7306    1.5158 O   0  0  0  0  0  0  0  0  0  0  0  0
   -4.8019   -5.4295    1.4266 C   0  0  0  0  0  0  0  0  0  0  0  0
   -5.3493   -5.6671    0.5113 H   0  0  0  0  0  0  0  0  0  0  0  0
   -4.8182   -6.3026    2.0848 H   0  0  0  0  0  0  0  0  0  0  0  0
   -5.2966   -4.5976    1.9335 H   0  0  0  0  0  0  0  0  0  0  0  0
   -3.1142   -3.9446    0.3163 N   0  0  0  0  0  0  0  0  0  0  0  0
   -1.7729   -3.4026    0.0649 C   0  0  2  0  0  0  0  0  0  0  0  0
   -1.7937   -1.8671   -0.0937 C   0  0  0  0  0  0  0  0  0  0  0  0
   -2.8699   -1.2921   -0.2071 O   0  0  0  0  0  0  0  0  0  0  0  0
   -1.2129   -4.0631   -1.1983 C   0  0  0  0  0  0  0  0  0  0  0  0
   -3.9010   -3.3349    0.0944 H   0  0  0  0  0  0  0  0  0  0  0  0
   -1.1188   -3.6335    0.9125 H   0  0  0  0  0  0  0  0  0  0  0  0
   -1.8506   -3.8409   -2.0601 H   0  0  0  0  0  0  0  0  0  0  0  0
   -0.2034   -3.6975   -1.4084 H   0  0  0  0  0  0  0  0  0  0  0  0
   -1.1656   -5.1493   -1.0701 H   0  0  0  0  0  0  0  0  0  0  0  0
   -0.6053   -1.1624    0.0160 N   0  0  0  0  0  0  0  0  0  0  0  0
   -0.3116    0.2464   -0.3343 C   0  0  2  0  0  0  0  0  0  0  0  0
    0.1536    1.0063    0.9209 C   0  0  0  0  0  0  0  0  0  0  0  0
    1.2595    0.7616    1.3869 O   0  0  0  0  0  0  0  0  0  0  0  0
   -1.3661    1.0258   -1.1453 C   0  0  0  0  0  0  0  0  0  0  0  0
   -1.5519    0.2825   -2.8205 S   0  0  0  0  0  0  0  0  0  0  0  0
    0.2079   -1.7350    0.2287 H   0  0  0  0  0  0  0  0  0  0  0  0
    0.5665    0.2186   -0.9876 H   0  0  0  0  0  0  0  0  0  0  0  0
   -2.3278    1.0435   -0.6244 H   0  0  0  0  0  0  0  0  0  0  0  0
   -1.0428    2.0655   -1.2614 H   0  0  0  0  0  0  0  0  0  0  0  0
   -2.6531    0.9317   -3.2583 H   0  0  0  0  0  0  0  0  0  0  0  0
   -0.6730    1.8997    1.5761 N   0  0  0  0  0  0  0  0  0  0  0  0
   -0.3653    2.5250    2.8683 C   0  0  2  0  0  0  0  0  0  0  0  0
   -1.6543    2.9207    3.6202 C   0  0  0  0  0  0  0  0  0  0  0  0
   -2.7329    2.9100    3.0370 O   0  0  0  0  0  0  0  0  0  0  0  0
    0.5112    3.7574    2.6194 C   0  0  0  0  0  0  0  0  0  0  0  0
   -1.6498    1.9316    1.2803 H   0  0  0  0  0  0  0  0  0  0  0  0
    0.1780    1.8139    3.4998 H   0  0  0  0  0  0  0  0  0  0  0  0
   -0.0191    4.4819    1.9932 H   0  0  0  0  0  0  0  0  0  0  0  0
    0.7755    4.2402    3.5648 H   0  0  0  0  0  0  0  0  0  0  0  0
    1.4372    3.4703    2.1113 H   0  0  0  0  0  0  0  0  0  0  0  0
   -1.6097    3.2801    4.9548 N   0  0  0  0  0  0  0  0  0  0  0  0
   -2.7924    3.6482    5.7240 C   0  0  0  0  0  0  0  0  0  0  0  0
   -0.7070    3.2582    5.4202 H   0  0  0  0  0  0  0  0  0  0  0  0
   -3.2972    4.5046    5.2643 H   0  0  0  0  0  0  0  0  0  0  0  0
   -3.4944    2.8092    5.7727 H   0  0  0  0  0  0  0  0  0  0  0  0
   -2.5102    3.9221    6.7451 H   0  0  0  0  0  0  0  0  0  0  0  0
  1  2  2  0  0  0  0
  1  3  1  0  0  0  0
  1  7  1  0  0  0  0
  3  4  1  0  0  0  0
  3  5  1  0  0  0  0
  3  6  1  0  0  0  0
  7  8  1  0  0  0  0
  7 12  1  0  0  0  0
  8  9  1  0  0  0  0
  8 11  1  0  0  0  0
  8 13  1  0  0  0  0
  9 10  2  0  0  0  0
  9 17  1  0  0  0  0
 11 14  1  0  0  0  0
 11 15  1  0  0  0  0
 11 16  1  0  0  0  0
 17 18  1  0  0  0  0
 17 23  1  0  0  0  0
 18 19  1  0  0  0  0
 18 21  1  0  0  0  0
 18 24  1  0  0  0  0
 19 20  2  0  0  0  0
 19 28  1  0  0  0  0
 21 22  1  0  0  0  0
 21 25  1  0  0  0  0
 21 26  1  0  0  0  0
 22 27  1  0  0  0  0
 28 29  1  0  0  0  0
 28 33  1  0  0  0  0
 29 30  1  0  0  0  0
 29 32  1  0  0  0  0
 29 34  1  0  0  0  0
 30 31  2  0  0  0  0
 30 38  1  0  0  0  0
 32 35  1  0  0  0  0
 32 36  1  0  0  0  0
 32 37  1  0  0  0  0
 38 39  1  0  0  0  0
 38 40  1  0  0  0  0
 39 41  1  0  0  0  0
 39 42  1  0  0  0  0
 39 43  1  0  0  0  0
M  END
$$$$

  -OEChem-05262216003D

 43 42  0     1  0  0  0  0  0999 V2000
   -3.3738   -5.0714    1.0591 C   0  0  0  0  0  0  0  0  0  0  0  0
   -2.4499   -5.7721    1.4418 O   0  0  0  0  0  0  0  0  0  0  0  0
   -4.8028   -5.4277    1.4223 C   0  0  0  0  0  0  0  0  0  0  0  0
   -5.3767   -5.6344    0.5157 H   0  0  0  0  0  0  0  0  0  0  0  0
   -4.8199   -6.3157    2.0602 H   0  0  0  0  0  0  0  0  0  0  0  0
   -5.2693   -4.5984    1.9599 H   0  0  0  0  0  0  0  0  0  0  0  0
   -3.1202   -3.9485    0.3015 N   0  0  0  0  0  0  0  0  0  0  0  0
   -1.7782   -3.4172    0.0335 C   0  0  2  0  0  0  0  0  0  0  0  0
   -1.7821   -1.8766   -0.0602 C   0  0  0  0  0  0  0  0  0  0  0  0
   -2.8520   -1.2836   -0.1314 O   0  0  0  0  0  0  0  0  0  0  0  0
   -1.2682   -4.0323   -1.2728 C   0  0  0  0  0  0  0  0  0  0  0  0
   -3.9019   -3.3180    0.1245 H   0  0  0  0  0  0  0  0  0  0  0  0
   -1.1023   -3.6929    0.8502 H   0  0  0  0  0  0  0  0  0  0  0  0
   -1.9255   -3.7613   -2.1054 H   0  0  0  0  0  0  0  0  0  0  0  0
   -0.2575   -3.6778   -1.4973 H   0  0  0  0  0  0  0  0  0  0  0  0
   -1.2407   -5.1238   -1.1915 H   0  0  0  0  0  0  0  0  0  0  0  0
   -0.5871   -1.1869    0.0665 N   0  0  0  0  0  0  0  0  0  0  0  0
   -0.2847    0.2185   -0.2895 C   0  0  2  0  0  0  0  0  0  0  0  0
    0.1642    0.9865    0.9639 C   0  0  0  0  0  0  0  0  0  0  0  0
    1.3426    0.9637    1.2949 O   0  0  0  0  0  0  0  0  0  0  0  0
   -1.3290    1.0046   -1.1057 C   0  0  0  0  0  0  0  0  0  0  0  0
   -1.5145    0.2560   -2.7788 S   0  0  0  0  0  0  0  0  0  0  0  0
    0.2240   -1.7797    0.2227 H   0  0  0  0  0  0  0  0  0  0  0  0
    0.5978    0.1841   -0.9370 H   0  0  0  0  0  0  0  0  0  0  0  0
   -2.2926    1.0358   -0.5885 H   0  0  0  0  0  0  0  0  0  0  0  0
   -0.9937    2.0405   -1.2223 H   0  0  0  0  0  0  0  0  0  0  0  0
   -2.5965    0.9243   -3.2341 H   0  0  0  0  0  0  0  0  0  0  0  0
   -0.7555    1.6384    1.7629 N   0  0  0  0  0  0  0  0  0  0  0  0
   -0.4461    2.2304    3.0705 C   0  0  2  0  0  0  0  0  0  0  0  0
   -1.6862    2.2488    3.9892 C   0  0  0  0  0  0  0  0  0  0  0  0
   -2.7978    2.0167    3.5276 O   0  0  0  0  0  0  0  0  0  0  0  0
    0.0805    3.6519    2.8500 C   0  0  0  0  0  0  0  0  0  0  0  0
   -1.7426    1.4573    1.5695 H   0  0  0  0  0  0  0  0  0  0  0  0
    0.3228    1.6324    3.5713 H   0  0  0  0  0  0  0  0  0  0  0  0
   -0.6779    4.2665    2.3546 H   0  0  0  0  0  0  0  0  0  0  0  0
    0.3396    4.1187    3.8048 H   0  0  0  0  0  0  0  0  0  0  0  0
    0.9777    3.6327    2.2232 H   0  0  0  0  0  0  0  0  0  0  0  0
   -1.5570    2.5086    5.3411 N   0  0  0  0  0  0  0  0  0  0  0  0
   -2.6841    2.5005    6.2661 C   0  0  0  0  0  0  0  0  0  0  0  0
   -0.6223    2.6721    5.7037 H   0  0  0  0  0  0  0  0  0  0  0  0
   -3.4482    3.2176    5.9475 H   0  0  0  0  0  0  0  0  0  0  0  0
   -3.1347    1.5033    6.3110 H   0  0  0  0  0  0  0  0  0  0  0  0
   -2.3514    2.7764    7.2715 H   0  0  0  0  0  0  0  0  0  0  0  0
  1  2  2  0  0  0  0
  1  3  1  0  0  0  0
  1  7  1  0  0  0  0
  3  4  1  0  0  0  0
  3  5  1  0  0  0  0
  3  6  1  0  0  0  0
  7  8  1  0  0  0  0
  7 12  1  0  0  0  0
  8  9  1  0  0  0  0
  8 11  1  0  0  0  0
  8 13  1  0  0  0  0
  9 10  2  0  0  0  0
  9 17  1  0  0  0  0
 11 14  1  0  0  0  0
 11 15  1  0  0  0  0
 11 16  1  0  0  0  0
 17 18  1  0  0  0  0
 17 23  1  0  0  0  0
 18 19  1  0  0  0  0
 18 21  1  0  0  0  0
 18 24  1  0  0  0  0
 19 20  2  0  0  0  0
 19 28  1  0  0  0  0
 21 22  1  0  0  0  0
 21 25  1  0  0  0  0
 21 26  1  0  0  0  0
 22 27  1  0  0  0  0
 28 29  1  0  0  0  0
 28 33  1  0  0  0  0
 29 30  1  0  0  0  0
 29 32  1  0  0  0  0
 29 34  1  0  0  0  0
 30 31  2  0  0  0  0
 30 38  1  0  0  0  0
 32 35  1  0  0  0  0
 32 36  1  0  0  0  0
 32 37  1  0  0  0  0
 38 39  1  0  0  0  0
 38 40  1  0  0  0  0
 39 41  1  0  0  0  0
 39 42  1  0  0  0  0
 39 43  1  0  0  0  0
M  END
$$$$

  -OEChem-05262216003D

 43 42  0     1  0  0  0  0  0999 V2000
   -3.3892   -5.0865    1.0199 C   0  0  0  0  0  0  0  0  0  0  0  0
   -2.4690   -5.8244    1.3361 O   0  0  0  0  0  0  0  0  0  0  0  0
   -4.8120   -5.4242    1.4250 C   0  0  0  0  0  0  0  0  0  0  0  0
   -5.4268   -5.5746    0.5345 H   0  0  0  0  0  0  0  0  0  0  0  0
   -4.8269   -6.3397    2.0231 H   0  0  0  0  0  0  0  0  0  0  0  0
   -5.2358   -4.6095    2.0174 H   0  0  0  0  0  0  0  0  0  0  0  0
   -3.1366   -3.9405    0.2967 N   0  0  0  0  0  0  0  0  0  0  0  0
   -1.7933   -3.4299   -0.0047 C   0  0  2  0  0  0  0  0  0  0  0  0
   -1.7665   -1.8872   -0.0423 C   0  0  0  0  0  0  0  0  0  0  0  0
   -2.8246   -1.2707   -0.0854 O   0  0  0  0  0  0  0  0  0  0  0  0
   -1.3494   -4.0028   -1.3530 C   0  0  0  0  0  0  0  0  0  0  0  0
   -3.9095   -3.2867    0.1720 H   0  0  0  0  0  0  0  0  0  0  0  0
   -1.0931   -3.7521    0.7735 H   0  0  0  0  0  0  0  0  0  0  0  0
   -2.0323   -3.6835   -2.1469 H   0  0  0  0  0  0  0  0  0  0  0  0
   -0.3411   -3.6604   -1.6033 H   0  0  0  0  0  0  0  0  0  0  0  0
   -1.3434   -5.0969   -1.3159 H   0  0  0  0  0  0  0  0  0  0  0  0
   -0.5609   -1.2205    0.1108 N   0  0  0  0  0  0  0  0  0  0  0  0
   -0.2349    0.1798   -0.2489 C   0  0  2  0  0  0  0  0  0  0  0  0
    0.1945    0.9525    1.0076 C   0  0  0  0  0  0  0  0  0  0  0  0
    1.3785    1.1856    1.2123 O   0  0  0  0  0  0  0  0  0  0  0  0
   -1.2616    0.9797   -1.0723 C   0  0  0  0  0  0  0  0  0  0  0  0
   -1.4527    0.2302   -2.7446 S   0  0  0  0  0  0  0  0  0  0  0  0
    0.2404   -1.8356    0.2250 H   0  0  0  0  0  0  0  0  0  0  0  0
    0.6552    0.1332   -0.8851 H   0  0  0  0  0  0  0  0  0  0  0  0
   -2.2259    1.0307   -0.5588 H   0  0  0  0  0  0  0  0  0  0  0  0
   -0.9077    2.0092   -1.1901 H   0  0  0  0  0  0  0  0  0  0  0  0
   -2.5132    0.9265   -3.2089 H   0  0  0  0  0  0  0  0  0  0  0  0
   -0.7535    1.3474    1.9311 N   0  0  0  0  0  0  0  0  0  0  0  0
   -0.4433    1.9167    3.2486 C   0  0  2  0  0  0  0  0  0  0  0  0
   -1.5087    1.5302    4.2973 C   0  0  0  0  0  0  0  0  0  0  0  0
   -2.5555    0.9984    3.9456 O   0  0  0  0  0  0  0  0  0  0  0  0
   -0.3462    3.4389    3.1044 C   0  0  0  0  0  0  0  0  0  0  0  0
   -1.6921    0.9589    1.8122 H   0  0  0  0  0  0  0  0  0  0  0  0
    0.5166    1.5259    3.6030 H   0  0  0  0  0  0  0  0  0  0  0  0
   -1.2975    3.8515    2.7532 H   0  0  0  0  0  0  0  0  0  0  0  0
   -0.0974    3.9024    4.0636 H   0  0  0  0  0  0  0  0  0  0  0  0
    0.4345    3.7016    2.3834 H   0  0  0  0  0  0  0  0  0  0  0  0
   -1.2871    1.7547    5.6437 N   0  0  0  0  0  0  0  0  0  0  0  0
   -2.2360    1.3728    6.6833 C   0  0  0  0  0  0  0  0  0  0  0  0
   -0.4016    2.1726    5.9138 H   0  0  0  0  0  0  0  0  0  0  0  0
   -3.2034    1.8592    6.5183 H   0  0  0  0  0  0  0  0  0  0  0  0
   -2.3844    0.2877    6.6866 H   0  0  0  0  0  0  0  0  0  0  0  0
   -1.8624    1.6736    7.6668 H   0  0  0  0  0  0  0  0  0  0  0  0
  1  2  2  0  0  0  0
  1  3  1  0  0  0  0
  1  7  1  0  0  0  0
  3  4  1  0  0  0  0
  3  5  1  0  0  0  0
  3  6  1  0  0  0  0
  7  8  1  0  0  0  0
  7 12  1  0  0  0  0
  8  9  1  0  0  0  0
  8 11  1  0  0  0  0
  8 13  1  0  0  0  0
  9 10  2  0  0  0  0
  9 17  1  0  0  0  0
 11 14  1  0  0  0  0
 11 15  1  0  0  0  0
 11 16  1  0  0  0  0
 17 18  1  0  0  0  0
 17 23  1  0  0  0  0
 18 19  1  0  0  0  0
 18 21  1  0  0  0  0
 18 24  1  0  0  0  0
 19 20  2  0  0  0  0
 19 28  1  0  0  0  0
 21 22  1  0  0  0  0
 21 25  1  0  0  0  0
 21 26  1  0  0  0  0
 22 27  1  0  0  0  0
 28 29  1  0  0  0  0
 28 33  1  0  0  0  0
 29 30  1  0  0  0  0
 29 32  1  0  0  0  0
 29 34  1  0  0  0  0
 30 31  2  0  0  0  0
 30 38  1  0  0  0  0
 32 35  1  0  0  0  0
 32 36  1  0  0  0  0
 32 37  1  0  0  0  0
 38 39  1  0  0  0  0
 38 40  1  0  0  0  0
 39 41  1  0  0  0  0
 39 42  1  0  0  0  0
 39 43  1  0  0  0  0
M  END
$$$$

  -OEChem-05262216003D

 43 42  0     1  0  0  0  0  0999 V2000
   -3.4242   -5.1035    0.9547 C   0  0  0  0  0  0  0  0  0  0  0  0
   -2.5147   -5.8831    1.1922 O   0  0  0  0  0  0  0  0  0  0  0  0
   -4.8369   -5.4166    1.4102 C   0  0  0  0  0  0  0  0  0  0  0  0
   -5.5080   -5.4513    0.5485 H   0  0  0  0  0  0  0  0  0  0  0  0
   -4.8638   -6.3853    1.9171 H   0  0  0  0  0  0  0  0  0  0  0  0
   -5.1839   -4.6463    2.1034 H   0  0  0  0  0  0  0  0  0  0  0  0
   -3.1681   -3.9299    0.2789 N   0  0  0  0  0  0  0  0  0  0  0  0
   -1.8233   -3.4386   -0.0447 C   0  0  2  0  0  0  0  0  0  0  0  0
   -1.7626   -1.8972   -0.0236 C   0  0  0  0  0  0  0  0  0  0  0  0
   -2.8050   -1.2531   -0.0363 O   0  0  0  0  0  0  0  0  0  0  0  0
   -1.4326   -3.9663   -1.4280 C   0  0  0  0  0  0  0  0  0  0  0  0
   -3.9269   -3.2516    0.2167 H   0  0  0  0  0  0  0  0  0  0  0  0
   -1.1084   -3.8066    0.6990 H   0  0  0  0  0  0  0  0  0  0  0  0
   -2.1376   -3.6089   -2.1856 H   0  0  0  0  0  0  0  0  0  0  0  0
   -0.4280   -3.6287   -1.7005 H   0  0  0  0  0  0  0  0  0  0  0  0
   -1.4415   -5.0609   -1.4320 H   0  0  0  0  0  0  0  0  0  0  0  0
   -0.5471   -1.2596    0.1625 N   0  0  0  0  0  0  0  0  0  0  0  0
   -0.1849    0.1286   -0.2112 C   0  0  2  0  0  0  0  0  0  0  0  0
    0.2157    0.9149    1.0449 C   0  0  0  0  0  0  0  0  0  0  0  0
    1.3343    1.4005    1.1441 O   0  0  0  0  0  0  0  0  0  0  0  0
   -1.1773    0.9377   -1.0657 C   0  0  0  0  0  0  0  0  0  0  0  0
   -1.3528    0.1683   -2.7307 S   0  0  0  0  0  0  0  0  0  0  0  0
    0.2375   -1.8982    0.2636 H   0  0  0  0  0  0  0  0  0  0  0  0
    0.7220    0.0567   -0.8207 H   0  0  0  0  0  0  0  0  0  0  0  0
   -2.1489    1.0205   -0.5702 H   0  0  0  0  0  0  0  0  0  0  0  0
   -0.7954    1.9563   -1.1913 H   0  0  0  0  0  0  0  0  0  0  0  0
   -2.3629    0.9054   -3.2420 H   0  0  0  0  0  0  0  0  0  0  0  0
   -0.6991    1.0659    2.0679 N   0  0  0  0  0  0  0  0  0  0  0  0
   -0.3784    1.6085    3.3936 C   0  0  2  0  0  0  0  0  0  0  0  0
   -1.1172    0.8499    4.5172 C   0  0  0  0  0  0  0  0  0  0  0  0
   -1.9914    0.0352    4.2442 O   0  0  0  0  0  0  0  0  0  0  0  0
   -0.7501    3.0938    3.3999 C   0  0  0  0  0  0  0  0  0  0  0  0
   -1.5462    0.4970    1.9970 H   0  0  0  0  0  0  0  0  0  0  0  0
    0.6941    1.5052    3.5888 H   0  0  0  0  0  0  0  0  0  0  0  0
   -1.8231    3.2205    3.2232 H   0  0  0  0  0  0  0  0  0  0  0  0
   -0.4980    3.5506    4.3614 H   0  0  0  0  0  0  0  0  0  0  0  0
   -0.2020    3.6227    2.6136 H   0  0  0  0  0  0  0  0  0  0  0  0
   -0.7863    1.0657    5.8425 N   0  0  0  0  0  0  0  0  0  0  0  0
   -1.4296    0.3713    6.9514 C   0  0  0  0  0  0  0  0  0  0  0  0
   -0.0458    1.7319    6.0416 H   0  0  0  0  0  0  0  0  0  0  0  0
   -2.5067    0.5688    6.9542 H   0  0  0  0  0  0  0  0  0  0  0  0
   -1.2694   -0.7091    6.8721 H   0  0  0  0  0  0  0  0  0  0  0  0
   -1.0138    0.7132    7.9042 H   0  0  0  0  0  0  0  0  0  0  0  0
  1  2  2  0  0  0  0
  1  3  1  0  0  0  0
  1  7  1  0  0  0  0
  3  4  1  0  0  0  0
  3  5  1  0  0  0  0
  3  6  1  0  0  0  0
  7  8  1  0  0  0  0
  7 12  1  0  0  0  0
  8  9  1  0  0  0  0
  8 11  1  0  0  0  0
  8 13  1  0  0  0  0
  9 10  2  0  0  0  0
  9 17  1  0  0  0  0
 11 14  1  0  0  0  0
 11 15  1  0  0  0  0
 11 16  1  0  0  0  0
 17 18  1  0  0  0  0
 17 23  1  0  0  0  0
 18 19  1  0  0  0  0
 18 21  1  0  0  0  0
 18 24  1  0  0  0  0
 19 20  2  0  0  0  0
 19 28  1  0  0  0  0
 21 22  1  0  0  0  0
 21 25  1  0  0  0  0
 21 26  1  0  0  0  0
 22 27  1  0  0  0  0
 28 29  1  0  0  0  0
 28 33  1  0  0  0  0
 29 30  1  0  0  0  0
 29 32  1  0  0  0  0
 29 34  1  0  0  0  0
 30 31  2  0  0  0  0
 30 38  1  0  0  0  0
 32 35  1  0  0  0  0
 32 36  1  0  0  0  0
 32 37  1  0  0  0  0
 38 39  1  0  0  0  0
 38 40  1  0  0  0  0
 39 41  1  0  0  0  0
 39 42  1  0  0  0  0
 39 43  1  0  0  0  0
M  END
$$$$

  -OEChem-05262216003D

 43 42  0     1  0  0  0  0  0999 V2000
   -3.4526   -5.1326    0.9072 C   0  0  0  0  0  0  0  0  0  0  0  0
   -2.5401   -5.9210    1.0995 O   0  0  0  0  0  0  0  0  0  0  0  0
   -4.8559   -5.4621    1.3800 C   0  0  0  0  0  0  0  0  0  0  0  0
   -5.5487   -5.4423    0.5353 H   0  0  0  0  0  0  0  0  0  0  0  0
   -4.8774   -6.4585    1.8306 H   0  0  0  0  0  0  0  0  0  0  0  0
   -5.1793   -4.7317    2.1256 H   0  0  0  0  0  0  0  0  0  0  0  0
   -3.2073   -3.9364    0.2672 N   0  0  0  0  0  0  0  0  0  0  0  0
   -1.8672   -3.4414   -0.0715 C   0  0  2  0  0  0  0  0  0  0  0  0
   -1.7933   -1.9013   -0.0123 C   0  0  0  0  0  0  0  0  0  0  0  0
   -2.8279   -1.2447   -0.0038 O   0  0  0  0  0  0  0  0  0  0  0  0
   -1.5067   -3.9343   -1.4760 C   0  0  0  0  0  0  0  0  0  0  0  0
   -3.9676   -3.2577    0.2335 H   0  0  0  0  0  0  0  0  0  0  0  0
   -1.1395   -3.8327    0.6480 H   0  0  0  0  0  0  0  0  0  0  0  0
   -2.2219   -3.5505   -2.2108 H   0  0  0  0  0  0  0  0  0  0  0  0
   -0.5048   -3.5968   -1.7577 H   0  0  0  0  0  0  0  0  0  0  0  0
   -1.5243   -5.0282   -1.5105 H   0  0  0  0  0  0  0  0  0  0  0  0
   -0.5706   -1.2809    0.1845 N   0  0  0  0  0  0  0  0  0  0  0  0
   -0.1802    0.0991   -0.1991 C   0  0  2  0  0  0  0  0  0  0  0  0
    0.2173    0.9022    1.0483 C   0  0  0  0  0  0  0  0  0  0  0  0
    1.2291    1.5900    1.0504 O   0  0  0  0  0  0  0  0  0  0  0  0
   -1.1540    0.9095   -1.0724 C   0  0  0  0  0  0  0  0  0  0  0  0
   -1.3244    0.1223   -2.7299 S   0  0  0  0  0  0  0  0  0  0  0  0
    0.2020   -1.9343    0.2847 H   0  0  0  0  0  0  0  0  0  0  0  0
    0.7325    0.0067   -0.7970 H   0  0  0  0  0  0  0  0  0  0  0  0
   -2.1287    1.0099   -0.5862 H   0  0  0  0  0  0  0  0  0  0  0  0
   -0.7581    1.9218   -1.2070 H   0  0  0  0  0  0  0  0  0  0  0  0
   -2.2942    0.8928   -3.2706 H   0  0  0  0  0  0  0  0  0  0  0  0
   -0.5740    0.8279    2.1765 N   0  0  0  0  0  0  0  0  0  0  0  0
   -0.1742    1.3041    3.5060 C   0  0  2  0  0  0  0  0  0  0  0  0
   -0.5439    0.2850    4.6068 C   0  0  0  0  0  0  0  0  0  0  0  0
   -1.1831   -0.7235    4.3269 O   0  0  0  0  0  0  0  0  0  0  0  0
   -0.8572    2.6529    3.7489 C   0  0  0  0  0  0  0  0  0  0  0  0
   -1.3111    0.1202    2.1479 H   0  0  0  0  0  0  0  0  0  0  0  0
    0.9117    1.4406    3.5460 H   0  0  0  0  0  0  0  0  0  0  0  0
   -1.9461    2.5392    3.7359 H   0  0  0  0  0  0  0  0  0  0  0  0
   -0.5607    3.0675    4.7170 H   0  0  0  0  0  0  0  0  0  0  0  0
   -0.5718    3.3651    2.9680 H   0  0  0  0  0  0  0  0  0  0  0  0
   -0.1458    0.4878    5.9158 N   0  0  0  0  0  0  0  0  0  0  0  0
   -0.4669   -0.4305    7.0023 C   0  0  0  0  0  0  0  0  0  0  0  0
    0.3884    1.3267    6.1219 H   0  0  0  0  0  0  0  0  0  0  0  0
   -1.5512   -0.5574    7.0890 H   0  0  0  0  0  0  0  0  0  0  0  0
   -0.0106   -1.4099    6.8246 H   0  0  0  0  0  0  0  0  0  0  0  0
   -0.0885   -0.0400    7.9518 H   0  0  0  0  0  0  0  0  0  0  0  0
  1  2  2  0  0  0  0
  1  3  1  0  0  0  0
  1  7  1  0  0  0  0
  3  4  1  0  0  0  0
  3  5  1  0  0  0  0
  3  6  1  0  0  0  0
  7  8  1  0  0  0  0
  7 12  1  0  0  0  0
  8  9  1  0  0  0  0
  8 11  1  0  0  0  0
  8 13  1  0  0  0  0
  9 10  2  0  0  0  0
  9 17  1  0  0  0  0
 11 14  1  0  0  0  0
 11 15  1  0  0  0  0
 11 16  1  0  0  0  0
 17 18  1  0  0  0  0
 17 23  1  0  0  0  0
 18 19  1  0  0  0  0
 18 21  1  0  0  0  0
 18 24  1  0  0  0  0
 19 20  2  0  0  0  0
 19 28  1  0  0  0  0
 21 22  1  0  0  0  0
 21 25  1  0  0  0  0
 21 26  1  0  0  0  0
 22 27  1  0  0  0  0
 28 29  1  0  0  0  0
 28 33  1  0  0  0  0
 29 30  1  0  0  0  0
 29 32  1  0  0  0  0
 29 34  1  0  0  0  0
 30 31  2  0  0  0  0
 30 38  1  0  0  0  0
 32 35  1  0  0  0  0
 32 36  1  0  0  0  0
 32 37  1  0  0  0  0
 38 39  1  0  0  0  0
 38 40  1  0  0  0  0
 39 41  1  0  0  0  0
 39 42  1  0  0  0  0
 39 43  1  0  0  0  0
M  END
$$$$

  -OEChem-05262216003D

 43 42  0     1  0  0  0  0  0999 V2000
   -3.5663   -5.1842    0.7574 C   0  0  0  0  0  0  0  0  0  0  0  0
   -2.6737   -6.0036    0.9079 O   0  0  0  0  0  0  0  0  0  0  0  0
   -4.9794   -5.5073    1.2047 C   0  0  0  0  0  0  0  0  0  0  0  0
   -5.6773   -5.3567    0.3779 H   0  0  0  0  0  0  0  0  0  0  0  0
   -5.0415   -6.5488    1.5320 H   0  0  0  0  0  0  0  0  0  0  0  0
   -5.2638   -4.8586    2.0367 H   0  0  0  0  0  0  0  0  0  0  0  0
   -3.2865   -3.9570    0.1947 N   0  0  0  0  0  0  0  0  0  0  0  0
   -1.9319   -3.4758   -0.1053 C   0  0  2  0  0  0  0  0  0  0  0  0
   -1.8330   -1.9402    0.0072 C   0  0  0  0  0  0  0  0  0  0  0  0
   -2.8576   -1.2690    0.0386 O   0  0  0  0  0  0  0  0  0  0  0  0
   -1.5536   -3.9269   -1.5194 C   0  0  0  0  0  0  0  0  0  0  0  0
   -4.0314   -3.2607    0.1890 H   0  0  0  0  0  0  0  0  0  0  0  0
   -1.2248   -3.9046    0.6131 H   0  0  0  0  0  0  0  0  0  0  0  0
   -2.2541   -3.5141   -2.2526 H   0  0  0  0  0  0  0  0  0  0  0  0
   -0.5446   -3.5895   -1.7747 H   0  0  0  0  0  0  0  0  0  0  0  0
   -1.5795   -5.0190   -1.5889 H   0  0  0  0  0  0  0  0  0  0  0  0
   -0.6008   -1.3456    0.2252 N   0  0  0  0  0  0  0  0  0  0  0  0
   -0.1809    0.0293   -0.1518 C   0  0  2  0  0  0  0  0  0  0  0  0
    0.2165    0.8417    1.0924 C   0  0  0  0  0  0  0  0  0  0  0  0
    1.0713    1.7139    1.0173 O   0  0  0  0  0  0  0  0  0  0  0  0
   -1.1325    0.8443   -1.0460 C   0  0  0  0  0  0  0  0  0  0  0  0
   -1.2790    0.0482   -2.7014 S   0  0  0  0  0  0  0  0  0  0  0  0
    0.1583   -2.0178    0.3040 H   0  0  0  0  0  0  0  0  0  0  0  0
    0.7400   -0.0780   -0.7340 H   0  0  0  0  0  0  0  0  0  0  0  0
   -2.1144    0.9575   -0.5777 H   0  0  0  0  0  0  0  0  0  0  0  0
   -0.7260    1.8525   -1.1807 H   0  0  0  0  0  0  0  0  0  0  0  0
   -2.2158    0.8371   -3.2725 H   0  0  0  0  0  0  0  0  0  0  0  0
   -0.3871    0.5700    2.3036 N   0  0  0  0  0  0  0  0  0  0  0  0
    0.0816    1.0606    3.6049 C   0  0  2  0  0  0  0  0  0  0  0  0
    0.1513   -0.0779    4.6462 C   0  0  0  0  0  0  0  0  0  0  0  0
   -0.3021   -1.1865    4.3815 O   0  0  0  0  0  0  0  0  0  0  0  0
   -0.8776    2.1626    4.0598 C   0  0  0  0  0  0  0  0  0  0  0  0
   -0.9945   -0.2507    2.3144 H   0  0  0  0  0  0  0  0  0  0  0  0
    1.0896    1.4785    3.5130 H   0  0  0  0  0  0  0  0  0  0  0  0
   -1.8881    1.7612    4.1877 H   0  0  0  0  0  0  0  0  0  0  0  0
   -0.5487    2.5918    5.0107 H   0  0  0  0  0  0  0  0  0  0  0  0
   -0.9124    2.9628    3.3137 H   0  0  0  0  0  0  0  0  0  0  0  0
    0.7317    0.1359    5.8831 N   0  0  0  0  0  0  0  0  0  0  0  0
    0.8165   -0.8905    6.9156 C   0  0  0  0  0  0  0  0  0  0  0  0
    1.0942    1.0642    6.0802 H   0  0  0  0  0  0  0  0  0  0  0  0
   -0.1838   -1.2412    7.1908 H   0  0  0  0  0  0  0  0  0  0  0  0
    1.4037   -1.7443    6.5609 H   0  0  0  0  0  0  0  0  0  0  0  0
    1.2990   -0.4877    7.8114 H   0  0  0  0  0  0  0  0  0  0  0  0
  1  2  2  0  0  0  0
  1  3  1  0  0  0  0
  1  7  1  0  0  0  0
  3  4  1  0  0  0  0
  3  5  1  0  0  0  0
  3  6  1  0  0  0  0
  7  8  1  0  0  0  0
  7 12  1  0  0  0  0
  8  9  1  0  0  0  0
  8 11  1  0  0  0  0
  8 13  1  0  0  0  0
  9 10  2  0  0  0  0
  9 17  1  0  0  0  0
 11 14  1  0  0  0  0
 11 15  1  0  0  0  0
 11 16  1  0  0  0  0
 17 18  1  0  0  0  0
 17 23  1  0  0  0  0
 18 19  1  0  0  0  0
 18 21  1  0  0  0  0
 18 24  1  0  0  0  0
 19 20  2  0  0  0  0
 19 28  1  0  0  0  0
 21 22  1  0  0  0  0
 21 25  1  0  0  0  0
 21 26  1  0  0  0  0
 22 27  1  0  0  0  0
 28 29  1  0  0  0  0
 28 33  1  0  0  0  0
 29 30  1  0  0  0  0
 29 32  1  0  0  0  0
 29 34  1  0  0  0  0
 30 31  2  0  0  0  0
 30 38  1  0  0  0  0
 32 35  1  0  0  0  0
 32 36  1  0  0  0  0
 32 37  1  0  0  0  0
 38 39  1  0  0  0  0
 38 40  1  0  0  0  0
 39 41  1  0  0  0  0
 39 42  1  0  0  0  0
 39 43  1  0  0  0  0
M  END
$$$$

  -OEChem-05262216003D

 43 42  0     1  0  0  0  0  0999 V2000
   -3.5965   -5.2236    0.7086 C   0  0  0  0  0  0  0  0  0  0  0  0
   -2.7056   -6.0379    0.8921 O   0  0  0  0  0  0  0  0  0  0  0  0
   -5.0200   -5.5424    1.1251 C   0  0  0  0  0  0  0  0  0  0  0  0
   -5.6847   -5.4767    0.2606 H   0  0  0  0  0  0  0  0  0  0  0  0
   -5.0755   -6.5538    1.5376 H   0  0  0  0  0  0  0  0  0  0  0  0
   -5.3534   -4.8329    1.8863 H   0  0  0  0  0  0  0  0  0  0  0  0
   -3.3086   -4.0023    0.1383 N   0  0  0  0  0  0  0  0  0  0  0  0
   -1.9503   -3.5093   -0.1226 C   0  0  2  0  0  0  0  0  0  0  0  0
   -1.8665   -1.9741    0.0151 C   0  0  0  0  0  0  0  0  0  0  0  0
   -2.8990   -1.3181    0.0828 O   0  0  0  0  0  0  0  0  0  0  0  0
   -1.5409   -3.9388   -1.5346 C   0  0  0  0  0  0  0  0  0  0  0  0
   -4.0565   -3.3097    0.1129 H   0  0  0  0  0  0  0  0  0  0  0  0
   -1.2553   -3.9440    0.6043 H   0  0  0  0  0  0  0  0  0  0  0  0
   -2.2241   -3.5130   -2.2768 H   0  0  0  0  0  0  0  0  0  0  0  0
   -0.5257   -3.6003   -1.7623 H   0  0  0  0  0  0  0  0  0  0  0  0
   -1.5676   -5.0296   -1.6212 H   0  0  0  0  0  0  0  0  0  0  0  0
   -0.6340   -1.3683    0.2025 N   0  0  0  0  0  0  0  0  0  0  0  0
   -0.2404    0.0215   -0.1546 C   0  0  2  0  0  0  0  0  0  0  0  0
    0.1971    0.8187    1.0894 C   0  0  0  0  0  0  0  0  0  0  0  0
    0.8662    1.8365    0.9703 O   0  0  0  0  0  0  0  0  0  0  0  0
   -1.2344    0.8406   -0.9995 C   0  0  0  0  0  0  0  0  0  0  0  0
   -1.4260    0.0793   -2.6670 S   0  0  0  0  0  0  0  0  0  0  0  0
    0.1345   -2.0337    0.2351 H   0  0  0  0  0  0  0  0  0  0  0  0
    0.6597   -0.0625   -0.7715 H   0  0  0  0  0  0  0  0  0  0  0  0
   -2.2006    0.9304   -0.4951 H   0  0  0  0  0  0  0  0  0  0  0  0
   -0.8483    1.8575   -1.1269 H   0  0  0  0  0  0  0  0  0  0  0  0
   -2.4098    0.8521   -3.1771 H   0  0  0  0  0  0  0  0  0  0  0  0
   -0.1003    0.3445    2.3511 N   0  0  0  0  0  0  0  0  0  0  0  0
    0.5103    0.8175    3.5984 C   0  0  2  0  0  0  0  0  0  0  0  0
    0.8324   -0.3619    4.5424 C   0  0  0  0  0  0  0  0  0  0  0  0
    0.4673   -1.4978    4.2560 O   0  0  0  0  0  0  0  0  0  0  0  0
   -0.4588    1.8016    4.2587 C   0  0  0  0  0  0  0  0  0  0  0  0
   -0.5690   -0.5613    2.3852 H   0  0  0  0  0  0  0  0  0  0  0  0
    1.4540    1.3306    3.3843 H   0  0  0  0  0  0  0  0  0  0  0  0
   -1.4025    1.3031    4.5031 H   0  0  0  0  0  0  0  0  0  0  0  0
   -0.0287    2.2072    5.1792 H   0  0  0  0  0  0  0  0  0  0  0  0
   -0.6700    2.6354    3.5814 H   0  0  0  0  0  0  0  0  0  0  0  0
    1.5493   -0.1582    5.7072 N   0  0  0  0  0  0  0  0  0  0  0  0
    1.8888   -1.2305    6.6353 C   0  0  0  0  0  0  0  0  0  0  0  0
    1.8472    0.7895    5.9190 H   0  0  0  0  0  0  0  0  0  0  0  0
    0.9806   -1.7156    7.0088 H   0  0  0  0  0  0  0  0  0  0  0  0
    2.5119   -1.9831    6.1404 H   0  0  0  0  0  0  0  0  0  0  0  0
    2.4429   -0.8308    7.4902 H   0  0  0  0  0  0  0  0  0  0  0  0
  1  2  2  0  0  0  0
  1  3  1  0  0  0  0
  1  7  1  0  0  0  0
  3  4  1  0  0  0  0
  3  5  1  0  0  0  0
  3  6  1  0  0  0  0
  7  8  1  0  0  0  0
  7 12  1  0  0  0  0
  8  9  1  0  0  0  0
  8 11  1  0  0  0  0
  8 13  1  0  0  0  0
  9 10  2  0  0  0  0
  9 17  1  0  0  0  0
 11 14  1  0  0  0  0
 11 15  1  0  0  0  0
 11 16  1  0  0  0  0
 17 18  1  0  0  0  0
 17 23  1  0  0  0  0
 18 19  1  0  0  0  0
 18 21  1  0  0  0  0
 18 24  1  0  0  0  0
 19 20  2  0  0  0  0
 19 28  1  0  0  0  0
 21 22  1  0  0  0  0
 21 25  1  0  0  0  0
 21 26  1  0  0  0  0
 22 27  1  0  0  0  0
 28 29  1  0  0  0  0
 28 33  1  0  0  0  0
 29 30  1  0  0  0  0
 29 32  1  0  0  0  0
 29 34  1  0  0  0  0
 30 31  2  0  0  0  0
 30 38  1  0  0  0  0
 32 35  1  0  0  0  0
 32 36  1  0  0  0  0
 32 37  1  0  0  0  0
 38 39  1  0  0  0  0
 38 40  1  0  0  0  0
 39 41  1  0  0  0  0
 39 42  1  0  0  0  0
 39 43  1  0  0  0  0
M  END
$$$$

  -OEChem-05262216003D

 43 42  0     1  0  0  0  0  0999 V2000
   -3.6289   -5.2490    0.6813 C   0  0  0  0  0  0  0  0  0  0  0  0
   -2.7348   -6.0710    0.8060 O   0  0  0  0  0  0  0  0  0  0  0  0
   -5.0437   -5.5897    1.1102 C   0  0  0  0  0  0  0  0  0  0  0  0
   -5.7231   -5.4993    0.2591 H   0  0  0  0  0  0  0  0  0  0  0  0
   -5.0874   -6.6147    1.4891 H   0  0  0  0  0  0  0  0  0  0  0  0
   -5.3679   -4.9086    1.9007 H   0  0  0  0  0  0  0  0  0  0  0  0
   -3.3523   -4.0040    0.1580 N   0  0  0  0  0  0  0  0  0  0  0  0
   -2.0024   -3.5157   -0.1505 C   0  0  2  0  0  0  0  0  0  0  0  0
   -1.8918   -1.9870    0.0297 C   0  0  0  0  0  0  0  0  0  0  0  0
   -2.9125   -1.3216    0.1565 O   0  0  0  0  0  0  0  0  0  0  0  0
   -1.6634   -3.9048   -1.5926 C   0  0  0  0  0  0  0  0  0  0  0  0
   -4.0963   -3.3070    0.1829 H   0  0  0  0  0  0  0  0  0  0  0  0
   -1.2804   -3.9803    0.5299 H   0  0  0  0  0  0  0  0  0  0  0  0
   -2.3786   -3.4540   -2.2882 H   0  0  0  0  0  0  0  0  0  0  0  0
   -0.6587   -3.5634   -1.8586 H   0  0  0  0  0  0  0  0  0  0  0  0
   -1.7001   -4.9924   -1.7108 H   0  0  0  0  0  0  0  0  0  0  0  0
   -0.6430   -1.4052    0.1855 N   0  0  0  0  0  0  0  0  0  0  0  0
   -0.2467   -0.0114   -0.1535 C   0  0  2  0  0  0  0  0  0  0  0  0
    0.2502    0.7572    1.0890 C   0  0  0  0  0  0  0  0  0  0  0  0
    0.7085    1.8872    0.9819 O   0  0  0  0  0  0  0  0  0  0  0  0
   -1.2561    0.8260   -0.9640 C   0  0  0  0  0  0  0  0  0  0  0  0
   -1.4815    0.0887   -2.6382 S   0  0  0  0  0  0  0  0  0  0  0  0
    0.1143   -2.0829    0.1433 H   0  0  0  0  0  0  0  0  0  0  0  0
    0.6336   -0.0940   -0.7978 H   0  0  0  0  0  0  0  0  0  0  0  0
   -2.2112    0.9132   -0.4390 H   0  0  0  0  0  0  0  0  0  0  0  0
   -0.8705    1.8436   -1.0877 H   0  0  0  0  0  0  0  0  0  0  0  0
   -2.4430    0.8977   -3.1344 H   0  0  0  0  0  0  0  0  0  0  0  0
    0.2823    0.1356    2.3217 N   0  0  0  0  0  0  0  0  0  0  0  0
    0.9605    0.6480    3.5172 C   0  0  2  0  0  0  0  0  0  0  0  0
    1.5667   -0.5021    4.3506 C   0  0  0  0  0  0  0  0  0  0  0  0
    1.3301   -1.6689    4.0535 O   0  0  0  0  0  0  0  0  0  0  0  0
   -0.0563    1.4446    4.3394 C   0  0  0  0  0  0  0  0  0  0  0  0
   -0.0299   -0.8347    2.3483 H   0  0  0  0  0  0  0  0  0  0  0  0
    1.7840    1.3077    3.2234 H   0  0  0  0  0  0  0  0  0  0  0  0
   -0.8790    0.7979    4.6610 H   0  0  0  0  0  0  0  0  0  0  0  0
    0.4175    1.8747    5.2264 H   0  0  0  0  0  0  0  0  0  0  0  0
   -0.4699    2.2618    3.7399 H   0  0  0  0  0  0  0  0  0  0  0  0
    2.3968   -0.2327    5.4233 N   0  0  0  0  0  0  0  0  0  0  0  0
    3.0154   -1.2721    6.2377 C   0  0  0  0  0  0  0  0  0  0  0  0
    2.5877    0.7415    5.6393 H   0  0  0  0  0  0  0  0  0  0  0  0
    2.2507   -1.9198    6.6798 H   0  0  0  0  0  0  0  0  0  0  0  0
    3.6881   -1.8856    5.6290 H   0  0  0  0  0  0  0  0  0  0  0  0
    3.5963   -0.8223    7.0487 H   0  0  0  0  0  0  0  0  0  0  0  0
  1  2  2  0  0  0  0
  1  3  1  0  0  0  0
  1  7  1  0  0  0  0
  3  4  1  0  0  0  0
  3  5  1  0  0  0  0
  3  6  1  0  0  0  0
  7  8  1  0  0  0  0
  7 12  1  0  0  0  0
  8  9  1  0  0  0  0
  8 11  1  0  0  0  0
  8 13  1  0  0  0  0
  9 10  2  0  0  0  0
  9 17  1  0  0  0  0
 11 14  1  0  0  0  0
 11 15  1  0  0  0  0
 11 16  1  0  0  0  0
 17 18  1  0  0  0  0
 17 23  1  0  0  0  0
 18 19  1  0  0  0  0
 18 21  1  0  0  0  0
 18 24  1  0  0  0  0
 19 20  2  0  0  0  0
 19 28  1  0  0  0  0
 21 22  1  0  0  0  0
 21 25  1  0  0  0  0
 21 26  1  0  0  0  0
 22 27  1  0  0  0  0
 28 29  1  0  0  0  0
 28 33  1  0  0  0  0
 29 30  1  0  0  0  0
 29 32  1  0  0  0  0
 29 34  1  0  0  0  0
 30 31  2  0  0  0  0
 30 38  1  0  0  0  0
 32 35  1  0  0  0  0
 32 36  1  0  0  0  0
 32 37  1  0  0  0  0
 38 39  1  0  0  0  0
 38 40  1  0  0  0  0
 39 41  1  0  0  0  0
 39 42  1  0  0  0  0
 39 43  1  0  0  0  0
M  END
$$$$

  -OEChem-05262216003D

 43 42  0     1  0  0  0  0  0999 V2000
   -3.6185   -5.2435    0.7200 C   0  0  0  0  0  0  0  0  0  0  0  0
   -2.7213   -6.0671    0.8044 O   0  0  0  0  0  0  0  0  0  0  0  0
   -5.0183   -5.5912    1.1903 C   0  0  0  0  0  0  0  0  0  0  0  0
   -5.7172   -5.5359    0.3521 H   0  0  0  0  0  0  0  0  0  0  0  0
   -5.0374   -6.6052    1.5994 H   0  0  0  0  0  0  0  0  0  0  0  0
   -5.3361   -4.8924    1.9679 H   0  0  0  0  0  0  0  0  0  0  0  0
   -3.3580   -3.9929    0.2018 N   0  0  0  0  0  0  0  0  0  0  0  0
   -2.0198   -3.5057   -0.1560 C   0  0  2  0  0  0  0  0  0  0  0  0
   -1.8891   -1.9819    0.0510 C   0  0  0  0  0  0  0  0  0  0  0  0
   -2.8983   -1.3124    0.2343 O   0  0  0  0  0  0  0  0  0  0  0  0
   -1.7515   -3.8668   -1.6202 C   0  0  0  0  0  0  0  0  0  0  0  0
   -4.0992   -3.2951    0.2593 H   0  0  0  0  0  0  0  0  0  0  0  0
   -1.2707   -3.9897    0.4799 H   0  0  0  0  0  0  0  0  0  0  0  0
   -2.4868   -3.3847   -2.2727 H   0  0  0  0  0  0  0  0  0  0  0  0
   -0.7521   -3.5401   -1.9227 H   0  0  0  0  0  0  0  0  0  0  0  0
   -1.8170   -4.9503   -1.7616 H   0  0  0  0  0  0  0  0  0  0  0  0
   -0.6288   -1.4135    0.1587 N   0  0  0  0  0  0  0  0  0  0  0  0
   -0.2371   -0.0179   -0.1786 C   0  0  2  0  0  0  0  0  0  0  0  0
    0.3220    0.7282    1.0542 C   0  0  0  0  0  0  0  0  0  0  0  0
    0.5491    1.9309    1.0177 O   0  0  0  0  0  0  0  0  0  0  0  0
   -1.2734    0.8287   -0.9475 C   0  0  0  0  0  0  0  0  0  0  0  0
   -1.5552    0.1041   -2.6188 S   0  0  0  0  0  0  0  0  0  0  0  0
    0.1155   -2.0978    0.0516 H   0  0  0  0  0  0  0  0  0  0  0  0
    0.6164   -0.0991   -0.8584 H   0  0  0  0  0  0  0  0  0  0  0  0
   -2.2090    0.9153   -0.3887 H   0  0  0  0  0  0  0  0  0  0  0  0
   -0.8917    1.8465   -1.0803 H   0  0  0  0  0  0  0  0  0  0  0  0
   -2.5375    0.9121   -3.0745 H   0  0  0  0  0  0  0  0  0  0  0  0
    0.6939    0.0210    2.1810 N   0  0  0  0  0  0  0  0  0  0  0  0
    1.3997    0.5710    3.3433 C   0  0  2  0  0  0  0  0  0  0  0  0
    2.2601   -0.5072    4.0359 C   0  0  0  0  0  0  0  0  0  0  0  0
    2.1451   -1.6864    3.7168 O   0  0  0  0  0  0  0  0  0  0  0  0
    0.3606    1.1424    4.3133 C   0  0  0  0  0  0  0  0  0  0  0  0
    0.5310   -0.9846    2.1720 H   0  0  0  0  0  0  0  0  0  0  0  0
    2.0734    1.3718    3.0210 H   0  0  0  0  0  0  0  0  0  0  0  0
   -0.3220    0.3553    4.6499 H   0  0  0  0  0  0  0  0  0  0  0  0
    0.8496    1.5787    5.1893 H   0  0  0  0  0  0  0  0  0  0  0  0
   -0.2265    1.9255    3.8224 H   0  0  0  0  0  0  0  0  0  0  0  0
    3.1789   -0.1546    5.0070 N   0  0  0  0  0  0  0  0  0  0  0  0
    4.0309   -1.1196    5.6916 C   0  0  0  0  0  0  0  0  0  0  0  0
    3.2650    0.8306    5.2392 H   0  0  0  0  0  0  0  0  0  0  0  0
    3.4231   -1.8836    6.1881 H   0  0  0  0  0  0  0  0  0  0  0  0
    4.7022   -1.6113    4.9794 H   0  0  0  0  0  0  0  0  0  0  0  0
    4.6389   -0.6167    6.4500 H   0  0  0  0  0  0  0  0  0  0  0  0
  1  2  2  0  0  0  0
  1  3  1  0  0  0  0
  1  7  1  0  0  0  0
  3  4  1  0  0  0  0
  3  5  1  0  0  0  0
  3  6  1  0  0  0  0
  7  8  1  0  0  0  0
  7 12  1  0  0  0  0
  8  9  1  0  0  0  0
  8 11  1  0  0  0  0
  8 13  1  0  0  0  0
  9 10  2  0  0  0  0
  9 17  1  0  0  0  0
 11 14  1  0  0  0  0
 11 15  1  0  0  0  0
 11 16  1  0  0  0  0
 17 18  1  0  0  0  0
 17 23  1  0  0  0  0
 18 19  1  0  0  0  0
 18 21  1  0  0  0  0
 18 24  1  0  0  0  0
 19 20  2  0  0  0  0
 19 28  1  0  0  0  0
 21 22  1  0  0  0  0
 21 25  1  0  0  0  0
 21 26  1  0  0  0  0
 22 27  1  0  0  0  0
 28 29  1  0  0  0  0
 28 33  1  0  0  0  0
 29 30  1  0  0  0  0
 29 32  1  0  0  0  0
 29 34  1  0  0  0  0
 30 31  2  0  0  0  0
 30 38  1  0  0  0  0
 32 35  1  0  0  0  0
 32 36  1  0  0  0  0
 32 37  1  0  0  0  0
 38 39  1  0  0  0  0
 38 40  1  0  0  0  0
 39 41  1  0  0  0  0
 39 42  1  0  0  0  0
 39 43  1  0  0  0  0
M  END
$$$$

  -OEChem-05262216003D

 43 42  0     1  0  0  0  0  0999 V2000
   -3.5675   -5.2111    0.8236 C   0  0  0  0  0  0  0  0  0  0  0  0
   -2.6629   -6.0217    0.9478 O   0  0  0  0  0  0  0  0  0  0  0  0
   -4.9640   -5.5440    1.3140 C   0  0  0  0  0  0  0  0  0  0  0  0
   -5.6593   -5.5647    0.4714 H   0  0  0  0  0  0  0  0  0  0  0  0
   -4.9700   -6.5236    1.7998 H   0  0  0  0  0  0  0  0  0  0  0  0
   -5.2966   -4.7920    2.0339 H   0  0  0  0  0  0  0  0  0  0  0  0
   -3.3195   -3.9860    0.2429 N   0  0  0  0  0  0  0  0  0  0  0  0
   -1.9836   -3.4945   -0.1183 C   0  0  2  0  0  0  0  0  0  0  0  0
   -1.8715   -1.9646    0.0543 C   0  0  0  0  0  0  0  0  0  0  0  0
   -2.8901   -1.3085    0.2347 O   0  0  0  0  0  0  0  0  0  0  0  0
   -1.7013   -3.8868   -1.5715 C   0  0  0  0  0  0  0  0  0  0  0  0
   -4.0652   -3.2912    0.2796 H   0  0  0  0  0  0  0  0  0  0  0  0
   -1.2328   -3.9548    0.5334 H   0  0  0  0  0  0  0  0  0  0  0  0
   -2.4348   -3.4255   -2.2411 H   0  0  0  0  0  0  0  0  0  0  0  0
   -0.7013   -3.5605   -1.8729 H   0  0  0  0  0  0  0  0  0  0  0  0
   -1.7585   -4.9737   -1.6870 H   0  0  0  0  0  0  0  0  0  0  0  0
   -0.6162   -1.3784    0.1239 N   0  0  0  0  0  0  0  0  0  0  0  0
   -0.2495    0.0225   -0.2189 C   0  0  2  0  0  0  0  0  0  0  0  0
    0.3391    0.7604    1.0064 C   0  0  0  0  0  0  0  0  0  0  0  0
    0.3217    1.9819    1.0909 O   0  0  0  0  0  0  0  0  0  0  0  0
   -1.3185    0.8595   -0.9538 C   0  0  0  0  0  0  0  0  0  0  0  0
   -1.6435    0.1390   -2.6190 S   0  0  0  0  0  0  0  0  0  0  0  0
    0.1332   -2.0548    0.0061 H   0  0  0  0  0  0  0  0  0  0  0  0
    0.5832   -0.0455   -0.9250 H   0  0  0  0  0  0  0  0  0  0  0  0
   -2.2371    0.9345   -0.3656 H   0  0  0  0  0  0  0  0  0  0  0  0
   -0.9517    1.8814   -1.0958 H   0  0  0  0  0  0  0  0  0  0  0  0
   -2.6762    0.9131   -3.0197 H   0  0  0  0  0  0  0  0  0  0  0  0
    1.0266    0.0478    1.9700 N   0  0  0  0  0  0  0  0  0  0  0  0
    1.7686    0.6222    3.0975 C   0  0  2  0  0  0  0  0  0  0  0  0
    2.8688   -0.3471    3.5818 C   0  0  0  0  0  0  0  0  0  0  0  0
    2.9111   -1.4939    3.1468 O   0  0  0  0  0  0  0  0  0  0  0  0
    0.7807    0.9263    4.2291 C   0  0  0  0  0  0  0  0  0  0  0  0
    1.0723   -0.9635    1.8619 H   0  0  0  0  0  0  0  0  0  0  0  0
    2.2580    1.5500    2.7826 H   0  0  0  0  0  0  0  0  0  0  0  0
    0.2745    0.0103    4.5507 H   0  0  0  0  0  0  0  0  0  0  0  0
    1.2998    1.3593    5.0894 H   0  0  0  0  0  0  0  0  0  0  0  0
    0.0240    1.6413    3.8909 H   0  0  0  0  0  0  0  0  0  0  0  0
    3.8205    0.0642    4.4966 N   0  0  0  0  0  0  0  0  0  0  0  0
    4.8808   -0.8051    4.9936 C   0  0  0  0  0  0  0  0  0  0  0  0
    3.7686    1.0209    4.8346 H   0  0  0  0  0  0  0  0  0  0  0  0
    4.4571   -1.7125    5.4373 H   0  0  0  0  0  0  0  0  0  0  0  0
    5.5544   -1.0926    4.1794 H   0  0  0  0  0  0  0  0  0  0  0  0
    5.4654   -0.2885    5.7609 H   0  0  0  0  0  0  0  0  0  0  0  0
  1  2  2  0  0  0  0
  1  3  1  0  0  0  0
  1  7  1  0  0  0  0
  3  4  1  0  0  0  0
  3  5  1  0  0  0  0
  3  6  1  0  0  0  0
  7  8  1  0  0  0  0
  7 12  1  0  0  0  0
  8  9  1  0  0  0  0
  8 11  1  0  0  0  0
  8 13  1  0  0  0  0
  9 10  2  0  0  0  0
  9 17  1  0  0  0  0
 11 14  1  0  0  0  0
 11 15  1  0  0  0  0
 11 16  1  0  0  0  0
 17 18  1  0  0  0  0
 17 23  1  0  0  0  0
 18 19  1  0  0  0  0
 18 21  1  0  0  0  0
 18 24  1  0  0  0  0
 19 20  2  0  0  0  0
 19 28  1  0  0  0  0
 21 22  1  0  0  0  0
 21 25  1  0  0  0  0
 21 26  1  0  0  0  0
 22 27  1  0  0  0  0
 28 29  1  0  0  0  0
 28 33  1  0  0  0  0
 29 30  1  0  0  0  0
 29 32  1  0  0  0  0
 29 34  1  0  0  0  0
 30 31  2  0  0  0  0
 30 38  1  0  0  0  0
 32 35  1  0  0  0  0
 32 36  1  0  0  0  0
 32 37  1  0  0  0  0
 38 39  1  0  0  0  0
 38 40  1  0  0  0  0
 39 41  1  0  0  0  0
 39 42  1  0  0  0  0
 39 43  1  0  0  0  0
M  END
$$$$

  -OEChem-05262216003D

 43 42  0     1  0  0  0  0  0999 V2000
   -3.5343   -5.1696    0.9163 C   0  0  0  0  0  0  0  0  0  0  0  0
   -2.6243   -5.9656    1.0876 O   0  0  0  0  0  0  0  0  0  0  0  0
   -4.9344   -5.4975    1.3994 C   0  0  0  0  0  0  0  0  0  0  0  0
   -5.6220   -5.5343    0.5509 H   0  0  0  0  0  0  0  0  0  0  0  0
   -4.9418   -6.4689    1.9018 H   0  0  0  0  0  0  0  0  0  0  0  0
   -5.2754   -4.7342    2.1033 H   0  0  0  0  0  0  0  0  0  0  0  0
   -3.2883   -3.9667    0.2899 N   0  0  0  0  0  0  0  0  0  0  0  0
   -1.9504   -3.4774   -0.0652 C   0  0  2  0  0  0  0  0  0  0  0  0
   -1.8565   -1.9405    0.0427 C   0  0  0  0  0  0  0  0  0  0  0  0
   -2.8842   -1.2908    0.1900 O   0  0  0  0  0  0  0  0  0  0  0  0
   -1.6352   -3.9322   -1.4936 C   0  0  0  0  0  0  0  0  0  0  0  0
   -4.0392   -3.2765    0.2898 H   0  0  0  0  0  0  0  0  0  0  0  0
   -1.2099   -3.9000    0.6227 H   0  0  0  0  0  0  0  0  0  0  0  0
   -2.3574   -3.5058   -2.1975 H   0  0  0  0  0  0  0  0  0  0  0  0
   -0.6317   -3.6119   -1.7892 H   0  0  0  0  0  0  0  0  0  0  0  0
   -1.6828   -5.0238   -1.5642 H   0  0  0  0  0  0  0  0  0  0  0  0
   -0.6061   -1.3418    0.0925 N   0  0  0  0  0  0  0  0  0  0  0  0
   -0.2500    0.0604   -0.2520 C   0  0  2  0  0  0  0  0  0  0  0  0
    0.3524    0.7883    0.9718 C   0  0  0  0  0  0  0  0  0  0  0  0
    0.0956    1.9593    1.2224 O   0  0  0  0  0  0  0  0  0  0  0  0
   -1.3281    0.8972   -0.9726 C   0  0  0  0  0  0  0  0  0  0  0  0
   -1.6690    0.1810   -2.6365 S   0  0  0  0  0  0  0  0  0  0  0  0
    0.1505   -2.0131    0.0007 H   0  0  0  0  0  0  0  0  0  0  0  0
    0.5737   -0.0008   -0.9699 H   0  0  0  0  0  0  0  0  0  0  0  0
   -2.2402    0.9659   -0.3733 H   0  0  0  0  0  0  0  0  0  0  0  0
   -0.9660    1.9211   -1.1121 H   0  0  0  0  0  0  0  0  0  0  0  0
   -2.7088    0.9519   -3.0240 H   0  0  0  0  0  0  0  0  0  0  0  0
    1.3017    0.1464    1.7445 N   0  0  0  0  0  0  0  0  0  0  0  0
    2.0432    0.7447    2.8600 C   0  0  2  0  0  0  0  0  0  0  0  0
    3.3628   -0.0162    3.1102 C   0  0  0  0  0  0  0  0  0  0  0  0
    3.5660   -1.0896    2.5506 O   0  0  0  0  0  0  0  0  0  0  0  0
    1.1578    0.7127    4.1114 C   0  0  0  0  0  0  0  0  0  0  0  0
    1.5726   -0.7975    1.4761 H   0  0  0  0  0  0  0  0  0  0  0  0
    2.2970    1.7827    2.6198 H   0  0  0  0  0  0  0  0  0  0  0  0
    0.8873   -0.3179    4.3636 H   0  0  0  0  0  0  0  0  0  0  0  0
    1.6800    1.1550    4.9649 H   0  0  0  0  0  0  0  0  0  0  0  0
    0.2375    1.2807    3.9411 H   0  0  0  0  0  0  0  0  0  0  0  0
    4.3301    0.5047    3.9495 N   0  0  0  0  0  0  0  0  0  0  0  0
    5.5967   -0.1642    4.2215 C   0  0  0  0  0  0  0  0  0  0  0  0
    4.1412    1.4011    4.3889 H   0  0  0  0  0  0  0  0  0  0  0  0
    5.4214   -1.1613    4.6396 H   0  0  0  0  0  0  0  0  0  0  0  0
    6.1815   -0.2656    3.3011 H   0  0  0  0  0  0  0  0  0  0  0  0
    6.1835    0.4136    4.9421 H   0  0  0  0  0  0  0  0  0  0  0  0
  1  2  2  0  0  0  0
  1  3  1  0  0  0  0
  1  7  1  0  0  0  0
  3  4  1  0  0  0  0
  3  5  1  0  0  0  0
  3  6  1  0  0  0  0
  7  8  1  0  0  0  0
  7 12  1  0  0  0  0
  8  9  1  0  0  0  0
  8 11  1  0  0  0  0
  8 13  1  0  0  0  0
  9 10  2  0  0  0  0
  9 17  1  0  0  0  0
 11 14  1  0  0  0  0
 11 15  1  0  0  0  0
 11 16  1  0  0  0  0
 17 18  1  0  0  0  0
 17 23  1  0  0  0  0
 18 19  1  0  0  0  0
 18 21  1  0  0  0  0
 18 24  1  0  0  0  0
 19 20  2  0  0  0  0
 19 28  1  0  0  0  0
 21 22  1  0  0  0  0
 21 25  1  0  0  0  0
 21 26  1  0  0  0  0
 22 27  1  0  0  0  0
 28 29  1  0  0  0  0
 28 33  1  0  0  0  0
 29 30  1  0  0  0  0
 29 32  1  0  0  0  0
 29 34  1  0  0  0  0
 30 31  2  0  0  0  0
 30 38  1  0  0  0  0
 32 35  1  0  0  0  0
 32 36  1  0  0  0  0
 32 37  1  0  0  0  0
 38 39  1  0  0  0  0
 38 40  1  0  0  0  0
 39 41  1  0  0  0  0
 39 42  1  0  0  0  0
 39 43  1  0  0  0  0
M  END
$$$$

  -OEChem-05262216003D

 43 42  0     1  0  0  0  0  0999 V2000
   -3.5236   -5.1368    0.9815 C   0  0  0  0  0  0  0  0  0  0  0  0
   -2.6126   -5.9205    1.1991 O   0  0  0  0  0  0  0  0  0  0  0  0
   -4.9304   -5.4519    1.4537 C   0  0  0  0  0  0  0  0  0  0  0  0
   -5.6170   -5.4518    0.6038 H   0  0  0  0  0  0  0  0  0  0  0  0
   -4.9569   -6.4367    1.9283 H   0  0  0  0  0  0  0  0  0  0  0  0
   -5.2580   -4.7020    2.1780 H   0  0  0  0  0  0  0  0  0  0  0  0
   -3.2722   -3.9568    0.3150 N   0  0  0  0  0  0  0  0  0  0  0  0
   -1.9304   -3.4736   -0.0350 C   0  0  2  0  0  0  0  0  0  0  0  0
   -1.8457   -1.9329    0.0138 C   0  0  0  0  0  0  0  0  0  0  0  0
   -2.8819   -1.2858    0.0991 O   0  0  0  0  0  0  0  0  0  0  0  0
   -1.5863   -3.9835   -1.4376 C   0  0  0  0  0  0  0  0  0  0  0  0
   -4.0269   -3.2717    0.2736 H   0  0  0  0  0  0  0  0  0  0  0  0
   -1.2003   -3.8644    0.6821 H   0  0  0  0  0  0  0  0  0  0  0  0
   -2.2974   -3.5902   -2.1716 H   0  0  0  0  0  0  0  0  0  0  0  0
   -0.5789   -3.6698   -1.7265 H   0  0  0  0  0  0  0  0  0  0  0  0
   -1.6270   -5.0772   -1.4635 H   0  0  0  0  0  0  0  0  0  0  0  0
   -0.5980   -1.3282    0.0690 N   0  0  0  0  0  0  0  0  0  0  0  0
   -0.2356    0.0726   -0.2714 C   0  0  2  0  0  0  0  0  0  0  0  0
    0.3607    0.7941    0.9576 C   0  0  0  0  0  0  0  0  0  0  0  0
   -0.0928    1.8530    1.3732 O   0  0  0  0  0  0  0  0  0  0  0  0
   -1.3057    0.9195   -0.9910 C   0  0  0  0  0  0  0  0  0  0  0  0
   -1.6513    0.2161   -2.6597 S   0  0  0  0  0  0  0  0  0  0  0  0
    0.1666   -1.9960    0.0430 H   0  0  0  0  0  0  0  0  0  0  0  0
    0.5880    0.0100   -0.9886 H   0  0  0  0  0  0  0  0  0  0  0  0
   -2.2188    0.9865   -0.3928 H   0  0  0  0  0  0  0  0  0  0  0  0
   -0.9374    1.9429   -1.1180 H   0  0  0  0  0  0  0  0  0  0  0  0
   -2.7200    0.9602   -3.0202 H   0  0  0  0  0  0  0  0  0  0  0  0
    1.5069    0.2946    1.5475 N   0  0  0  0  0  0  0  0  0  0  0  0
    2.2488    0.9385    2.6380 C   0  0  2  0  0  0  0  0  0  0  0  0
    3.7228    0.4803    2.6451 C   0  0  0  0  0  0  0  0  0  0  0  0
    4.0715   -0.4652    1.9448 O   0  0  0  0  0  0  0  0  0  0  0  0
    1.5677    0.5875    3.9655 C   0  0  0  0  0  0  0  0  0  0  0  0
    1.9472   -0.5194    1.1217 H   0  0  0  0  0  0  0  0  0  0  0  0
    2.2395    2.0251    2.5002 H   0  0  0  0  0  0  0  0  0  0  0  0
    1.5641   -0.4964    4.1183 H   0  0  0  0  0  0  0  0  0  0  0  0
    2.0913    1.0565    4.8037 H   0  0  0  0  0  0  0  0  0  0  0  0
    0.5319    0.9419    3.9676 H   0  0  0  0  0  0  0  0  0  0  0  0
    4.6632    1.1338    3.4196 N   0  0  0  0  0  0  0  0  0  0  0  0
    6.0722    0.7600    3.4506 C   0  0  0  0  0  0  0  0  0  0  0  0
    4.3508    1.9251    3.9749 H   0  0  0  0  0  0  0  0  0  0  0  0
    6.1847   -0.2900    3.7408 H   0  0  0  0  0  0  0  0  0  0  0  0
    6.5278    0.9037    2.4652 H   0  0  0  0  0  0  0  0  0  0  0  0
    6.6124    1.3768    4.1753 H   0  0  0  0  0  0  0  0  0  0  0  0
  1  2  2  0  0  0  0
  1  3  1  0  0  0  0
  1  7  1  0  0  0  0
  3  4  1  0  0  0  0
  3  5  1  0  0  0  0
  3  6  1  0  0  0  0
  7  8  1  0  0  0  0
  7 12  1  0  0  0  0
  8  9  1  0  0  0  0
  8 11  1  0  0  0  0
  8 13  1  0  0  0  0
  9 10  2  0  0  0  0
  9 17  1  0  0  0  0
 11 14  1  0  0  0  0
 11 15  1  0  0  0  0
 11 16  1  0  0  0  0
 17 18  1  0  0  0  0
 17 23  1  0  0  0  0
 18 19  1  0  0  0  0
 18 21  1  0  0  0  0
 18 24  1  0  0  0  0
 19 20  2  0  0  0  0
 19 28  1  0  0  0  0
 21 22  1  0  0  0  0
 21 25  1  0  0  0  0
 21 26  1  0  0  0  0
 22 27  1  0  0  0  0
 28 29  1  0  0  0  0
 28 33  1  0  0  0  0
 29 30  1  0  0  0  0
 29 32  1  0  0  0  0
 29 34  1  0  0  0  0
 30 31  2  0  0  0  0
 30 38  1  0  0  0  0
 32 35  1  0  0  0  0
 32 36  1  0  0  0  0
 32 37  1  0  0  0  0
 38 39  1  0  0  0  0
 38 40  1  0  0  0  0
 39 41  1  0  0  0  0
 39 42  1  0  0  0  0
 39 43  1  0  0  0  0
M  END
$$$$

  -OEChem-05262216003D

 43 42  0     1  0  0  0  0  0999 V2000
   -3.4840   -5.0995    1.0502 C   0  0  0  0  0  0  0  0  0  0  0  0
   -2.5670   -5.8473    1.3526 O   0  0  0  0  0  0  0  0  0  0  0  0
   -4.9030   -5.4191    1.4813 C   0  0  0  0  0  0  0  0  0  0  0  0
   -5.5500   -5.4985    0.6043 H   0  0  0  0  0  0  0  0  0  0  0  0
   -4.9278   -6.3681    2.0241 H   0  0  0  0  0  0  0  0  0  0  0  0
   -5.2813   -4.6294    2.1352 H   0  0  0  0  0  0  0  0  0  0  0  0
   -3.2295   -3.9560    0.3241 N   0  0  0  0  0  0  0  0  0  0  0  0
   -1.8844   -3.4604    0.0066 C   0  0  2  0  0  0  0  0  0  0  0  0
   -1.8355   -1.9176   -0.0329 C   0  0  0  0  0  0  0  0  0  0  0  0
   -2.8886   -1.2924   -0.0197 O   0  0  0  0  0  0  0  0  0  0  0  0
   -1.4615   -4.0440   -1.3446 C   0  0  0  0  0  0  0  0  0  0  0  0
   -3.9950   -3.2905    0.2163 H   0  0  0  0  0  0  0  0  0  0  0  0
   -1.1809   -3.7896    0.7789 H   0  0  0  0  0  0  0  0  0  0  0  0
   -2.1467   -3.7164   -2.1331 H   0  0  0  0  0  0  0  0  0  0  0  0
   -0.4495   -3.7209   -1.6061 H   0  0  0  0  0  0  0  0  0  0  0  0
   -1.4742   -5.1377   -1.3034 H   0  0  0  0  0  0  0  0  0  0  0  0
   -0.5993   -1.2885    0.0166 N   0  0  0  0  0  0  0  0  0  0  0  0
   -0.2490    0.1182   -0.3064 C   0  0  2  0  0  0  0  0  0  0  0  0
    0.3499    0.8216    0.9294 C   0  0  0  0  0  0  0  0  0  0  0  0
   -0.2551    1.6983    1.5327 O   0  0  0  0  0  0  0  0  0  0  0  0
   -1.3288    0.9771   -0.9928 C   0  0  0  0  0  0  0  0  0  0  0  0
   -1.6998    0.3060   -2.6689 S   0  0  0  0  0  0  0  0  0  0  0  0
    0.1807   -1.9370    0.0636 H   0  0  0  0  0  0  0  0  0  0  0  0
    0.5635    0.0717   -1.0371 H   0  0  0  0  0  0  0  0  0  0  0  0
   -2.2337    1.0244   -0.3795 H   0  0  0  0  0  0  0  0  0  0  0  0
   -0.9652    2.0042   -1.1001 H   0  0  0  0  0  0  0  0  0  0  0  0
   -2.8180    1.0036   -2.9658 H   0  0  0  0  0  0  0  0  0  0  0  0
    1.6444    0.5270    1.3151 N   0  0  0  0  0  0  0  0  0  0  0  0
    2.3799    1.2064    2.3886 C   0  0  2  0  0  0  0  0  0  0  0  0
    3.9035    1.0672    2.1850 C   0  0  0  0  0  0  0  0  0  0  0  0
    4.3384    0.2931    1.3379 O   0  0  0  0  0  0  0  0  0  0  0  0
    1.9595    0.6026    3.7335 C   0  0  0  0  0  0  0  0  0  0  0  0
    2.1880   -0.1024    0.7255 H   0  0  0  0  0  0  0  0  0  0  0  0
    2.1404    2.2751    2.3790 H   0  0  0  0  0  0  0  0  0  0  0  0
    2.1855   -0.4682    3.7590 H   0  0  0  0  0  0  0  0  0  0  0  0
    2.4877    1.0902    4.5583 H   0  0  0  0  0  0  0  0  0  0  0  0
    0.8843    0.7351    3.8903 H   0  0  0  0  0  0  0  0  0  0  0  0
    4.7876    1.8183    2.9370 N   0  0  0  0  0  0  0  0  0  0  0  0
    6.2352    1.7428    2.7805 C   0  0  0  0  0  0  0  0  0  0  0  0
    4.3984    2.4618    3.6204 H   0  0  0  0  0  0  0  0  0  0  0  0
    6.5853    0.7173    2.9396 H   0  0  0  0  0  0  0  0  0  0  0  0
    6.5292    2.0638    1.7755 H   0  0  0  0  0  0  0  0  0  0  0  0
    6.7291    2.3920    3.5099 H   0  0  0  0  0  0  0  0  0  0  0  0
  1  2  2  0  0  0  0
  1  3  1  0  0  0  0
  1  7  1  0  0  0  0
  3  4  1  0  0  0  0
  3  5  1  0  0  0  0
  3  6  1  0  0  0  0
  7  8  1  0  0  0  0
  7 12  1  0  0  0  0
  8  9  1  0  0  0  0
  8 11  1  0  0  0  0
  8 13  1  0  0  0  0
  9 10  2  0  0  0  0
  9 17  1  0  0  0  0
 11 14  1  0  0  0  0
 11 15  1  0  0  0  0
 11 16  1  0  0  0  0
 17 18  1  0  0  0  0
 17 23  1  0  0  0  0
 18 19  1  0  0  0  0
 18 21  1  0  0  0  0
 18 24  1  0  0  0  0
 19 20  2  0  0  0  0
 19 28  1  0  0  0  0
 21 22  1  0  0  0  0
 21 25  1  0  0  0  0
 21 26  1  0  0  0  0
 22 27  1  0  0  0  0
 28 29  1  0  0  0  0
 28 33  1  0  0  0  0
 29 30  1  0  0  0  0
 29 32  1  0  0  0  0
 29 34  1  0  0  0  0
 30 31  2  0  0  0  0
 30 38  1  0  0  0  0
 32 35  1  0  0  0  0
 32 36  1  0  0  0  0
 32 37  1  0  0  0  0
 38 39  1  0  0  0  0
 38 40  1  0  0  0  0
 39 41  1  0  0  0  0
 39 42  1  0  0  0  0
 39 43  1  0  0  0  0
M  END
$$$$

  -OEChem-05262216003D

 43 42  0     1  0  0  0  0  0999 V2000
   -3.4774   -5.0860    1.0711 C   0  0  0  0  0  0  0  0  0  0  0  0
   -2.5642   -5.8316    1.3899 O   0  0  0  0  0  0  0  0  0  0  0  0
   -4.9000   -5.4000    1.4938 C   0  0  0  0  0  0  0  0  0  0  0  0
   -5.5329   -5.5246    0.6118 H   0  0  0  0  0  0  0  0  0  0  0  0
   -4.9228   -6.3242    2.0779 H   0  0  0  0  0  0  0  0  0  0  0  0
   -5.2958   -4.5861    2.1062 H   0  0  0  0  0  0  0  0  0  0  0  0
   -3.2137   -3.9491    0.3380 N   0  0  0  0  0  0  0  0  0  0  0  0
   -1.8645   -3.4574    0.0323 C   0  0  2  0  0  0  0  0  0  0  0  0
   -1.8225   -1.9167   -0.0622 C   0  0  0  0  0  0  0  0  0  0  0  0
   -2.8805   -1.3007   -0.0996 O   0  0  0  0  0  0  0  0  0  0  0  0
   -1.4062   -4.0874   -1.2868 C   0  0  0  0  0  0  0  0  0  0  0  0
   -3.9784   -3.2867    0.2074 H   0  0  0  0  0  0  0  0  0  0  0  0
   -1.1780   -3.7531    0.8328 H   0  0  0  0  0  0  0  0  0  0  0  0
   -2.0798   -3.8008   -2.1010 H   0  0  0  0  0  0  0  0  0  0  0  0
   -0.3940   -3.7590   -1.5409 H   0  0  0  0  0  0  0  0  0  0  0  0
   -1.4035   -5.1791   -1.2046 H   0  0  0  0  0  0  0  0  0  0  0  0
   -0.5899   -1.2798   -0.0128 N   0  0  0  0  0  0  0  0  0  0  0  0
   -0.2431    0.1289   -0.3290 C   0  0  2  0  0  0  0  0  0  0  0  0
    0.3570    0.8351    0.9039 C   0  0  0  0  0  0  0  0  0  0  0  0
   -0.3386    1.4839    1.6741 O   0  0  0  0  0  0  0  0  0  0  0  0
   -1.3253    0.9964   -0.9983 C   0  0  0  0  0  0  0  0  0  0  0  0
   -1.7161    0.3453   -2.6778 S   0  0  0  0  0  0  0  0  0  0  0  0
    0.1941   -1.9177    0.0852 H   0  0  0  0  0  0  0  0  0  0  0  0
    0.5625    0.0850   -1.0678 H   0  0  0  0  0  0  0  0  0  0  0  0
   -2.2249    1.0356   -0.3762 H   0  0  0  0  0  0  0  0  0  0  0  0
   -0.9621    2.0244   -1.0965 H   0  0  0  0  0  0  0  0  0  0  0  0
   -2.8600    1.0166   -2.9348 H   0  0  0  0  0  0  0  0  0  0  0  0
    1.7231    0.8009    1.1142 N   0  0  0  0  0  0  0  0  0  0  0  0
    2.4309    1.5334    2.1722 C   0  0  2  0  0  0  0  0  0  0  0  0
    3.9088    1.7640    1.7893 C   0  0  0  0  0  0  0  0  0  0  0  0
    4.3774    1.2058    0.8023 O   0  0  0  0  0  0  0  0  0  0  0  0
    2.3320    0.7331    3.4765 C   0  0  0  0  0  0  0  0  0  0  0  0
    2.3072    0.3775    0.3933 H   0  0  0  0  0  0  0  0  0  0  0  0
    1.9677    2.5162    2.3126 H   0  0  0  0  0  0  0  0  0  0  0  0
    2.7851   -0.2558    3.3539 H   0  0  0  0  0  0  0  0  0  0  0  0
    2.8470    1.2544    4.2888 H   0  0  0  0  0  0  0  0  0  0  0  0
    1.2841    0.6018    3.7652 H   0  0  0  0  0  0  0  0  0  0  0  0
    4.7133    2.6002    2.5412 N   0  0  0  0  0  0  0  0  0  0  0  0
    6.1155    2.8529    2.2312 C   0  0  0  0  0  0  0  0  0  0  0  0
    4.2962    3.0586    3.3462 H   0  0  0  0  0  0  0  0  0  0  0  0
    6.6820    1.9158    2.2233 H   0  0  0  0  0  0  0  0  0  0  0  0
    6.2112    3.3306    1.2507 H   0  0  0  0  0  0  0  0  0  0  0  0
    6.5561    3.5150    2.9827 H   0  0  0  0  0  0  0  0  0  0  0  0
  1  2  2  0  0  0  0
  1  3  1  0  0  0  0
  1  7  1  0  0  0  0
  3  4  1  0  0  0  0
  3  5  1  0  0  0  0
  3  6  1  0  0  0  0
  7  8  1  0  0  0  0
  7 12  1  0  0  0  0
  8  9  1  0  0  0  0
  8 11  1  0  0  0  0
  8 13  1  0  0  0  0
  9 10  2  0  0  0  0
  9 17  1  0  0  0  0
 11 14  1  0  0  0  0
 11 15  1  0  0  0  0
 11 16  1  0  0  0  0
 17 18  1  0  0  0  0
 17 23  1  0  0  0  0
 18 19  1  0  0  0  0
 18 21  1  0  0  0  0
 18 24  1  0  0  0  0
 19 20  2  0  0  0  0
 19 28  1  0  0  0  0
 21 22  1  0  0  0  0
 21 25  1  0  0  0  0
 21 26  1  0  0  0  0
 22 27  1  0  0  0  0
 28 29  1  0  0  0  0
 28 33  1  0  0  0  0
 29 30  1  0  0  0  0
 29 32  1  0  0  0  0
 29 34  1  0  0  0  0
 30 31  2  0  0  0  0
 30 38  1  0  0  0  0
 32 35  1  0  0  0  0
 32 36  1  0  0  0  0
 32 37  1  0  0  0  0
 38 39  1  0  0  0  0
 38 40  1  0  0  0  0
 39 41  1  0  0  0  0
 39 42  1  0  0  0  0
 39 43  1  0  0  0  0
M  END
$$$$

  -OEChem-05262216003D

 43 42  0     1  0  0  0  0  0999 V2000
   -3.4778   -5.0529    1.1105 C   0  0  0  0  0  0  0  0  0  0  0  0
   -2.5706   -5.7828    1.4788 O   0  0  0  0  0  0  0  0  0  0  0  0
   -4.9104   -5.3595    1.5038 C   0  0  0  0  0  0  0  0  0  0  0  0
   -5.5346   -5.4351    0.6100 H   0  0  0  0  0  0  0  0  0  0  0  0
   -4.9578   -6.3072    2.0478 H   0  0  0  0  0  0  0  0  0  0  0  0
   -5.2985   -4.5643    2.1453 H   0  0  0  0  0  0  0  0  0  0  0  0
   -3.2002   -3.9413    0.3445 N   0  0  0  0  0  0  0  0  0  0  0  0
   -1.8465   -3.4586    0.0452 C   0  0  2  0  0  0  0  0  0  0  0  0
   -1.8041   -1.9211   -0.0948 C   0  0  0  0  0  0  0  0  0  0  0  0
   -2.8618   -1.3089   -0.1789 O   0  0  0  0  0  0  0  0  0  0  0  0
   -1.3706   -4.1289   -1.2477 C   0  0  0  0  0  0  0  0  0  0  0  0
   -3.9627   -3.2851    0.1760 H   0  0  0  0  0  0  0  0  0  0  0  0
   -1.1717   -3.7307    0.8639 H   0  0  0  0  0  0  0  0  0  0  0  0
   -2.0287   -3.8607   -2.0807 H   0  0  0  0  0  0  0  0  0  0  0  0
   -0.3521   -3.8147   -1.4940 H   0  0  0  0  0  0  0  0  0  0  0  0
   -1.3771   -5.2178   -1.1346 H   0  0  0  0  0  0  0  0  0  0  0  0
   -0.5727   -1.2827   -0.0424 N   0  0  0  0  0  0  0  0  0  0  0  0
   -0.2235    0.1278   -0.3466 C   0  0  2  0  0  0  0  0  0  0  0  0
    0.3799    0.8305    0.8856 C   0  0  0  0  0  0  0  0  0  0  0  0
   -0.3265    1.2128    1.8084 O   0  0  0  0  0  0  0  0  0  0  0  0
   -1.3005    1.0116   -1.0012 C   0  0  0  0  0  0  0  0  0  0  0  0
   -1.7040    0.3862   -2.6877 S   0  0  0  0  0  0  0  0  0  0  0  0
    0.2091   -1.9121    0.1112 H   0  0  0  0  0  0  0  0  0  0  0  0
    0.5777    0.0820   -1.0896 H   0  0  0  0  0  0  0  0  0  0  0  0
   -2.1972    1.0450   -0.3742 H   0  0  0  0  0  0  0  0  0  0  0  0
   -0.9332    2.0392   -1.0866 H   0  0  0  0  0  0  0  0  0  0  0  0
   -2.8619    1.0435   -2.9190 H   0  0  0  0  0  0  0  0  0  0  0  0
    1.7395    1.0737    0.9462 N   0  0  0  0  0  0  0  0  0  0  0  0
    2.4059    1.8461    2.0030 C   0  0  2  0  0  0  0  0  0  0  0  0
    3.7338    2.4475    1.4954 C   0  0  0  0  0  0  0  0  0  0  0  0
    4.1886    2.0975    0.4111 O   0  0  0  0  0  0  0  0  0  0  0  0
    2.6564    0.9272    3.2040 C   0  0  0  0  0  0  0  0  0  0  0  0
    2.3007    0.8631    0.1205 H   0  0  0  0  0  0  0  0  0  0  0  0
    1.7632    2.6781    2.3111 H   0  0  0  0  0  0  0  0  0  0  0  0
    3.3031    0.0919    2.9174 H   0  0  0  0  0  0  0  0  0  0  0  0
    3.1374    1.4781    4.0177 H   0  0  0  0  0  0  0  0  0  0  0  0
    1.7102    0.5235    3.5782 H   0  0  0  0  0  0  0  0  0  0  0  0
    4.4106    3.3944    2.2413 N   0  0  0  0  0  0  0  0  0  0  0  0
    5.6535    4.0185    1.8036 C   0  0  0  0  0  0  0  0  0  0  0  0
    3.9963    3.6862    3.1218 H   0  0  0  0  0  0  0  0  0  0  0  0
    6.4132    3.2576    1.5953 H   0  0  0  0  0  0  0  0  0  0  0  0
    5.4867    4.6070    0.8954 H   0  0  0  0  0  0  0  0  0  0  0  0
    6.0377    4.6841    2.5828 H   0  0  0  0  0  0  0  0  0  0  0  0
  1  2  2  0  0  0  0
  1  3  1  0  0  0  0
  1  7  1  0  0  0  0
  3  4  1  0  0  0  0
  3  5  1  0  0  0  0
  3  6  1  0  0  0  0
  7  8  1  0  0  0  0
  7 12  1  0  0  0  0
  8  9  1  0  0  0  0
  8 11  1  0  0  0  0
  8 13  1  0  0  0  0
  9 10  2  0  0  0  0
  9 17  1  0  0  0  0
 11 14  1  0  0  0  0
 11 15  1  0  0  0  0
 11 16  1  0  0  0  0
 17 18  1  0  0  0  0
 17 23  1  0  0  0  0
 18 19  1  0  0  0  0
 18 21  1  0  0  0  0
 18 24  1  0  0  0  0
 19 20  2  0  0  0  0
 19 28  1  0  0  0  0
 21 22  1  0  0  0  0
 21 25  1  0  0  0  0
 21 26  1  0  0  0  0
 22 27  1  0  0  0  0
 28 29  1  0  0  0  0
 28 33  1  0  0  0  0
 29 30  1  0  0  0  0
 29 32  1  0  0  0  0
 29 34  1  0  0  0  0
 30 31  2  0  0  0  0
 30 38  1  0  0  0  0
 32 35  1  0  0  0  0
 32 36  1  0  0  0  0
 32 37  1  0  0  0  0
 38 39  1  0  0  0  0
 38 40  1  0  0  0  0
 39 41  1  0  0  0  0
 39 42  1  0  0  0  0
 39 43  1  0  0  0  0
M  END
$$$$

  -OEChem-05262216003D

 43 42  0     1  0  0  0  0  0999 V2000
   -3.4749   -5.0324    1.1268 C   0  0  0  0  0  0  0  0  0  0  0  0
   -2.5745   -5.7612    1.5139 O   0  0  0  0  0  0  0  0  0  0  0  0
   -4.9148   -5.3343    1.4956 C   0  0  0  0  0  0  0  0  0  0  0  0
   -5.5130   -5.4569    0.5894 H   0  0  0  0  0  0  0  0  0  0  0  0
   -4.9696   -6.2560    2.0815 H   0  0  0  0  0  0  0  0  0  0  0  0
   -5.3267   -4.5140    2.0886 H   0  0  0  0  0  0  0  0  0  0  0  0
   -3.1844   -3.9276    0.3563 N   0  0  0  0  0  0  0  0  0  0  0  0
   -1.8260   -3.4460    0.0781 C   0  0  2  0  0  0  0  0  0  0  0  0
   -1.7915   -1.9138   -0.1119 C   0  0  0  0  0  0  0  0  0  0  0  0
   -2.8524   -1.3123   -0.2324 O   0  0  0  0  0  0  0  0  0  0  0  0
   -1.3083   -4.1571   -1.1768 C   0  0  0  0  0  0  0  0  0  0  0  0
   -3.9443   -3.2737    0.1673 H   0  0  0  0  0  0  0  0  0  0  0  0
   -1.1737   -3.6851    0.9249 H   0  0  0  0  0  0  0  0  0  0  0  0
   -1.9457   -3.9269   -2.0366 H   0  0  0  0  0  0  0  0  0  0  0  0
   -0.2861   -3.8420   -1.4062 H   0  0  0  0  0  0  0  0  0  0  0  0
   -1.3074   -5.2412   -1.0247 H   0  0  0  0  0  0  0  0  0  0  0  0
   -0.5650   -1.2664   -0.0606 N   0  0  0  0  0  0  0  0  0  0  0  0
   -0.2240    0.1452   -0.3668 C   0  0  2  0  0  0  0  0  0  0  0  0
    0.3755    0.8616    0.8586 C   0  0  0  0  0  0  0  0  0  0  0  0
   -0.2491    0.9528    1.9066 O   0  0  0  0  0  0  0  0  0  0  0  0
   -1.3024    1.0246   -1.0217 C   0  0  0  0  0  0  0  0  0  0  0  0
   -1.7026    0.3971   -2.7078 S   0  0  0  0  0  0  0  0  0  0  0  0
    0.2164   -1.8782    0.1538 H   0  0  0  0  0  0  0  0  0  0  0  0
    0.5781    0.0963   -1.1086 H   0  0  0  0  0  0  0  0  0  0  0  0
   -2.1992    1.0522   -0.3949 H   0  0  0  0  0  0  0  0  0  0  0  0
   -0.9400    2.0541   -1.1078 H   0  0  0  0  0  0  0  0  0  0  0  0
   -2.8757    1.0294   -2.9284 H   0  0  0  0  0  0  0  0  0  0  0  0
    1.6499    1.3930    0.7956 N   0  0  0  0  0  0  0  0  0  0  0  0
    2.2813    2.1806    1.8617 C   0  0  2  0  0  0  0  0  0  0  0  0
    3.3543    3.1294    1.2854 C   0  0  0  0  0  0  0  0  0  0  0  0
    3.7011    3.0201    0.1137 O   0  0  0  0  0  0  0  0  0  0  0  0
    2.9020    1.2204    2.8830 C   0  0  0  0  0  0  0  0  0  0  0  0
    2.1121    1.4164   -0.1139 H   0  0  0  0  0  0  0  0  0  0  0  0
    1.5260    2.7994    2.3583 H   0  0  0  0  0  0  0  0  0  0  0  0
    3.6623    0.5937    2.4060 H   0  0  0  0  0  0  0  0  0  0  0  0
    3.3709    1.7774    3.6995 H   0  0  0  0  0  0  0  0  0  0  0  0
    2.1332    0.5693    3.3114 H   0  0  0  0  0  0  0  0  0  0  0  0
    3.9218    4.1153    2.0711 N   0  0  0  0  0  0  0  0  0  0  0  0
    4.9379    5.0409    1.5836 C   0  0  0  0  0  0  0  0  0  0  0  0
    3.6064    4.1922    3.0339 H   0  0  0  0  0  0  0  0  0  0  0  0
    5.8129    4.4919    1.2193 H   0  0  0  0  0  0  0  0  0  0  0  0
    4.5404    5.6524    0.7666 H   0  0  0  0  0  0  0  0  0  0  0  0
    5.2602    5.7080    2.3891 H   0  0  0  0  0  0  0  0  0  0  0  0
  1  2  2  0  0  0  0
  1  3  1  0  0  0  0
  1  7  1  0  0  0  0
  3  4  1  0  0  0  0
  3  5  1  0  0  0  0
  3  6  1  0  0  0  0
  7  8  1  0  0  0  0
  7 12  1  0  0  0  0
  8  9  1  0  0  0  0
  8 11  1  0  0  0  0
  8 13  1  0  0  0  0
  9 10  2  0  0  0  0
  9 17  1  0  0  0  0
 11 14  1  0  0  0  0
 11 15  1  0  0  0  0
 11 16  1  0  0  0  0
 17 18  1  0  0  0  0
 17 23  1  0  0  0  0
 18 19  1  0  0  0  0
 18 21  1  0  0  0  0
 18 24  1  0  0  0  0
 19 20  2  0  0  0  0
 19 28  1  0  0  0  0
 21 22  1  0  0  0  0
 21 25  1  0  0  0  0
 21 26  1  0  0  0  0
 22 27  1  0  0  0  0
 28 29  1  0  0  0  0
 28 33  1  0  0  0  0
 29 30  1  0  0  0  0
 29 32  1  0  0  0  0
 29 34  1  0  0  0  0
 30 31  2  0  0  0  0
 30 38  1  0  0  0  0
 32 35  1  0  0  0  0
 32 36  1  0  0  0  0
 32 37  1  0  0  0  0
 38 39  1  0  0  0  0
 38 40  1  0  0  0  0
 39 41  1  0  0  0  0
 39 42  1  0  0  0  0
 39 43  1  0  0  0  0
M  END
$$$$

  -OEChem-05262216003D

 43 42  0     1  0  0  0  0  0999 V2000
   -3.4797   -5.0110    1.1533 C   0  0  0  0  0  0  0  0  0  0  0  0
   -2.5848   -5.7171    1.5916 O   0  0  0  0  0  0  0  0  0  0  0  0
   -4.9274   -5.3241    1.4811 C   0  0  0  0  0  0  0  0  0  0  0  0
   -5.5042   -5.4294    0.5590 H   0  0  0  0  0  0  0  0  0  0  0  0
   -4.9923   -6.2583    2.0460 H   0  0  0  0  0  0  0  0  0  0  0  0
   -5.3565   -4.5180    2.0812 H   0  0  0  0  0  0  0  0  0  0  0  0
   -3.1762   -3.9232    0.3630 N   0  0  0  0  0  0  0  0  0  0  0  0
   -1.8146   -3.4361    0.1088 C   0  0  2  0  0  0  0  0  0  0  0  0
   -1.7838   -1.9101   -0.1307 C   0  0  0  0  0  0  0  0  0  0  0  0
   -2.8438   -1.3199   -0.3039 O   0  0  0  0  0  0  0  0  0  0  0  0
   -1.2538   -4.1800   -1.1082 C   0  0  0  0  0  0  0  0  0  0  0  0
   -3.9373   -3.2876    0.1245 H   0  0  0  0  0  0  0  0  0  0  0  0
   -1.1857   -3.6424    0.9816 H   0  0  0  0  0  0  0  0  0  0  0  0
   -1.8647   -3.9772   -1.9939 H   0  0  0  0  0  0  0  0  0  0  0  0
   -0.2265   -3.8649   -1.3139 H   0  0  0  0  0  0  0  0  0  0  0  0
   -1.2516   -5.2595   -0.9261 H   0  0  0  0  0  0  0  0  0  0  0  0
   -0.5624   -1.2536   -0.0727 N   0  0  0  0  0  0  0  0  0  0  0  0
   -0.2253    0.1600   -0.3764 C   0  0  2  0  0  0  0  0  0  0  0  0
    0.3649    0.8906    0.8458 C   0  0  0  0  0  0  0  0  0  0  0  0
   -0.0910    0.7203    1.9687 O   0  0  0  0  0  0  0  0  0  0  0  0
   -1.2967    1.0359   -1.0481 C   0  0  0  0  0  0  0  0  0  0  0  0
   -1.6706    0.4086   -2.7402 S   0  0  0  0  0  0  0  0  0  0  0  0
    0.2111   -1.8430    0.2196 H   0  0  0  0  0  0  0  0  0  0  0  0
    0.5863    0.1072   -1.1077 H   0  0  0  0  0  0  0  0  0  0  0  0
   -2.2036    1.0589   -0.4354 H   0  0  0  0  0  0  0  0  0  0  0  0
   -0.9376    2.0670   -1.1287 H   0  0  0  0  0  0  0  0  0  0  0  0
   -2.8393    1.0407   -2.9815 H   0  0  0  0  0  0  0  0  0  0  0  0
    1.4829    1.6898    0.6973 N   0  0  0  0  0  0  0  0  0  0  0  0
    2.0843    2.4930    1.7700 C   0  0  2  0  0  0  0  0  0  0  0  0
    2.8308    3.7171    1.1964 C   0  0  0  0  0  0  0  0  0  0  0  0
    2.9914    3.8223   -0.0153 O   0  0  0  0  0  0  0  0  0  0  0  0
    3.0401    1.6037    2.5730 C   0  0  0  0  0  0  0  0  0  0  0  0
    1.7904    1.9051   -0.2519 H   0  0  0  0  0  0  0  0  0  0  0  0
    1.2970    2.8693    2.4323 H   0  0  0  0  0  0  0  0  0  0  0  0
    3.8445    1.2298    1.9315 H   0  0  0  0  0  0  0  0  0  0  0  0
    3.4849    2.1647    3.4002 H   0  0  0  0  0  0  0  0  0  0  0  0
    2.5019    0.7474    2.9915 H   0  0  0  0  0  0  0  0  0  0  0  0
    3.3057    4.7107    2.0325 N   0  0  0  0  0  0  0  0  0  0  0  0
    3.9881    5.9057    1.5499 C   0  0  0  0  0  0  0  0  0  0  0  0
    3.1341    4.6105    3.0289 H   0  0  0  0  0  0  0  0  0  0  0  0
    4.8493    5.6339    0.9301 H   0  0  0  0  0  0  0  0  0  0  0  0
    3.3059    6.5215    0.9545 H   0  0  0  0  0  0  0  0  0  0  0  0
    4.3474    6.5027    2.3936 H   0  0  0  0  0  0  0  0  0  0  0  0
  1  2  2  0  0  0  0
  1  3  1  0  0  0  0
  1  7  1  0  0  0  0
  3  4  1  0  0  0  0
  3  5  1  0  0  0  0
  3  6  1  0  0  0  0
  7  8  1  0  0  0  0
  7 12  1  0  0  0  0
  8  9  1  0  0  0  0
  8 11  1  0  0  0  0
  8 13  1  0  0  0  0
  9 10  2  0  0  0  0
  9 17  1  0  0  0  0
 11 14  1  0  0  0  0
 11 15  1  0  0  0  0
 11 16  1  0  0  0  0
 17 18  1  0  0  0  0
 17 23  1  0  0  0  0
 18 19  1  0  0  0  0
 18 21  1  0  0  0  0
 18 24  1  0  0  0  0
 19 20  2  0  0  0  0
 19 28  1  0  0  0  0
 21 22  1  0  0  0  0
 21 25  1  0  0  0  0
 21 26  1  0  0  0  0
 22 27  1  0  0  0  0
 28 29  1  0  0  0  0
 28 33  1  0  0  0  0
 29 30  1  0  0  0  0
 29 32  1  0  0  0  0
 29 34  1  0  0  0  0
 30 31  2  0  0  0  0
 30 38  1  0  0  0  0
 32 35  1  0  0  0  0
 32 36  1  0  0  0  0
 32 37  1  0  0  0  0
 38 39  1  0  0  0  0
 38 40  1  0  0  0  0
 39 41  1  0  0  0  0
 39 42  1  0  0  0  0
 39 43  1  0  0  0  0
M  END
$$$$

  -OEChem-05262216003D

 43 42  0     1  0  0  0  0  0999 V2000
   -3.4772   -4.9962    1.1595 C   0  0  0  0  0  0  0  0  0  0  0  0
   -2.5863   -5.6858    1.6307 O   0  0  0  0  0  0  0  0  0  0  0  0
   -4.9292   -5.3179    1.4614 C   0  0  0  0  0  0  0  0  0  0  0  0
   -5.4853   -5.4454    0.5293 H   0  0  0  0  0  0  0  0  0  0  0  0
   -4.9980   -6.2427    2.0414 H   0  0  0  0  0  0  0  0  0  0  0  0
   -5.3790   -4.5057    2.0378 H   0  0  0  0  0  0  0  0  0  0  0  0
   -3.1654   -3.9195    0.3573 N   0  0  0  0  0  0  0  0  0  0  0  0
   -1.8025   -3.4222    0.1295 C   0  0  2  0  0  0  0  0  0  0  0  0
   -1.7814   -1.9014   -0.1405 C   0  0  0  0  0  0  0  0  0  0  0  0
   -2.8443   -1.3216   -0.3320 O   0  0  0  0  0  0  0  0  0  0  0  0
   -1.2002   -4.1826   -1.0568 C   0  0  0  0  0  0  0  0  0  0  0  0
   -3.9268   -3.2960    0.0896 H   0  0  0  0  0  0  0  0  0  0  0  0
   -1.1942   -3.6036    1.0223 H   0  0  0  0  0  0  0  0  0  0  0  0
   -1.7879   -4.0038   -1.9630 H   0  0  0  0  0  0  0  0  0  0  0  0
   -0.1712   -3.8588   -1.2399 H   0  0  0  0  0  0  0  0  0  0  0  0
   -1.1914   -5.2581   -0.8530 H   0  0  0  0  0  0  0  0  0  0  0  0
   -0.5658   -1.2345   -0.0822 N   0  0  0  0  0  0  0  0  0  0  0  0
   -0.2345    0.1804   -0.3866 C   0  0  2  0  0  0  0  0  0  0  0  0
    0.3503    0.9153    0.8380 C   0  0  0  0  0  0  0  0  0  0  0  0
    0.1211    0.5320    1.9782 O   0  0  0  0  0  0  0  0  0  0  0  0
   -1.3102    1.0425   -1.0724 C   0  0  0  0  0  0  0  0  0  0  0  0
   -1.6618    0.4024   -2.7648 S   0  0  0  0  0  0  0  0  0  0  0  0
    0.2018   -1.8021    0.2648 H   0  0  0  0  0  0  0  0  0  0  0  0
    0.5848    0.1317   -1.1097 H   0  0  0  0  0  0  0  0  0  0  0  0
   -2.2233    1.0585   -0.4692 H   0  0  0  0  0  0  0  0  0  0  0  0
   -0.9638    2.0773   -1.1574 H   0  0  0  0  0  0  0  0  0  0  0  0
   -2.8216    1.0404   -3.0349 H   0  0  0  0  0  0  0  0  0  0  0  0
    1.2530    1.9466    0.6578 N   0  0  0  0  0  0  0  0  0  0  0  0
    1.8162    2.7630    1.7415 C   0  0  2  0  0  0  0  0  0  0  0  0
    2.1887    4.1728    1.2341 C   0  0  0  0  0  0  0  0  0  0  0  0
    2.1362    4.4237    0.0345 O   0  0  0  0  0  0  0  0  0  0  0  0
    3.0461    2.0472    2.3124 C   0  0  0  0  0  0  0  0  0  0  0  0
    1.3700    2.3136   -0.2876 H   0  0  0  0  0  0  0  0  0  0  0  0
    1.0706    2.8872    2.5343 H   0  0  0  0  0  0  0  0  0  0  0  0
    3.8092    1.9187    1.5382 H   0  0  0  0  0  0  0  0  0  0  0  0
    3.4785    2.6218    3.1369 H   0  0  0  0  0  0  0  0  0  0  0  0
    2.7679    1.0597    2.6940 H   0  0  0  0  0  0  0  0  0  0  0  0
    2.5607    5.1685    2.1183 N   0  0  0  0  0  0  0  0  0  0  0  0
    2.9004    6.5233    1.6994 C   0  0  0  0  0  0  0  0  0  0  0  0
    2.5654    4.9433    3.1089 H   0  0  0  0  0  0  0  0  0  0  0  0
    3.6962    6.5047    0.9471 H   0  0  0  0  0  0  0  0  0  0  0  0
    2.0246    7.0233    1.2729 H   0  0  0  0  0  0  0  0  0  0  0  0
    3.2513    7.1078    2.5553 H   0  0  0  0  0  0  0  0  0  0  0  0
  1  2  2  0  0  0  0
  1  3  1  0  0  0  0
  1  7  1  0  0  0  0
  3  4  1  0  0  0  0
  3  5  1  0  0  0  0
  3  6  1  0  0  0  0
  7  8  1  0  0  0  0
  7 12  1  0  0  0  0
  8  9  1  0  0  0  0
  8 11  1  0  0  0  0
  8 13  1  0  0  0  0
  9 10  2  0  0  0  0
  9 17  1  0  0  0  0
 11 14  1  0  0  0  0
 11 15  1  0  0  0  0
 11 16  1  0  0  0  0
 17 18  1  0  0  0  0
 17 23  1  0  0  0  0
 18 19  1  0  0  0  0
 18 21  1  0  0  0  0
 18 24  1  0  0  0  0
 19 20  2  0  0  0  0
 19 28  1  0  0  0  0
 21 22  1  0  0  0  0
 21 25  1  0  0  0  0
 21 26  1  0  0  0  0
 22 27  1  0  0  0  0
 28 29  1  0  0  0  0
 28 33  1  0  0  0  0
 29 30  1  0  0  0  0
 29 32  1  0  0  0  0
 29 34  1  0  0  0  0
 30 31  2  0  0  0  0
 30 38  1  0  0  0  0
 32 35  1  0  0  0  0
 32 36  1  0  0  0  0
 32 37  1  0  0  0  0
 38 39  1  0  0  0  0
 38 40  1  0  0  0  0
 39 41  1  0  0  0  0
 39 42  1  0  0  0  0
 39 43  1  0  0  0  0
M  END
$$$$

  -OEChem-05262216003D

 43 42  0     1  0  0  0  0  0999 V2000
   -3.4738   -4.9869    1.1616 C   0  0  0  0  0  0  0  0  0  0  0  0
   -2.5880   -5.6700    1.6512 O   0  0  0  0  0  0  0  0  0  0  0  0
   -4.9287   -5.3085    1.4479 C   0  0  0  0  0  0  0  0  0  0  0  0
   -5.4726   -5.4483    0.5106 H   0  0  0  0  0  0  0  0  0  0  0  0
   -5.0035   -6.2261    2.0383 H   0  0  0  0  0  0  0  0  0  0  0  0
   -5.3869   -4.4903    2.0087 H   0  0  0  0  0  0  0  0  0  0  0  0
   -3.1542   -3.9142    0.3569 N   0  0  0  0  0  0  0  0  0  0  0  0
   -1.7904   -3.4108    0.1463 C   0  0  2  0  0  0  0  0  0  0  0  0
   -1.7751   -1.8944   -0.1504 C   0  0  0  0  0  0  0  0  0  0  0  0
   -2.8393   -1.3231   -0.3589 O   0  0  0  0  0  0  0  0  0  0  0  0
   -1.1598   -4.1865   -1.0157 C   0  0  0  0  0  0  0  0  0  0  0  0
   -3.9142   -3.2959    0.0743 H   0  0  0  0  0  0  0  0  0  0  0  0
   -1.1981   -3.5722    1.0534 H   0  0  0  0  0  0  0  0  0  0  0  0
   -1.7331   -4.0286   -1.9350 H   0  0  0  0  0  0  0  0  0  0  0  0
   -0.1304   -3.8570   -1.1864 H   0  0  0  0  0  0  0  0  0  0  0  0
   -1.1443   -5.2586   -0.7943 H   0  0  0  0  0  0  0  0  0  0  0  0
   -0.5657   -1.2170   -0.0929 N   0  0  0  0  0  0  0  0  0  0  0  0
   -0.2417    0.1986   -0.4033 C   0  0  2  0  0  0  0  0  0  0  0  0
    0.3348    0.9380    0.8234 C   0  0  0  0  0  0  0  0  0  0  0  0
    0.3479    0.4117    1.9300 O   0  0  0  0  0  0  0  0  0  0  0  0
   -1.3210    1.0470   -1.1042 C   0  0  0  0  0  0  0  0  0  0  0  0
   -1.6533    0.3919   -2.7944 S   0  0  0  0  0  0  0  0  0  0  0  0
    0.1946   -1.7605    0.3066 H   0  0  0  0  0  0  0  0  0  0  0  0
    0.5843    0.1550   -1.1194 H   0  0  0  0  0  0  0  0  0  0  0  0
   -2.2385    1.0593   -0.5076 H   0  0  0  0  0  0  0  0  0  0  0  0
   -0.9875    2.0851   -1.1985 H   0  0  0  0  0  0  0  0  0  0  0  0
   -2.8192    1.0139   -3.0745 H   0  0  0  0  0  0  0  0  0  0  0  0
    0.9776    2.1512    0.6635 N   0  0  0  0  0  0  0  0  0  0  0  0
    1.4907    2.9765    1.7641 C   0  0  2  0  0  0  0  0  0  0  0  0
    1.4793    4.4736    1.3860 C   0  0  0  0  0  0  0  0  0  0  0  0
    1.2076    4.8121    0.2385 O   0  0  0  0  0  0  0  0  0  0  0  0
    2.9116    2.5130    2.1019 C   0  0  0  0  0  0  0  0  0  0  0  0
    0.9000    2.6114   -0.2440 H   0  0  0  0  0  0  0  0  0  0  0  0
    0.8506    2.8553    2.6447 H   0  0  0  0  0  0  0  0  0  0  0  0
    3.5687    2.6341    1.2348 H   0  0  0  0  0  0  0  0  0  0  0  0
    3.3194    3.0948    2.9337 H   0  0  0  0  0  0  0  0  0  0  0  0
    2.9090    1.4576    2.3922 H   0  0  0  0  0  0  0  0  0  0  0  0
    1.7571    5.4436    2.3316 N   0  0  0  0  0  0  0  0  0  0  0  0
    1.7393    6.8730    2.0431 C   0  0  0  0  0  0  0  0  0  0  0  0
    1.9532    5.1356    3.2796 H   0  0  0  0  0  0  0  0  0  0  0  0
    2.4056    7.1058    1.2055 H   0  0  0  0  0  0  0  0  0  0  0  0
    0.7256    7.1991    1.7882 H   0  0  0  0  0  0  0  0  0  0  0  0
    2.0765    7.4392    2.9167 H   0  0  0  0  0  0  0  0  0  0  0  0
  1  2  2  0  0  0  0
  1  3  1  0  0  0  0
  1  7  1  0  0  0  0
  3  4  1  0  0  0  0
  3  5  1  0  0  0  0
  3  6  1  0  0  0  0
  7  8  1  0  0  0  0
  7 12  1  0  0  0  0
  8  9  1  0  0  0  0
  8 11  1  0  0  0  0
  8 13  1  0  0  0  0
  9 10  2  0  0  0  0
  9 17  1  0  0  0  0
 11 14  1  0  0  0  0
 11 15  1  0  0  0  0
 11 16  1  0  0  0  0
 17 18  1  0  0  0  0
 17 23  1  0  0  0  0
 18 19  1  0  0  0  0
 18 21  1  0  0  0  0
 18 24  1  0  0  0  0
 19 20  2  0  0  0  0
 19 28  1  0  0  0  0
 21 22  1  0  0  0  0
 21 25  1  0  0  0  0
 21 26  1  0  0  0  0
 22 27  1  0  0  0  0
 28 29  1  0  0  0  0
 28 33  1  0  0  0  0
 29 30  1  0  0  0  0
 29 32  1  0  0  0  0
 29 34  1  0  0  0  0
 30 31  2  0  0  0  0
 30 38  1  0  0  0  0
 32 35  1  0  0  0  0
 32 36  1  0  0  0  0
 32 37  1  0  0  0  0
 38 39  1  0  0  0  0
 38 40  1  0  0  0  0
 39 41  1  0  0  0  0
 39 42  1  0  0  0  0
 39 43  1  0  0  0  0
M  END
$$$$

  -OEChem-05262216003D

 43 42  0     1  0  0  0  0  0999 V2000
   -3.4055   -5.0531    1.1697 C   0  0  0  0  0  0  0  0  0  0  0  0
   -2.4884   -5.7366    1.5971 O   0  0  0  0  0  0  0  0  0  0  0  0
   -4.8424   -5.4245    1.4835 C   0  0  0  0  0  0  0  0  0  0  0  0
   -5.3983   -5.5799    0.5557 H   0  0  0  0  0  0  0  0  0  0  0  0
   -4.8735   -6.3459    2.0718 H   0  0  0  0  0  0  0  0  0  0  0  0
   -5.3180   -4.6245    2.0562 H   0  0  0  0  0  0  0  0  0  0  0  0
   -3.1379   -3.9373    0.4063 N   0  0  0  0  0  0  0  0  0  0  0  0
   -1.7939   -3.3933    0.1730 C   0  0  2  0  0  0  0  0  0  0  0  0
   -1.8251   -1.8652   -0.0515 C   0  0  0  0  0  0  0  0  0  0  0  0
   -2.9103   -1.3046   -0.1541 O   0  0  0  0  0  0  0  0  0  0  0  0
   -1.1895   -4.1003   -1.0452 C   0  0  0  0  0  0  0  0  0  0  0  0
   -3.9207   -3.3238    0.1810 H   0  0  0  0  0  0  0  0  0  0  0  0
   -1.1650   -3.5829    1.0498 H   0  0  0  0  0  0  0  0  0  0  0  0
   -1.7979   -3.9137   -1.9360 H   0  0  0  0  0  0  0  0  0  0  0  0
   -0.1737   -3.7408   -1.2352 H   0  0  0  0  0  0  0  0  0  0  0  0
   -1.1447   -5.1807   -0.8743 H   0  0  0  0  0  0  0  0  0  0  0  0
   -0.6338   -1.1578    0.0003 N   0  0  0  0  0  0  0  0  0  0  0  0
   -0.3125    0.2394   -0.3864 C   0  0  2  0  0  0  0  0  0  0  0  0
    0.5446    0.9365    0.6949 C   0  0  0  0  0  0  0  0  0  0  0  0
    0.9776    0.2969    1.6473 O   0  0  0  0  0  0  0  0  0  0  0  0
   -1.4586    1.1302   -0.9114 C   0  0  0  0  0  0  0  0  0  0  0  0
   -2.1085    0.4906   -2.5149 S   0  0  0  0  0  0  0  0  0  0  0  0
    0.1558   -1.6948    0.3522 H   0  0  0  0  0  0  0  0  0  0  0  0
    0.3632    0.1486   -1.2420 H   0  0  0  0  0  0  0  0  0  0  0  0
   -2.2617    1.1639   -0.1679 H   0  0  0  0  0  0  0  0  0  0  0  0
   -1.1153    2.1568   -1.0675 H   0  0  0  0  0  0  0  0  0  0  0  0
   -3.3505    1.0206   -2.5074 H   0  0  0  0  0  0  0  0  0  0  0  0
    0.9608    2.2463    0.5428 N   0  0  0  0  0  0  0  0  0  0  0  0
    1.7367    3.0010    1.5352 C   0  0  2  0  0  0  0  0  0  0  0  0
    1.4578    4.5153    1.4226 C   0  0  0  0  0  0  0  0  0  0  0  0
    0.8013    4.9474    0.4807 O   0  0  0  0  0  0  0  0  0  0  0  0
    3.2261    2.7090    1.3195 C   0  0  0  0  0  0  0  0  0  0  0  0
    0.5462    2.7922   -0.2128 H   0  0  0  0  0  0  0  0  0  0  0  0
    1.4472    2.6873    2.5439 H   0  0  0  0  0  0  0  0  0  0  0  0
    3.5360    3.0227    0.3176 H   0  0  0  0  0  0  0  0  0  0  0  0
    3.8341    3.2427    2.0559 H   0  0  0  0  0  0  0  0  0  0  0  0
    3.4238    1.6377    1.4252 H   0  0  0  0  0  0  0  0  0  0  0  0
    1.9307    5.3943    2.3794 N   0  0  0  0  0  0  0  0  0  0  0  0
    1.6968    6.8325    2.3283 C   0  0  0  0  0  0  0  0  0  0  0  0
    2.4608    5.0085    3.1555 H   0  0  0  0  0  0  0  0  0  0  0  0
    2.0906    7.2522    1.3966 H   0  0  0  0  0  0  0  0  0  0  0  0
    0.6248    7.0484    2.3868 H   0  0  0  0  0  0  0  0  0  0  0  0
    2.1958    7.3275    3.1668 H   0  0  0  0  0  0  0  0  0  0  0  0
  1  2  2  0  0  0  0
  1  3  1  0  0  0  0
  1  7  1  0  0  0  0
  3  4  1  0  0  0  0
  3  5  1  0  0  0  0
  3  6  1  0  0  0  0
  7  8  1  0  0  0  0
  7 12  1  0  0  0  0
  8  9  1  0  0  0  0
  8 11  1  0  0  0  0
  8 13  1  0  0  0  0
  9 10  2  0  0  0  0
  9 17  1  0  0  0  0
 11 14  1  0  0  0  0
 11 15  1  0  0  0  0
 11 16  1  0  0  0  0
 17 18  1  0  0  0  0
 17 23  1  0  0  0  0
 18 19  1  0  0  0  0
 18 21  1  0  0  0  0
 18 24  1  0  0  0  0
 19 20  2  0  0  0  0
 19 28  1  0  0  0  0
 21 22  1  0  0  0  0
 21 25  1  0  0  0  0
 21 26  1  0  0  0  0
 22 27  1  0  0  0  0
 28 29  1  0  0  0  0
 28 33  1  0  0  0  0
 29 30  1  0  0  0  0
 29 32  1  0  0  0  0
 29 34  1  0  0  0  0
 30 31  2  0  0  0  0
 30 38  1  0  0  0  0
 32 35  1  0  0  0  0
 32 36  1  0  0  0  0
 32 37  1  0  0  0  0
 38 39  1  0  0  0  0
 38 40  1  0  0  0  0
 39 41  1  0  0  0  0
 39 42  1  0  0  0  0
 39 43  1  0  0  0  0
M  END
$$$$

  -OEChem-05262216003D

 43 42  0     1  0  0  0  0  0999 V2000
   -3.3879   -5.0608    1.1653 C   0  0  0  0  0  0  0  0  0  0  0  0
   -2.4664   -5.7342    1.5991 O   0  0  0  0  0  0  0  0  0  0  0  0
   -4.8225   -5.4394    1.4805 C   0  0  0  0  0  0  0  0  0  0  0  0
   -5.3755   -5.6086    0.5532 H   0  0  0  0  0  0  0  0  0  0  0  0
   -4.8488   -6.3547    2.0785 H   0  0  0  0  0  0  0  0  0  0  0  0
   -5.3045   -4.6362    2.0435 H   0  0  0  0  0  0  0  0  0  0  0  0
   -3.1288   -3.9471    0.3963 N   0  0  0  0  0  0  0  0  0  0  0  0
   -1.7893   -3.3903    0.1677 C   0  0  2  0  0  0  0  0  0  0  0  0
   -1.8319   -1.8606   -0.0433 C   0  0  0  0  0  0  0  0  0  0  0  0
   -2.9205   -1.3048   -0.1371 O   0  0  0  0  0  0  0  0  0  0  0  0
   -1.1800   -4.0804   -1.0572 C   0  0  0  0  0  0  0  0  0  0  0  0
   -3.9165   -3.3404    0.1695 H   0  0  0  0  0  0  0  0  0  0  0  0
   -1.1584   -3.5819    1.0424 H   0  0  0  0  0  0  0  0  0  0  0  0
   -1.7920   -3.8919   -1.9451 H   0  0  0  0  0  0  0  0  0  0  0  0
   -0.1683   -3.7090   -1.2459 H   0  0  0  0  0  0  0  0  0  0  0  0
   -1.1242   -5.1616   -0.8955 H   0  0  0  0  0  0  0  0  0  0  0  0
   -0.6463   -1.1440    0.0112 N   0  0  0  0  0  0  0  0  0  0  0  0
   -0.3337    0.2511   -0.3880 C   0  0  2  0  0  0  0  0  0  0  0  0
    0.5089    0.9506    0.7050 C   0  0  0  0  0  0  0  0  0  0  0  0
    1.1295    0.2732    1.5178 O   0  0  0  0  0  0  0  0  0  0  0  0
   -1.4850    1.1205   -0.9393 C   0  0  0  0  0  0  0  0  0  0  0  0
   -2.1060    0.4502   -2.5419 S   0  0  0  0  0  0  0  0  0  0  0  0
    0.1542   -1.6809    0.3388 H   0  0  0  0  0  0  0  0  0  0  0  0
    0.3542    0.1612   -1.2339 H   0  0  0  0  0  0  0  0  0  0  0  0
   -2.2974    1.1602   -0.2066 H   0  0  0  0  0  0  0  0  0  0  0  0
   -1.1488    2.1461   -1.1138 H   0  0  0  0  0  0  0  0  0  0  0  0
   -3.3213    1.0369   -2.6021 H   0  0  0  0  0  0  0  0  0  0  0  0
    0.6783    2.3229    0.7344 N   0  0  0  0  0  0  0  0  0  0  0  0
    1.4114    3.0571    1.7742 C   0  0  2  0  0  0  0  0  0  0  0  0
    0.8730    4.4970    1.9190 C   0  0  0  0  0  0  0  0  0  0  0  0
    0.0676    4.9328    1.1026 O   0  0  0  0  0  0  0  0  0  0  0  0
    2.9001    3.0755    1.4087 C   0  0  0  0  0  0  0  0  0  0  0  0
    0.0897    2.8861    0.1208 H   0  0  0  0  0  0  0  0  0  0  0  0
    1.2795    2.5575    2.7401 H   0  0  0  0  0  0  0  0  0  0  0  0
    3.0503    3.5760    0.4468 H   0  0  0  0  0  0  0  0  0  0  0  0
    3.4782    3.6055    2.1715 H   0  0  0  0  0  0  0  0  0  0  0  0
    3.2878    2.0547    1.3343 H   0  0  0  0  0  0  0  0  0  0  0  0
    1.2808    5.3024    2.9667 N   0  0  0  0  0  0  0  0  0  0  0  0
    0.8019    6.6659    3.1614 C   0  0  0  0  0  0  0  0  0  0  0  0
    1.9400    4.9121    3.6340 H   0  0  0  0  0  0  0  0  0  0  0  0
    1.0419    7.2849    2.2904 H   0  0  0  0  0  0  0  0  0  0  0  0
   -0.2829    6.6725    3.3108 H   0  0  0  0  0  0  0  0  0  0  0  0
    1.2749    7.1115    4.0418 H   0  0  0  0  0  0  0  0  0  0  0  0
  1  2  2  0  0  0  0
  1  3  1  0  0  0  0
  1  7  1  0  0  0  0
  3  4  1  0  0  0  0
  3  5  1  0  0  0  0
  3  6  1  0  0  0  0
  7  8  1  0  0  0  0
  7 12  1  0  0  0  0
  8  9  1  0  0  0  0
  8 11  1  0  0  0  0
  8 13  1  0  0  0  0
  9 10  2  0  0  0  0
  9 17  1  0  0  0  0
 11 14  1  0  0  0  0
 11 15  1  0  0  0  0
 11 16  1  0  0  0  0
 17 18  1  0  0  0  0
 17 23  1  0  0  0  0
 18 19  1  0  0  0  0
 18 21  1  0  0  0  0
 18 24  1  0  0  0  0
 19 20  2  0  0  0  0
 19 28  1  0  0  0  0
 21 22  1  0  0  0  0
 21 25  1  0  0  0  0
 21 26  1  0  0  0  0
 22 27  1  0  0  0  0
 28 29  1  0  0  0  0
 28 33  1  0  0  0  0
 29 30  1  0  0  0  0
 29 32  1  0  0  0  0
 29 34  1  0  0  0  0
 30 31  2  0  0  0  0
 30 38  1  0  0  0  0
 32 35  1  0  0  0  0
 32 36  1  0  0  0  0
 32 37  1  0  0  0  0
 38 39  1  0  0  0  0
 38 40  1  0  0  0  0
 39 41  1  0  0  0  0
 39 42  1  0  0  0  0
 39 43  1  0  0  0  0
M  END
$$$$

  -OEChem-05262216003D

 43 42  0     1  0  0  0  0  0999 V2000
   -3.3738   -5.0687    1.1558 C   0  0  0  0  0  0  0  0  0  0  0  0
   -2.4466   -5.7386    1.5829 O   0  0  0  0  0  0  0  0  0  0  0  0
   -4.8049   -5.4610    1.4705 C   0  0  0  0  0  0  0  0  0  0  0  0
   -5.3507   -5.6531    0.5437 H   0  0  0  0  0  0  0  0  0  0  0  0
   -4.8217   -6.3671    2.0826 H   0  0  0  0  0  0  0  0  0  0  0  0
   -5.3008   -4.6553    2.0173 H   0  0  0  0  0  0  0  0  0  0  0  0
   -3.1238   -3.9499    0.3906 N   0  0  0  0  0  0  0  0  0  0  0  0
   -1.7877   -3.3876    0.1554 C   0  0  2  0  0  0  0  0  0  0  0  0
   -1.8338   -1.8549   -0.0297 C   0  0  0  0  0  0  0  0  0  0  0  0
   -2.9229   -1.2975   -0.1064 O   0  0  0  0  0  0  0  0  0  0  0  0
   -1.1918   -4.0577   -1.0872 C   0  0  0  0  0  0  0  0  0  0  0  0
   -3.9154   -3.3449    0.1730 H   0  0  0  0  0  0  0  0  0  0  0  0
   -1.1463   -3.5923    1.0195 H   0  0  0  0  0  0  0  0  0  0  0  0
   -1.8106   -3.8512   -1.9665 H   0  0  0  0  0  0  0  0  0  0  0  0
   -0.1803   -3.6865   -1.2779 H   0  0  0  0  0  0  0  0  0  0  0  0
   -1.1384   -5.1418   -0.9449 H   0  0  0  0  0  0  0  0  0  0  0  0
   -0.6506   -1.1356    0.0319 N   0  0  0  0  0  0  0  0  0  0  0  0
   -0.3448    0.2578   -0.3750 C   0  0  2  0  0  0  0  0  0  0  0  0
    0.4828    0.9576    0.7274 C   0  0  0  0  0  0  0  0  0  0  0  0
    1.2741    0.2931    1.3882 O   0  0  0  0  0  0  0  0  0  0  0  0
   -1.4941    1.1168   -0.9465 C   0  0  0  0  0  0  0  0  0  0  0  0
   -2.0904    0.4277   -2.5504 S   0  0  0  0  0  0  0  0  0  0  0  0
    0.1603   -1.6803    0.3193 H   0  0  0  0  0  0  0  0  0  0  0  0
    0.3546    0.1693   -1.2118 H   0  0  0  0  0  0  0  0  0  0  0  0
   -2.3160    1.1636   -0.2245 H   0  0  0  0  0  0  0  0  0  0  0  0
   -1.1547    2.1404   -1.1298 H   0  0  0  0  0  0  0  0  0  0  0  0
   -3.2860    1.0464   -2.6590 H   0  0  0  0  0  0  0  0  0  0  0  0
    0.4153    2.3198    0.9576 N   0  0  0  0  0  0  0  0  0  0  0  0
    1.1112    3.0209    2.0446 C   0  0  2  0  0  0  0  0  0  0  0  0
    0.3579    4.3078    2.4437 C   0  0  0  0  0  0  0  0  0  0  0  0
   -0.5720    4.7114    1.7526 O   0  0  0  0  0  0  0  0  0  0  0  0
    2.5355    3.3528    1.5855 C   0  0  0  0  0  0  0  0  0  0  0  0
   -0.3314    2.8405    0.4974 H   0  0  0  0  0  0  0  0  0  0  0  0
    1.1551    2.3771    2.9300 H   0  0  0  0  0  0  0  0  0  0  0  0
    2.5107    4.0034    0.7054 H   0  0  0  0  0  0  0  0  0  0  0  0
    3.0878    3.8623    2.3808 H   0  0  0  0  0  0  0  0  0  0  0  0
    3.0763    2.4371    1.3262 H   0  0  0  0  0  0  0  0  0  0  0  0
    0.7119    5.0084    3.5819 N   0  0  0  0  0  0  0  0  0  0  0  0
    0.0314    6.2219    4.0176 C   0  0  0  0  0  0  0  0  0  0  0  0
    1.4776    4.6448    4.1421 H   0  0  0  0  0  0  0  0  0  0  0  0
    0.1038    6.9984    3.2487 H   0  0  0  0  0  0  0  0  0  0  0  0
   -1.0262    6.0176    4.2149 H   0  0  0  0  0  0  0  0  0  0  0  0
    0.4868    6.6027    4.9369 H   0  0  0  0  0  0  0  0  0  0  0  0
  1  2  2  0  0  0  0
  1  3  1  0  0  0  0
  1  7  1  0  0  0  0
  3  4  1  0  0  0  0
  3  5  1  0  0  0  0
  3  6  1  0  0  0  0
  7  8  1  0  0  0  0
  7 12  1  0  0  0  0
  8  9  1  0  0  0  0
  8 11  1  0  0  0  0
  8 13  1  0  0  0  0
  9 10  2  0  0  0  0
  9 17  1  0  0  0  0
 11 14  1  0  0  0  0
 11 15  1  0  0  0  0
 11 16  1  0  0  0  0
 17 18  1  0  0  0  0
 17 23  1  0  0  0  0
 18 19  1  0  0  0  0
 18 21  1  0  0  0  0
 18 24  1  0  0  0  0
 19 20  2  0  0  0  0
 19 28  1  0  0  0  0
 21 22  1  0  0  0  0
 21 25  1  0  0  0  0
 21 26  1  0  0  0  0
 22 27  1  0  0  0  0
 28 29  1  0  0  0  0
 28 33  1  0  0  0  0
 29 30  1  0  0  0  0
 29 32  1  0  0  0  0
 29 34  1  0  0  0  0
 30 31  2  0  0  0  0
 30 38  1  0  0  0  0
 32 35  1  0  0  0  0
 32 36  1  0  0  0  0
 32 37  1  0  0  0  0
 38 39  1  0  0  0  0
 38 40  1  0  0  0  0
 39 41  1  0  0  0  0
 39 42  1  0  0  0  0
 39 43  1  0  0  0  0
M  END
$$$$

  -OEChem-05262216003D

 43 42  0     1  0  0  0  0  0999 V2000
   -3.3638   -5.0829    1.1287 C   0  0  0  0  0  0  0  0  0  0  0  0
   -2.4296   -5.7578    1.5320 O   0  0  0  0  0  0  0  0  0  0  0  0
   -4.7895   -5.4830    1.4588 C   0  0  0  0  0  0  0  0  0  0  0  0
   -5.3398   -5.6949    0.5389 H   0  0  0  0  0  0  0  0  0  0  0  0
   -4.7935   -6.3791    2.0857 H   0  0  0  0  0  0  0  0  0  0  0  0
   -5.2898   -4.6742    1.9973 H   0  0  0  0  0  0  0  0  0  0  0  0
   -3.1239   -3.9508    0.3800 N   0  0  0  0  0  0  0  0  0  0  0  0
   -1.7904   -3.3848    0.1385 C   0  0  2  0  0  0  0  0  0  0  0  0
   -1.8342   -1.8493   -0.0181 C   0  0  0  0  0  0  0  0  0  0  0  0
   -2.9215   -1.2863   -0.0731 O   0  0  0  0  0  0  0  0  0  0  0  0
   -1.2126   -4.0326   -1.1232 C   0  0  0  0  0  0  0  0  0  0  0  0
   -3.9185   -3.3450    0.1769 H   0  0  0  0  0  0  0  0  0  0  0  0
   -1.1380   -3.6070    0.9900 H   0  0  0  0  0  0  0  0  0  0  0  0
   -1.8507   -3.8210   -1.9873 H   0  0  0  0  0  0  0  0  0  0  0  0
   -0.2083   -3.6502   -1.3289 H   0  0  0  0  0  0  0  0  0  0  0  0
   -1.1469   -5.1175   -0.9954 H   0  0  0  0  0  0  0  0  0  0  0  0
   -0.6493   -1.1336    0.0502 N   0  0  0  0  0  0  0  0  0  0  0  0
   -0.3459    0.2590   -0.3563 C   0  0  2  0  0  0  0  0  0  0  0  0
    0.4745    0.9523    0.7519 C   0  0  0  0  0  0  0  0  0  0  0  0
    1.4108    0.3449    1.2592 O   0  0  0  0  0  0  0  0  0  0  0  0
   -1.4894    1.1225   -0.9300 C   0  0  0  0  0  0  0  0  0  0  0  0
   -2.0820    0.4356   -2.5365 S   0  0  0  0  0  0  0  0  0  0  0  0
    0.1677   -1.6912    0.2912 H   0  0  0  0  0  0  0  0  0  0  0  0
    0.3559    0.1724   -1.1918 H   0  0  0  0  0  0  0  0  0  0  0  0
   -2.3151    1.1727   -0.2124 H   0  0  0  0  0  0  0  0  0  0  0  0
   -1.1404    2.1447   -1.1072 H   0  0  0  0  0  0  0  0  0  0  0  0
   -3.2656    1.0739   -2.6612 H   0  0  0  0  0  0  0  0  0  0  0  0
    0.1960    2.2329    1.1928 N   0  0  0  0  0  0  0  0  0  0  0  0
    0.8580    2.8871    2.3288 C   0  0  2  0  0  0  0  0  0  0  0  0
   -0.0605    3.9499    2.9696 C   0  0  0  0  0  0  0  0  0  0  0  0
   -1.0996    4.2785    2.4066 O   0  0  0  0  0  0  0  0  0  0  0  0
    2.1608    3.5255    1.8350 C   0  0  0  0  0  0  0  0  0  0  0  0
   -0.6764    2.6584    0.8784 H   0  0  0  0  0  0  0  0  0  0  0  0
    1.0872    2.1432    3.0995 H   0  0  0  0  0  0  0  0  0  0  0  0
    1.9512    4.2765    1.0666 H   0  0  0  0  0  0  0  0  0  0  0  0
    2.6896    4.0094    2.6613 H   0  0  0  0  0  0  0  0  0  0  0  0
    2.8193    2.7634    1.4064 H   0  0  0  0  0  0  0  0  0  0  0  0
    0.2660    4.5291    4.1822 N   0  0  0  0  0  0  0  0  0  0  0  0
   -0.5657    5.5288    4.8421 C   0  0  0  0  0  0  0  0  0  0  0  0
    1.1249    4.2286    4.6336 H   0  0  0  0  0  0  0  0  0  0  0  0
   -0.6792    6.4135    4.2068 H   0  0  0  0  0  0  0  0  0  0  0  0
   -1.5586    5.1204    5.0574 H   0  0  0  0  0  0  0  0  0  0  0  0
   -0.1079    5.8388    5.7865 H   0  0  0  0  0  0  0  0  0  0  0  0
  1  2  2  0  0  0  0
  1  3  1  0  0  0  0
  1  7  1  0  0  0  0
  3  4  1  0  0  0  0
  3  5  1  0  0  0  0
  3  6  1  0  0  0  0
  7  8  1  0  0  0  0
  7 12  1  0  0  0  0
  8  9  1  0  0  0  0
  8 11  1  0  0  0  0
  8 13  1  0  0  0  0
  9 10  2  0  0  0  0
  9 17  1  0  0  0  0
 11 14  1  0  0  0  0
 11 15  1  0  0  0  0
 11 16  1  0  0  0  0
 17 18  1  0  0  0  0
 17 23  1  0  0  0  0
 18 19  1  0  0  0  0
 18 21  1  0  0  0  0
 18 24  1  0  0  0  0
 19 20  2  0  0  0  0
 19 28  1  0  0  0  0
 21 22  1  0  0  0  0
 21 25  1  0  0  0  0
 21 26  1  0  0  0  0
 22 27  1  0  0  0  0
 28 29  1  0  0  0  0
 28 33  1  0  0  0  0
 29 30  1  0  0  0  0
 29 32  1  0  0  0  0
 29 34  1  0  0  0  0
 30 31  2  0  0  0  0
 30 38  1  0  0  0  0
 32 35  1  0  0  0  0
 32 36  1  0  0  0  0
 32 37  1  0  0  0  0
 38 39  1  0  0  0  0
 38 40  1  0  0  0  0
 39 41  1  0  0  0  0
 39 42  1  0  0  0  0
 39 43  1  0  0  0  0
M  END
$$$$

  -OEChem-05262216003D

 43 42  0     1  0  0  0  0  0999 V2000
   -3.3594   -5.0983    1.1038 C   0  0  0  0  0  0  0  0  0  0  0  0
   -2.4236   -5.7879    1.4775 O   0  0  0  0  0  0  0  0  0  0  0  0
   -4.7829   -5.4953    1.4464 C   0  0  0  0  0  0  0  0  0  0  0  0
   -5.3439   -5.6975    0.5309 H   0  0  0  0  0  0  0  0  0  0  0  0
   -4.7848   -6.3952    2.0676 H   0  0  0  0  0  0  0  0  0  0  0  0
   -5.2737   -4.6880    1.9952 H   0  0  0  0  0  0  0  0  0  0  0  0
   -3.1246   -3.9525    0.3745 N   0  0  0  0  0  0  0  0  0  0  0  0
   -1.7917   -3.3925    0.1171 C   0  0  2  0  0  0  0  0  0  0  0  0
   -1.8273   -1.8532    0.0016 C   0  0  0  0  0  0  0  0  0  0  0  0
   -2.9111   -1.2812   -0.0217 O   0  0  0  0  0  0  0  0  0  0  0  0
   -1.2465   -4.0127   -1.1733 C   0  0  0  0  0  0  0  0  0  0  0  0
   -3.9179   -3.3355    0.2017 H   0  0  0  0  0  0  0  0  0  0  0  0
   -1.1229   -3.6405    0.9482 H   0  0  0  0  0  0  0  0  0  0  0  0
   -1.8981   -3.7693   -2.0189 H   0  0  0  0  0  0  0  0  0  0  0  0
   -0.2420   -3.6359   -1.3879 H   0  0  0  0  0  0  0  0  0  0  0  0
   -1.1911   -5.1018   -1.0776 H   0  0  0  0  0  0  0  0  0  0  0  0
   -0.6383   -1.1454    0.0778 N   0  0  0  0  0  0  0  0  0  0  0  0
   -0.3341    0.2473   -0.3272 C   0  0  2  0  0  0  0  0  0  0  0  0
    0.4819    0.9421    0.7807 C   0  0  0  0  0  0  0  0  0  0  0  0
    1.5413    0.4384    1.1351 O   0  0  0  0  0  0  0  0  0  0  0  0
   -1.4754    1.1179   -0.8928 C   0  0  0  0  0  0  0  0  0  0  0  0
   -2.0816    0.4420   -2.4985 S   0  0  0  0  0  0  0  0  0  0  0  0
    0.1810   -1.7215    0.2590 H   0  0  0  0  0  0  0  0  0  0  0  0
    0.3665    0.1623   -1.1637 H   0  0  0  0  0  0  0  0  0  0  0  0
   -2.2982    1.1693   -0.1725 H   0  0  0  0  0  0  0  0  0  0  0  0
   -1.1180    2.1388   -1.0615 H   0  0  0  0  0  0  0  0  0  0  0  0
   -3.2486    1.1100   -2.6276 H   0  0  0  0  0  0  0  0  0  0  0  0
    0.0302    2.0784    1.4261 N   0  0  0  0  0  0  0  0  0  0  0  0
    0.6738    2.6835    2.5989 C   0  0  2  0  0  0  0  0  0  0  0  0
   -0.3482    3.4610    3.4554 C   0  0  0  0  0  0  0  0  0  0  0  0
   -1.4697    3.6887    3.0141 O   0  0  0  0  0  0  0  0  0  0  0  0
    1.7927    3.6154    2.1220 C   0  0  0  0  0  0  0  0  0  0  0  0
   -0.9304    2.3697    1.2423 H   0  0  0  0  0  0  0  0  0  0  0  0
    1.1015    1.8977    3.2306 H   0  0  0  0  0  0  0  0  0  0  0  0
    1.3834    4.4130    1.4936 H   0  0  0  0  0  0  0  0  0  0  0  0
    2.3037    4.0711    2.9755 H   0  0  0  0  0  0  0  0  0  0  0  0
    2.5316    3.0564    1.5389 H   0  0  0  0  0  0  0  0  0  0  0  0
   -0.0181    3.8945    4.7264 N   0  0  0  0  0  0  0  0  0  0  0  0
   -0.9469    4.6085    5.5944 C   0  0  0  0  0  0  0  0  0  0  0  0
    0.9119    3.6773    5.0728 H   0  0  0  0  0  0  0  0  0  0  0  0
   -1.2816    5.5361    5.1184 H   0  0  0  0  0  0  0  0  0  0  0  0
   -1.8228    3.9882    5.8113 H   0  0  0  0  0  0  0  0  0  0  0  0
   -0.4605    4.8626    6.5410 H   0  0  0  0  0  0  0  0  0  0  0  0
  1  2  2  0  0  0  0
  1  3  1  0  0  0  0
  1  7  1  0  0  0  0
  3  4  1  0  0  0  0
  3  5  1  0  0  0  0
  3  6  1  0  0  0  0
  7  8  1  0  0  0  0
  7 12  1  0  0  0  0
  8  9  1  0  0  0  0
  8 11  1  0  0  0  0
  8 13  1  0  0  0  0
  9 10  2  0  0  0  0
  9 17  1  0  0  0  0
 11 14  1  0  0  0  0
 11 15  1  0  0  0  0
 11 16  1  0  0  0  0
 17 18  1  0  0  0  0
 17 23  1  0  0  0  0
 18 19  1  0  0  0  0
 18 21  1  0  0  0  0
 18 24  1  0  0  0  0
 19 20  2  0  0  0  0
 19 28  1  0  0  0  0
 21 22  1  0  0  0  0
 21 25  1  0  0  0  0
 21 26  1  0  0  0  0
 22 27  1  0  0  0  0
 28 29  1  0  0  0  0
 28 33  1  0  0  0  0
 29 30  1  0  0  0  0
 29 32  1  0  0  0  0
 29 34  1  0  0  0  0
 30 31  2  0  0  0  0
 30 38  1  0  0  0  0
 32 35  1  0  0  0  0
 32 36  1  0  0  0  0
 32 37  1  0  0  0  0
 38 39  1  0  0  0  0
 38 40  1  0  0  0  0
 39 41  1  0  0  0  0
 39 42  1  0  0  0  0
 39 43  1  0  0  0  0
M  END
$$$$

  -OEChem-05262216003D

 43 42  0     1  0  0  0  0  0999 V2000
   -3.3570   -5.1130    1.0755 C   0  0  0  0  0  0  0  0  0  0  0  0
   -2.4184   -5.8169    1.4142 O   0  0  0  0  0  0  0  0  0  0  0  0
   -4.7753   -5.5089    1.4402 C   0  0  0  0  0  0  0  0  0  0  0  0
   -5.3456   -5.7236    0.5331 H   0  0  0  0  0  0  0  0  0  0  0  0
   -4.7672   -6.4016    2.0721 H   0  0  0  0  0  0  0  0  0  0  0  0
   -5.2624   -4.6965    1.9852 H   0  0  0  0  0  0  0  0  0  0  0  0
   -3.1291   -3.9544    0.3643 N   0  0  0  0  0  0  0  0  0  0  0  0
   -1.7972   -3.3972    0.0946 C   0  0  2  0  0  0  0  0  0  0  0  0
   -1.8211   -1.8550    0.0221 C   0  0  0  0  0  0  0  0  0  0  0  0
   -2.8993   -1.2722    0.0318 O   0  0  0  0  0  0  0  0  0  0  0  0
   -1.2842   -3.9860   -1.2230 C   0  0  0  0  0  0  0  0  0  0  0  0
   -3.9220   -3.3297    0.2192 H   0  0  0  0  0  0  0  0  0  0  0  0
   -1.1135   -3.6733    0.9046 H   0  0  0  0  0  0  0  0  0  0  0  0
   -1.9509   -3.7143   -2.0476 H   0  0  0  0  0  0  0  0  0  0  0  0
   -0.2812   -3.6118   -1.4484 H   0  0  0  0  0  0  0  0  0  0  0  0
   -1.2371   -5.0777   -1.1571 H   0  0  0  0  0  0  0  0  0  0  0  0
   -0.6267   -1.1572    0.1061 N   0  0  0  0  0  0  0  0  0  0  0  0
   -0.3200    0.2345   -0.2989 C   0  0  2  0  0  0  0  0  0  0  0  0
    0.4911    0.9290    0.8084 C   0  0  0  0  0  0  0  0  0  0  0  0
    1.6481    0.5792    1.0053 O   0  0  0  0  0  0  0  0  0  0  0  0
   -1.4561    1.1144   -0.8580 C   0  0  0  0  0  0  0  0  0  0  0  0
   -2.0726    0.4460   -2.4624 S   0  0  0  0  0  0  0  0  0  0  0  0
    0.1904   -1.7486    0.2397 H   0  0  0  0  0  0  0  0  0  0  0  0
    0.3790    0.1488   -1.1370 H   0  0  0  0  0  0  0  0  0  0  0  0
   -2.2777    1.1697   -0.1366 H   0  0  0  0  0  0  0  0  0  0  0  0
   -1.0907    2.1335   -1.0217 H   0  0  0  0  0  0  0  0  0  0  0  0
   -3.2284    1.1329   -2.5902 H   0  0  0  0  0  0  0  0  0  0  0  0
   -0.0837    1.8645    1.6474 N   0  0  0  0  0  0  0  0  0  0  0  0
    0.5597    2.4119    2.8480 C   0  0  2  0  0  0  0  0  0  0  0  0
   -0.4892    2.8566    3.8897 C   0  0  0  0  0  0  0  0  0  0  0  0
   -1.6706    2.9403    3.5720 O   0  0  0  0  0  0  0  0  0  0  0  0
    1.4434    3.5930    2.4328 C   0  0  0  0  0  0  0  0  0  0  0  0
   -1.0955    1.9854    1.5846 H   0  0  0  0  0  0  0  0  0  0  0  0
    1.1806    1.6411    3.3171 H   0  0  0  0  0  0  0  0  0  0  0  0
    0.8383    4.3769    1.9660 H   0  0  0  0  0  0  0  0  0  0  0  0
    1.9537    4.0172    3.3026 H   0  0  0  0  0  0  0  0  0  0  0  0
    2.2030    3.2662    1.7154 H   0  0  0  0  0  0  0  0  0  0  0  0
   -0.1148    3.1451    5.1893 N   0  0  0  0  0  0  0  0  0  0  0  0
   -1.0628    3.5382    6.2253 C   0  0  0  0  0  0  0  0  0  0  0  0
    0.8655    3.0382    5.4335 H   0  0  0  0  0  0  0  0  0  0  0  0
   -1.5970    4.4478    5.9310 H   0  0  0  0  0  0  0  0  0  0  0  0
   -1.7933    2.7407    6.3983 H   0  0  0  0  0  0  0  0  0  0  0  0
   -0.5378    3.7358    7.1650 H   0  0  0  0  0  0  0  0  0  0  0  0
  1  2  2  0  0  0  0
  1  3  1  0  0  0  0
  1  7  1  0  0  0  0
  3  4  1  0  0  0  0
  3  5  1  0  0  0  0
  3  6  1  0  0  0  0
  7  8  1  0  0  0  0
  7 12  1  0  0  0  0
  8  9  1  0  0  0  0
  8 11  1  0  0  0  0
  8 13  1  0  0  0  0
  9 10  2  0  0  0  0
  9 17  1  0  0  0  0
 11 14  1  0  0  0  0
 11 15  1  0  0  0  0
 11 16  1  0  0  0  0
 17 18  1  0  0  0  0
 17 23  1  0  0  0  0
 18 19  1  0  0  0  0
 18 21  1  0  0  0  0
 18 24  1  0  0  0  0
 19 20  2  0  0  0  0
 19 28  1  0  0  0  0
 21 22  1  0  0  0  0
 21 25  1  0  0  0  0
 21 26  1  0  0  0  0
 22 27  1  0  0  0  0
 28 29  1  0  0  0  0
 28 33  1  0  0  0  0
 29 30  1  0  0  0  0
 29 32  1  0  0  0  0
 29 34  1  0  0  0  0
 30 31  2  0  0  0  0
 30 38  1  0  0  0  0
 32 35  1  0  0  0  0
 32 36  1  0  0  0  0
 32 37  1  0  0  0  0
 38 39  1  0  0  0  0
 38 40  1  0  0  0  0
 39 41  1  0  0  0  0
 39 42  1  0  0  0  0
 39 43  1  0  0  0  0
M  END
$$$$

  -OEChem-05262216003D

 43 42  0     1  0  0  0  0  0999 V2000
   -3.3665   -5.1328    1.0371 C   0  0  0  0  0  0  0  0  0  0  0  0
   -2.4296   -5.8634    1.3194 O   0  0  0  0  0  0  0  0  0  0  0  0
   -4.7791   -5.5166    1.4370 C   0  0  0  0  0  0  0  0  0  0  0  0
   -5.3767   -5.7181    0.5446 H   0  0  0  0  0  0  0  0  0  0  0  0
   -4.7634   -6.4148    2.0607 H   0  0  0  0  0  0  0  0  0  0  0  0
   -5.2420   -4.7040    2.0027 H   0  0  0  0  0  0  0  0  0  0  0  0
   -3.1402   -3.9523    0.3620 N   0  0  0  0  0  0  0  0  0  0  0  0
   -1.8074   -3.4065    0.0730 C   0  0  2  0  0  0  0  0  0  0  0  0
   -1.8101   -1.8628    0.0467 C   0  0  0  0  0  0  0  0  0  0  0  0
   -2.8782   -1.2639    0.0928 O   0  0  0  0  0  0  0  0  0  0  0  0
   -1.3359   -3.9606   -1.2751 C   0  0  0  0  0  0  0  0  0  0  0  0
   -3.9259   -3.3089    0.2675 H   0  0  0  0  0  0  0  0  0  0  0  0
   -1.1072   -3.7178    0.8558 H   0  0  0  0  0  0  0  0  0  0  0  0
   -2.0185   -3.6541   -2.0744 H   0  0  0  0  0  0  0  0  0  0  0  0
   -0.3332   -3.5931   -1.5137 H   0  0  0  0  0  0  0  0  0  0  0  0
   -1.3037   -5.0545   -1.2450 H   0  0  0  0  0  0  0  0  0  0  0  0
   -0.6072   -1.1817    0.1431 N   0  0  0  0  0  0  0  0  0  0  0  0
   -0.2884    0.2046   -0.2711 C   0  0  2  0  0  0  0  0  0  0  0  0
    0.5128    0.9052    0.8375 C   0  0  0  0  0  0  0  0  0  0  0  0
    1.7268    0.7574    0.8897 O   0  0  0  0  0  0  0  0  0  0  0  0
   -1.4140    1.0982   -0.8281 C   0  0  0  0  0  0  0  0  0  0  0  0
   -2.0537    0.4375   -2.4267 S   0  0  0  0  0  0  0  0  0  0  0  0
    0.2017   -1.7922    0.2304 H   0  0  0  0  0  0  0  0  0  0  0  0
    0.4120    0.1096   -1.1075 H   0  0  0  0  0  0  0  0  0  0  0  0
   -2.2302    1.1713   -0.1022 H   0  0  0  0  0  0  0  0  0  0  0  0
   -1.0308    2.1101   -0.9954 H   0  0  0  0  0  0  0  0  0  0  0  0
   -3.1843    1.1651   -2.5588 H   0  0  0  0  0  0  0  0  0  0  0  0
   -0.1307    1.6067    1.8386 N   0  0  0  0  0  0  0  0  0  0  0  0
    0.5238    2.1088    3.0530 C   0  0  2  0  0  0  0  0  0  0  0  0
   -0.4662    2.1718    4.2356 C   0  0  0  0  0  0  0  0  0  0  0  0
   -1.6699    2.0548    4.0345 O   0  0  0  0  0  0  0  0  0  0  0  0
    1.1022    3.4964    2.7575 C   0  0  0  0  0  0  0  0  0  0  0  0
   -1.1484    1.5255    1.8759 H   0  0  0  0  0  0  0  0  0  0  0  0
    1.3348    1.4315    3.3410 H   0  0  0  0  0  0  0  0  0  0  0  0
    0.3047    4.1907    2.4740 H   0  0  0  0  0  0  0  0  0  0  0  0
    1.6148    3.8949    3.6379 H   0  0  0  0  0  0  0  0  0  0  0  0
    1.8236    3.4405    1.9360 H   0  0  0  0  0  0  0  0  0  0  0  0
   -0.0108    2.3400    5.5303 N   0  0  0  0  0  0  0  0  0  0  0  0
   -0.8954    2.3703    6.6892 C   0  0  0  0  0  0  0  0  0  0  0  0
    0.9929    2.4009    5.6746 H   0  0  0  0  0  0  0  0  0  0  0  0
   -1.6463    3.1598    6.5791 H   0  0  0  0  0  0  0  0  0  0  0  0
   -1.4088    1.4099    6.8041 H   0  0  0  0  0  0  0  0  0  0  0  0
   -0.3209    2.5671    7.5993 H   0  0  0  0  0  0  0  0  0  0  0  0
  1  2  2  0  0  0  0
  1  3  1  0  0  0  0
  1  7  1  0  0  0  0
  3  4  1  0  0  0  0
  3  5  1  0  0  0  0
  3  6  1  0  0  0  0
  7  8  1  0  0  0  0
  7 12  1  0  0  0  0
  8  9  1  0  0  0  0
  8 11  1  0  0  0  0
  8 13  1  0  0  0  0
  9 10  2  0  0  0  0
  9 17  1  0  0  0  0
 11 14  1  0  0  0  0
 11 15  1  0  0  0  0
 11 16  1  0  0  0  0
 17 18  1  0  0  0  0
 17 23  1  0  0  0  0
 18 19  1  0  0  0  0
 18 21  1  0  0  0  0
 18 24  1  0  0  0  0
 19 20  2  0  0  0  0
 19 28  1  0  0  0  0
 21 22  1  0  0  0  0
 21 25  1  0  0  0  0
 21 26  1  0  0  0  0
 22 27  1  0  0  0  0
 28 29  1  0  0  0  0
 28 33  1  0  0  0  0
 29 30  1  0  0  0  0
 29 32  1  0  0  0  0
 29 34  1  0  0  0  0
 30 31  2  0  0  0  0
 30 38  1  0  0  0  0
 32 35  1  0  0  0  0
 32 36  1  0  0  0  0
 32 37  1  0  0  0  0
 38 39  1  0  0  0  0
 38 40  1  0  0  0  0
 39 41  1  0  0  0  0
 39 42  1  0  0  0  0
 39 43  1  0  0  0  0
M  END
$$$$

  -OEChem-05262216003D

 43 42  0     1  0  0  0  0  0999 V2000
   -3.3971   -5.1442    0.9937 C   0  0  0  0  0  0  0  0  0  0  0  0
   -2.4693   -5.9041    1.2239 O   0  0  0  0  0  0  0  0  0  0  0  0
   -4.8047   -5.5077    1.4269 C   0  0  0  0  0  0  0  0  0  0  0  0
   -5.4580   -5.5774    0.5536 H   0  0  0  0  0  0  0  0  0  0  0  0
   -4.8027   -6.4718    1.9432 H   0  0  0  0  0  0  0  0  0  0  0  0
   -5.1943   -4.7453    2.1059 H   0  0  0  0  0  0  0  0  0  0  0  0
   -3.1651   -3.9498    0.3458 N   0  0  0  0  0  0  0  0  0  0  0  0
   -1.8311   -3.4283    0.0221 C   0  0  2  0  0  0  0  0  0  0  0  0
   -1.7954   -1.8853    0.0582 C   0  0  0  0  0  0  0  0  0  0  0  0
   -2.8491   -1.2620    0.1160 O   0  0  0  0  0  0  0  0  0  0  0  0
   -1.4378   -3.9368   -1.3683 C   0  0  0  0  0  0  0  0  0  0  0  0
   -3.9387   -3.2875    0.2907 H   0  0  0  0  0  0  0  0  0  0  0  0
   -1.1066   -3.7910    0.7593 H   0  0  0  0  0  0  0  0  0  0  0  0
   -2.1482   -3.5787   -2.1206 H   0  0  0  0  0  0  0  0  0  0  0  0
   -0.4377   -3.5858   -1.6398 H   0  0  0  0  0  0  0  0  0  0  0  0
   -1.4353   -5.0314   -1.3851 H   0  0  0  0  0  0  0  0  0  0  0  0
   -0.5798   -1.2330    0.1909 N   0  0  0  0  0  0  0  0  0  0  0  0
   -0.2264    0.1442   -0.2301 C   0  0  2  0  0  0  0  0  0  0  0  0
    0.5505    0.8545    0.8891 C   0  0  0  0  0  0  0  0  0  0  0  0
    1.7671    0.9643    0.8164 O   0  0  0  0  0  0  0  0  0  0  0  0
   -1.3245    1.0518   -0.8160 C   0  0  0  0  0  0  0  0  0  0  0  0
   -1.9436    0.3831   -2.4197 S   0  0  0  0  0  0  0  0  0  0  0  0
    0.2113   -1.8680    0.2610 H   0  0  0  0  0  0  0  0  0  0  0  0
    0.4915    0.0284   -1.0493 H   0  0  0  0  0  0  0  0  0  0  0  0
   -2.1516    1.1491   -0.1053 H   0  0  0  0  0  0  0  0  0  0  0  0
   -0.9200    2.0548   -0.9870 H   0  0  0  0  0  0  0  0  0  0  0  0
   -3.0711    1.1117   -2.5738 H   0  0  0  0  0  0  0  0  0  0  0  0
   -0.1135    1.3105    2.0114 N   0  0  0  0  0  0  0  0  0  0  0  0
    0.5500    1.8028    3.2258 C   0  0  2  0  0  0  0  0  0  0  0  0
   -0.2540    1.4447    4.4941 C   0  0  0  0  0  0  0  0  0  0  0  0
   -1.3945    1.0065    4.3966 O   0  0  0  0  0  0  0  0  0  0  0  0
    0.7198    3.3199    3.1011 C   0  0  0  0  0  0  0  0  0  0  0  0
   -1.0871    1.0160    2.1139 H   0  0  0  0  0  0  0  0  0  0  0  0
    1.5360    1.3364    3.3249 H   0  0  0  0  0  0  0  0  0  0  0  0
   -0.2559    3.8069    3.0053 H   0  0  0  0  0  0  0  0  0  0  0  0
    1.2266    3.7249    3.9820 H   0  0  0  0  0  0  0  0  0  0  0  0
    1.3193    3.5629    2.2180 H   0  0  0  0  0  0  0  0  0  0  0  0
    0.3077    1.5915    5.7491 N   0  0  0  0  0  0  0  0  0  0  0  0
   -0.3849    1.2315    6.9807 C   0  0  0  0  0  0  0  0  0  0  0  0
    1.2640    1.9297    5.8025 H   0  0  0  0  0  0  0  0  0  0  0  0
   -1.3267    1.7840    7.0671 H   0  0  0  0  0  0  0  0  0  0  0  0
   -0.6033    0.1583    6.9970 H   0  0  0  0  0  0  0  0  0  0  0  0
    0.2361    1.4718    7.8491 H   0  0  0  0  0  0  0  0  0  0  0  0
  1  2  2  0  0  0  0
  1  3  1  0  0  0  0
  1  7  1  0  0  0  0
  3  4  1  0  0  0  0
  3  5  1  0  0  0  0
  3  6  1  0  0  0  0
  7  8  1  0  0  0  0
  7 12  1  0  0  0  0
  8  9  1  0  0  0  0
  8 11  1  0  0  0  0
  8 13  1  0  0  0  0
  9 10  2  0  0  0  0
  9 17  1  0  0  0  0
 11 14  1  0  0  0  0
 11 15  1  0  0  0  0
 11 16  1  0  0  0  0
 17 18  1  0  0  0  0
 17 23  1  0  0  0  0
 18 19  1  0  0  0  0
 18 21  1  0  0  0  0
 18 24  1  0  0  0  0
 19 20  2  0  0  0  0
 19 28  1  0  0  0  0
 21 22  1  0  0  0  0
 21 25  1  0  0  0  0
 21 26  1  0  0  0  0
 22 27  1  0  0  0  0
 28 29  1  0  0  0  0
 28 33  1  0  0  0  0
 29 30  1  0  0  0  0
 29 32  1  0  0  0  0
 29 34  1  0  0  0  0
 30 31  2  0  0  0  0
 30 38  1  0  0  0  0
 32 35  1  0  0  0  0
 32 36  1  0  0  0  0
 32 37  1  0  0  0  0
 38 39  1  0  0  0  0
 38 40  1  0  0  0  0
 39 41  1  0  0  0  0
 39 42  1  0  0  0  0
 39 43  1  0  0  0  0
M  END
$$$$

  -OEChem-05262216003D

 43 42  0     1  0  0  0  0  0999 V2000
   -3.4443   -5.1528    0.9335 C   0  0  0  0  0  0  0  0  0  0  0  0
   -2.5333   -5.9438    1.1223 O   0  0  0  0  0  0  0  0  0  0  0  0
   -4.8503   -5.4828    1.3972 C   0  0  0  0  0  0  0  0  0  0  0  0
   -5.5329   -5.4876    0.5440 H   0  0  0  0  0  0  0  0  0  0  0  0
   -4.8695   -6.4686    1.8702 H   0  0  0  0  0  0  0  0  0  0  0  0
   -5.1888   -4.7375    2.1215 H   0  0  0  0  0  0  0  0  0  0  0  0
   -3.1942   -3.9490    0.3108 N   0  0  0  0  0  0  0  0  0  0  0  0
   -1.8524   -3.4449   -0.0054 C   0  0  2  0  0  0  0  0  0  0  0  0
   -1.7958   -1.9038    0.0610 C   0  0  0  0  0  0  0  0  0  0  0  0
   -2.8397   -1.2668    0.1445 O   0  0  0  0  0  0  0  0  0  0  0  0
   -1.4672   -3.9329   -1.4049 C   0  0  0  0  0  0  0  0  0  0  0  0
   -3.9511   -3.2656    0.2927 H   0  0  0  0  0  0  0  0  0  0  0  0
   -1.1336   -3.8325    0.7248 H   0  0  0  0  0  0  0  0  0  0  0  0
   -2.1702   -3.5470   -2.1502 H   0  0  0  0  0  0  0  0  0  0  0  0
   -0.4606   -3.5948   -1.6677 H   0  0  0  0  0  0  0  0  0  0  0  0
   -1.4839   -5.0268   -1.4435 H   0  0  0  0  0  0  0  0  0  0  0  0
   -0.5739   -1.2673    0.2080 N   0  0  0  0  0  0  0  0  0  0  0  0
   -0.2048    0.1055   -0.2169 C   0  0  2  0  0  0  0  0  0  0  0  0
    0.5634    0.8169    0.9057 C   0  0  0  0  0  0  0  0  0  0  0  0
    1.7110    1.2006    0.7258 O   0  0  0  0  0  0  0  0  0  0  0  0
   -1.2909    1.0224   -0.8091 C   0  0  0  0  0  0  0  0  0  0  0  0
   -1.9118    0.3542   -2.4128 S   0  0  0  0  0  0  0  0  0  0  0  0
    0.2076   -1.9149    0.2694 H   0  0  0  0  0  0  0  0  0  0  0  0
    0.5179   -0.0195   -1.0301 H   0  0  0  0  0  0  0  0  0  0  0  0
   -2.1182    1.1320   -0.1004 H   0  0  0  0  0  0  0  0  0  0  0  0
   -0.8741    2.0200   -0.9823 H   0  0  0  0  0  0  0  0  0  0  0  0
   -2.9870    1.1470   -2.6138 H   0  0  0  0  0  0  0  0  0  0  0  0
   -0.0419    1.0014    2.1325 N   0  0  0  0  0  0  0  0  0  0  0  0
    0.6537    1.4652    3.3392 C   0  0  2  0  0  0  0  0  0  0  0  0
    0.1441    0.7390    4.6028 C   0  0  0  0  0  0  0  0  0  0  0  0
   -0.8503    0.0244    4.5447 O   0  0  0  0  0  0  0  0  0  0  0  0
    0.4458    2.9778    3.4552 C   0  0  0  0  0  0  0  0  0  0  0  0
   -0.9254    0.5077    2.2764 H   0  0  0  0  0  0  0  0  0  0  0  0
    1.7252    1.2542    3.2571 H   0  0  0  0  0  0  0  0  0  0  0  0
   -0.6194    3.2117    3.5517 H   0  0  0  0  0  0  0  0  0  0  0  0
    0.9708    3.3734    4.3296 H   0  0  0  0  0  0  0  0  0  0  0  0
    0.8337    3.4812    2.5639 H   0  0  0  0  0  0  0  0  0  0  0  0
    0.8131    0.8670    5.8063 N   0  0  0  0  0  0  0  0  0  0  0  0
    0.3882    0.1995    7.0315 C   0  0  0  0  0  0  0  0  0  0  0  0
    1.6412    1.4552    5.8265 H   0  0  0  0  0  0  0  0  0  0  0  0
   -0.6231    0.5149    7.3096 H   0  0  0  0  0  0  0  0  0  0  0  0
    0.3928   -0.8875    6.8973 H   0  0  0  0  0  0  0  0  0  0  0  0
    1.0657    0.4496    7.8536 H   0  0  0  0  0  0  0  0  0  0  0  0
  1  2  2  0  0  0  0
  1  3  1  0  0  0  0
  1  7  1  0  0  0  0
  3  4  1  0  0  0  0
  3  5  1  0  0  0  0
  3  6  1  0  0  0  0
  7  8  1  0  0  0  0
  7 12  1  0  0  0  0
  8  9  1  0  0  0  0
  8 11  1  0  0  0  0
  8 13  1  0  0  0  0
  9 10  2  0  0  0  0
  9 17  1  0  0  0  0
 11 14  1  0  0  0  0
 11 15  1  0  0  0  0
 11 16  1  0  0  0  0
 17 18  1  0  0  0  0
 17 23  1  0  0  0  0
 18 19  1  0  0  0  0
 18 21  1  0  0  0  0
 18 24  1  0  0  0  0
 19 20  2  0  0  0  0
 19 28  1  0  0  0  0
 21 22  1  0  0  0  0
 21 25  1  0  0  0  0
 21 26  1  0  0  0  0
 22 27  1  0  0  0  0
 28 29  1  0  0  0  0
 28 33  1  0  0  0  0
 29 30  1  0  0  0  0
 29 32  1  0  0  0  0
 29 34  1  0  0  0  0
 30 31  2  0  0  0  0
 30 38  1  0  0  0  0
 32 35  1  0  0  0  0
 32 36  1  0  0  0  0
 32 37  1  0  0  0  0
 38 39  1  0  0  0  0
 38 40  1  0  0  0  0
 39 41  1  0  0  0  0
 39 42  1  0  0  0  0
 39 43  1  0  0  0  0
M  END
$$$$

  -OEChem-05262216003D

 43 42  0     1  0  0  0  0  0999 V2000
   -3.5513   -5.1573    0.8682 C   0  0  0  0  0  0  0  0  0  0  0  0
   -2.6606   -5.9774    1.0269 O   0  0  0  0  0  0  0  0  0  0  0  0
   -4.9697   -5.4804    1.2985 C   0  0  0  0  0  0  0  0  0  0  0  0
   -5.6508   -5.3700    0.4512 H   0  0  0  0  0  0  0  0  0  0  0  0
   -5.0272   -6.5093    1.6650 H   0  0  0  0  0  0  0  0  0  0  0  0
   -5.2804   -4.8032    2.0981 H   0  0  0  0  0  0  0  0  0  0  0  0
   -3.2682   -3.9301    0.3076 N   0  0  0  0  0  0  0  0  0  0  0  0
   -1.9142   -3.4500    0.0055 C   0  0  2  0  0  0  0  0  0  0  0  0
   -1.8146   -1.9132    0.1115 C   0  0  0  0  0  0  0  0  0  0  0  0
   -2.8387   -1.2451    0.1971 O   0  0  0  0  0  0  0  0  0  0  0  0
   -1.5410   -3.9058   -1.4086 C   0  0  0  0  0  0  0  0  0  0  0  0
   -4.0112   -3.2318    0.3050 H   0  0  0  0  0  0  0  0  0  0  0  0
   -1.2064   -3.8778    0.7237 H   0  0  0  0  0  0  0  0  0  0  0  0
   -2.2308   -3.4752   -2.1419 H   0  0  0  0  0  0  0  0  0  0  0  0
   -0.5241   -3.5901   -1.6604 H   0  0  0  0  0  0  0  0  0  0  0  0
   -1.5906   -4.9970   -1.4820 H   0  0  0  0  0  0  0  0  0  0  0  0
   -0.5774   -1.3135    0.2824 N   0  0  0  0  0  0  0  0  0  0  0  0
   -0.1501    0.0300   -0.1863 C   0  0  2  0  0  0  0  0  0  0  0  0
    0.5988    0.7735    0.9297 C   0  0  0  0  0  0  0  0  0  0  0  0
    1.6383    1.3724    0.6904 O   0  0  0  0  0  0  0  0  0  0  0  0
   -1.1959    0.9528   -0.8371 C   0  0  0  0  0  0  0  0  0  0  0  0
   -1.8067    0.2419   -2.4259 S   0  0  0  0  0  0  0  0  0  0  0  0
    0.1785   -1.9889    0.3641 H   0  0  0  0  0  0  0  0  0  0  0  0
    0.5931   -0.1458   -0.9711 H   0  0  0  0  0  0  0  0  0  0  0  0
   -2.0316    1.1163   -0.1491 H   0  0  0  0  0  0  0  0  0  0  0  0
   -0.7441    1.9294   -1.0406 H   0  0  0  0  0  0  0  0  0  0  0  0
   -2.8443    1.0678   -2.6841 H   0  0  0  0  0  0  0  0  0  0  0  0
    0.0835    0.7597    2.2099 N   0  0  0  0  0  0  0  0  0  0  0  0
    0.8073    1.2073    3.4058 C   0  0  2  0  0  0  0  0  0  0  0  0
    0.7250    0.1632    4.5404 C   0  0  0  0  0  0  0  0  0  0  0  0
   -0.0216   -0.8040    4.4367 O   0  0  0  0  0  0  0  0  0  0  0  0
    0.1998    2.5419    3.8448 C   0  0  0  0  0  0  0  0  0  0  0  0
   -0.6877    0.1072    2.3625 H   0  0  0  0  0  0  0  0  0  0  0  0
    1.8681    1.3542    3.1771 H   0  0  0  0  0  0  0  0  0  0  0  0
   -0.8600    2.4174    4.0901 H   0  0  0  0  0  0  0  0  0  0  0  0
    0.7186    2.9313    4.7259 H   0  0  0  0  0  0  0  0  0  0  0  0
    0.2870    3.2787    3.0398 H   0  0  0  0  0  0  0  0  0  0  0  0
    1.4996    0.2991    5.6776 N   0  0  0  0  0  0  0  0  0  0  0  0
    1.4730   -0.6521    6.7825 C   0  0  0  0  0  0  0  0  0  0  0  0
    2.1201    1.1015    5.7329 H   0  0  0  0  0  0  0  0  0  0  0  0
    0.4642   -0.7232    7.2031 H   0  0  0  0  0  0  0  0  0  0  0  0
    1.7830   -1.6455    6.4413 H   0  0  0  0  0  0  0  0  0  0  0  0
    2.1556   -0.3303    7.5749 H   0  0  0  0  0  0  0  0  0  0  0  0
  1  2  2  0  0  0  0
  1  3  1  0  0  0  0
  1  7  1  0  0  0  0
  3  4  1  0  0  0  0
  3  5  1  0  0  0  0
  3  6  1  0  0  0  0
  7  8  1  0  0  0  0
  7 12  1  0  0  0  0
  8  9  1  0  0  0  0
  8 11  1  0  0  0  0
  8 13  1  0  0  0  0
  9 10  2  0  0  0  0
  9 17  1  0  0  0  0
 11 14  1  0  0  0  0
 11 15  1  0  0  0  0
 11 16  1  0  0  0  0
 17 18  1  0  0  0  0
 17 23  1  0  0  0  0
 18 19  1  0  0  0  0
 18 21  1  0  0  0  0
 18 24  1  0  0  0  0
 19 20  2  0  0  0  0
 19 28  1  0  0  0  0
 21 22  1  0  0  0  0
 21 25  1  0  0  0  0
 21 26  1  0  0  0  0
 22 27  1  0  0  0  0
 28 29  1  0  0  0  0
 28 33  1  0  0  0  0
 29 30  1  0  0  0  0
 29 32  1  0  0  0  0
 29 34  1  0  0  0  0
 30 31  2  0  0  0  0
 30 38  1  0  0  0  0
 32 35  1  0  0  0  0
 32 36  1  0  0  0  0
 32 37  1  0  0  0  0
 38 39  1  0  0  0  0
 38 40  1  0  0  0  0
 39 41  1  0  0  0  0
 39 42  1  0  0  0  0
 39 43  1  0  0  0  0
M  END
$$$$

  -OEChem-05262216003D

 43 42  0     1  0  0  0  0  0999 V2000
   -3.7128   -4.7180    1.2024 C   0  0  0  0  0  0  0  0  0  0  0  0
   -3.1080   -5.2115    2.1411 O   0  0  0  0  0  0  0  0  0  0  0  0
   -5.1578   -5.1014    0.9440 C   0  0  0  0  0  0  0  0  0  0  0  0
   -5.2388   -5.6296   -0.0092 H   0  0  0  0  0  0  0  0  0  0  0  0
   -5.5232   -5.7542    1.7415 H   0  0  0  0  0  0  0  0  0  0  0  0
   -5.7815   -4.2047    0.9103 H   0  0  0  0  0  0  0  0  0  0  0  0
   -3.0933   -3.7984    0.3836 N   0  0  0  0  0  0  0  0  0  0  0  0
   -1.7775   -3.2033    0.6546 C   0  0  2  0  0  0  0  0  0  0  0  0
   -1.6942   -1.7501    0.1357 C   0  0  0  0  0  0  0  0  0  0  0  0
   -2.6813   -1.2395   -0.3804 O   0  0  0  0  0  0  0  0  0  0  0  0
   -0.7030   -4.0791    0.0026 C   0  0  0  0  0  0  0  0  0  0  0  0
   -3.6842   -3.2993   -0.2810 H   0  0  0  0  0  0  0  0  0  0  0  0
   -1.6005   -3.1707    1.7357 H   0  0  0  0  0  0  0  0  0  0  0  0
   -0.8366   -4.1056   -1.0835 H   0  0  0  0  0  0  0  0  0  0  0  0
    0.2961   -3.6911    0.2233 H   0  0  0  0  0  0  0  0  0  0  0  0
   -0.7648   -5.1022    0.3871 H   0  0  0  0  0  0  0  0  0  0  0  0
   -0.5826   -0.9890    0.4510 N   0  0  0  0  0  0  0  0  0  0  0  0
   -0.1066    0.3088   -0.0941 C   0  0  2  0  0  0  0  0  0  0  0  0
    0.3111    1.2240    1.0683 C   0  0  0  0  0  0  0  0  0  0  0  0
    1.3443    1.8761    1.0030 O   0  0  0  0  0  0  0  0  0  0  0  0
   -0.9762    1.0616   -1.1159 C   0  0  0  0  0  0  0  0  0  0  0  0
   -1.1325    0.1173   -2.6928 S   0  0  0  0  0  0  0  0  0  0  0  0
    0.0659   -1.4532    1.0959 H   0  0  0  0  0  0  0  0  0  0  0  0
    0.8194    0.0813   -0.6326 H   0  0  0  0  0  0  0  0  0  0  0  0
   -1.9688    1.2422   -0.6911 H   0  0  0  0  0  0  0  0  0  0  0  0
   -0.5258    2.0360   -1.3327 H   0  0  0  0  0  0  0  0  0  0  0  0
   -2.1048    0.8211   -3.3118 H   0  0  0  0  0  0  0  0  0  0  0  0
   -0.3356    1.0783    2.2816 N   0  0  0  0  0  0  0  0  0  0  0  0
    0.4540    1.0065    3.5178 C   0  0  2  0  0  0  0  0  0  0  0  0
    1.0978   -0.3913    3.6972 C   0  0  0  0  0  0  0  0  0  0  0  0
    0.7383   -1.3388    2.9989 O   0  0  0  0  0  0  0  0  0  0  0  0
   -0.4798    1.3283    4.6860 C   0  0  0  0  0  0  0  0  0  0  0  0
   -1.1038    0.4120    2.2234 H   0  0  0  0  0  0  0  0  0  0  0  0
    1.2547    1.7541    3.5000 H   0  0  0  0  0  0  0  0  0  0  0  0
   -1.2802    0.5844    4.7563 H   0  0  0  0  0  0  0  0  0  0  0  0
    0.0746    1.3321    5.6293 H   0  0  0  0  0  0  0  0  0  0  0  0
   -0.9313    2.3158    4.5470 H   0  0  0  0  0  0  0  0  0  0  0  0
    2.0876   -0.5914    4.6404 N   0  0  0  0  0  0  0  0  0  0  0  0
    2.7511   -1.8739    4.8460 C   0  0  0  0  0  0  0  0  0  0  0  0
    2.4054    0.2165    5.1684 H   0  0  0  0  0  0  0  0  0  0  0  0
    2.0205   -2.6465    5.1085 H   0  0  0  0  0  0  0  0  0  0  0  0
    3.2799   -2.1829    3.9381 H   0  0  0  0  0  0  0  0  0  0  0  0
    3.4783   -1.7977    5.6601 H   0  0  0  0  0  0  0  0  0  0  0  0
  1  2  2  0  0  0  0
  1  3  1  0  0  0  0
  1  7  1  0  0  0  0
  3  4  1  0  0  0  0
  3  5  1  0  0  0  0
  3  6  1  0  0  0  0
  7  8  1  0  0  0  0
  7 12  1  0  0  0  0
  8  9  1  0  0  0  0
  8 11  1  0  0  0  0
  8 13  1  0  0  0  0
  9 10  2  0  0  0  0
  9 17  1  0  0  0  0
 11 14  1  0  0  0  0
 11 15  1  0  0  0  0
 11 16  1  0  0  0  0
 17 18  1  0  0  0  0
 17 23  1  0  0  0  0
 18 19  1  0  0  0  0
 18 21  1  0  0  0  0
 18 24  1  0  0  0  0
 19 20  2  0  0  0  0
 19 28  1  0  0  0  0
 21 22  1  0  0  0  0
 21 25  1  0  0  0  0
 21 26  1  0  0  0  0
 22 27  1  0  0  0  0
 28 29  1  0  0  0  0
 28 33  1  0  0  0  0
 29 30  1  0  0  0  0
 29 32  1  0  0  0  0
 29 34  1  0  0  0  0
 30 31  2  0  0  0  0
 30 38  1  0  0  0  0
 32 35  1  0  0  0  0
 32 36  1  0  0  0  0
 32 37  1  0  0  0  0
 38 39  1  0  0  0  0
 38 40  1  0  0  0  0
 39 41  1  0  0  0  0
 39 42  1  0  0  0  0
 39 43  1  0  0  0  0
M  END
$$$$

  -OEChem-05262216003D

 43 42  0     1  0  0  0  0  0999 V2000
   -3.7302   -4.8120    1.1161 C   0  0  0  0  0  0  0  0  0  0  0  0
   -3.1139   -5.3406    2.0281 O   0  0  0  0  0  0  0  0  0  0  0  0
   -5.1787   -5.1845    0.8604 C   0  0  0  0  0  0  0  0  0  0  0  0
   -5.2670   -5.7010   -0.0984 H   0  0  0  0  0  0  0  0  0  0  0  0
   -5.5435   -5.8442    1.6525 H   0  0  0  0  0  0  0  0  0  0  0  0
   -5.7988   -4.2850    0.8392 H   0  0  0  0  0  0  0  0  0  0  0  0
   -3.1194   -3.8664    0.3208 N   0  0  0  0  0  0  0  0  0  0  0  0
   -1.7979   -3.2861    0.5938 C   0  0  2  0  0  0  0  0  0  0  0  0
   -1.7319   -1.7995    0.1802 C   0  0  0  0  0  0  0  0  0  0  0  0
   -2.7270   -1.2623   -0.2918 O   0  0  0  0  0  0  0  0  0  0  0  0
   -0.7438   -4.1059   -0.1561 C   0  0  0  0  0  0  0  0  0  0  0  0
   -3.7209   -3.3382   -0.3107 H   0  0  0  0  0  0  0  0  0  0  0  0
   -1.5872   -3.3310    1.6681 H   0  0  0  0  0  0  0  0  0  0  0  0
   -0.9137   -4.0525   -1.2363 H   0  0  0  0  0  0  0  0  0  0  0  0
    0.2608   -3.7292    0.0587 H   0  0  0  0  0  0  0  0  0  0  0  0
   -0.7897   -5.1549    0.1536 H   0  0  0  0  0  0  0  0  0  0  0  0
   -0.6189   -1.0539    0.5284 N   0  0  0  0  0  0  0  0  0  0  0  0
   -0.1289    0.2455   -0.0028 C   0  0  2  0  0  0  0  0  0  0  0  0
    0.2793    1.1734    1.1551 C   0  0  0  0  0  0  0  0  0  0  0  0
    1.1821    1.9845    1.0003 O   0  0  0  0  0  0  0  0  0  0  0  0
   -0.9863    0.9927   -1.0390 C   0  0  0  0  0  0  0  0  0  0  0  0
   -1.1089    0.0390   -2.6136 S   0  0  0  0  0  0  0  0  0  0  0  0
    0.0669   -1.5713    1.0891 H   0  0  0  0  0  0  0  0  0  0  0  0
    0.8039    0.0159   -0.5277 H   0  0  0  0  0  0  0  0  0  0  0  0
   -1.9860    1.1714   -0.6305 H   0  0  0  0  0  0  0  0  0  0  0  0
   -0.5381    1.9687   -1.2536 H   0  0  0  0  0  0  0  0  0  0  0  0
   -2.0974    0.7165   -3.2356 H   0  0  0  0  0  0  0  0  0  0  0  0
   -0.1376    0.8542    2.4340 N   0  0  0  0  0  0  0  0  0  0  0  0
    0.8504    0.7605    3.5156 C   0  0  2  0  0  0  0  0  0  0  0  0
    1.5858   -0.6017    3.4774 C   0  0  0  0  0  0  0  0  0  0  0  0
    1.1464   -1.5261    2.7934 O   0  0  0  0  0  0  0  0  0  0  0  0
    0.1113    0.9421    4.8427 C   0  0  0  0  0  0  0  0  0  0  0  0
   -0.8274    0.1051    2.4256 H   0  0  0  0  0  0  0  0  0  0  0  0
    1.5957    1.5580    3.4226 H   0  0  0  0  0  0  0  0  0  0  0  0
   -0.6288    0.1475    4.9826 H   0  0  0  0  0  0  0  0  0  0  0  0
    0.8148    0.9145    5.6804 H   0  0  0  0  0  0  0  0  0  0  0  0
   -0.4052    1.9070    4.8590 H   0  0  0  0  0  0  0  0  0  0  0  0
    2.7491   -0.7912    4.1984 N   0  0  0  0  0  0  0  0  0  0  0  0
    3.5097   -2.0351    4.1823 C   0  0  0  0  0  0  0  0  0  0  0  0
    3.1191    0.0034    4.7124 H   0  0  0  0  0  0  0  0  0  0  0  0
    2.8966   -2.8648    4.5499 H   0  0  0  0  0  0  0  0  0  0  0  0
    3.8447   -2.2675    3.1659 H   0  0  0  0  0  0  0  0  0  0  0  0
    4.3913   -1.9464    4.8246 H   0  0  0  0  0  0  0  0  0  0  0  0
  1  2  2  0  0  0  0
  1  3  1  0  0  0  0
  1  7  1  0  0  0  0
  3  4  1  0  0  0  0
  3  5  1  0  0  0  0
  3  6  1  0  0  0  0
  7  8  1  0  0  0  0
  7 12  1  0  0  0  0
  8  9  1  0  0  0  0
  8 11  1  0  0  0  0
  8 13  1  0  0  0  0
  9 10  2  0  0  0  0
  9 17  1  0  0  0  0
 11 14  1  0  0  0  0
 11 15  1  0  0  0  0
 11 16  1  0  0  0  0
 17 18  1  0  0  0  0
 17 23  1  0  0  0  0
 18 19  1  0  0  0  0
 18 21  1  0  0  0  0
 18 24  1  0  0  0  0
 19 20  2  0  0  0  0
 19 28  1  0  0  0  0
 21 22  1  0  0  0  0
 21 25  1  0  0  0  0
 21 26  1  0  0  0  0
 22 27  1  0  0  0  0
 28 29  1  0  0  0  0
 28 33  1  0  0  0  0
 29 30  1  0  0  0  0
 29 32  1  0  0  0  0
 29 34  1  0  0  0  0
 30 31  2  0  0  0  0
 30 38  1  0  0  0  0
 32 35  1  0  0  0  0
 32 36  1  0  0  0  0
 32 37  1  0  0  0  0
 38 39  1  0  0  0  0
 38 40  1  0  0  0  0
 39 41  1  0  0  0  0
 39 42  1  0  0  0  0
 39 43  1  0  0  0  0
M  END
$$$$

  -OEChem-05262216003D

 43 42  0     1  0  0  0  0  0999 V2000
   -3.6349   -5.2075    0.8082 C   0  0  0  0  0  0  0  0  0  0  0  0
   -2.7354   -6.0207    0.9503 O   0  0  0  0  0  0  0  0  0  0  0  0
   -5.0489   -5.5559    1.2332 C   0  0  0  0  0  0  0  0  0  0  0  0
   -5.7256   -5.4763    0.3793 H   0  0  0  0  0  0  0  0  0  0  0  0
   -5.0849   -6.5792    1.6174 H   0  0  0  0  0  0  0  0  0  0  0  0
   -5.3820   -4.8729    2.0183 H   0  0  0  0  0  0  0  0  0  0  0  0
   -3.3628   -3.9671    0.2716 N   0  0  0  0  0  0  0  0  0  0  0  0
   -2.0125   -3.4750   -0.0292 C   0  0  2  0  0  0  0  0  0  0  0  0
   -1.9088   -1.9425    0.1252 C   0  0  0  0  0  0  0  0  0  0  0  0
   -2.9290   -1.2803    0.2740 O   0  0  0  0  0  0  0  0  0  0  0  0
   -1.6529   -3.8891   -1.4594 C   0  0  0  0  0  0  0  0  0  0  0  0
   -4.1103   -3.2737    0.2845 H   0  0  0  0  0  0  0  0  0  0  0  0
   -1.2965   -3.9235    0.6682 H   0  0  0  0  0  0  0  0  0  0  0  0
   -2.3554   -3.4468   -2.1733 H   0  0  0  0  0  0  0  0  0  0  0  0
   -0.6425   -3.5567   -1.7151 H   0  0  0  0  0  0  0  0  0  0  0  0
   -1.6925   -4.9785   -1.5602 H   0  0  0  0  0  0  0  0  0  0  0  0
   -0.6600   -1.3567    0.2645 N   0  0  0  0  0  0  0  0  0  0  0  0
   -0.2409    0.0050   -0.1696 C   0  0  2  0  0  0  0  0  0  0  0  0
    0.5695    0.7244    0.9290 C   0  0  0  0  0  0  0  0  0  0  0  0
    1.1045    1.8025    0.7070 O   0  0  0  0  0  0  0  0  0  0  0  0
   -1.3157    0.9326   -0.7715 C   0  0  0  0  0  0  0  0  0  0  0  0
   -1.9476    0.2505   -2.3657 S   0  0  0  0  0  0  0  0  0  0  0  0
    0.0889   -2.0454    0.2490 H   0  0  0  0  0  0  0  0  0  0  0  0
    0.4756   -0.1493   -0.9820 H   0  0  0  0  0  0  0  0  0  0  0  0
   -2.1359    1.0712   -0.0608 H   0  0  0  0  0  0  0  0  0  0  0  0
   -0.8861    1.9212   -0.9659 H   0  0  0  0  0  0  0  0  0  0  0  0
   -2.9719    1.0979   -2.6078 H   0  0  0  0  0  0  0  0  0  0  0  0
    0.8145    0.0893    2.1303 N   0  0  0  0  0  0  0  0  0  0  0  0
    1.8485    0.4719    3.0978 C   0  0  2  0  0  0  0  0  0  0  0  0
    2.5490   -0.7770    3.6768 C   0  0  0  0  0  0  0  0  0  0  0  0
    2.1366   -1.8986    3.3959 O   0  0  0  0  0  0  0  0  0  0  0  0
    1.1838    1.2964    4.2032 C   0  0  0  0  0  0  0  0  0  0  0  0
    0.4193   -0.8449    2.2316 H   0  0  0  0  0  0  0  0  0  0  0  0
    2.6173    1.0791    2.6081 H   0  0  0  0  0  0  0  0  0  0  0  0
    0.4217    0.7022    4.7178 H   0  0  0  0  0  0  0  0  0  0  0  0
    1.9241    1.6270    4.9377 H   0  0  0  0  0  0  0  0  0  0  0  0
    0.7047    2.1826    3.7749 H   0  0  0  0  0  0  0  0  0  0  0  0
    3.6558   -0.6482    4.4956 N   0  0  0  0  0  0  0  0  0  0  0  0
    4.3650   -1.7859    5.0690 C   0  0  0  0  0  0  0  0  0  0  0  0
    3.9829    0.2909    4.7033 H   0  0  0  0  0  0  0  0  0  0  0  0
    3.6892   -2.3878    5.6856 H   0  0  0  0  0  0  0  0  0  0  0  0
    4.7770   -2.4191    4.2763 H   0  0  0  0  0  0  0  0  0  0  0  0
    5.1898   -1.4395    5.6993 H   0  0  0  0  0  0  0  0  0  0  0  0
  1  2  2  0  0  0  0
  1  3  1  0  0  0  0
  1  7  1  0  0  0  0
  3  4  1  0  0  0  0
  3  5  1  0  0  0  0
  3  6  1  0  0  0  0
  7  8  1  0  0  0  0
  7 12  1  0  0  0  0
  8  9  1  0  0  0  0
  8 11  1  0  0  0  0
  8 13  1  0  0  0  0
  9 10  2  0  0  0  0
  9 17  1  0  0  0  0
 11 14  1  0  0  0  0
 11 15  1  0  0  0  0
 11 16  1  0  0  0  0
 17 18  1  0  0  0  0
 17 23  1  0  0  0  0
 18 19  1  0  0  0  0
 18 21  1  0  0  0  0
 18 24  1  0  0  0  0
 19 20  2  0  0  0  0
 19 28  1  0  0  0  0
 21 22  1  0  0  0  0
 21 25  1  0  0  0  0
 21 26  1  0  0  0  0
 22 27  1  0  0  0  0
 28 29  1  0  0  0  0
 28 33  1  0  0  0  0
 29 30  1  0  0  0  0
 29 32  1  0  0  0  0
 29 34  1  0  0  0  0
 30 31  2  0  0  0  0
 30 38  1  0  0  0  0
 32 35  1  0  0  0  0
 32 36  1  0  0  0  0
 32 37  1  0  0  0  0
 38 39  1  0  0  0  0
 38 40  1  0  0  0  0
 39 41  1  0  0  0  0
 39 42  1  0  0  0  0
 39 43  1  0  0  0  0
M  END
$$$$

  -OEChem-05262216003D

 43 42  0     1  0  0  0  0  0999 V2000
   -3.6245   -5.2136    0.8194 C   0  0  0  0  0  0  0  0  0  0  0  0
   -2.7243   -6.0322    0.9213 O   0  0  0  0  0  0  0  0  0  0  0  0
   -5.0240   -5.5568    1.2930 C   0  0  0  0  0  0  0  0  0  0  0  0
   -5.7210   -5.5194    0.4522 H   0  0  0  0  0  0  0  0  0  0  0  0
   -5.0403   -6.5633    1.7206 H   0  0  0  0  0  0  0  0  0  0  0  0
   -5.3449   -4.8439    2.0566 H   0  0  0  0  0  0  0  0  0  0  0  0
   -3.3679   -3.9720    0.2785 N   0  0  0  0  0  0  0  0  0  0  0  0
   -2.0279   -3.4818   -0.0680 C   0  0  2  0  0  0  0  0  0  0  0  0
   -1.9025   -1.9575    0.1404 C   0  0  0  0  0  0  0  0  0  0  0  0
   -2.9097   -1.2988    0.3706 O   0  0  0  0  0  0  0  0  0  0  0  0
   -1.7467   -3.8446   -1.5293 C   0  0  0  0  0  0  0  0  0  0  0  0
   -4.1087   -3.2733    0.3339 H   0  0  0  0  0  0  0  0  0  0  0  0
   -1.2830   -3.9626    0.5752 H   0  0  0  0  0  0  0  0  0  0  0  0
   -2.4719   -3.3574   -2.1895 H   0  0  0  0  0  0  0  0  0  0  0  0
   -0.7417   -3.5247   -1.8200 H   0  0  0  0  0  0  0  0  0  0  0  0
   -1.8183   -4.9277   -1.6719 H   0  0  0  0  0  0  0  0  0  0  0  0
   -0.6441   -1.3815    0.2279 N   0  0  0  0  0  0  0  0  0  0  0  0
   -0.2477   -0.0065   -0.1855 C   0  0  2  0  0  0  0  0  0  0  0  0
    0.6281    0.6783    0.8886 C   0  0  0  0  0  0  0  0  0  0  0  0
    0.9447    1.8568    0.7913 O   0  0  0  0  0  0  0  0  0  0  0  0
   -1.3554    0.9291   -0.7150 C   0  0  0  0  0  0  0  0  0  0  0  0
   -2.0505    0.2828   -2.2975 S   0  0  0  0  0  0  0  0  0  0  0  0
    0.0941   -2.0728    0.1224 H   0  0  0  0  0  0  0  0  0  0  0  0
    0.4259   -0.1368   -1.0376 H   0  0  0  0  0  0  0  0  0  0  0  0
   -2.1440    1.0445    0.0351 H   0  0  0  0  0  0  0  0  0  0  0  0
   -0.9438    1.9255   -0.9063 H   0  0  0  0  0  0  0  0  0  0  0  0
   -3.0946    1.1240   -2.4632 H   0  0  0  0  0  0  0  0  0  0  0  0
    1.1992   -0.0748    1.8961 N   0  0  0  0  0  0  0  0  0  0  0  0
    2.2489    0.3778    2.8154 C   0  0  2  0  0  0  0  0  0  0  0  0
    3.1582   -0.7983    3.2329 C   0  0  0  0  0  0  0  0  0  0  0  0
    2.8544   -1.9471    2.9256 O   0  0  0  0  0  0  0  0  0  0  0  0
    1.5785    1.0127    4.0374 C   0  0  0  0  0  0  0  0  0  0  0  0
    0.9607   -1.0645    1.9260 H   0  0  0  0  0  0  0  0  0  0  0  0
    2.8809    1.1230    2.3206 H   0  0  0  0  0  0  0  0  0  0  0  0
    0.9451    0.2811    4.5493 H   0  0  0  0  0  0  0  0  0  0  0  0
    2.3295    1.3790    4.7436 H   0  0  0  0  0  0  0  0  0  0  0  0
    0.9547    1.8582    3.7300 H   0  0  0  0  0  0  0  0  0  0  0  0
    4.3276   -0.5716    3.9348 N   0  0  0  0  0  0  0  0  0  0  0  0
    5.2331   -1.6375    4.3476 C   0  0  0  0  0  0  0  0  0  0  0  0
    4.5631    0.3902    4.1616 H   0  0  0  0  0  0  0  0  0  0  0  0
    4.7086   -2.3650    4.9765 H   0  0  0  0  0  0  0  0  0  0  0  0
    5.6391   -2.1561    3.4724 H   0  0  0  0  0  0  0  0  0  0  0  0
    6.0675   -1.2235    4.9222 H   0  0  0  0  0  0  0  0  0  0  0  0
  1  2  2  0  0  0  0
  1  3  1  0  0  0  0
  1  7  1  0  0  0  0
  3  4  1  0  0  0  0
  3  5  1  0  0  0  0
  3  6  1  0  0  0  0
  7  8  1  0  0  0  0
  7 12  1  0  0  0  0
  8  9  1  0  0  0  0
  8 11  1  0  0  0  0
  8 13  1  0  0  0  0
  9 10  2  0  0  0  0
  9 17  1  0  0  0  0
 11 14  1  0  0  0  0
 11 15  1  0  0  0  0
 11 16  1  0  0  0  0
 17 18  1  0  0  0  0
 17 23  1  0  0  0  0
 18 19  1  0  0  0  0
 18 21  1  0  0  0  0
 18 24  1  0  0  0  0
 19 20  2  0  0  0  0
 19 28  1  0  0  0  0
 21 22  1  0  0  0  0
 21 25  1  0  0  0  0
 21 26  1  0  0  0  0
 22 27  1  0  0  0  0
 28 29  1  0  0  0  0
 28 33  1  0  0  0  0
 29 30  1  0  0  0  0
 29 32  1  0  0  0  0
 29 34  1  0  0  0  0
 30 31  2  0  0  0  0
 30 38  1  0  0  0  0
 32 35  1  0  0  0  0
 32 36  1  0  0  0  0
 32 37  1  0  0  0  0
 38 39  1  0  0  0  0
 38 40  1  0  0  0  0
 39 41  1  0  0  0  0
 39 42  1  0  0  0  0
 39 43  1  0  0  0  0
M  END
$$$$

  -OEChem-05262216003D

 43 42  0     1  0  0  0  0  0999 V2000
   -3.6133   -5.2055    0.8530 C   0  0  0  0  0  0  0  0  0  0  0  0
   -2.7189   -6.0339    0.9194 O   0  0  0  0  0  0  0  0  0  0  0  0
   -5.0009   -5.5396    1.3670 C   0  0  0  0  0  0  0  0  0  0  0  0
   -5.7267   -5.4735    0.5528 H   0  0  0  0  0  0  0  0  0  0  0  0
   -5.0181   -6.5550    1.7729 H   0  0  0  0  0  0  0  0  0  0  0  0
   -5.2845   -4.8399    2.1568 H   0  0  0  0  0  0  0  0  0  0  0  0
   -3.3592   -3.9592    0.3218 N   0  0  0  0  0  0  0  0  0  0  0  0
   -2.0229   -3.4736   -0.0455 C   0  0  2  0  0  0  0  0  0  0  0  0
   -1.8867   -1.9512    0.1704 C   0  0  0  0  0  0  0  0  0  0  0  0
   -2.8847   -1.2927    0.4391 O   0  0  0  0  0  0  0  0  0  0  0  0
   -1.7659   -3.8265   -1.5139 C   0  0  0  0  0  0  0  0  0  0  0  0
   -4.0905   -3.2539    0.4117 H   0  0  0  0  0  0  0  0  0  0  0  0
   -1.2696   -3.9629    0.5815 H   0  0  0  0  0  0  0  0  0  0  0  0
   -2.5001   -3.3339   -2.1599 H   0  0  0  0  0  0  0  0  0  0  0  0
   -0.7650   -3.5066   -1.8184 H   0  0  0  0  0  0  0  0  0  0  0  0
   -1.8411   -4.9084   -1.6626 H   0  0  0  0  0  0  0  0  0  0  0  0
   -0.6234   -1.3793    0.2069 N   0  0  0  0  0  0  0  0  0  0  0  0
   -0.2431   -0.0033   -0.2168 C   0  0  2  0  0  0  0  0  0  0  0  0
    0.6802    0.6710    0.8259 C   0  0  0  0  0  0  0  0  0  0  0  0
    0.7713    1.8891    0.9104 O   0  0  0  0  0  0  0  0  0  0  0  0
   -1.3726    0.9302   -0.7044 C   0  0  0  0  0  0  0  0  0  0  0  0
   -2.1206    0.2815   -2.2620 S   0  0  0  0  0  0  0  0  0  0  0  0
    0.1046   -2.0738    0.0656 H   0  0  0  0  0  0  0  0  0  0  0  0
    0.3952   -0.1300   -1.0965 H   0  0  0  0  0  0  0  0  0  0  0  0
   -2.1328    1.0442    0.0744 H   0  0  0  0  0  0  0  0  0  0  0  0
   -0.9716    1.9278   -0.9111 H   0  0  0  0  0  0  0  0  0  0  0  0
   -3.1870    1.1032   -2.3780 H   0  0  0  0  0  0  0  0  0  0  0  0
    1.5274   -0.1009    1.5987 N   0  0  0  0  0  0  0  0  0  0  0  0
    2.5679    0.4075    2.4997 C   0  0  2  0  0  0  0  0  0  0  0  0
    3.6902   -0.6363    2.6855 C   0  0  0  0  0  0  0  0  0  0  0  0
    3.5350   -1.7825    2.2745 O   0  0  0  0  0  0  0  0  0  0  0  0
    1.9229    0.7533    3.8461 C   0  0  0  0  0  0  0  0  0  0  0  0
    1.4832   -1.1109    1.4823 H   0  0  0  0  0  0  0  0  0  0  0  0
    3.0198    1.3084    2.0710 H   0  0  0  0  0  0  0  0  0  0  0  0
    1.4583   -0.1347    4.2868 H   0  0  0  0  0  0  0  0  0  0  0  0
    2.6713    1.1388    4.5447 H   0  0  0  0  0  0  0  0  0  0  0  0
    1.1520    1.5191    3.7125 H   0  0  0  0  0  0  0  0  0  0  0  0
    4.8811   -0.2900    3.2963 N   0  0  0  0  0  0  0  0  0  0  0  0
    5.9837   -1.2240    3.4911 C   0  0  0  0  0  0  0  0  0  0  0  0
    4.9856    0.6684    3.6165 H   0  0  0  0  0  0  0  0  0  0  0  0
    5.6564   -2.0879    4.0792 H   0  0  0  0  0  0  0  0  0  0  0  0
    6.3614   -1.5773    2.5260 H   0  0  0  0  0  0  0  0  0  0  0  0
    6.8040   -0.7349    4.0256 H   0  0  0  0  0  0  0  0  0  0  0  0
  1  2  2  0  0  0  0
  1  3  1  0  0  0  0
  1  7  1  0  0  0  0
  3  4  1  0  0  0  0
  3  5  1  0  0  0  0
  3  6  1  0  0  0  0
  7  8  1  0  0  0  0
  7 12  1  0  0  0  0
  8  9  1  0  0  0  0
  8 11  1  0  0  0  0
  8 13  1  0  0  0  0
  9 10  2  0  0  0  0
  9 17  1  0  0  0  0
 11 14  1  0  0  0  0
 11 15  1  0  0  0  0
 11 16  1  0  0  0  0
 17 18  1  0  0  0  0
 17 23  1  0  0  0  0
 18 19  1  0  0  0  0
 18 21  1  0  0  0  0
 18 24  1  0  0  0  0
 19 20  2  0  0  0  0
 19 28  1  0  0  0  0
 21 22  1  0  0  0  0
 21 25  1  0  0  0  0
 21 26  1  0  0  0  0
 22 27  1  0  0  0  0
 28 29  1  0  0  0  0
 28 33  1  0  0  0  0
 29 30  1  0  0  0  0
 29 32  1  0  0  0  0
 29 34  1  0  0  0  0
 30 31  2  0  0  0  0
 30 38  1  0  0  0  0
 32 35  1  0  0  0  0
 32 36  1  0  0  0  0
 32 37  1  0  0  0  0
 38 39  1  0  0  0  0
 38 40  1  0  0  0  0
 39 41  1  0  0  0  0
 39 42  1  0  0  0  0
 39 43  1  0  0  0  0
M  END
$$$$

  -OEChem-05262216003D

 43 42  0     1  0  0  0  0  0999 V2000
   -3.5396   -5.1575    0.9738 C   0  0  0  0  0  0  0  0  0  0  0  0
   -2.6273   -5.9491    1.1528 O   0  0  0  0  0  0  0  0  0  0  0  0
   -4.9387   -5.4841    1.4610 C   0  0  0  0  0  0  0  0  0  0  0  0
   -5.6313   -5.5088    0.6162 H   0  0  0  0  0  0  0  0  0  0  0  0
   -4.9484   -6.4607    1.9534 H   0  0  0  0  0  0  0  0  0  0  0  0
   -5.2715   -4.7266    2.1751 H   0  0  0  0  0  0  0  0  0  0  0  0
   -3.2966   -3.9582    0.3391 N   0  0  0  0  0  0  0  0  0  0  0  0
   -1.9566   -3.4579    0.0068 C   0  0  2  0  0  0  0  0  0  0  0  0
   -1.8737   -1.9203    0.1177 C   0  0  0  0  0  0  0  0  0  0  0  0
   -2.8986   -1.2811    0.3224 O   0  0  0  0  0  0  0  0  0  0  0  0
   -1.6090   -3.9116   -1.4142 C   0  0  0  0  0  0  0  0  0  0  0  0
   -4.0491   -3.2697    0.3412 H   0  0  0  0  0  0  0  0  0  0  0  0
   -1.2248   -3.8747    0.7071 H   0  0  0  0  0  0  0  0  0  0  0  0
   -2.3203   -3.4932   -2.1337 H   0  0  0  0  0  0  0  0  0  0  0  0
   -0.6020   -3.5843   -1.6893 H   0  0  0  0  0  0  0  0  0  0  0  0
   -1.6458   -5.0036   -1.4820 H   0  0  0  0  0  0  0  0  0  0  0  0
   -0.6258   -1.3144    0.1346 N   0  0  0  0  0  0  0  0  0  0  0  0
   -0.2680    0.0740   -0.2646 C   0  0  2  0  0  0  0  0  0  0  0  0
    0.6679    0.7234    0.7814 C   0  0  0  0  0  0  0  0  0  0  0  0
    0.5470    1.8926    1.1242 O   0  0  0  0  0  0  0  0  0  0  0  0
   -1.4098    1.0110   -0.7116 C   0  0  0  0  0  0  0  0  0  0  0  0
   -2.1808    0.3968   -2.2718 S   0  0  0  0  0  0  0  0  0  0  0  0
    0.1278   -1.9898    0.0544 H   0  0  0  0  0  0  0  0  0  0  0  0
    0.3530   -0.0260   -1.1596 H   0  0  0  0  0  0  0  0  0  0  0  0
   -2.1580    1.0973    0.0827 H   0  0  0  0  0  0  0  0  0  0  0  0
   -1.0176    2.0167   -0.8967 H   0  0  0  0  0  0  0  0  0  0  0  0
   -3.2952    1.1602   -2.3046 H   0  0  0  0  0  0  0  0  0  0  0  0
    1.7340    0.0014    1.2855 N   0  0  0  0  0  0  0  0  0  0  0  0
    2.7698    0.5255    2.1831 C   0  0  2  0  0  0  0  0  0  0  0  0
    4.0629   -0.3092    2.0656 C   0  0  0  0  0  0  0  0  0  0  0  0
    4.0543   -1.3631    1.4360 O   0  0  0  0  0  0  0  0  0  0  0  0
    2.2382    0.4967    3.6204 C   0  0  0  0  0  0  0  0  0  0  0  0
    1.8992   -0.9292    0.9075 H   0  0  0  0  0  0  0  0  0  0  0  0
    3.0129    1.5566    1.9052 H   0  0  0  0  0  0  0  0  0  0  0  0
    1.9827   -0.5265    3.9142 H   0  0  0  0  0  0  0  0  0  0  0  0
    2.9887    0.8824    4.3165 H   0  0  0  0  0  0  0  0  0  0  0  0
    1.3405    1.1171    3.7064 H   0  0  0  0  0  0  0  0  0  0  0  0
    5.2393    0.1246    2.6474 N   0  0  0  0  0  0  0  0  0  0  0  0
    6.4897   -0.6216    2.5742 C   0  0  0  0  0  0  0  0  0  0  0  0
    5.2197    1.0056    3.1533 H   0  0  0  0  0  0  0  0  0  0  0  0
    6.3775   -1.6050    3.0431 H   0  0  0  0  0  0  0  0  0  0  0  0
    6.7925   -0.7617    1.5311 H   0  0  0  0  0  0  0  0  0  0  0  0
    7.2849   -0.0795    3.0950 H   0  0  0  0  0  0  0  0  0  0  0  0
  1  2  2  0  0  0  0
  1  3  1  0  0  0  0
  1  7  1  0  0  0  0
  3  4  1  0  0  0  0
  3  5  1  0  0  0  0
  3  6  1  0  0  0  0
  7  8  1  0  0  0  0
  7 12  1  0  0  0  0
  8  9  1  0  0  0  0
  8 11  1  0  0  0  0
  8 13  1  0  0  0  0
  9 10  2  0  0  0  0
  9 17  1  0  0  0  0
 11 14  1  0  0  0  0
 11 15  1  0  0  0  0
 11 16  1  0  0  0  0
 17 18  1  0  0  0  0
 17 23  1  0  0  0  0
 18 19  1  0  0  0  0
 18 21  1  0  0  0  0
 18 24  1  0  0  0  0
 19 20  2  0  0  0  0
 19 28  1  0  0  0  0
 21 22  1  0  0  0  0
 21 25  1  0  0  0  0
 21 26  1  0  0  0  0
 22 27  1  0  0  0  0
 28 29  1  0  0  0  0
 28 33  1  0  0  0  0
 29 30  1  0  0  0  0
 29 32  1  0  0  0  0
 29 34  1  0  0  0  0
 30 31  2  0  0  0  0
 30 38  1  0  0  0  0
 32 35  1  0  0  0  0
 32 36  1  0  0  0  0
 32 37  1  0  0  0  0
 38 39  1  0  0  0  0
 38 40  1  0  0  0  0
 39 41  1  0  0  0  0
 39 42  1  0  0  0  0
 39 43  1  0  0  0  0
M  END
$$$$

  -OEChem-05262216003D

 43 42  0     1  0  0  0  0  0999 V2000
   -3.5011   -5.1389    1.0399 C   0  0  0  0  0  0  0  0  0  0  0  0
   -2.5801   -5.9083    1.2666 O   0  0  0  0  0  0  0  0  0  0  0  0
   -4.9078   -5.4789    1.4959 C   0  0  0  0  0  0  0  0  0  0  0  0
   -5.5765   -5.5359    0.6334 H   0  0  0  0  0  0  0  0  0  0  0  0
   -4.9142   -6.4431    2.0121 H   0  0  0  0  0  0  0  0  0  0  0  0
   -5.2735   -4.7107    2.1814 H   0  0  0  0  0  0  0  0  0  0  0  0
   -3.2602   -3.9531    0.3792 N   0  0  0  0  0  0  0  0  0  0  0  0
   -1.9206   -3.4456    0.0552 C   0  0  2  0  0  0  0  0  0  0  0  0
   -1.8631   -1.9031    0.0913 C   0  0  0  0  0  0  0  0  0  0  0  0
   -2.9038   -1.2732    0.2346 O   0  0  0  0  0  0  0  0  0  0  0  0
   -1.5312   -3.9612   -1.3337 C   0  0  0  0  0  0  0  0  0  0  0  0
   -4.0236   -3.2778    0.3372 H   0  0  0  0  0  0  0  0  0  0  0  0
   -1.2008   -3.8149    0.7935 H   0  0  0  0  0  0  0  0  0  0  0  0
   -2.2327   -3.5915   -2.0888 H   0  0  0  0  0  0  0  0  0  0  0  0
   -0.5240   -3.6287   -1.6015 H   0  0  0  0  0  0  0  0  0  0  0  0
   -1.5460   -5.0556   -1.3492 H   0  0  0  0  0  0  0  0  0  0  0  0
   -0.6236   -1.2796    0.1009 N   0  0  0  0  0  0  0  0  0  0  0  0
   -0.2739    0.1104   -0.2948 C   0  0  2  0  0  0  0  0  0  0  0  0
    0.6613    0.7541    0.7514 C   0  0  0  0  0  0  0  0  0  0  0  0
    0.3820    1.8053    1.3136 O   0  0  0  0  0  0  0  0  0  0  0  0
   -1.4156    1.0514   -0.7319 C   0  0  0  0  0  0  0  0  0  0  0  0
   -2.1984    0.4528   -2.2920 S   0  0  0  0  0  0  0  0  0  0  0  0
    0.1479   -1.9396    0.0959 H   0  0  0  0  0  0  0  0  0  0  0  0
    0.3422    0.0160   -1.1939 H   0  0  0  0  0  0  0  0  0  0  0  0
   -2.1611    1.1259    0.0666 H   0  0  0  0  0  0  0  0  0  0  0  0
   -1.0232    2.0593   -0.9032 H   0  0  0  0  0  0  0  0  0  0  0  0
   -3.3252    1.1976   -2.2954 H   0  0  0  0  0  0  0  0  0  0  0  0
    1.8872    0.1704    1.0139 N   0  0  0  0  0  0  0  0  0  0  0  0
    2.9227    0.7381    1.8858 C   0  0  2  0  0  0  0  0  0  0  0  0
    4.3177    0.1954    1.5070 C   0  0  0  0  0  0  0  0  0  0  0  0
    4.4173   -0.7053    0.6794 O   0  0  0  0  0  0  0  0  0  0  0  0
    2.5844    0.3909    3.3402 C   0  0  0  0  0  0  0  0  0  0  0  0
    2.1743   -0.6158    0.4328 H   0  0  0  0  0  0  0  0  0  0  0  0
    2.9476    1.8268    1.7679 H   0  0  0  0  0  0  0  0  0  0  0  0
    2.5532   -0.6949    3.4770 H   0  0  0  0  0  0  0  0  0  0  0  0
    3.3330    0.8074    4.0206 H   0  0  0  0  0  0  0  0  0  0  0  0
    1.6080    0.8037    3.6133 H   0  0  0  0  0  0  0  0  0  0  0  0
    5.4610    0.7204    2.0804 N   0  0  0  0  0  0  0  0  0  0  0  0
    6.8043    0.2491    1.7646 C   0  0  0  0  0  0  0  0  0  0  0  0
    5.3486    1.4697    2.7573 H   0  0  0  0  0  0  0  0  0  0  0  0
    6.8887   -0.8264    1.9542 H   0  0  0  0  0  0  0  0  0  0  0  0
    7.0399    0.4408    0.7125 H   0  0  0  0  0  0  0  0  0  0  0  0
    7.5427    0.7666    2.3846 H   0  0  0  0  0  0  0  0  0  0  0  0
  1  2  2  0  0  0  0
  1  3  1  0  0  0  0
  1  7  1  0  0  0  0
  3  4  1  0  0  0  0
  3  5  1  0  0  0  0
  3  6  1  0  0  0  0
  7  8  1  0  0  0  0
  7 12  1  0  0  0  0
  8  9  1  0  0  0  0
  8 11  1  0  0  0  0
  8 13  1  0  0  0  0
  9 10  2  0  0  0  0
  9 17  1  0  0  0  0
 11 14  1  0  0  0  0
 11 15  1  0  0  0  0
 11 16  1  0  0  0  0
 17 18  1  0  0  0  0
 17 23  1  0  0  0  0
 18 19  1  0  0  0  0
 18 21  1  0  0  0  0
 18 24  1  0  0  0  0
 19 20  2  0  0  0  0
 19 28  1  0  0  0  0
 21 22  1  0  0  0  0
 21 25  1  0  0  0  0
 21 26  1  0  0  0  0
 22 27  1  0  0  0  0
 28 29  1  0  0  0  0
 28 33  1  0  0  0  0
 29 30  1  0  0  0  0
 29 32  1  0  0  0  0
 29 34  1  0  0  0  0
 30 31  2  0  0  0  0
 30 38  1  0  0  0  0
 32 35  1  0  0  0  0
 32 36  1  0  0  0  0
 32 37  1  0  0  0  0
 38 39  1  0  0  0  0
 38 40  1  0  0  0  0
 39 41  1  0  0  0  0
 39 42  1  0  0  0  0
 39 43  1  0  0  0  0
M  END
$$$$

  -OEChem-05262216003D

 43 42  0     1  0  0  0  0  0999 V2000
   -3.4839   -5.1242    1.0722 C   0  0  0  0  0  0  0  0  0  0  0  0
   -2.5659   -5.8930    1.3123 O   0  0  0  0  0  0  0  0  0  0  0  0
   -4.8937   -5.4524    1.5256 C   0  0  0  0  0  0  0  0  0  0  0  0
   -5.5692   -5.4575    0.6668 H   0  0  0  0  0  0  0  0  0  0  0  0
   -4.9181   -6.4384    1.9982 H   0  0  0  0  0  0  0  0  0  0  0  0
   -5.2372   -4.7062    2.2465 H   0  0  0  0  0  0  0  0  0  0  0  0
   -3.2401   -3.9493    0.3946 N   0  0  0  0  0  0  0  0  0  0  0  0
   -1.9012   -3.4509    0.0580 C   0  0  2  0  0  0  0  0  0  0  0  0
   -1.8450   -1.9073    0.0657 C   0  0  0  0  0  0  0  0  0  0  0  0
   -2.8900   -1.2781    0.1780 O   0  0  0  0  0  0  0  0  0  0  0  0
   -1.5189   -3.9968   -1.3217 C   0  0  0  0  0  0  0  0  0  0  0  0
   -4.0023   -3.2736    0.3399 H   0  0  0  0  0  0  0  0  0  0  0  0
   -1.1802   -3.8073    0.8012 H   0  0  0  0  0  0  0  0  0  0  0  0
   -2.2224   -3.6406   -2.0814 H   0  0  0  0  0  0  0  0  0  0  0  0
   -0.5118   -3.6734   -1.6008 H   0  0  0  0  0  0  0  0  0  0  0  0
   -1.5382   -5.0915   -1.3149 H   0  0  0  0  0  0  0  0  0  0  0  0
   -0.6076   -1.2796    0.0860 N   0  0  0  0  0  0  0  0  0  0  0  0
   -0.2549    0.1098   -0.3077 C   0  0  2  0  0  0  0  0  0  0  0  0
    0.6682    0.7575    0.7445 C   0  0  0  0  0  0  0  0  0  0  0  0
    0.2754    1.6464    1.4889 O   0  0  0  0  0  0  0  0  0  0  0  0
   -1.3873    1.0574   -0.7490 C   0  0  0  0  0  0  0  0  0  0  0  0
   -2.1656    0.4658   -2.3142 S   0  0  0  0  0  0  0  0  0  0  0  0
    0.1687   -1.9338    0.1127 H   0  0  0  0  0  0  0  0  0  0  0  0
    0.3634    0.0144   -1.2047 H   0  0  0  0  0  0  0  0  0  0  0  0
   -2.1368    1.1328    0.0456 H   0  0  0  0  0  0  0  0  0  0  0  0
   -0.9873    2.0635   -0.9129 H   0  0  0  0  0  0  0  0  0  0  0  0
   -3.3258    1.1567   -2.2796 H   0  0  0  0  0  0  0  0  0  0  0  0
    1.9971    0.3811    0.8051 N   0  0  0  0  0  0  0  0  0  0  0  0
    3.0125    1.0143    1.6557 C   0  0  2  0  0  0  0  0  0  0  0  0
    4.4263    0.8043    1.0717 C   0  0  0  0  0  0  0  0  0  0  0  0
    4.5862    0.0459    0.1203 O   0  0  0  0  0  0  0  0  0  0  0  0
    2.9168    0.4183    3.0645 C   0  0  0  0  0  0  0  0  0  0  0  0
    2.3479   -0.2457    0.0813 H   0  0  0  0  0  0  0  0  0  0  0  0
    2.8313    2.0935    1.7046 H   0  0  0  0  0  0  0  0  0  0  0  0
    3.1070   -0.6591    3.0370 H   0  0  0  0  0  0  0  0  0  0  0  0
    3.6484    0.8847    3.7307 H   0  0  0  0  0  0  0  0  0  0  0  0
    1.9186    0.5851    3.4821 H   0  0  0  0  0  0  0  0  0  0  0  0
    5.5159    1.4743    1.5965 N   0  0  0  0  0  0  0  0  0  0  0  0
    6.8695    1.3343    1.0728 C   0  0  0  0  0  0  0  0  0  0  0  0
    5.3514    2.1079    2.3736 H   0  0  0  0  0  0  0  0  0  0  0  0
    7.1753    0.2827    1.0733 H   0  0  0  0  0  0  0  0  0  0  0  0
    6.9240    1.7163    0.0480 H   0  0  0  0  0  0  0  0  0  0  0  0
    7.5748    1.8980    1.6910 H   0  0  0  0  0  0  0  0  0  0  0  0
  1  2  2  0  0  0  0
  1  3  1  0  0  0  0
  1  7  1  0  0  0  0
  3  4  1  0  0  0  0
  3  5  1  0  0  0  0
  3  6  1  0  0  0  0
  7  8  1  0  0  0  0
  7 12  1  0  0  0  0
  8  9  1  0  0  0  0
  8 11  1  0  0  0  0
  8 13  1  0  0  0  0
  9 10  2  0  0  0  0
  9 17  1  0  0  0  0
 11 14  1  0  0  0  0
 11 15  1  0  0  0  0
 11 16  1  0  0  0  0
 17 18  1  0  0  0  0
 17 23  1  0  0  0  0
 18 19  1  0  0  0  0
 18 21  1  0  0  0  0
 18 24  1  0  0  0  0
 19 20  2  0  0  0  0
 19 28  1  0  0  0  0
 21 22  1  0  0  0  0
 21 25  1  0  0  0  0
 21 26  1  0  0  0  0
 22 27  1  0  0  0  0
 28 29  1  0  0  0  0
 28 33  1  0  0  0  0
 29 30  1  0  0  0  0
 29 32  1  0  0  0  0
 29 34  1  0  0  0  0
 30 31  2  0  0  0  0
 30 38  1  0  0  0  0
 32 35  1  0  0  0  0
 32 36  1  0  0  0  0
 32 37  1  0  0  0  0
 38 39  1  0  0  0  0
 38 40  1  0  0  0  0
 39 41  1  0  0  0  0
 39 42  1  0  0  0  0
 39 43  1  0  0  0  0
M  END
$$$$

  -OEChem-05262216003D

 43 42  0     1  0  0  0  0  0999 V2000
   -3.4664   -5.1172    1.0888 C   0  0  0  0  0  0  0  0  0  0  0  0
   -2.5455   -5.8761    1.3486 O   0  0  0  0  0  0  0  0  0  0  0  0
   -4.8781   -5.4513    1.5329 C   0  0  0  0  0  0  0  0  0  0  0  0
   -5.5430   -5.4871    0.6665 H   0  0  0  0  0  0  0  0  0  0  0  0
   -4.8963   -6.4244    2.0316 H   0  0  0  0  0  0  0  0  0  0  0  0
   -5.2396   -4.6911    2.2297 H   0  0  0  0  0  0  0  0  0  0  0  0
   -3.2217   -3.9480    0.4011 N   0  0  0  0  0  0  0  0  0  0  0  0
   -1.8809   -3.4442    0.0774 C   0  0  2  0  0  0  0  0  0  0  0  0
   -1.8419   -1.9009    0.0268 C   0  0  0  0  0  0  0  0  0  0  0  0
   -2.8963   -1.2813    0.0943 O   0  0  0  0  0  0  0  0  0  0  0  0
   -1.4527   -4.0364   -1.2695 C   0  0  0  0  0  0  0  0  0  0  0  0
   -3.9874   -3.2779    0.3285 H   0  0  0  0  0  0  0  0  0  0  0  0
   -1.1753   -3.7620    0.8524 H   0  0  0  0  0  0  0  0  0  0  0  0
   -2.1434   -3.7257   -2.0602 H   0  0  0  0  0  0  0  0  0  0  0  0
   -0.4453   -3.7032   -1.5365 H   0  0  0  0  0  0  0  0  0  0  0  0
   -1.4504   -5.1302   -1.2190 H   0  0  0  0  0  0  0  0  0  0  0  0
   -0.6090   -1.2638    0.0469 N   0  0  0  0  0  0  0  0  0  0  0  0
   -0.2562    0.1291   -0.3314 C   0  0  2  0  0  0  0  0  0  0  0  0
    0.6703    0.7695    0.7218 C   0  0  0  0  0  0  0  0  0  0  0  0
    0.2211    1.4407    1.6410 O   0  0  0  0  0  0  0  0  0  0  0  0
   -1.3864    1.0890   -0.7513 C   0  0  0  0  0  0  0  0  0  0  0  0
   -2.1834    0.5298   -2.3190 S   0  0  0  0  0  0  0  0  0  0  0  0
    0.1728   -1.9085    0.1124 H   0  0  0  0  0  0  0  0  0  0  0  0
    0.3525    0.0406   -1.2360 H   0  0  0  0  0  0  0  0  0  0  0  0
   -2.1317    1.1487    0.0493 H   0  0  0  0  0  0  0  0  0  0  0  0
   -0.9857    2.0974   -0.8974 H   0  0  0  0  0  0  0  0  0  0  0  0
   -3.3565    1.1953   -2.2427 H   0  0  0  0  0  0  0  0  0  0  0  0
    2.0424    0.6498    0.5967 N   0  0  0  0  0  0  0  0  0  0  0  0
    3.0258    1.3378    1.4441 C   0  0  2  0  0  0  0  0  0  0  0  0
    4.3780    1.4832    0.7130 C   0  0  0  0  0  0  0  0  0  0  0  0
    4.5575    0.9105   -0.3572 O   0  0  0  0  0  0  0  0  0  0  0  0
    3.1999    0.5492    2.7475 C   0  0  0  0  0  0  0  0  0  0  0  0
    2.4084    0.2126   -0.2493 H   0  0  0  0  0  0  0  0  0  0  0  0
    2.6672    2.3463    1.6771 H   0  0  0  0  0  0  0  0  0  0  0  0
    3.5659   -0.4608    2.5381 H   0  0  0  0  0  0  0  0  0  0  0  0
    3.9145    1.0494    3.4078 H   0  0  0  0  0  0  0  0  0  0  0  0
    2.2447    0.4709    3.2762 H   0  0  0  0  0  0  0  0  0  0  0  0
    5.3871    2.2684    1.2396 N   0  0  0  0  0  0  0  0  0  0  0  0
    6.6730    2.4670    0.5809 C   0  0  0  0  0  0  0  0  0  0  0  0
    5.2033    2.7493    2.1156 H   0  0  0  0  0  0  0  0  0  0  0  0
    7.1632    1.5053    0.3961 H   0  0  0  0  0  0  0  0  0  0  0  0
    6.5373    2.9827   -0.3756 H   0  0  0  0  0  0  0  0  0  0  0  0
    7.3316    3.0727    1.2109 H   0  0  0  0  0  0  0  0  0  0  0  0
  1  2  2  0  0  0  0
  1  3  1  0  0  0  0
  1  7  1  0  0  0  0
  3  4  1  0  0  0  0
  3  5  1  0  0  0  0
  3  6  1  0  0  0  0
  7  8  1  0  0  0  0
  7 12  1  0  0  0  0
  8  9  1  0  0  0  0
  8 11  1  0  0  0  0
  8 13  1  0  0  0  0
  9 10  2  0  0  0  0
  9 17  1  0  0  0  0
 11 14  1  0  0  0  0
 11 15  1  0  0  0  0
 11 16  1  0  0  0  0
 17 18  1  0  0  0  0
 17 23  1  0  0  0  0
 18 19  1  0  0  0  0
 18 21  1  0  0  0  0
 18 24  1  0  0  0  0
 19 20  2  0  0  0  0
 19 28  1  0  0  0  0
 21 22  1  0  0  0  0
 21 25  1  0  0  0  0
 21 26  1  0  0  0  0
 22 27  1  0  0  0  0
 28 29  1  0  0  0  0
 28 33  1  0  0  0  0
 29 30  1  0  0  0  0
 29 32  1  0  0  0  0
 29 34  1  0  0  0  0
 30 31  2  0  0  0  0
 30 38  1  0  0  0  0
 32 35  1  0  0  0  0
 32 36  1  0  0  0  0
 32 37  1  0  0  0  0
 38 39  1  0  0  0  0
 38 40  1  0  0  0  0
 39 41  1  0  0  0  0
 39 42  1  0  0  0  0
 39 43  1  0  0  0  0
M  END
$$$$

  -OEChem-05262216003D

 43 42  0     1  0  0  0  0  0999 V2000
   -3.4506   -5.1063    1.1207 C   0  0  0  0  0  0  0  0  0  0  0  0
   -2.5274   -5.8494    1.4160 O   0  0  0  0  0  0  0  0  0  0  0  0
   -4.8705   -5.4557    1.5254 C   0  0  0  0  0  0  0  0  0  0  0  0
   -5.5028   -5.5322    0.6375 H   0  0  0  0  0  0  0  0  0  0  0  0
   -4.8877   -6.4127    2.0544 H   0  0  0  0  0  0  0  0  0  0  0  0
   -5.2721   -4.6822    2.1844 H   0  0  0  0  0  0  0  0  0  0  0  0
   -3.2031   -3.9444    0.4217 N   0  0  0  0  0  0  0  0  0  0  0  0
   -1.8615   -3.4330    0.1142 C   0  0  2  0  0  0  0  0  0  0  0  0
   -1.8341   -1.8905    0.0368 C   0  0  0  0  0  0  0  0  0  0  0  0
   -2.8939   -1.2773    0.0775 O   0  0  0  0  0  0  0  0  0  0  0  0
   -1.4047   -4.0417   -1.2154 C   0  0  0  0  0  0  0  0  0  0  0  0
   -3.9749   -3.2857    0.3171 H   0  0  0  0  0  0  0  0  0  0  0  0
   -1.1673   -3.7316    0.9071 H   0  0  0  0  0  0  0  0  0  0  0  0
   -2.0794   -3.7418   -2.0238 H   0  0  0  0  0  0  0  0  0  0  0  0
   -0.3924   -3.7102   -1.4647 H   0  0  0  0  0  0  0  0  0  0  0  0
   -1.4018   -5.1343   -1.1506 H   0  0  0  0  0  0  0  0  0  0  0  0
   -0.6053   -1.2459    0.0472 N   0  0  0  0  0  0  0  0  0  0  0  0
   -0.2585    0.1432   -0.3482 C   0  0  2  0  0  0  0  0  0  0  0  0
    0.6657    0.8081    0.6901 C   0  0  0  0  0  0  0  0  0  0  0  0
    0.2255    1.2184    1.7551 O   0  0  0  0  0  0  0  0  0  0  0  0
   -1.3875    1.0980   -0.7756 C   0  0  0  0  0  0  0  0  0  0  0  0
   -2.1871    0.5215   -2.3353 S   0  0  0  0  0  0  0  0  0  0  0  0
    0.1811   -1.8806    0.1460 H   0  0  0  0  0  0  0  0  0  0  0  0
    0.3476    0.0384   -1.2528 H   0  0  0  0  0  0  0  0  0  0  0  0
   -2.1303    1.1638    0.0267 H   0  0  0  0  0  0  0  0  0  0  0  0
   -0.9871    2.1048   -0.9325 H   0  0  0  0  0  0  0  0  0  0  0  0
   -3.3652    1.1780   -2.2598 H   0  0  0  0  0  0  0  0  0  0  0  0
    2.0112    0.9730    0.4178 N   0  0  0  0  0  0  0  0  0  0  0  0
    2.9583    1.6908    1.2811 C   0  0  2  0  0  0  0  0  0  0  0  0
    4.1617    2.2166    0.4699 C   0  0  0  0  0  0  0  0  0  0  0  0
    4.3031    1.8791   -0.7010 O   0  0  0  0  0  0  0  0  0  0  0  0
    3.4298    0.7447    2.3915 C   0  0  0  0  0  0  0  0  0  0  0  0
    2.3395    0.7499   -0.5222 H   0  0  0  0  0  0  0  0  0  0  0  0
    2.4607    2.5570    1.7303 H   0  0  0  0  0  0  0  0  0  0  0  0
    3.9418   -0.1232    1.9638 H   0  0  0  0  0  0  0  0  0  0  0  0
    4.1193    1.2585    3.0676 H   0  0  0  0  0  0  0  0  0  0  0  0
    2.5767    0.3908    2.9789 H   0  0  0  0  0  0  0  0  0  0  0  0
    5.0794    3.0770    1.0437 N   0  0  0  0  0  0  0  0  0  0  0  0
    6.2277    3.6165    0.3253 C   0  0  0  0  0  0  0  0  0  0  0  0
    4.9254    3.3577    2.0079 H   0  0  0  0  0  0  0  0  0  0  0  0
    6.8437    2.8059   -0.0784 H   0  0  0  0  0  0  0  0  0  0  0  0
    5.8967    4.2528   -0.5021 H   0  0  0  0  0  0  0  0  0  0  0  0
    6.8479    4.2171    0.9976 H   0  0  0  0  0  0  0  0  0  0  0  0
  1  2  2  0  0  0  0
  1  3  1  0  0  0  0
  1  7  1  0  0  0  0
  3  4  1  0  0  0  0
  3  5  1  0  0  0  0
  3  6  1  0  0  0  0
  7  8  1  0  0  0  0
  7 12  1  0  0  0  0
  8  9  1  0  0  0  0
  8 11  1  0  0  0  0
  8 13  1  0  0  0  0
  9 10  2  0  0  0  0
  9 17  1  0  0  0  0
 11 14  1  0  0  0  0
 11 15  1  0  0  0  0
 11 16  1  0  0  0  0
 17 18  1  0  0  0  0
 17 23  1  0  0  0  0
 18 19  1  0  0  0  0
 18 21  1  0  0  0  0
 18 24  1  0  0  0  0
 19 20  2  0  0  0  0
 19 28  1  0  0  0  0
 21 22  1  0  0  0  0
 21 25  1  0  0  0  0
 21 26  1  0  0  0  0
 22 27  1  0  0  0  0
 28 29  1  0  0  0  0
 28 33  1  0  0  0  0
 29 30  1  0  0  0  0
 29 32  1  0  0  0  0
 29 34  1  0  0  0  0
 30 31  2  0  0  0  0
 30 38  1  0  0  0  0
 32 35  1  0  0  0  0
 32 36  1  0  0  0  0
 32 37  1  0  0  0  0
 38 39  1  0  0  0  0
 38 40  1  0  0  0  0
 39 41  1  0  0  0  0
 39 42  1  0  0  0  0
 39 43  1  0  0  0  0
M  END
$$$$

  -OEChem-05262216003D

 43 42  0     1  0  0  0  0  0999 V2000
   -3.4473   -5.0813    1.1439 C   0  0  0  0  0  0  0  0  0  0  0  0
   -2.5295   -5.8190    1.4681 O   0  0  0  0  0  0  0  0  0  0  0  0
   -4.8741   -5.4255    1.5266 C   0  0  0  0  0  0  0  0  0  0  0  0
   -5.4970   -5.4811    0.6305 H   0  0  0  0  0  0  0  0  0  0  0  0
   -4.9046   -6.3919    2.0377 H   0  0  0  0  0  0  0  0  0  0  0  0
   -5.2760   -4.6598    2.1948 H   0  0  0  0  0  0  0  0  0  0  0  0
   -3.1880   -3.9302    0.4316 N   0  0  0  0  0  0  0  0  0  0  0  0
   -1.8424   -3.4227    0.1370 C   0  0  2  0  0  0  0  0  0  0  0  0
   -1.8228   -1.8841    0.0052 C   0  0  0  0  0  0  0  0  0  0  0  0
   -2.8880   -1.2790   -0.0100 O   0  0  0  0  0  0  0  0  0  0  0  0
   -1.3538   -4.0733   -1.1616 C   0  0  0  0  0  0  0  0  0  0  0  0
   -3.9594   -3.2767    0.2961 H   0  0  0  0  0  0  0  0  0  0  0  0
   -1.1649   -3.6899    0.9551 H   0  0  0  0  0  0  0  0  0  0  0  0
   -2.0164   -3.8085   -1.9921 H   0  0  0  0  0  0  0  0  0  0  0  0
   -0.3404   -3.7398   -1.4039 H   0  0  0  0  0  0  0  0  0  0  0  0
   -1.3411   -5.1632   -1.0600 H   0  0  0  0  0  0  0  0  0  0  0  0
   -0.5993   -1.2308    0.0245 N   0  0  0  0  0  0  0  0  0  0  0  0
   -0.2522    0.1573   -0.3724 C   0  0  2  0  0  0  0  0  0  0  0  0
    0.6586    0.8336    0.6708 C   0  0  0  0  0  0  0  0  0  0  0  0
    0.3041    0.9475    1.8361 O   0  0  0  0  0  0  0  0  0  0  0  0
   -1.3764    1.1100   -0.8158 C   0  0  0  0  0  0  0  0  0  0  0  0
   -2.1631    0.5346   -2.3821 S   0  0  0  0  0  0  0  0  0  0  0  0
    0.1886   -1.8467    0.2004 H   0  0  0  0  0  0  0  0  0  0  0  0
    0.3656    0.0455   -1.2682 H   0  0  0  0  0  0  0  0  0  0  0  0
   -2.1279    1.1747   -0.0218 H   0  0  0  0  0  0  0  0  0  0  0  0
   -0.9761    2.1170   -0.9717 H   0  0  0  0  0  0  0  0  0  0  0  0
   -3.3880    1.0899   -2.2542 H   0  0  0  0  0  0  0  0  0  0  0  0
    1.9147    1.2849    0.3108 N   0  0  0  0  0  0  0  0  0  0  0  0
    2.8230    2.0237    1.1981 C   0  0  2  0  0  0  0  0  0  0  0  0
    3.7874    2.9145    0.3855 C   0  0  0  0  0  0  0  0  0  0  0  0
    3.8191    2.8228   -0.8374 O   0  0  0  0  0  0  0  0  0  0  0  0
    3.6052    1.0196    2.0533 C   0  0  0  0  0  0  0  0  0  0  0  0
    2.1487    1.2973   -0.6826 H   0  0  0  0  0  0  0  0  0  0  0  0
    2.2413    2.6813    1.8531 H   0  0  0  0  0  0  0  0  0  0  0  0
    4.2013    0.3580    1.4171 H   0  0  0  0  0  0  0  0  0  0  0  0
    4.2770    1.5404    2.7418 H   0  0  0  0  0  0  0  0  0  0  0  0
    2.9188    0.4070    2.6462 H   0  0  0  0  0  0  0  0  0  0  0  0
    4.6082    3.8297    1.0182 N   0  0  0  0  0  0  0  0  0  0  0  0
    5.5215    4.7142    0.3039 C   0  0  0  0  0  0  0  0  0  0  0  0
    4.5435    3.9021    2.0296 H   0  0  0  0  0  0  0  0  0  0  0  0
    6.1913    4.1357   -0.3415 H   0  0  0  0  0  0  0  0  0  0  0  0
    4.9616    5.4236   -0.3147 H   0  0  0  0  0  0  0  0  0  0  0  0
    6.1332    5.2797    1.0135 H   0  0  0  0  0  0  0  0  0  0  0  0
  1  2  2  0  0  0  0
  1  3  1  0  0  0  0
  1  7  1  0  0  0  0
  3  4  1  0  0  0  0
  3  5  1  0  0  0  0
  3  6  1  0  0  0  0
  7  8  1  0  0  0  0
  7 12  1  0  0  0  0
  8  9  1  0  0  0  0
  8 11  1  0  0  0  0
  8 13  1  0  0  0  0
  9 10  2  0  0  0  0
  9 17  1  0  0  0  0
 11 14  1  0  0  0  0
 11 15  1  0  0  0  0
 11 16  1  0  0  0  0
 17 18  1  0  0  0  0
 17 23  1  0  0  0  0
 18 19  1  0  0  0  0
 18 21  1  0  0  0  0
 18 24  1  0  0  0  0
 19 20  2  0  0  0  0
 19 28  1  0  0  0  0
 21 22  1  0  0  0  0
 21 25  1  0  0  0  0
 21 26  1  0  0  0  0
 22 27  1  0  0  0  0
 28 29  1  0  0  0  0
 28 33  1  0  0  0  0
 29 30  1  0  0  0  0
 29 32  1  0  0  0  0
 29 34  1  0  0  0  0
 30 31  2  0  0  0  0
 30 38  1  0  0  0  0
 32 35  1  0  0  0  0
 32 36  1  0  0  0  0
 32 37  1  0  0  0  0
 38 39  1  0  0  0  0
 38 40  1  0  0  0  0
 39 41  1  0  0  0  0
 39 42  1  0  0  0  0
 39 43  1  0  0  0  0
M  END
$$$$

  -OEChem-05262216003D

 43 42  0     1  0  0  0  0  0999 V2000
   -3.4919   -4.8832    1.2696 C   0  0  0  0  0  0  0  0  0  0  0  0
   -2.5920   -5.5511    1.7541 O   0  0  0  0  0  0  0  0  0  0  0  0
   -4.9385   -5.2016    1.5971 C   0  0  0  0  0  0  0  0  0  0  0  0
   -5.4907   -5.4157    0.6787 H   0  0  0  0  0  0  0  0  0  0  0  0
   -4.9930   -6.0755    2.2525 H   0  0  0  0  0  0  0  0  0  0  0  0
   -5.4023   -4.3515    2.1036 H   0  0  0  0  0  0  0  0  0  0  0  0
   -3.1937   -3.8344    0.4262 N   0  0  0  0  0  0  0  0  0  0  0  0
   -1.8341   -3.3570    0.1427 C   0  0  2  0  0  0  0  0  0  0  0  0
   -1.8152   -1.8598   -0.2367 C   0  0  0  0  0  0  0  0  0  0  0  0
   -2.8745   -1.3076   -0.5029 O   0  0  0  0  0  0  0  0  0  0  0  0
   -1.2513   -4.1999   -0.9970 C   0  0  0  0  0  0  0  0  0  0  0  0
   -3.9622   -3.2319    0.1332 H   0  0  0  0  0  0  0  0  0  0  0  0
   -1.2130   -3.4774    1.0371 H   0  0  0  0  0  0  0  0  0  0  0  0
   -1.8559   -4.0878   -1.9029 H   0  0  0  0  0  0  0  0  0  0  0  0
   -0.2262   -3.8899   -1.2212 H   0  0  0  0  0  0  0  0  0  0  0  0
   -1.2358   -5.2583   -0.7180 H   0  0  0  0  0  0  0  0  0  0  0  0
   -0.6054   -1.1840   -0.2155 N   0  0  0  0  0  0  0  0  0  0  0  0
   -0.2590    0.2265   -0.5315 C   0  0  2  0  0  0  0  0  0  0  0  0
    0.6819    0.8103    0.5407 C   0  0  0  0  0  0  0  0  0  0  0  0
    0.5397    0.5169    1.7208 O   0  0  0  0  0  0  0  0  0  0  0  0
   -1.3610    1.2561   -0.8543 C   0  0  0  0  0  0  0  0  0  0  0  0
   -2.2631    0.8728   -2.4129 S   0  0  0  0  0  0  0  0  0  0  0  0
    0.1487   -1.7238    0.2024 H   0  0  0  0  0  0  0  0  0  0  0  0
    0.3355    0.1688   -1.4484 H   0  0  0  0  0  0  0  0  0  0  0  0
   -2.0734    1.2976   -0.0234 H   0  0  0  0  0  0  0  0  0  0  0  0
   -0.9137    2.2505   -0.9551 H   0  0  0  0  0  0  0  0  0  0  0  0
   -2.9250   -0.2348   -1.9953 H   0  0  0  0  0  0  0  0  0  0  0  0
    1.7890    1.5477    0.1674 N   0  0  0  0  0  0  0  0  0  0  0  0
    2.6926    2.2210    1.1095 C   0  0  2  0  0  0  0  0  0  0  0  0
    3.2555    3.5237    0.5023 C   0  0  0  0  0  0  0  0  0  0  0  0
    3.1194    3.7461   -0.6960 O   0  0  0  0  0  0  0  0  0  0  0  0
    3.8271    1.2568    1.4709 C   0  0  0  0  0  0  0  0  0  0  0  0
    1.8384    1.8644   -0.8021 H   0  0  0  0  0  0  0  0  0  0  0  0
    2.1460    2.4929    2.0190 H   0  0  0  0  0  0  0  0  0  0  0  0
    4.3931    0.9787    0.5759 H   0  0  0  0  0  0  0  0  0  0  0  0
    4.5127    1.7199    2.1870 H   0  0  0  0  0  0  0  0  0  0  0  0
    3.4216    0.3463    1.9237 H   0  0  0  0  0  0  0  0  0  0  0  0
    3.8964    4.4556    1.2975 N   0  0  0  0  0  0  0  0  0  0  0  0
    4.4364    5.7093    0.7840 C   0  0  0  0  0  0  0  0  0  0  0  0
    3.9766    4.2548    2.2901 H   0  0  0  0  0  0  0  0  0  0  0  0
    5.2200    5.5147    0.0441 H   0  0  0  0  0  0  0  0  0  0  0  0
    3.6468    6.3038    0.3122 H   0  0  0  0  0  0  0  0  0  0  0  0
    4.8691    6.2970    1.5994 H   0  0  0  0  0  0  0  0  0  0  0  0
  1  2  2  0  0  0  0
  1  3  1  0  0  0  0
  1  7  1  0  0  0  0
  3  4  1  0  0  0  0
  3  5  1  0  0  0  0
  3  6  1  0  0  0  0
  7  8  1  0  0  0  0
  7 12  1  0  0  0  0
  8  9  1  0  0  0  0
  8 11  1  0  0  0  0
  8 13  1  0  0  0  0
  9 10  2  0  0  0  0
  9 17  1  0  0  0  0
 11 14  1  0  0  0  0
 11 15  1  0  0  0  0
 11 16  1  0  0  0  0
 17 18  1  0  0  0  0
 17 23  1  0  0  0  0
 18 19  1  0  0  0  0
 18 21  1  0  0  0  0
 18 24  1  0  0  0  0
 19 20  2  0  0  0  0
 19 28  1  0  0  0  0
 21 22  1  0  0  0  0
 21 25  1  0  0  0  0
 21 26  1  0  0  0  0
 22 27  1  0  0  0  0
 28 29  1  0  0  0  0
 28 33  1  0  0  0  0
 29 30  1  0  0  0  0
 29 32  1  0  0  0  0
 29 34  1  0  0  0  0
 30 31  2  0  0  0  0
 30 38  1  0  0  0  0
 32 35  1  0  0  0  0
 32 36  1  0  0  0  0
 32 37  1  0  0  0  0
 38 39  1  0  0  0  0
 38 40  1  0  0  0  0
 39 41  1  0  0  0  0
 39 42  1  0  0  0  0
 39 43  1  0  0  0  0
M  END
$$$$

  -OEChem-05262216003D

 43 42  0     1  0  0  0  0  0999 V2000
   -3.4867   -4.8593    1.2856 C   0  0  0  0  0  0  0  0  0  0  0  0
   -2.5946   -5.4948    1.8248 O   0  0  0  0  0  0  0  0  0  0  0  0
   -4.9390   -5.1921    1.5719 C   0  0  0  0  0  0  0  0  0  0  0  0
   -5.4538   -5.4503    0.6431 H   0  0  0  0  0  0  0  0  0  0  0  0
   -5.0023   -6.0419    2.2574 H   0  0  0  0  0  0  0  0  0  0  0  0
   -5.4358   -4.3330    2.0291 H   0  0  0  0  0  0  0  0  0  0  0  0
   -3.1747   -3.8330    0.4196 N   0  0  0  0  0  0  0  0  0  0  0  0
   -1.8139   -3.3376    0.1732 C   0  0  2  0  0  0  0  0  0  0  0  0
   -1.8092   -1.8531   -0.2538 C   0  0  0  0  0  0  0  0  0  0  0  0
   -2.8725   -1.3227   -0.5467 O   0  0  0  0  0  0  0  0  0  0  0  0
   -1.1706   -4.2053   -0.9144 C   0  0  0  0  0  0  0  0  0  0  0  0
   -3.9417   -3.2518    0.0828 H   0  0  0  0  0  0  0  0  0  0  0  0
   -1.2260   -3.4162    1.0944 H   0  0  0  0  0  0  0  0  0  0  0  0
   -1.7417   -4.1359   -1.8460 H   0  0  0  0  0  0  0  0  0  0  0  0
   -0.1438   -3.8818   -1.1099 H   0  0  0  0  0  0  0  0  0  0  0  0
   -1.1451   -5.2534   -0.5992 H   0  0  0  0  0  0  0  0  0  0  0  0
   -0.6096   -1.1600   -0.2364 N   0  0  0  0  0  0  0  0  0  0  0  0
   -0.2783    0.2519   -0.5606 C   0  0  2  0  0  0  0  0  0  0  0  0
    0.6550    0.8513    0.5113 C   0  0  0  0  0  0  0  0  0  0  0  0
    0.7179    0.3548    1.6298 O   0  0  0  0  0  0  0  0  0  0  0  0
   -1.3949    1.2611   -0.9033 C   0  0  0  0  0  0  0  0  0  0  0  0
   -2.2743    0.8488   -2.4674 S   0  0  0  0  0  0  0  0  0  0  0  0
    0.1388   -1.6664    0.2325 H   0  0  0  0  0  0  0  0  0  0  0  0
    0.3258    0.1961   -1.4713 H   0  0  0  0  0  0  0  0  0  0  0  0
   -2.1171    1.2946   -0.0806 H   0  0  0  0  0  0  0  0  0  0  0  0
   -0.9686    2.2642   -1.0085 H   0  0  0  0  0  0  0  0  0  0  0  0
   -2.9087   -0.2753   -2.0522 H   0  0  0  0  0  0  0  0  0  0  0  0
    1.5607    1.8384    0.1729 N   0  0  0  0  0  0  0  0  0  0  0  0
    2.4361    2.5260    1.1314 C   0  0  2  0  0  0  0  0  0  0  0  0
    2.6716    3.9936    0.7153 C   0  0  0  0  0  0  0  0  0  0  0  0
    2.3443    4.3697   -0.4051 O   0  0  0  0  0  0  0  0  0  0  0  0
    3.7639    1.7659    1.2103 C   0  0  0  0  0  0  0  0  0  0  0  0
    1.4455    2.2922   -0.7345 H   0  0  0  0  0  0  0  0  0  0  0  0
    1.9665    2.5377    2.1211 H   0  0  0  0  0  0  0  0  0  0  0  0
    4.2552    1.7508    0.2320 H   0  0  0  0  0  0  0  0  0  0  0  0
    4.4366    2.2402    1.9311 H   0  0  0  0  0  0  0  0  0  0  0  0
    3.5914    0.7331    1.5298 H   0  0  0  0  0  0  0  0  0  0  0  0
    3.2329    4.8974    1.5985 N   0  0  0  0  0  0  0  0  0  0  0  0
    3.4676    6.2984    1.2689 C   0  0  0  0  0  0  0  0  0  0  0  0
    3.4784    4.5624    2.5256 H   0  0  0  0  0  0  0  0  0  0  0  0
    4.1622    6.3827    0.4264 H   0  0  0  0  0  0  0  0  0  0  0  0
    2.5277    6.7934    1.0024 H   0  0  0  0  0  0  0  0  0  0  0  0
    3.9009    6.8216    2.1267 H   0  0  0  0  0  0  0  0  0  0  0  0
  1  2  2  0  0  0  0
  1  3  1  0  0  0  0
  1  7  1  0  0  0  0
  3  4  1  0  0  0  0
  3  5  1  0  0  0  0
  3  6  1  0  0  0  0
  7  8  1  0  0  0  0
  7 12  1  0  0  0  0
  8  9  1  0  0  0  0
  8 11  1  0  0  0  0
  8 13  1  0  0  0  0
  9 10  2  0  0  0  0
  9 17  1  0  0  0  0
 11 14  1  0  0  0  0
 11 15  1  0  0  0  0
 11 16  1  0  0  0  0
 17 18  1  0  0  0  0
 17 23  1  0  0  0  0
 18 19  1  0  0  0  0
 18 21  1  0  0  0  0
 18 24  1  0  0  0  0
 19 20  2  0  0  0  0
 19 28  1  0  0  0  0
 21 22  1  0  0  0  0
 21 25  1  0  0  0  0
 21 26  1  0  0  0  0
 22 27  1  0  0  0  0
 28 29  1  0  0  0  0
 28 33  1  0  0  0  0
 29 30  1  0  0  0  0
 29 32  1  0  0  0  0
 29 34  1  0  0  0  0
 30 31  2  0  0  0  0
 30 38  1  0  0  0  0
 32 35  1  0  0  0  0
 32 36  1  0  0  0  0
 32 37  1  0  0  0  0
 38 39  1  0  0  0  0
 38 40  1  0  0  0  0
 39 41  1  0  0  0  0
 39 42  1  0  0  0  0
 39 43  1  0  0  0  0
M  END
$$$$

  -OEChem-05262216003D

 43 42  0     1  0  0  0  0  0999 V2000
   -3.4293   -5.0362    1.1688 C   0  0  0  0  0  0  0  0  0  0  0  0
   -2.5193   -5.7273    1.5990 O   0  0  0  0  0  0  0  0  0  0  0  0
   -4.8697   -5.3871    1.4897 C   0  0  0  0  0  0  0  0  0  0  0  0
   -5.4411   -5.5013    0.5654 H   0  0  0  0  0  0  0  0  0  0  0  0
   -4.9133   -6.3257    2.0491 H   0  0  0  0  0  0  0  0  0  0  0  0
   -5.3204   -4.5956    2.0931 H   0  0  0  0  0  0  0  0  0  0  0  0
   -3.1501   -3.9274    0.3994 N   0  0  0  0  0  0  0  0  0  0  0  0
   -1.8007   -3.3964    0.1683 C   0  0  2  0  0  0  0  0  0  0  0  0
   -1.8169   -1.8700   -0.0709 C   0  0  0  0  0  0  0  0  0  0  0  0
   -2.8968   -1.3015   -0.1852 O   0  0  0  0  0  0  0  0  0  0  0  0
   -1.1938   -4.1195   -1.0392 C   0  0  0  0  0  0  0  0  0  0  0  0
   -3.9264   -3.3067    0.1711 H   0  0  0  0  0  0  0  0  0  0  0  0
   -1.1799   -3.5820    1.0515 H   0  0  0  0  0  0  0  0  0  0  0  0
   -1.7957   -3.9368   -1.9352 H   0  0  0  0  0  0  0  0  0  0  0  0
   -0.1742   -3.7694   -1.2264 H   0  0  0  0  0  0  0  0  0  0  0  0
   -1.1578   -5.1985   -0.8577 H   0  0  0  0  0  0  0  0  0  0  0  0
   -0.6172   -1.1763   -0.0233 N   0  0  0  0  0  0  0  0  0  0  0  0
   -0.2854    0.2224   -0.3955 C   0  0  2  0  0  0  0  0  0  0  0  0
    0.5905    0.9070    0.6762 C   0  0  0  0  0  0  0  0  0  0  0  0
    0.8189    0.3547    1.7461 O   0  0  0  0  0  0  0  0  0  0  0  0
   -1.4206    1.1445   -0.8831 C   0  0  0  0  0  0  0  0  0  0  0  0
   -2.1182    0.5524   -2.4848 S   0  0  0  0  0  0  0  0  0  0  0  0
    0.1640   -1.7233    0.3300 H   0  0  0  0  0  0  0  0  0  0  0  0
    0.3728    0.1302   -1.2644 H   0  0  0  0  0  0  0  0  0  0  0  0
   -2.2086    1.1791   -0.1235 H   0  0  0  0  0  0  0  0  0  0  0  0
   -1.0557    2.1669   -1.0219 H   0  0  0  0  0  0  0  0  0  0  0  0
   -3.4091    0.9241   -2.3375 H   0  0  0  0  0  0  0  0  0  0  0  0
    1.2571    2.0830    0.3868 N   0  0  0  0  0  0  0  0  0  0  0  0
    2.0676    2.8454    1.3457 C   0  0  2  0  0  0  0  0  0  0  0  0
    2.0763    4.3484    0.9914 C   0  0  0  0  0  0  0  0  0  0  0  0
    1.5747    4.7309   -0.0607 O   0  0  0  0  0  0  0  0  0  0  0  0
    3.4930    2.2807    1.3454 C   0  0  0  0  0  0  0  0  0  0  0  0
    1.0076    2.5688   -0.4755 H   0  0  0  0  0  0  0  0  0  0  0  0
    1.6396    2.7478    2.3492 H   0  0  0  0  0  0  0  0  0  0  0  0
    3.9426    2.3767    0.3518 H   0  0  0  0  0  0  0  0  0  0  0  0
    4.1200    2.8152    2.0652 H   0  0  0  0  0  0  0  0  0  0  0  0
    3.4832    1.2217    1.6219 H   0  0  0  0  0  0  0  0  0  0  0  0
    2.6285    5.2755    1.8557 N   0  0  0  0  0  0  0  0  0  0  0  0
    2.6524    6.7081    1.5846 C   0  0  0  0  0  0  0  0  0  0  0  0
    3.0184    4.9330    2.7290 H   0  0  0  0  0  0  0  0  0  0  0  0
    3.1486    6.9102    0.6293 H   0  0  0  0  0  0  0  0  0  0  0  0
    1.6334    7.1071    1.5437 H   0  0  0  0  0  0  0  0  0  0  0  0
    3.1991    7.2336    2.3736 H   0  0  0  0  0  0  0  0  0  0  0  0
  1  2  2  0  0  0  0
  1  3  1  0  0  0  0
  1  7  1  0  0  0  0
  3  4  1  0  0  0  0
  3  5  1  0  0  0  0
  3  6  1  0  0  0  0
  7  8  1  0  0  0  0
  7 12  1  0  0  0  0
  8  9  1  0  0  0  0
  8 11  1  0  0  0  0
  8 13  1  0  0  0  0
  9 10  2  0  0  0  0
  9 17  1  0  0  0  0
 11 14  1  0  0  0  0
 11 15  1  0  0  0  0
 11 16  1  0  0  0  0
 17 18  1  0  0  0  0
 17 23  1  0  0  0  0
 18 19  1  0  0  0  0
 18 21  1  0  0  0  0
 18 24  1  0  0  0  0
 19 20  2  0  0  0  0
 19 28  1  0  0  0  0
 21 22  1  0  0  0  0
 21 25  1  0  0  0  0
 21 26  1  0  0  0  0
 22 27  1  0  0  0  0
 28 29  1  0  0  0  0
 28 33  1  0  0  0  0
 29 30  1  0  0  0  0
 29 32  1  0  0  0  0
 29 34  1  0  0  0  0
 30 31  2  0  0  0  0
 30 38  1  0  0  0  0
 32 35  1  0  0  0  0
 32 36  1  0  0  0  0
 32 37  1  0  0  0  0
 38 39  1  0  0  0  0
 38 40  1  0  0  0  0
 39 41  1  0  0  0  0
 39 42  1  0  0  0  0
 39 43  1  0  0  0  0
M  END
$$$$

  -OEChem-05262216003D

 43 42  0     1  0  0  0  0  0999 V2000
   -3.3036   -4.9217    1.3474 C   0  0  0  0  0  0  0  0  0  0  0  0
   -2.3600   -5.4510    1.9130 O   0  0  0  0  0  0  0  0  0  0  0  0
   -4.7188   -5.3968    1.6195 C   0  0  0  0  0  0  0  0  0  0  0  0
   -5.1894   -5.7209    0.6881 H   0  0  0  0  0  0  0  0  0  0  0  0
   -4.7061   -6.2383    2.3180 H   0  0  0  0  0  0  0  0  0  0  0  0
   -5.3082   -4.5861    2.0546 H   0  0  0  0  0  0  0  0  0  0  0  0
   -3.0847   -3.8887    0.4607 N   0  0  0  0  0  0  0  0  0  0  0  0
   -1.7750   -3.2734    0.2047 C   0  0  2  0  0  0  0  0  0  0  0  0
   -1.9025   -1.8021   -0.2512 C   0  0  0  0  0  0  0  0  0  0  0  0
   -3.0097   -1.3713   -0.5339 O   0  0  0  0  0  0  0  0  0  0  0  0
   -1.0516   -4.1020   -0.8635 C   0  0  0  0  0  0  0  0  0  0  0  0
   -3.9015   -3.3978    0.0983 H   0  0  0  0  0  0  0  0  0  0  0  0
   -1.1845   -3.2789    1.1276 H   0  0  0  0  0  0  0  0  0  0  0  0
   -1.6246   -4.1074   -1.7964 H   0  0  0  0  0  0  0  0  0  0  0  0
   -0.0588   -3.6892   -1.0664 H   0  0  0  0  0  0  0  0  0  0  0  0
   -0.9293   -5.1357   -0.5245 H   0  0  0  0  0  0  0  0  0  0  0  0
   -0.7647   -1.0133   -0.2589 N   0  0  0  0  0  0  0  0  0  0  0  0
   -0.4800    0.3964   -0.6381 C   0  0  2  0  0  0  0  0  0  0  0  0
    0.6922    0.9110    0.2339 C   0  0  0  0  0  0  0  0  0  0  0  0
    1.2612    0.1422    1.0036 O   0  0  0  0  0  0  0  0  0  0  0  0
   -1.6138    1.4542   -0.7003 C   0  0  0  0  0  0  0  0  0  0  0  0
   -2.8891    1.1700   -1.9974 S   0  0  0  0  0  0  0  0  0  0  0  0
    0.0378   -1.4694    0.1777 H   0  0  0  0  0  0  0  0  0  0  0  0
   -0.0870    0.3533   -1.6585 H   0  0  0  0  0  0  0  0  0  0  0  0
   -2.1114    1.4858    0.2745 H   0  0  0  0  0  0  0  0  0  0  0  0
   -1.1906    2.4459   -0.8849 H   0  0  0  0  0  0  0  0  0  0  0  0
   -3.3849   -0.0256   -1.6014 H   0  0  0  0  0  0  0  0  0  0  0  0
    1.1867    2.1960    0.1098 N   0  0  0  0  0  0  0  0  0  0  0  0
    2.2275    2.7792    0.9666 C   0  0  2  0  0  0  0  0  0  0  0  0
    2.0608    4.3098    1.0776 C   0  0  0  0  0  0  0  0  0  0  0  0
    1.2677    4.8917    0.3452 O   0  0  0  0  0  0  0  0  0  0  0  0
    3.5990    2.4256    0.3807 C   0  0  0  0  0  0  0  0  0  0  0  0
    0.6689    2.8514   -0.4767 H   0  0  0  0  0  0  0  0  0  0  0  0
    2.1467    2.3661    1.9779 H   0  0  0  0  0  0  0  0  0  0  0  0
    3.7021    2.8408   -0.6271 H   0  0  0  0  0  0  0  0  0  0  0  0
    4.4013    2.8266    1.0073 H   0  0  0  0  0  0  0  0  0  0  0  0
    3.7204    1.3392    0.3237 H   0  0  0  0  0  0  0  0  0  0  0  0
    2.7850    5.0348    2.0059 N   0  0  0  0  0  0  0  0  0  0  0  0
    2.6703    6.4806    2.1566 C   0  0  0  0  0  0  0  0  0  0  0  0
    3.4291    4.5267    2.6050 H   0  0  0  0  0  0  0  0  0  0  0  0
    2.9735    6.9869    1.2340 H   0  0  0  0  0  0  0  0  0  0  0  0
    1.6376    6.7610    2.3897 H   0  0  0  0  0  0  0  0  0  0  0  0
    3.3141    6.8294    2.9700 H   0  0  0  0  0  0  0  0  0  0  0  0
  1  2  2  0  0  0  0
  1  3  1  0  0  0  0
  1  7  1  0  0  0  0
  3  4  1  0  0  0  0
  3  5  1  0  0  0  0
  3  6  1  0  0  0  0
  7  8  1  0  0  0  0
  7 12  1  0  0  0  0
  8  9  1  0  0  0  0
  8 11  1  0  0  0  0
  8 13  1  0  0  0  0
  9 10  2  0  0  0  0
  9 17  1  0  0  0  0
 11 14  1  0  0  0  0
 11 15  1  0  0  0  0
 11 16  1  0  0  0  0
 17 18  1  0  0  0  0
 17 23  1  0  0  0  0
 18 19  1  0  0  0  0
 18 21  1  0  0  0  0
 18 24  1  0  0  0  0
 19 20  2  0  0  0  0
 19 28  1  0  0  0  0
 21 22  1  0  0  0  0
 21 25  1  0  0  0  0
 21 26  1  0  0  0  0
 22 27  1  0  0  0  0
 28 29  1  0  0  0  0
 28 33  1  0  0  0  0
 29 30  1  0  0  0  0
 29 32  1  0  0  0  0
 29 34  1  0  0  0  0
 30 31  2  0  0  0  0
 30 38  1  0  0  0  0
 32 35  1  0  0  0  0
 32 36  1  0  0  0  0
 32 37  1  0  0  0  0
 38 39  1  0  0  0  0
 38 40  1  0  0  0  0
 39 41  1  0  0  0  0
 39 42  1  0  0  0  0
 39 43  1  0  0  0  0
M  END
$$$$

  -OEChem-05262216003D

 43 42  0     1  0  0  0  0  0999 V2000
   -3.2988   -4.9515    1.3046 C   0  0  0  0  0  0  0  0  0  0  0  0
   -2.3493   -5.4978    1.8436 O   0  0  0  0  0  0  0  0  0  0  0  0
   -4.7116   -5.4241    1.5912 C   0  0  0  0  0  0  0  0  0  0  0  0
   -5.2132   -5.6876    0.6570 H   0  0  0  0  0  0  0  0  0  0  0  0
   -4.6899   -6.3048    2.2395 H   0  0  0  0  0  0  0  0  0  0  0  0
   -5.2768   -4.6325    2.0893 H   0  0  0  0  0  0  0  0  0  0  0  0
   -3.0890   -3.8993    0.4386 N   0  0  0  0  0  0  0  0  0  0  0  0
   -1.7825   -3.2731    0.1946 C   0  0  2  0  0  0  0  0  0  0  0  0
   -1.9146   -1.7841   -0.1967 C   0  0  0  0  0  0  0  0  0  0  0  0
   -3.0273   -1.3324   -0.4239 O   0  0  0  0  0  0  0  0  0  0  0  0
   -1.0691   -4.0549   -0.9142 C   0  0  0  0  0  0  0  0  0  0  0  0
   -3.9094   -3.3915    0.1097 H   0  0  0  0  0  0  0  0  0  0  0  0
   -1.1825   -3.3166    1.1103 H   0  0  0  0  0  0  0  0  0  0  0  0
   -1.6382   -4.0013   -1.8479 H   0  0  0  0  0  0  0  0  0  0  0  0
   -0.0690   -3.6475   -1.0906 H   0  0  0  0  0  0  0  0  0  0  0  0
   -0.9648   -5.1070   -0.6305 H   0  0  0  0  0  0  0  0  0  0  0  0
   -0.7762   -0.9965   -0.1900 N   0  0  0  0  0  0  0  0  0  0  0  0
   -0.4872    0.4054   -0.5900 C   0  0  2  0  0  0  0  0  0  0  0  0
    0.6618    0.9375    0.3036 C   0  0  0  0  0  0  0  0  0  0  0  0
    1.3619    0.1375    0.9180 O   0  0  0  0  0  0  0  0  0  0  0  0
   -1.6334    1.4394   -0.7353 C   0  0  0  0  0  0  0  0  0  0  0  0
   -2.8226    1.0765   -2.0932 S   0  0  0  0  0  0  0  0  0  0  0  0
    0.0414   -1.4724    0.1940 H   0  0  0  0  0  0  0  0  0  0  0  0
   -0.0573    0.3410   -1.5942 H   0  0  0  0  0  0  0  0  0  0  0  0
   -2.1822    1.4924    0.2108 H   0  0  0  0  0  0  0  0  0  0  0  0
   -1.2204    2.4319   -0.9355 H   0  0  0  0  0  0  0  0  0  0  0  0
   -3.3545   -0.0830   -1.6393 H   0  0  0  0  0  0  0  0  0  0  0  0
    0.9691    2.2823    0.4018 N   0  0  0  0  0  0  0  0  0  0  0  0
    1.9686    2.8500    1.3162 C   0  0  2  0  0  0  0  0  0  0  0  0
    1.6175    4.3075    1.6858 C   0  0  0  0  0  0  0  0  0  0  0  0
    0.7128    4.8860    1.0934 O   0  0  0  0  0  0  0  0  0  0  0  0
    3.3462    2.7799    0.6477 C   0  0  0  0  0  0  0  0  0  0  0  0
    0.3294    2.9496   -0.0299 H   0  0  0  0  0  0  0  0  0  0  0  0
    1.9864    2.2711    2.2458 H   0  0  0  0  0  0  0  0  0  0  0  0
    3.3551    3.3703   -0.2742 H   0  0  0  0  0  0  0  0  0  0  0  0
    4.1192    3.1671    1.3184 H   0  0  0  0  0  0  0  0  0  0  0  0
    3.5971    1.7440    0.3993 H   0  0  0  0  0  0  0  0  0  0  0  0
    2.3003    4.9661    2.6918 N   0  0  0  0  0  0  0  0  0  0  0  0
    2.0087    6.3380    3.0916 C   0  0  0  0  0  0  0  0  0  0  0  0
    3.0413    4.4611    3.1692 H   0  0  0  0  0  0  0  0  0  0  0  0
    2.1836    7.0260    2.2579 H   0  0  0  0  0  0  0  0  0  0  0  0
    0.9655    6.4315    3.4115 H   0  0  0  0  0  0  0  0  0  0  0  0
    2.6524    6.6342    3.9255 H   0  0  0  0  0  0  0  0  0  0  0  0
  1  2  2  0  0  0  0
  1  3  1  0  0  0  0
  1  7  1  0  0  0  0
  3  4  1  0  0  0  0
  3  5  1  0  0  0  0
  3  6  1  0  0  0  0
  7  8  1  0  0  0  0
  7 12  1  0  0  0  0
  8  9  1  0  0  0  0
  8 11  1  0  0  0  0
  8 13  1  0  0  0  0
  9 10  2  0  0  0  0
  9 17  1  0  0  0  0
 11 14  1  0  0  0  0
 11 15  1  0  0  0  0
 11 16  1  0  0  0  0
 17 18  1  0  0  0  0
 17 23  1  0  0  0  0
 18 19  1  0  0  0  0
 18 21  1  0  0  0  0
 18 24  1  0  0  0  0
 19 20  2  0  0  0  0
 19 28  1  0  0  0  0
 21 22  1  0  0  0  0
 21 25  1  0  0  0  0
 21 26  1  0  0  0  0
 22 27  1  0  0  0  0
 28 29  1  0  0  0  0
 28 33  1  0  0  0  0
 29 30  1  0  0  0  0
 29 32  1  0  0  0  0
 29 34  1  0  0  0  0
 30 31  2  0  0  0  0
 30 38  1  0  0  0  0
 32 35  1  0  0  0  0
 32 36  1  0  0  0  0
 32 37  1  0  0  0  0
 38 39  1  0  0  0  0
 38 40  1  0  0  0  0
 39 41  1  0  0  0  0
 39 42  1  0  0  0  0
 39 43  1  0  0  0  0
M  END
$$$$

  -OEChem-05262216003D

 43 42  0     1  0  0  0  0  0999 V2000
   -3.3061   -4.9585    1.2759 C   0  0  0  0  0  0  0  0  0  0  0  0
   -2.3571   -5.5274    1.7920 O   0  0  0  0  0  0  0  0  0  0  0  0
   -4.7219   -5.4147    1.5735 C   0  0  0  0  0  0  0  0  0  0  0  0
   -5.2436   -5.6426    0.6411 H   0  0  0  0  0  0  0  0  0  0  0  0
   -4.7053   -6.3140    2.1954 H   0  0  0  0  0  0  0  0  0  0  0  0
   -5.2644   -4.6282    2.1039 H   0  0  0  0  0  0  0  0  0  0  0  0
   -3.0930   -3.8940    0.4263 N   0  0  0  0  0  0  0  0  0  0  0  0
   -1.7821   -3.2770    0.1818 C   0  0  2  0  0  0  0  0  0  0  0  0
   -1.9042   -1.7760   -0.1651 C   0  0  0  0  0  0  0  0  0  0  0  0
   -3.0144   -1.3068   -0.3700 O   0  0  0  0  0  0  0  0  0  0  0  0
   -1.0947   -4.0351   -0.9592 C   0  0  0  0  0  0  0  0  0  0  0  0
   -3.9110   -3.3696    0.1177 H   0  0  0  0  0  0  0  0  0  0  0  0
   -1.1687   -3.3539    1.0865 H   0  0  0  0  0  0  0  0  0  0  0  0
   -1.6819   -3.9570   -1.8799 H   0  0  0  0  0  0  0  0  0  0  0  0
   -0.0968   -3.6276   -1.1462 H   0  0  0  0  0  0  0  0  0  0  0  0
   -0.9891   -5.0939   -0.7024 H   0  0  0  0  0  0  0  0  0  0  0  0
   -0.7623   -0.9940   -0.1410 N   0  0  0  0  0  0  0  0  0  0  0  0
   -0.4706    0.4042   -0.5493 C   0  0  2  0  0  0  0  0  0  0  0  0
    0.6596    0.9424    0.3621 C   0  0  0  0  0  0  0  0  0  0  0  0
    1.4821    0.1497    0.8109 O   0  0  0  0  0  0  0  0  0  0  0  0
   -1.6164    1.4315   -0.7372 C   0  0  0  0  0  0  0  0  0  0  0  0
   -2.7650    1.0419   -2.1227 S   0  0  0  0  0  0  0  0  0  0  0  0
    0.0633   -1.4879    0.2002 H   0  0  0  0  0  0  0  0  0  0  0  0
   -0.0180    0.3305   -1.5428 H   0  0  0  0  0  0  0  0  0  0  0  0
   -2.1910    1.4993    0.1929 H   0  0  0  0  0  0  0  0  0  0  0  0
   -1.1977    2.4206   -0.9452 H   0  0  0  0  0  0  0  0  0  0  0  0
   -3.3230   -0.0967   -1.6467 H   0  0  0  0  0  0  0  0  0  0  0  0
    0.7835    2.2777    0.7001 N   0  0  0  0  0  0  0  0  0  0  0  0
    1.7539    2.8140    1.6630 C   0  0  2  0  0  0  0  0  0  0  0  0
    1.2322    4.1157    2.3084 C   0  0  0  0  0  0  0  0  0  0  0  0
    0.2359    4.6662    1.8519 O   0  0  0  0  0  0  0  0  0  0  0  0
    3.0799    3.0656    0.9364 C   0  0  0  0  0  0  0  0  0  0  0  0
    0.0286    2.9084    0.4292 H   0  0  0  0  0  0  0  0  0  0  0  0
    1.9131    2.0893    2.4685 H   0  0  0  0  0  0  0  0  0  0  0  0
    2.9419    3.7897    0.1269 H   0  0  0  0  0  0  0  0  0  0  0  0
    3.8306    3.4565    1.6298 H   0  0  0  0  0  0  0  0  0  0  0  0
    3.4621    2.1337    0.5075 H   0  0  0  0  0  0  0  0  0  0  0  0
    1.8645    4.6616    3.4102 N   0  0  0  0  0  0  0  0  0  0  0  0
    1.4173    5.8875    4.0608 C   0  0  0  0  0  0  0  0  0  0  0  0
    2.6818    4.1803    3.7742 H   0  0  0  0  0  0  0  0  0  0  0  0
    1.4687    6.7313    3.3645 H   0  0  0  0  0  0  0  0  0  0  0  0
    0.3848    5.7816    4.4102 H   0  0  0  0  0  0  0  0  0  0  0  0
    2.0514    6.1120    4.9238 H   0  0  0  0  0  0  0  0  0  0  0  0
  1  2  2  0  0  0  0
  1  3  1  0  0  0  0
  1  7  1  0  0  0  0
  3  4  1  0  0  0  0
  3  5  1  0  0  0  0
  3  6  1  0  0  0  0
  7  8  1  0  0  0  0
  7 12  1  0  0  0  0
  8  9  1  0  0  0  0
  8 11  1  0  0  0  0
  8 13  1  0  0  0  0
  9 10  2  0  0  0  0
  9 17  1  0  0  0  0
 11 14  1  0  0  0  0
 11 15  1  0  0  0  0
 11 16  1  0  0  0  0
 17 18  1  0  0  0  0
 17 23  1  0  0  0  0
 18 19  1  0  0  0  0
 18 21  1  0  0  0  0
 18 24  1  0  0  0  0
 19 20  2  0  0  0  0
 19 28  1  0  0  0  0
 21 22  1  0  0  0  0
 21 25  1  0  0  0  0
 21 26  1  0  0  0  0
 22 27  1  0  0  0  0
 28 29  1  0  0  0  0
 28 33  1  0  0  0  0
 29 30  1  0  0  0  0
 29 32  1  0  0  0  0
 29 34  1  0  0  0  0
 30 31  2  0  0  0  0
 30 38  1  0  0  0  0
 32 35  1  0  0  0  0
 32 36  1  0  0  0  0
 32 37  1  0  0  0  0
 38 39  1  0  0  0  0
 38 40  1  0  0  0  0
 39 41  1  0  0  0  0
 39 42  1  0  0  0  0
 39 43  1  0  0  0  0
M  END
$$$$

  -OEChem-05262216003D

 43 42  0     1  0  0  0  0  0999 V2000
   -3.3392   -5.1325    1.1071 C   0  0  0  0  0  0  0  0  0  0  0  0
   -2.3970   -5.8398    1.4280 O   0  0  0  0  0  0  0  0  0  0  0  0
   -4.7552   -5.5357    1.4723 C   0  0  0  0  0  0  0  0  0  0  0  0
   -5.3505   -5.6647    0.5651 H   0  0  0  0  0  0  0  0  0  0  0  0
   -4.7480   -6.4783    2.0265 H   0  0  0  0  0  0  0  0  0  0  0  0
   -5.2143   -4.7641    2.0952 H   0  0  0  0  0  0  0  0  0  0  0  0
   -3.1200   -3.9602    0.4165 N   0  0  0  0  0  0  0  0  0  0  0  0
   -1.7929   -3.3836    0.1639 C   0  0  2  0  0  0  0  0  0  0  0  0
   -1.8403   -1.8406    0.1218 C   0  0  0  0  0  0  0  0  0  0  0  0
   -2.9224   -1.2750    0.2242 O   0  0  0  0  0  0  0  0  0  0  0  0
   -1.2679   -3.9400   -1.1635 C   0  0  0  0  0  0  0  0  0  0  0  0
   -3.9143   -3.3300    0.3064 H   0  0  0  0  0  0  0  0  0  0  0  0
   -1.1084   -3.6668    0.9712 H   0  0  0  0  0  0  0  0  0  0  0  0
   -1.9311   -3.6548   -1.9864 H   0  0  0  0  0  0  0  0  0  0  0  0
   -0.2657   -3.5549   -1.3739 H   0  0  0  0  0  0  0  0  0  0  0  0
   -1.2143   -5.0325   -1.1220 H   0  0  0  0  0  0  0  0  0  0  0  0
   -0.6561   -1.1241    0.1633 N   0  0  0  0  0  0  0  0  0  0  0  0
   -0.3503    0.2475   -0.3097 C   0  0  2  0  0  0  0  0  0  0  0  0
    0.7576    0.8617    0.5716 C   0  0  0  0  0  0  0  0  0  0  0  0
    1.7287    0.1725    0.8632 O   0  0  0  0  0  0  0  0  0  0  0  0
   -1.5110    1.2144   -0.6321 C   0  0  0  0  0  0  0  0  0  0  0  0
   -2.5122    0.6370   -2.0702 S   0  0  0  0  0  0  0  0  0  0  0  0
    0.1708   -1.7029    0.3013 H   0  0  0  0  0  0  0  0  0  0  0  0
    0.1370    0.1108   -1.2801 H   0  0  0  0  0  0  0  0  0  0  0  0
   -2.1549    1.3041    0.2495 H   0  0  0  0  0  0  0  0  0  0  0  0
   -1.1234    2.2098   -0.8700 H   0  0  0  0  0  0  0  0  0  0  0  0
   -3.6852    1.2589   -1.8219 H   0  0  0  0  0  0  0  0  0  0  0  0
    0.6868    2.1541    1.0581 N   0  0  0  0  0  0  0  0  0  0  0  0
    1.6266    2.7357    2.0245 C   0  0  2  0  0  0  0  0  0  0  0  0
    0.9424    3.8285    2.8734 C   0  0  0  0  0  0  0  0  0  0  0  0
   -0.1725    4.2352    2.5628 O   0  0  0  0  0  0  0  0  0  0  0  0
    2.8200    3.3139    1.2569 C   0  0  0  0  0  0  0  0  0  0  0  0
   -0.1962    2.6513    0.9411 H   0  0  0  0  0  0  0  0  0  0  0  0
    1.9787    1.9587    2.7115 H   0  0  0  0  0  0  0  0  0  0  0  0
    2.4875    4.0939    0.5642 H   0  0  0  0  0  0  0  0  0  0  0  0
    3.5490    3.7481    1.9478 H   0  0  0  0  0  0  0  0  0  0  0  0
    3.3189    2.5271    0.6820 H   0  0  0  0  0  0  0  0  0  0  0  0
    1.5633    4.3420    3.9972 N   0  0  0  0  0  0  0  0  0  0  0  0
    0.9503    5.3436    4.8614 C   0  0  0  0  0  0  0  0  0  0  0  0
    2.4758    3.9702    4.2446 H   0  0  0  0  0  0  0  0  0  0  0  0
    0.7269    6.2542    4.2955 H   0  0  0  0  0  0  0  0  0  0  0  0
    0.0199    4.9590    5.2923 H   0  0  0  0  0  0  0  0  0  0  0  0
    1.6283    5.6043    5.6799 H   0  0  0  0  0  0  0  0  0  0  0  0
  1  2  2  0  0  0  0
  1  3  1  0  0  0  0
  1  7  1  0  0  0  0
  3  4  1  0  0  0  0
  3  5  1  0  0  0  0
  3  6  1  0  0  0  0
  7  8  1  0  0  0  0
  7 12  1  0  0  0  0
  8  9  1  0  0  0  0
  8 11  1  0  0  0  0
  8 13  1  0  0  0  0
  9 10  2  0  0  0  0
  9 17  1  0  0  0  0
 11 14  1  0  0  0  0
 11 15  1  0  0  0  0
 11 16  1  0  0  0  0
 17 18  1  0  0  0  0
 17 23  1  0  0  0  0
 18 19  1  0  0  0  0
 18 21  1  0  0  0  0
 18 24  1  0  0  0  0
 19 20  2  0  0  0  0
 19 28  1  0  0  0  0
 21 22  1  0  0  0  0
 21 25  1  0  0  0  0
 21 26  1  0  0  0  0
 22 27  1  0  0  0  0
 28 29  1  0  0  0  0
 28 33  1  0  0  0  0
 29 30  1  0  0  0  0
 29 32  1  0  0  0  0
 29 34  1  0  0  0  0
 30 31  2  0  0  0  0
 30 38  1  0  0  0  0
 32 35  1  0  0  0  0
 32 36  1  0  0  0  0
 32 37  1  0  0  0  0
 38 39  1  0  0  0  0
 38 40  1  0  0  0  0
 39 41  1  0  0  0  0
 39 42  1  0  0  0  0
 39 43  1  0  0  0  0
M  END
$$$$

  -OEChem-05262216003D

 43 42  0     1  0  0  0  0  0999 V2000
   -3.3380   -5.1541    1.0731 C   0  0  0  0  0  0  0  0  0  0  0  0
   -2.3892   -5.8735    1.3442 O   0  0  0  0  0  0  0  0  0  0  0  0
   -4.7444   -5.5722    1.4585 C   0  0  0  0  0  0  0  0  0  0  0  0
   -5.3437   -5.7352    0.5595 H   0  0  0  0  0  0  0  0  0  0  0  0
   -4.7163   -6.4993    2.0378 H   0  0  0  0  0  0  0  0  0  0  0  0
   -5.2131   -4.7932    2.0646 H   0  0  0  0  0  0  0  0  0  0  0  0
   -3.1324   -3.9566    0.4222 N   0  0  0  0  0  0  0  0  0  0  0  0
   -1.8092   -3.3811    0.1493 C   0  0  2  0  0  0  0  0  0  0  0  0
   -1.8422   -1.8373    0.1440 C   0  0  0  0  0  0  0  0  0  0  0  0
   -2.9161   -1.2606    0.2670 O   0  0  0  0  0  0  0  0  0  0  0  0
   -1.3225   -3.9107   -1.2033 C   0  0  0  0  0  0  0  0  0  0  0  0
   -3.9281   -3.3235    0.3432 H   0  0  0  0  0  0  0  0  0  0  0  0
   -1.1074   -3.6887    0.9321 H   0  0  0  0  0  0  0  0  0  0  0  0
   -2.0140   -3.6163   -1.9993 H   0  0  0  0  0  0  0  0  0  0  0  0
   -0.3305   -3.5141   -1.4393 H   0  0  0  0  0  0  0  0  0  0  0  0
   -1.2596   -5.0035   -1.1821 H   0  0  0  0  0  0  0  0  0  0  0  0
   -0.6500   -1.1351    0.1939 N   0  0  0  0  0  0  0  0  0  0  0  0
   -0.3343    0.2327   -0.2813 C   0  0  2  0  0  0  0  0  0  0  0  0
    0.7706    0.8433    0.6016 C   0  0  0  0  0  0  0  0  0  0  0  0
    1.8309    0.2401    0.7175 O   0  0  0  0  0  0  0  0  0  0  0  0
   -1.4825    1.2122   -0.6063 C   0  0  0  0  0  0  0  0  0  0  0  0
   -2.4885    0.6438   -2.0452 S   0  0  0  0  0  0  0  0  0  0  0  0
    0.1696   -1.7305    0.2968 H   0  0  0  0  0  0  0  0  0  0  0  0
    0.1537    0.0897   -1.2505 H   0  0  0  0  0  0  0  0  0  0  0  0
   -2.1291    1.3102    0.2721 H   0  0  0  0  0  0  0  0  0  0  0  0
   -1.0773    2.2024   -0.8387 H   0  0  0  0  0  0  0  0  0  0  0  0
   -3.6297    1.3383   -1.8465 H   0  0  0  0  0  0  0  0  0  0  0  0
    0.5742    2.0045    1.3251 N   0  0  0  0  0  0  0  0  0  0  0  0
    1.5071    2.5273    2.3307 C   0  0  2  0  0  0  0  0  0  0  0  0
    0.7596    3.3339    3.4136 C   0  0  0  0  0  0  0  0  0  0  0  0
   -0.4184    3.6335    3.2496 O   0  0  0  0  0  0  0  0  0  0  0  0
    2.5463    3.4022    1.6229 C   0  0  0  0  0  0  0  0  0  0  0  0
   -0.3754    2.3769    1.3600 H   0  0  0  0  0  0  0  0  0  0  0  0
    2.0144    1.6967    2.8333 H   0  0  0  0  0  0  0  0  0  0  0  0
    2.0580    4.2376    1.1109 H   0  0  0  0  0  0  0  0  0  0  0  0
    3.2647    3.8057    2.3426 H   0  0  0  0  0  0  0  0  0  0  0  0
    3.0964    2.8129    0.8824 H   0  0  0  0  0  0  0  0  0  0  0  0
    1.3974    3.7039    4.5831 N   0  0  0  0  0  0  0  0  0  0  0  0
    0.7303    4.4196    5.6643 C   0  0  0  0  0  0  0  0  0  0  0  0
    2.3639    3.4158    4.7055 H   0  0  0  0  0  0  0  0  0  0  0  0
    0.3279    5.3723    5.3037 H   0  0  0  0  0  0  0  0  0  0  0  0
   -0.0923    3.8207    6.0692 H   0  0  0  0  0  0  0  0  0  0  0  0
    1.4373    4.6279    6.4730 H   0  0  0  0  0  0  0  0  0  0  0  0
  1  2  2  0  0  0  0
  1  3  1  0  0  0  0
  1  7  1  0  0  0  0
  3  4  1  0  0  0  0
  3  5  1  0  0  0  0
  3  6  1  0  0  0  0
  7  8  1  0  0  0  0
  7 12  1  0  0  0  0
  8  9  1  0  0  0  0
  8 11  1  0  0  0  0
  8 13  1  0  0  0  0
  9 10  2  0  0  0  0
  9 17  1  0  0  0  0
 11 14  1  0  0  0  0
 11 15  1  0  0  0  0
 11 16  1  0  0  0  0
 17 18  1  0  0  0  0
 17 23  1  0  0  0  0
 18 19  1  0  0  0  0
 18 21  1  0  0  0  0
 18 24  1  0  0  0  0
 19 20  2  0  0  0  0
 19 28  1  0  0  0  0
 21 22  1  0  0  0  0
 21 25  1  0  0  0  0
 21 26  1  0  0  0  0
 22 27  1  0  0  0  0
 28 29  1  0  0  0  0
 28 33  1  0  0  0  0
 29 30  1  0  0  0  0
 29 32  1  0  0  0  0
 29 34  1  0  0  0  0
 30 31  2  0  0  0  0
 30 38  1  0  0  0  0
 32 35  1  0  0  0  0
 32 36  1  0  0  0  0
 32 37  1  0  0  0  0
 38 39  1  0  0  0  0
 38 40  1  0  0  0  0
 39 41  1  0  0  0  0
 39 42  1  0  0  0  0
 39 43  1  0  0  0  0
M  END
$$$$

  -OEChem-05262216003D

 43 42  0     1  0  0  0  0  0999 V2000
   -3.3434   -5.1649    1.0488 C   0  0  0  0  0  0  0  0  0  0  0  0
   -2.3997   -5.8978    1.3002 O   0  0  0  0  0  0  0  0  0  0  0  0
   -4.7496   -5.5683    1.4510 C   0  0  0  0  0  0  0  0  0  0  0  0
   -5.3712   -5.6895    0.5605 H   0  0  0  0  0  0  0  0  0  0  0  0
   -4.7285   -6.5152    1.9976 H   0  0  0  0  0  0  0  0  0  0  0  0
   -5.1897   -4.8010    2.0929 H   0  0  0  0  0  0  0  0  0  0  0  0
   -3.1330   -3.9655    0.4029 N   0  0  0  0  0  0  0  0  0  0  0  0
   -1.8079   -3.3990    0.1196 C   0  0  2  0  0  0  0  0  0  0  0  0
   -1.8234   -1.8554    0.1674 C   0  0  0  0  0  0  0  0  0  0  0  0
   -2.8872   -1.2722    0.3392 O   0  0  0  0  0  0  0  0  0  0  0  0
   -1.3596   -3.8874   -1.2610 C   0  0  0  0  0  0  0  0  0  0  0  0
   -3.9217   -3.3212    0.3483 H   0  0  0  0  0  0  0  0  0  0  0  0
   -1.0916   -3.7417    0.8742 H   0  0  0  0  0  0  0  0  0  0  0  0
   -2.0561   -3.5433   -2.0323 H   0  0  0  0  0  0  0  0  0  0  0  0
   -0.3611   -3.5085   -1.4987 H   0  0  0  0  0  0  0  0  0  0  0  0
   -1.3272   -4.9815   -1.2840 H   0  0  0  0  0  0  0  0  0  0  0  0
   -0.6257   -1.1624    0.2224 N   0  0  0  0  0  0  0  0  0  0  0  0
   -0.3150    0.2064   -0.2538 C   0  0  2  0  0  0  0  0  0  0  0  0
    0.7875    0.8247    0.6235 C   0  0  0  0  0  0  0  0  0  0  0  0
    1.9210    0.3653    0.5615 O   0  0  0  0  0  0  0  0  0  0  0  0
   -1.4650    1.1863   -0.5673 C   0  0  0  0  0  0  0  0  0  0  0  0
   -2.4829    0.6189   -1.9989 S   0  0  0  0  0  0  0  0  0  0  0  0
    0.1882   -1.7719    0.2662 H   0  0  0  0  0  0  0  0  0  0  0  0
    0.1672    0.0668   -1.2269 H   0  0  0  0  0  0  0  0  0  0  0  0
   -2.1058    1.2823    0.3157 H   0  0  0  0  0  0  0  0  0  0  0  0
   -1.0597    2.1773   -0.7970 H   0  0  0  0  0  0  0  0  0  0  0  0
   -3.5984    1.3619   -1.8293 H   0  0  0  0  0  0  0  0  0  0  0  0
    0.5018    1.7937    1.5667 N   0  0  0  0  0  0  0  0  0  0  0  0
    1.4432    2.2593    2.5933 C   0  0  2  0  0  0  0  0  0  0  0  0
    0.6986    2.7329    3.8597 C   0  0  0  0  0  0  0  0  0  0  0  0
   -0.5147    2.9074    3.8269 O   0  0  0  0  0  0  0  0  0  0  0  0
    2.2867    3.3954    2.0054 C   0  0  0  0  0  0  0  0  0  0  0  0
   -0.4838    1.9987    1.7365 H   0  0  0  0  0  0  0  0  0  0  0  0
    2.1017    1.4363    2.8907 H   0  0  0  0  0  0  0  0  0  0  0  0
    1.6461    4.2280    1.6970 H   0  0  0  0  0  0  0  0  0  0  0  0
    3.0055    3.7638    2.7436 H   0  0  0  0  0  0  0  0  0  0  0  0
    2.8431    3.0417    1.1314 H   0  0  0  0  0  0  0  0  0  0  0  0
    1.3818    2.9409    5.0438 N   0  0  0  0  0  0  0  0  0  0  0  0
    0.7265    3.3392    6.2839 C   0  0  0  0  0  0  0  0  0  0  0  0
    2.3812    2.7589    5.0515 H   0  0  0  0  0  0  0  0  0  0  0  0
    0.2034    4.2922    6.1517 H   0  0  0  0  0  0  0  0  0  0  0  0
    0.0017    2.5794    6.5951 H   0  0  0  0  0  0  0  0  0  0  0  0
    1.4652    3.4594    7.0820 H   0  0  0  0  0  0  0  0  0  0  0  0
  1  2  2  0  0  0  0
  1  3  1  0  0  0  0
  1  7  1  0  0  0  0
  3  4  1  0  0  0  0
  3  5  1  0  0  0  0
  3  6  1  0  0  0  0
  7  8  1  0  0  0  0
  7 12  1  0  0  0  0
  8  9  1  0  0  0  0
  8 11  1  0  0  0  0
  8 13  1  0  0  0  0
  9 10  2  0  0  0  0
  9 17  1  0  0  0  0
 11 14  1  0  0  0  0
 11 15  1  0  0  0  0
 11 16  1  0  0  0  0
 17 18  1  0  0  0  0
 17 23  1  0  0  0  0
 18 19  1  0  0  0  0
 18 21  1  0  0  0  0
 18 24  1  0  0  0  0
 19 20  2  0  0  0  0
 19 28  1  0  0  0  0
 21 22  1  0  0  0  0
 21 25  1  0  0  0  0
 21 26  1  0  0  0  0
 22 27  1  0  0  0  0
 28 29  1  0  0  0  0
 28 33  1  0  0  0  0
 29 30  1  0  0  0  0
 29 32  1  0  0  0  0
 29 34  1  0  0  0  0
 30 31  2  0  0  0  0
 30 38  1  0  0  0  0
 32 35  1  0  0  0  0
 32 36  1  0  0  0  0
 32 37  1  0  0  0  0
 38 39  1  0  0  0  0
 38 40  1  0  0  0  0
 39 41  1  0  0  0  0
 39 42  1  0  0  0  0
 39 43  1  0  0  0  0
M  END
$$$$

  -OEChem-05262216003D

 43 42  0     1  0  0  0  0  0999 V2000
   -3.3571   -5.1767    1.0182 C   0  0  0  0  0  0  0  0  0  0  0  0
   -2.4150   -5.9229    1.2345 O   0  0  0  0  0  0  0  0  0  0  0  0
   -4.7578   -5.5751    1.4438 C   0  0  0  0  0  0  0  0  0  0  0  0
   -5.4038   -5.6594    0.5665 H   0  0  0  0  0  0  0  0  0  0  0  0
   -4.7357   -6.5396    1.9591 H   0  0  0  0  0  0  0  0  0  0  0  0
   -5.1710   -4.8236    2.1213 H   0  0  0  0  0  0  0  0  0  0  0  0
   -3.1492   -3.9671    0.3910 N   0  0  0  0  0  0  0  0  0  0  0  0
   -1.8245   -3.4089    0.0913 C   0  0  2  0  0  0  0  0  0  0  0  0
   -1.8185   -1.8672    0.1754 C   0  0  0  0  0  0  0  0  0  0  0  0
   -2.8730   -1.2719    0.3615 O   0  0  0  0  0  0  0  0  0  0  0  0
   -1.4133   -3.8698   -1.3100 C   0  0  0  0  0  0  0  0  0  0  0  0
   -3.9328   -3.3149    0.3636 H   0  0  0  0  0  0  0  0  0  0  0  0
   -1.0961   -3.7777    0.8215 H   0  0  0  0  0  0  0  0  0  0  0  0
   -2.1230   -3.5001   -2.0572 H   0  0  0  0  0  0  0  0  0  0  0  0
   -0.4159   -3.4974   -1.5621 H   0  0  0  0  0  0  0  0  0  0  0  0
   -1.3945   -4.9632   -1.3583 H   0  0  0  0  0  0  0  0  0  0  0  0
   -0.6117   -1.1916    0.2483 N   0  0  0  0  0  0  0  0  0  0  0  0
   -0.2861    0.1731   -0.2312 C   0  0  2  0  0  0  0  0  0  0  0  0
    0.8073    0.7960    0.6515 C   0  0  0  0  0  0  0  0  0  0  0  0
    1.9823    0.5423    0.4209 O   0  0  0  0  0  0  0  0  0  0  0  0
   -1.4213    1.1651   -0.5547 C   0  0  0  0  0  0  0  0  0  0  0  0
   -2.4360    0.6031   -1.9900 S   0  0  0  0  0  0  0  0  0  0  0  0
    0.1903   -1.8173    0.2729 H   0  0  0  0  0  0  0  0  0  0  0  0
    0.2009    0.0235   -1.2007 H   0  0  0  0  0  0  0  0  0  0  0  0
   -2.0670    1.2732    0.3230 H   0  0  0  0  0  0  0  0  0  0  0  0
   -1.0011    2.1499   -0.7840 H   0  0  0  0  0  0  0  0  0  0  0  0
   -3.5394    1.3653   -1.8287 H   0  0  0  0  0  0  0  0  0  0  0  0
    0.4790    1.5330    1.7730 N   0  0  0  0  0  0  0  0  0  0  0  0
    1.4409    1.9482    2.8023 C   0  0  2  0  0  0  0  0  0  0  0  0
    0.7712    2.0395    4.1899 C   0  0  0  0  0  0  0  0  0  0  0  0
   -0.4511    2.0187    4.2840 O   0  0  0  0  0  0  0  0  0  0  0  0
    2.0339    3.3014    2.3991 C   0  0  0  0  0  0  0  0  0  0  0  0
   -0.5048    1.5399    2.0481 H   0  0  0  0  0  0  0  0  0  0  0  0
    2.2457    1.2090    2.8770 H   0  0  0  0  0  0  0  0  0  0  0  0
    1.2458    4.0578    2.3291 H   0  0  0  0  0  0  0  0  0  0  0  0
    2.7718    3.6331    3.1356 H   0  0  0  0  0  0  0  0  0  0  0  0
    2.5301    3.2232    1.4267 H   0  0  0  0  0  0  0  0  0  0  0  0
    1.5378    2.1221    5.3376 N   0  0  0  0  0  0  0  0  0  0  0  0
    0.9664    2.1664    6.6784 C   0  0  0  0  0  0  0  0  0  0  0  0
    2.5481    2.1064    5.2333 H   0  0  0  0  0  0  0  0  0  0  0  0
    0.3038    3.0320    6.7845 H   0  0  0  0  0  0  0  0  0  0  0  0
    0.3921    1.2559    6.8805 H   0  0  0  0  0  0  0  0  0  0  0  0
    1.7616    2.2467    7.4259 H   0  0  0  0  0  0  0  0  0  0  0  0
  1  2  2  0  0  0  0
  1  3  1  0  0  0  0
  1  7  1  0  0  0  0
  3  4  1  0  0  0  0
  3  5  1  0  0  0  0
  3  6  1  0  0  0  0
  7  8  1  0  0  0  0
  7 12  1  0  0  0  0
  8  9  1  0  0  0  0
  8 11  1  0  0  0  0
  8 13  1  0  0  0  0
  9 10  2  0  0  0  0
  9 17  1  0  0  0  0
 11 14  1  0  0  0  0
 11 15  1  0  0  0  0
 11 16  1  0  0  0  0
 17 18  1  0  0  0  0
 17 23  1  0  0  0  0
 18 19  1  0  0  0  0
 18 21  1  0  0  0  0
 18 24  1  0  0  0  0
 19 20  2  0  0  0  0
 19 28  1  0  0  0  0
 21 22  1  0  0  0  0
 21 25  1  0  0  0  0
 21 26  1  0  0  0  0
 22 27  1  0  0  0  0
 28 29  1  0  0  0  0
 28 33  1  0  0  0  0
 29 30  1  0  0  0  0
 29 32  1  0  0  0  0
 29 34  1  0  0  0  0
 30 31  2  0  0  0  0
 30 38  1  0  0  0  0
 32 35  1  0  0  0  0
 32 36  1  0  0  0  0
 32 37  1  0  0  0  0
 38 39  1  0  0  0  0
 38 40  1  0  0  0  0
 39 41  1  0  0  0  0
 39 42  1  0  0  0  0
 39 43  1  0  0  0  0
M  END
$$$$

  -OEChem-05262216003D

 43 42  0     1  0  0  0  0  0999 V2000
   -3.3884   -5.1850    0.9877 C   0  0  0  0  0  0  0  0  0  0  0  0
   -2.4535   -5.9503    1.1659 O   0  0  0  0  0  0  0  0  0  0  0  0
   -4.7852   -5.5699    1.4372 C   0  0  0  0  0  0  0  0  0  0  0  0
   -5.4606   -5.5917    0.5786 H   0  0  0  0  0  0  0  0  0  0  0  0
   -4.7721   -6.5600    1.9012 H   0  0  0  0  0  0  0  0  0  0  0  0
   -5.1565   -4.8446    2.1651 H   0  0  0  0  0  0  0  0  0  0  0  0
   -3.1753   -3.9646    0.3830 N   0  0  0  0  0  0  0  0  0  0  0  0
   -1.8490   -3.4203    0.0651 C   0  0  2  0  0  0  0  0  0  0  0  0
   -1.8172   -1.8809    0.1765 C   0  0  0  0  0  0  0  0  0  0  0  0
   -2.8596   -1.2696    0.3781 O   0  0  0  0  0  0  0  0  0  0  0  0
   -1.4727   -3.8587   -1.3531 C   0  0  0  0  0  0  0  0  0  0  0  0
   -3.9500   -3.3012    0.3848 H   0  0  0  0  0  0  0  0  0  0  0  0
   -1.1119   -3.8138    0.7734 H   0  0  0  0  0  0  0  0  0  0  0  0
   -2.1934   -3.4662   -2.0779 H   0  0  0  0  0  0  0  0  0  0  0  0
   -0.4772   -3.4916   -1.6190 H   0  0  0  0  0  0  0  0  0  0  0  0
   -1.4668   -4.9512   -1.4229 H   0  0  0  0  0  0  0  0  0  0  0  0
   -0.6000   -1.2271    0.2684 N   0  0  0  0  0  0  0  0  0  0  0  0
   -0.2495    0.1289   -0.2190 C   0  0  2  0  0  0  0  0  0  0  0  0
    0.8351    0.7510    0.6736 C   0  0  0  0  0  0  0  0  0  0  0  0
    2.0027    0.7505    0.3077 O   0  0  0  0  0  0  0  0  0  0  0  0
   -1.3652    1.1371   -0.5565 C   0  0  0  0  0  0  0  0  0  0  0  0
   -2.3812    0.5824   -1.9941 S   0  0  0  0  0  0  0  0  0  0  0  0
    0.1872   -1.8708    0.2863 H   0  0  0  0  0  0  0  0  0  0  0  0
    0.2450   -0.0349   -1.1825 H   0  0  0  0  0  0  0  0  0  0  0  0
   -2.0129    1.2649    0.3172 H   0  0  0  0  0  0  0  0  0  0  0  0
   -0.9249    2.1118   -0.7910 H   0  0  0  0  0  0  0  0  0  0  0  0
   -3.4400    1.4141   -1.8892 H   0  0  0  0  0  0  0  0  0  0  0  0
    0.5120    1.2307    1.9275 N   0  0  0  0  0  0  0  0  0  0  0  0
    1.4985    1.6142    2.9458 C   0  0  2  0  0  0  0  0  0  0  0  0
    0.9941    1.2897    4.3680 C   0  0  0  0  0  0  0  0  0  0  0  0
   -0.1788    0.9823    4.5483 O   0  0  0  0  0  0  0  0  0  0  0  0
    1.7869    3.1110    2.7983 C   0  0  0  0  0  0  0  0  0  0  0  0
   -0.4285    1.0195    2.2668 H   0  0  0  0  0  0  0  0  0  0  0  0
    2.4260    1.0516    2.7954 H   0  0  0  0  0  0  0  0  0  0  0  0
    0.8758    3.6945    2.9647 H   0  0  0  0  0  0  0  0  0  0  0  0
    2.5430    3.4307    3.5215 H   0  0  0  0  0  0  0  0  0  0  0  0
    2.1603    3.3272    1.7922 H   0  0  0  0  0  0  0  0  0  0  0  0
    1.8594    1.3155    5.4462 N   0  0  0  0  0  0  0  0  0  0  0  0
    1.4495    0.9883    6.8070 C   0  0  0  0  0  0  0  0  0  0  0  0
    2.8315    1.5489    5.2667 H   0  0  0  0  0  0  0  0  0  0  0  0
    0.6594    1.6677    7.1439 H   0  0  0  0  0  0  0  0  0  0  0  0
    1.0744   -0.0393    6.8578 H   0  0  0  0  0  0  0  0  0  0  0  0
    2.2987    1.0806    7.4909 H   0  0  0  0  0  0  0  0  0  0  0  0
  1  2  2  0  0  0  0
  1  3  1  0  0  0  0
  1  7  1  0  0  0  0
  3  4  1  0  0  0  0
  3  5  1  0  0  0  0
  3  6  1  0  0  0  0
  7  8  1  0  0  0  0
  7 12  1  0  0  0  0
  8  9  1  0  0  0  0
  8 11  1  0  0  0  0
  8 13  1  0  0  0  0
  9 10  2  0  0  0  0
  9 17  1  0  0  0  0
 11 14  1  0  0  0  0
 11 15  1  0  0  0  0
 11 16  1  0  0  0  0
 17 18  1  0  0  0  0
 17 23  1  0  0  0  0
 18 19  1  0  0  0  0
 18 21  1  0  0  0  0
 18 24  1  0  0  0  0
 19 20  2  0  0  0  0
 19 28  1  0  0  0  0
 21 22  1  0  0  0  0
 21 25  1  0  0  0  0
 21 26  1  0  0  0  0
 22 27  1  0  0  0  0
 28 29  1  0  0  0  0
 28 33  1  0  0  0  0
 29 30  1  0  0  0  0
 29 32  1  0  0  0  0
 29 34  1  0  0  0  0
 30 31  2  0  0  0  0
 30 38  1  0  0  0  0
 32 35  1  0  0  0  0
 32 36  1  0  0  0  0
 32 37  1  0  0  0  0
 38 39  1  0  0  0  0
 38 40  1  0  0  0  0
 39 41  1  0  0  0  0
 39 42  1  0  0  0  0
 39 43  1  0  0  0  0
M  END
$$$$

  -OEChem-05262216003D

 43 42  0     1  0  0  0  0  0999 V2000
   -3.4445   -5.1863    0.9487 C   0  0  0  0  0  0  0  0  0  0  0  0
   -2.5265   -5.9836    1.0625 O   0  0  0  0  0  0  0  0  0  0  0  0
   -4.8374   -5.5554    1.4230 C   0  0  0  0  0  0  0  0  0  0  0  0
   -5.5424   -5.5021    0.5900 H   0  0  0  0  0  0  0  0  0  0  0  0
   -4.8415   -6.5729    1.8234 H   0  0  0  0  0  0  0  0  0  0  0  0
   -5.1587   -4.8666    2.2078 H   0  0  0  0  0  0  0  0  0  0  0  0
   -3.2136   -3.9442    0.3970 N   0  0  0  0  0  0  0  0  0  0  0  0
   -1.8824   -3.4226    0.0626 C   0  0  2  0  0  0  0  0  0  0  0  0
   -1.8165   -1.8868    0.1988 C   0  0  0  0  0  0  0  0  0  0  0  0
   -2.8438   -1.2531    0.4091 O   0  0  0  0  0  0  0  0  0  0  0  0
   -1.5417   -3.8395   -1.3713 C   0  0  0  0  0  0  0  0  0  0  0  0
   -3.9715   -3.2630    0.4413 H   0  0  0  0  0  0  0  0  0  0  0  0
   -1.1412   -3.8454    0.7497 H   0  0  0  0  0  0  0  0  0  0  0  0
   -2.2709   -3.4221   -2.0731 H   0  0  0  0  0  0  0  0  0  0  0  0
   -0.5461   -3.4827   -1.6511 H   0  0  0  0  0  0  0  0  0  0  0  0
   -1.5546   -4.9302   -1.4622 H   0  0  0  0  0  0  0  0  0  0  0  0
   -0.5869   -1.2599    0.3029 N   0  0  0  0  0  0  0  0  0  0  0  0
   -0.2028    0.0750   -0.2188 C   0  0  2  0  0  0  0  0  0  0  0  0
    0.8720    0.7074    0.6767 C   0  0  0  0  0  0  0  0  0  0  0  0
    1.9777    0.9718    0.2249 O   0  0  0  0  0  0  0  0  0  0  0  0
   -1.2935    1.0978   -0.5891 C   0  0  0  0  0  0  0  0  0  0  0  0
   -2.3176    0.5318   -2.0162 S   0  0  0  0  0  0  0  0  0  0  0  0
    0.1823   -1.9244    0.3309 H   0  0  0  0  0  0  0  0  0  0  0  0
    0.3032   -0.1237   -1.1698 H   0  0  0  0  0  0  0  0  0  0  0  0
   -1.9399    1.2643    0.2790 H   0  0  0  0  0  0  0  0  0  0  0  0
   -0.8282    2.0551   -0.8467 H   0  0  0  0  0  0  0  0  0  0  0  0
   -3.3451    1.4061   -1.9495 H   0  0  0  0  0  0  0  0  0  0  0  0
    0.5955    0.9425    2.0085 N   0  0  0  0  0  0  0  0  0  0  0  0
    1.6092    1.2911    3.0121 C   0  0  2  0  0  0  0  0  0  0  0  0
    1.3614    0.5537    4.3452 C   0  0  0  0  0  0  0  0  0  0  0  0
    0.3283   -0.0844    4.5137 O   0  0  0  0  0  0  0  0  0  0  0  0
    1.5823    2.8089    3.2106 C   0  0  0  0  0  0  0  0  0  0  0  0
   -0.2683    0.5270    2.3634 H   0  0  0  0  0  0  0  0  0  0  0  0
    2.6031    0.9936    2.6615 H   0  0  0  0  0  0  0  0  0  0  0  0
    0.6046    3.1294    3.5848 H   0  0  0  0  0  0  0  0  0  0  0  0
    2.3490    3.1171    3.9275 H   0  0  0  0  0  0  0  0  0  0  0  0
    1.7760    3.3170    2.2604 H   0  0  0  0  0  0  0  0  0  0  0  0
    2.3108    0.5801    5.3498 N   0  0  0  0  0  0  0  0  0  0  0  0
    2.1476   -0.1131    6.6220 C   0  0  0  0  0  0  0  0  0  0  0  0
    3.1663    1.1001    5.1776 H   0  0  0  0  0  0  0  0  0  0  0  0
    1.2519    0.2441    7.1411 H   0  0  0  0  0  0  0  0  0  0  0  0
    2.0543   -1.1924    6.4612 H   0  0  0  0  0  0  0  0  0  0  0  0
    3.0141    0.0674    7.2653 H   0  0  0  0  0  0  0  0  0  0  0  0
  1  2  2  0  0  0  0
  1  3  1  0  0  0  0
  1  7  1  0  0  0  0
  3  4  1  0  0  0  0
  3  5  1  0  0  0  0
  3  6  1  0  0  0  0
  7  8  1  0  0  0  0
  7 12  1  0  0  0  0
  8  9  1  0  0  0  0
  8 11  1  0  0  0  0
  8 13  1  0  0  0  0
  9 10  2  0  0  0  0
  9 17  1  0  0  0  0
 11 14  1  0  0  0  0
 11 15  1  0  0  0  0
 11 16  1  0  0  0  0
 17 18  1  0  0  0  0
 17 23  1  0  0  0  0
 18 19  1  0  0  0  0
 18 21  1  0  0  0  0
 18 24  1  0  0  0  0
 19 20  2  0  0  0  0
 19 28  1  0  0  0  0
 21 22  1  0  0  0  0
 21 25  1  0  0  0  0
 21 26  1  0  0  0  0
 22 27  1  0  0  0  0
 28 29  1  0  0  0  0
 28 33  1  0  0  0  0
 29 30  1  0  0  0  0
 29 32  1  0  0  0  0
 29 34  1  0  0  0  0
 30 31  2  0  0  0  0
 30 38  1  0  0  0  0
 32 35  1  0  0  0  0
 32 36  1  0  0  0  0
 32 37  1  0  0  0  0
 38 39  1  0  0  0  0
 38 40  1  0  0  0  0
 39 41  1  0  0  0  0
 39 42  1  0  0  0  0
 39 43  1  0  0  0  0
M  END
$$$$

  -OEChem-05262216003D

 43 42  0     1  0  0  0  0  0999 V2000
   -3.5865   -4.6334    1.4985 C   0  0  0  0  0  0  0  0  0  0  0  0
   -2.9127   -5.1330    2.3856 O   0  0  0  0  0  0  0  0  0  0  0  0
   -5.0495   -5.0069    1.3523 C   0  0  0  0  0  0  0  0  0  0  0  0
   -5.2267   -5.4362    0.3633 H   0  0  0  0  0  0  0  0  0  0  0  0
   -5.3293   -5.7426    2.1114 H   0  0  0  0  0  0  0  0  0  0  0  0
   -5.6749   -4.1192    1.4742 H   0  0  0  0  0  0  0  0  0  0  0  0
   -3.0288   -3.7172    0.6330 N   0  0  0  0  0  0  0  0  0  0  0  0
   -1.6884   -3.1364    0.7897 C   0  0  2  0  0  0  0  0  0  0  0  0
   -1.6195   -1.7060    0.2084 C   0  0  0  0  0  0  0  0  0  0  0  0
   -2.6346   -1.1998   -0.2525 O   0  0  0  0  0  0  0  0  0  0  0  0
   -0.6740   -4.0517    0.0966 C   0  0  0  0  0  0  0  0  0  0  0  0
   -3.6668   -3.2154    0.0156 H   0  0  0  0  0  0  0  0  0  0  0  0
   -1.4387   -3.0676    1.8546 H   0  0  0  0  0  0  0  0  0  0  0  0
   -0.8902   -4.1218   -0.9741 H   0  0  0  0  0  0  0  0  0  0  0  0
    0.3421   -3.6663    0.2237 H   0  0  0  0  0  0  0  0  0  0  0  0
   -0.7152   -5.0570    0.5277 H   0  0  0  0  0  0  0  0  0  0  0  0
   -0.4899   -0.9405    0.4317 N   0  0  0  0  0  0  0  0  0  0  0  0
    0.0209    0.2731   -0.2558 C   0  0  2  0  0  0  0  0  0  0  0  0
    0.7947    1.1184    0.7643 C   0  0  0  0  0  0  0  0  0  0  0  0
    1.9634    1.4242    0.5682 O   0  0  0  0  0  0  0  0  0  0  0  0
   -0.9085    1.1380   -1.1273 C   0  0  0  0  0  0  0  0  0  0  0  0
   -1.5122    0.2488   -2.6267 S   0  0  0  0  0  0  0  0  0  0  0  0
    0.1751   -1.3788    1.0784 H   0  0  0  0  0  0  0  0  0  0  0  0
    0.7771   -0.0931   -0.9582 H   0  0  0  0  0  0  0  0  0  0  0  0
   -1.7693    1.4479   -0.5259 H   0  0  0  0  0  0  0  0  0  0  0  0
   -0.3785    2.0421   -1.4450 H   0  0  0  0  0  0  0  0  0  0  0  0
   -2.5294    1.0516   -3.0051 H   0  0  0  0  0  0  0  0  0  0  0  0
    0.2305    1.3106    2.0117 N   0  0  0  0  0  0  0  0  0  0  0  0
    1.0911    1.2118    3.1986 C   0  0  2  0  0  0  0  0  0  0  0  0
    1.5762   -0.2415    3.4336 C   0  0  0  0  0  0  0  0  0  0  0  0
    0.9846   -1.1886    2.9166 O   0  0  0  0  0  0  0  0  0  0  0  0
    0.2901    1.7123    4.4024 C   0  0  0  0  0  0  0  0  0  0  0  0
   -0.6796    0.8610    2.0952 H   0  0  0  0  0  0  0  0  0  0  0  0
    1.9706    1.8531    3.0738 H   0  0  0  0  0  0  0  0  0  0  0  0
   -0.5927    1.0854    4.5649 H   0  0  0  0  0  0  0  0  0  0  0  0
    0.9046    1.6887    5.3077 H   0  0  0  0  0  0  0  0  0  0  0  0
   -0.0391    2.7428    4.2361 H   0  0  0  0  0  0  0  0  0  0  0  0
    2.6920   -0.4901    4.2102 N   0  0  0  0  0  0  0  0  0  0  0  0
    3.2546   -1.8226    4.3973 C   0  0  0  0  0  0  0  0  0  0  0  0
    3.2129    0.3126    4.5517 H   0  0  0  0  0  0  0  0  0  0  0  0
    2.5147   -2.4937    4.8465 H   0  0  0  0  0  0  0  0  0  0  0  0
    3.5733   -2.2423    3.4372 H   0  0  0  0  0  0  0  0  0  0  0  0
    4.1242   -1.7761    5.0603 H   0  0  0  0  0  0  0  0  0  0  0  0
  1  2  2  0  0  0  0
  1  3  1  0  0  0  0
  1  7  1  0  0  0  0
  3  4  1  0  0  0  0
  3  5  1  0  0  0  0
  3  6  1  0  0  0  0
  7  8  1  0  0  0  0
  7 12  1  0  0  0  0
  8  9  1  0  0  0  0
  8 11  1  0  0  0  0
  8 13  1  0  0  0  0
  9 10  2  0  0  0  0
  9 17  1  0  0  0  0
 11 14  1  0  0  0  0
 11 15  1  0  0  0  0
 11 16  1  0  0  0  0
 17 18  1  0  0  0  0
 17 23  1  0  0  0  0
 18 19  1  0  0  0  0
 18 21  1  0  0  0  0
 18 24  1  0  0  0  0
 19 20  2  0  0  0  0
 19 28  1  0  0  0  0
 21 22  1  0  0  0  0
 21 25  1  0  0  0  0
 21 26  1  0  0  0  0
 22 27  1  0  0  0  0
 28 29  1  0  0  0  0
 28 33  1  0  0  0  0
 29 30  1  0  0  0  0
 29 32  1  0  0  0  0
 29 34  1  0  0  0  0
 30 31  2  0  0  0  0
 30 38  1  0  0  0  0
 32 35  1  0  0  0  0
 32 36  1  0  0  0  0
 32 37  1  0  0  0  0
 38 39  1  0  0  0  0
 38 40  1  0  0  0  0
 39 41  1  0  0  0  0
 39 42  1  0  0  0  0
 39 43  1  0  0  0  0
M  END
$$$$

  -OEChem-05262216003D

 43 42  0     1  0  0  0  0  0999 V2000
   -3.5652   -4.7399    1.4214 C   0  0  0  0  0  0  0  0  0  0  0  0
   -2.8592   -5.2792    2.2589 O   0  0  0  0  0  0  0  0  0  0  0  0
   -5.0359   -5.0987    1.3204 C   0  0  0  0  0  0  0  0  0  0  0  0
   -5.2402   -5.5632    0.3527 H   0  0  0  0  0  0  0  0  0  0  0  0
   -5.3086   -5.8003    2.1138 H   0  0  0  0  0  0  0  0  0  0  0  0
   -5.6479   -4.1988    1.4205 H   0  0  0  0  0  0  0  0  0  0  0  0
   -3.0357   -3.7939    0.5708 N   0  0  0  0  0  0  0  0  0  0  0  0
   -1.6915   -3.2176    0.7081 C   0  0  2  0  0  0  0  0  0  0  0  0
   -1.6601   -1.7440    0.2453 C   0  0  0  0  0  0  0  0  0  0  0  0
   -2.7012   -1.2062   -0.1109 O   0  0  0  0  0  0  0  0  0  0  0  0
   -0.7119   -4.0656   -0.1088 C   0  0  0  0  0  0  0  0  0  0  0  0
   -3.6976   -3.2581    0.0099 H   0  0  0  0  0  0  0  0  0  0  0  0
   -1.3862   -3.2343    1.7605 H   0  0  0  0  0  0  0  0  0  0  0  0
   -0.9770   -4.0407   -1.1706 H   0  0  0  0  0  0  0  0  0  0  0  0
    0.3099   -3.6913    0.0060 H   0  0  0  0  0  0  0  0  0  0  0  0
   -0.7360   -5.1052    0.2331 H   0  0  0  0  0  0  0  0  0  0  0  0
   -0.5267   -0.9862    0.4741 N   0  0  0  0  0  0  0  0  0  0  0  0
   -0.0327    0.2419   -0.2030 C   0  0  2  0  0  0  0  0  0  0  0  0
    0.7581    1.0907    0.8045 C   0  0  0  0  0  0  0  0  0  0  0  0
    1.8203    1.6072    0.4858 O   0  0  0  0  0  0  0  0  0  0  0  0
   -0.9936    1.1091   -1.0375 C   0  0  0  0  0  0  0  0  0  0  0  0
   -1.6222    0.2277   -2.5320 S   0  0  0  0  0  0  0  0  0  0  0  0
    0.1924   -1.4901    1.0056 H   0  0  0  0  0  0  0  0  0  0  0  0
    0.7110   -0.1076   -0.9271 H   0  0  0  0  0  0  0  0  0  0  0  0
   -1.8411    1.4053   -0.4103 H   0  0  0  0  0  0  0  0  0  0  0  0
   -0.4798    2.0214   -1.3583 H   0  0  0  0  0  0  0  0  0  0  0  0
   -2.6387    1.0382   -2.8959 H   0  0  0  0  0  0  0  0  0  0  0  0
    0.3984    1.0218    2.1372 N   0  0  0  0  0  0  0  0  0  0  0  0
    1.4417    0.8493    3.1554 C   0  0  2  0  0  0  0  0  0  0  0  0
    1.9900   -0.5995    3.1634 C   0  0  0  0  0  0  0  0  0  0  0  0
    1.3718   -1.5016    2.5985 O   0  0  0  0  0  0  0  0  0  0  0  0
    0.8268    1.2011    4.5114 C   0  0  0  0  0  0  0  0  0  0  0  0
   -0.4363    0.4546    2.2753 H   0  0  0  0  0  0  0  0  0  0  0  0
    2.2750    1.5336    2.9619 H   0  0  0  0  0  0  0  0  0  0  0  0
   -0.0003    0.5230    4.7459 H   0  0  0  0  0  0  0  0  0  0  0  0
    1.5764    1.1226    5.3048 H   0  0  0  0  0  0  0  0  0  0  0  0
    0.4441    2.2267    4.4982 H   0  0  0  0  0  0  0  0  0  0  0  0
    3.1814   -0.8953    3.7984 N   0  0  0  0  0  0  0  0  0  0  0  0
    3.7771   -2.2262    3.8012 C   0  0  0  0  0  0  0  0  0  0  0  0
    3.7064   -0.1224    4.1978 H   0  0  0  0  0  0  0  0  0  0  0  0
    3.0800   -2.9585    4.2221 H   0  0  0  0  0  0  0  0  0  0  0  0
    4.0367   -2.5312    2.7822 H   0  0  0  0  0  0  0  0  0  0  0  0
    4.6882   -2.2320    4.4072 H   0  0  0  0  0  0  0  0  0  0  0  0
  1  2  2  0  0  0  0
  1  3  1  0  0  0  0
  1  7  1  0  0  0  0
  3  4  1  0  0  0  0
  3  5  1  0  0  0  0
  3  6  1  0  0  0  0
  7  8  1  0  0  0  0
  7 12  1  0  0  0  0
  8  9  1  0  0  0  0
  8 11  1  0  0  0  0
  8 13  1  0  0  0  0
  9 10  2  0  0  0  0
  9 17  1  0  0  0  0
 11 14  1  0  0  0  0
 11 15  1  0  0  0  0
 11 16  1  0  0  0  0
 17 18  1  0  0  0  0
 17 23  1  0  0  0  0
 18 19  1  0  0  0  0
 18 21  1  0  0  0  0
 18 24  1  0  0  0  0
 19 20  2  0  0  0  0
 19 28  1  0  0  0  0
 21 22  1  0  0  0  0
 21 25  1  0  0  0  0
 21 26  1  0  0  0  0
 22 27  1  0  0  0  0
 28 29  1  0  0  0  0
 28 33  1  0  0  0  0
 29 30  1  0  0  0  0
 29 32  1  0  0  0  0
 29 34  1  0  0  0  0
 30 31  2  0  0  0  0
 30 38  1  0  0  0  0
 32 35  1  0  0  0  0
 32 36  1  0  0  0  0
 32 37  1  0  0  0  0
 38 39  1  0  0  0  0
 38 40  1  0  0  0  0
 39 41  1  0  0  0  0
 39 42  1  0  0  0  0
 39 43  1  0  0  0  0
M  END
$$$$

  -OEChem-05262216003D

 43 42  0     1  0  0  0  0  0999 V2000
   -3.5386   -4.8366    1.3570 C   0  0  0  0  0  0  0  0  0  0  0  0
   -2.7993   -5.4134    2.1390 O   0  0  0  0  0  0  0  0  0  0  0  0
   -5.0100   -5.1998    1.2921 C   0  0  0  0  0  0  0  0  0  0  0  0
   -5.2586   -5.5685    0.2940 H   0  0  0  0  0  0  0  0  0  0  0  0
   -5.2388   -5.9794    2.0239 H   0  0  0  0  0  0  0  0  0  0  0  0
   -5.6214   -4.3211    1.5112 H   0  0  0  0  0  0  0  0  0  0  0  0
   -3.0442   -3.8458    0.5363 N   0  0  0  0  0  0  0  0  0  0  0  0
   -1.6943   -3.2773    0.6474 C   0  0  2  0  0  0  0  0  0  0  0  0
   -1.6796   -1.7761    0.2849 C   0  0  0  0  0  0  0  0  0  0  0  0
   -2.7268   -1.2189   -0.0217 O   0  0  0  0  0  0  0  0  0  0  0  0
   -0.7564   -4.0661   -0.2717 C   0  0  0  0  0  0  0  0  0  0  0  0
   -3.7276   -3.2845    0.0285 H   0  0  0  0  0  0  0  0  0  0  0  0
   -1.3388   -3.3643    1.6803 H   0  0  0  0  0  0  0  0  0  0  0  0
   -1.0704   -3.9673   -1.3157 H   0  0  0  0  0  0  0  0  0  0  0  0
    0.2708   -3.7003   -0.1789 H   0  0  0  0  0  0  0  0  0  0  0  0
   -0.7677   -5.1271   -0.0030 H   0  0  0  0  0  0  0  0  0  0  0  0
   -0.5474   -1.0280    0.5498 N   0  0  0  0  0  0  0  0  0  0  0  0
   -0.0428    0.1984   -0.1237 C   0  0  2  0  0  0  0  0  0  0  0  0
    0.7307    1.0725    0.8797 C   0  0  0  0  0  0  0  0  0  0  0  0
    1.6718    1.7558    0.4994 O   0  0  0  0  0  0  0  0  0  0  0  0
   -0.9970    1.0406   -0.9906 C   0  0  0  0  0  0  0  0  0  0  0  0
   -1.5711    0.1246   -2.4868 S   0  0  0  0  0  0  0  0  0  0  0  0
    0.1928   -1.5790    0.9998 H   0  0  0  0  0  0  0  0  0  0  0  0
    0.7180   -0.1537   -0.8279 H   0  0  0  0  0  0  0  0  0  0  0  0
   -1.8644    1.3303   -0.3887 H   0  0  0  0  0  0  0  0  0  0  0  0
   -0.4918    1.9577   -1.3120 H   0  0  0  0  0  0  0  0  0  0  0  0
   -2.5951    0.9108   -2.8832 H   0  0  0  0  0  0  0  0  0  0  0  0
    0.5839    0.8093    2.2292 N   0  0  0  0  0  0  0  0  0  0  0  0
    1.7766    0.5894    3.0558 C   0  0  2  0  0  0  0  0  0  0  0  0
    2.3626   -0.8243    2.8193 C   0  0  0  0  0  0  0  0  0  0  0  0
    1.6775   -1.6969    2.2855 O   0  0  0  0  0  0  0  0  0  0  0  0
    1.3655    0.7645    4.5190 C   0  0  0  0  0  0  0  0  0  0  0  0
   -0.1797    0.1583    2.4038 H   0  0  0  0  0  0  0  0  0  0  0  0
    2.5469    1.3312    2.8175 H   0  0  0  0  0  0  0  0  0  0  0  0
    0.6021    0.0294    4.7944 H   0  0  0  0  0  0  0  0  0  0  0  0
    2.2286    0.6329    5.1786 H   0  0  0  0  0  0  0  0  0  0  0  0
    0.9575    1.7675    4.6792 H   0  0  0  0  0  0  0  0  0  0  0  0
    3.6598   -1.1197    3.1923 N   0  0  0  0  0  0  0  0  0  0  0  0
    4.2867   -2.4141    2.9525 C   0  0  0  0  0  0  0  0  0  0  0  0
    4.2220   -0.3665    3.5788 H   0  0  0  0  0  0  0  0  0  0  0  0
    3.7251   -3.2110    3.4515 H   0  0  0  0  0  0  0  0  0  0  0  0
    4.3255   -2.6286    1.8792 H   0  0  0  0  0  0  0  0  0  0  0  0
    5.3091   -2.4173    3.3424 H   0  0  0  0  0  0  0  0  0  0  0  0
  1  2  2  0  0  0  0
  1  3  1  0  0  0  0
  1  7  1  0  0  0  0
  3  4  1  0  0  0  0
  3  5  1  0  0  0  0
  3  6  1  0  0  0  0
  7  8  1  0  0  0  0
  7 12  1  0  0  0  0
  8  9  1  0  0  0  0
  8 11  1  0  0  0  0
  8 13  1  0  0  0  0
  9 10  2  0  0  0  0
  9 17  1  0  0  0  0
 11 14  1  0  0  0  0
 11 15  1  0  0  0  0
 11 16  1  0  0  0  0
 17 18  1  0  0  0  0
 17 23  1  0  0  0  0
 18 19  1  0  0  0  0
 18 21  1  0  0  0  0
 18 24  1  0  0  0  0
 19 20  2  0  0  0  0
 19 28  1  0  0  0  0
 21 22  1  0  0  0  0
 21 25  1  0  0  0  0
 21 26  1  0  0  0  0
 22 27  1  0  0  0  0
 28 29  1  0  0  0  0
 28 33  1  0  0  0  0
 29 30  1  0  0  0  0
 29 32  1  0  0  0  0
 29 34  1  0  0  0  0
 30 31  2  0  0  0  0
 30 38  1  0  0  0  0
 32 35  1  0  0  0  0
 32 36  1  0  0  0  0
 32 37  1  0  0  0  0
 38 39  1  0  0  0  0
 38 40  1  0  0  0  0
 39 41  1  0  0  0  0
 39 42  1  0  0  0  0
 39 43  1  0  0  0  0
M  END
$$$$

  -OEChem-05262216003D

 43 42  0     1  0  0  0  0  0999 V2000
   -3.4568   -4.9832    1.1511 C   0  0  0  0  0  0  0  0  0  0  0  0
   -2.6840   -5.6250    1.8450 O   0  0  0  0  0  0  0  0  0  0  0  0
   -4.9191   -5.3797    1.0740 C   0  0  0  0  0  0  0  0  0  0  0  0
   -5.1691   -5.6829    0.0542 H   0  0  0  0  0  0  0  0  0  0  0  0
   -5.1197   -6.2148    1.7510 H   0  0  0  0  0  0  0  0  0  0  0  0
   -5.5506   -4.5354    1.3609 H   0  0  0  0  0  0  0  0  0  0  0  0
   -3.0092   -3.8895    0.4422 N   0  0  0  0  0  0  0  0  0  0  0  0
   -1.6717   -3.3010    0.5875 C   0  0  2  0  0  0  0  0  0  0  0  0
   -1.6960   -1.7729    0.3672 C   0  0  0  0  0  0  0  0  0  0  0  0
   -2.7628   -1.2080    0.1545 O   0  0  0  0  0  0  0  0  0  0  0  0
   -0.7297   -3.9755   -0.4147 C   0  0  0  0  0  0  0  0  0  0  0  0
   -3.7181   -3.2950    0.0137 H   0  0  0  0  0  0  0  0  0  0  0  0
   -1.2991   -3.4761    1.6027 H   0  0  0  0  0  0  0  0  0  0  0  0
   -1.0657   -3.7898   -1.4399 H   0  0  0  0  0  0  0  0  0  0  0  0
    0.2892   -3.5913   -0.3051 H   0  0  0  0  0  0  0  0  0  0  0  0
   -0.7076   -5.0566   -0.2449 H   0  0  0  0  0  0  0  0  0  0  0  0
   -0.5621   -1.0299    0.6403 N   0  0  0  0  0  0  0  0  0  0  0  0
   -0.0773    0.2035   -0.0358 C   0  0  2  0  0  0  0  0  0  0  0  0
    0.7026    1.0971    0.9490 C   0  0  0  0  0  0  0  0  0  0  0  0
    1.4730    1.9452    0.5198 O   0  0  0  0  0  0  0  0  0  0  0  0
   -1.0618    1.0267   -0.8887 C   0  0  0  0  0  0  0  0  0  0  0  0
   -1.6388    0.0932   -2.3729 S   0  0  0  0  0  0  0  0  0  0  0  0
    0.2046   -1.6163    0.9894 H   0  0  0  0  0  0  0  0  0  0  0  0
    0.6779   -0.1396   -0.7504 H   0  0  0  0  0  0  0  0  0  0  0  0
   -1.9234    1.3043   -0.2730 H   0  0  0  0  0  0  0  0  0  0  0  0
   -0.5804    1.9517   -1.2232 H   0  0  0  0  0  0  0  0  0  0  0  0
   -2.6927    0.8513   -2.7448 H   0  0  0  0  0  0  0  0  0  0  0  0
    0.8409    0.6680    2.2557 N   0  0  0  0  0  0  0  0  0  0  0  0
    2.1805    0.4385    2.8093 C   0  0  2  0  0  0  0  0  0  0  0  0
    2.6933   -0.9707    2.4261 C   0  0  0  0  0  0  0  0  0  0  0  0
    1.9163   -1.8034    1.9577 O   0  0  0  0  0  0  0  0  0  0  0  0
    2.0901    0.5927    4.3285 C   0  0  0  0  0  0  0  0  0  0  0  0
    0.1697   -0.0652    2.4768 H   0  0  0  0  0  0  0  0  0  0  0  0
    2.8892    1.1805    2.4258 H   0  0  0  0  0  0  0  0  0  0  0  0
    1.3985   -0.1444    4.7493 H   0  0  0  0  0  0  0  0  0  0  0  0
    3.0727    0.4503    4.7885 H   0  0  0  0  0  0  0  0  0  0  0  0
    1.7308    1.5943    4.5852 H   0  0  0  0  0  0  0  0  0  0  0  0
    4.0246   -1.3044    2.5864 N   0  0  0  0  0  0  0  0  0  0  0  0
    4.5772   -2.5992    2.2056 C   0  0  0  0  0  0  0  0  0  0  0  0
    4.6542   -0.5839    2.9291 H   0  0  0  0  0  0  0  0  0  0  0  0
    4.0620   -3.4077    2.7352 H   0  0  0  0  0  0  0  0  0  0  0  0
    4.4706   -2.7596    1.1276 H   0  0  0  0  0  0  0  0  0  0  0  0
    5.6409   -2.6458    2.4583 H   0  0  0  0  0  0  0  0  0  0  0  0
  1  2  2  0  0  0  0
  1  3  1  0  0  0  0
  1  7  1  0  0  0  0
  3  4  1  0  0  0  0
  3  5  1  0  0  0  0
  3  6  1  0  0  0  0
  7  8  1  0  0  0  0
  7 12  1  0  0  0  0
  8  9  1  0  0  0  0
  8 11  1  0  0  0  0
  8 13  1  0  0  0  0
  9 10  2  0  0  0  0
  9 17  1  0  0  0  0
 11 14  1  0  0  0  0
 11 15  1  0  0  0  0
 11 16  1  0  0  0  0
 17 18  1  0  0  0  0
 17 23  1  0  0  0  0
 18 19  1  0  0  0  0
 18 21  1  0  0  0  0
 18 24  1  0  0  0  0
 19 20  2  0  0  0  0
 19 28  1  0  0  0  0
 21 22  1  0  0  0  0
 21 25  1  0  0  0  0
 21 26  1  0  0  0  0
 22 27  1  0  0  0  0
 28 29  1  0  0  0  0
 28 33  1  0  0  0  0
 29 30  1  0  0  0  0
 29 32  1  0  0  0  0
 29 34  1  0  0  0  0
 30 31  2  0  0  0  0
 30 38  1  0  0  0  0
 32 35  1  0  0  0  0
 32 36  1  0  0  0  0
 32 37  1  0  0  0  0
 38 39  1  0  0  0  0
 38 40  1  0  0  0  0
 39 41  1  0  0  0  0
 39 42  1  0  0  0  0
 39 43  1  0  0  0  0
M  END
$$$$

  -OEChem-05262216003D

 43 42  0     1  0  0  0  0  0999 V2000
   -3.6609   -5.2171    0.8316 C   0  0  0  0  0  0  0  0  0  0  0  0
   -2.7810   -6.0636    0.8257 O   0  0  0  0  0  0  0  0  0  0  0  0
   -5.0505   -5.5680    1.3290 C   0  0  0  0  0  0  0  0  0  0  0  0
   -5.7860   -5.3849    0.5417 H   0  0  0  0  0  0  0  0  0  0  0  0
   -5.0932   -6.6235    1.6125 H   0  0  0  0  0  0  0  0  0  0  0  0
   -5.3001   -4.9586    2.2011 H   0  0  0  0  0  0  0  0  0  0  0  0
   -3.3891   -3.9390    0.3928 N   0  0  0  0  0  0  0  0  0  0  0  0
   -2.0493   -3.4532    0.0390 C   0  0  2  0  0  0  0  0  0  0  0  0
   -1.8916   -1.9455    0.3292 C   0  0  0  0  0  0  0  0  0  0  0  0
   -2.8647   -1.2921    0.6874 O   0  0  0  0  0  0  0  0  0  0  0  0
   -1.8071   -3.7338   -1.4476 C   0  0  0  0  0  0  0  0  0  0  0  0
   -4.1065   -3.2293    0.5410 H   0  0  0  0  0  0  0  0  0  0  0  0
   -1.2978   -3.9824    0.6350 H   0  0  0  0  0  0  0  0  0  0  0  0
   -2.5460   -3.2077   -2.0610 H   0  0  0  0  0  0  0  0  0  0  0  0
   -0.8082   -3.4019   -1.7458 H   0  0  0  0  0  0  0  0  0  0  0  0
   -1.8873   -4.8067   -1.6495 H   0  0  0  0  0  0  0  0  0  0  0  0
   -0.6279   -1.3809    0.3859 N   0  0  0  0  0  0  0  0  0  0  0  0
   -0.2279   -0.0556   -0.1648 C   0  0  2  0  0  0  0  0  0  0  0  0
    0.9149    0.5873    0.6549 C   0  0  0  0  0  0  0  0  0  0  0  0
    1.2915    1.7292    0.4262 O   0  0  0  0  0  0  0  0  0  0  0  0
   -1.3414    0.9552   -0.5196 C   0  0  0  0  0  0  0  0  0  0  0  0
   -2.3935    0.3444   -1.9093 S   0  0  0  0  0  0  0  0  0  0  0  0
    0.0887   -2.0926    0.2678 H   0  0  0  0  0  0  0  0  0  0  0  0
    0.2391   -0.2768   -1.1293 H   0  0  0  0  0  0  0  0  0  0  0  0
   -1.9598    1.1402    0.3644 H   0  0  0  0  0  0  0  0  0  0  0  0
   -0.9025    1.9125   -0.8199 H   0  0  0  0  0  0  0  0  0  0  0  0
   -3.3978    1.2469   -1.8704 H   0  0  0  0  0  0  0  0  0  0  0  0
    1.6416   -0.1774    1.5472 N   0  0  0  0  0  0  0  0  0  0  0  0
    2.9388    0.1881    2.1267 C   0  0  2  0  0  0  0  0  0  0  0  0
    3.8444   -1.0558    2.2613 C   0  0  0  0  0  0  0  0  0  0  0  0
    3.3804   -2.1740    2.0577 O   0  0  0  0  0  0  0  0  0  0  0  0
    2.6879    0.8360    3.4910 C   0  0  0  0  0  0  0  0  0  0  0  0
    1.3446   -1.1423    1.6769 H   0  0  0  0  0  0  0  0  0  0  0  0
    3.4541    0.9027    1.4757 H   0  0  0  0  0  0  0  0  0  0  0  0
    2.1884    0.1312    4.1636 H   0  0  0  0  0  0  0  0  0  0  0  0
    3.6311    1.1474    3.9495 H   0  0  0  0  0  0  0  0  0  0  0  0
    2.0517    1.7197    3.3776 H   0  0  0  0  0  0  0  0  0  0  0  0
    5.1816   -0.9275    2.5893 N   0  0  0  0  0  0  0  0  0  0  0  0
    6.0868   -2.0640    2.7164 C   0  0  0  0  0  0  0  0  0  0  0  0
    5.5437    0.0098    2.7396 H   0  0  0  0  0  0  0  0  0  0  0  0
    5.7335   -2.7511    3.4926 H   0  0  0  0  0  0  0  0  0  0  0  0
    6.1545   -2.6082    1.7684 H   0  0  0  0  0  0  0  0  0  0  0  0
    7.0893   -1.7210    2.9897 H   0  0  0  0  0  0  0  0  0  0  0  0
  1  2  2  0  0  0  0
  1  3  1  0  0  0  0
  1  7  1  0  0  0  0
  3  4  1  0  0  0  0
  3  5  1  0  0  0  0
  3  6  1  0  0  0  0
  7  8  1  0  0  0  0
  7 12  1  0  0  0  0
  8  9  1  0  0  0  0
  8 11  1  0  0  0  0
  8 13  1  0  0  0  0
  9 10  2  0  0  0  0
  9 17  1  0  0  0  0
 11 14  1  0  0  0  0
 11 15  1  0  0  0  0
 11 16  1  0  0  0  0
 17 18  1  0  0  0  0
 17 23  1  0  0  0  0
 18 19  1  0  0  0  0
 18 21  1  0  0  0  0
 18 24  1  0  0  0  0
 19 20  2  0  0  0  0
 19 28  1  0  0  0  0
 21 22  1  0  0  0  0
 21 25  1  0  0  0  0
 21 26  1  0  0  0  0
 22 27  1  0  0  0  0
 28 29  1  0  0  0  0
 28 33  1  0  0  0  0
 29 30  1  0  0  0  0
 29 32  1  0  0  0  0
 29 34  1  0  0  0  0
 30 31  2  0  0  0  0
 30 38  1  0  0  0  0
 32 35  1  0  0  0  0
 32 36  1  0  0  0  0
 32 37  1  0  0  0  0
 38 39  1  0  0  0  0
 38 40  1  0  0  0  0
 39 41  1  0  0  0  0
 39 42  1  0  0  0  0
 39 43  1  0  0  0  0
M  END
$$$$

  -OEChem-05262216003D

 43 42  0     1  0  0  0  0  0999 V2000
   -3.6372   -5.2002    0.8880 C   0  0  0  0  0  0  0  0  0  0  0  0
   -2.7599   -6.0495    0.8933 O   0  0  0  0  0  0  0  0  0  0  0  0
   -5.0155   -5.5229    1.4342 C   0  0  0  0  0  0  0  0  0  0  0  0
   -5.7667   -5.3915    0.6515 H   0  0  0  0  0  0  0  0  0  0  0  0
   -5.0490   -6.5582    1.7849 H   0  0  0  0  0  0  0  0  0  0  0  0
   -5.2510   -4.8598    2.2705 H   0  0  0  0  0  0  0  0  0  0  0  0
   -3.3728   -3.9392    0.3983 N   0  0  0  0  0  0  0  0  0  0  0  0
   -2.0356   -3.4609    0.0258 C   0  0  2  0  0  0  0  0  0  0  0  0
   -1.8744   -1.9514    0.3076 C   0  0  0  0  0  0  0  0  0  0  0  0
   -2.8399   -1.3063    0.6998 O   0  0  0  0  0  0  0  0  0  0  0  0
   -1.8141   -3.7527   -1.4616 C   0  0  0  0  0  0  0  0  0  0  0  0
   -4.0823   -3.2222    0.5508 H   0  0  0  0  0  0  0  0  0  0  0  0
   -1.2784   -3.9887    0.6159 H   0  0  0  0  0  0  0  0  0  0  0  0
   -2.5480   -3.2136   -2.0695 H   0  0  0  0  0  0  0  0  0  0  0  0
   -0.8114   -3.4442   -1.7717 H   0  0  0  0  0  0  0  0  0  0  0  0
   -1.9199   -4.8245   -1.6574 H   0  0  0  0  0  0  0  0  0  0  0  0
   -0.6114   -1.3812    0.3140 N   0  0  0  0  0  0  0  0  0  0  0  0
   -0.2402   -0.0334   -0.2014 C   0  0  2  0  0  0  0  0  0  0  0  0
    0.9489    0.5741    0.5819 C   0  0  0  0  0  0  0  0  0  0  0  0
    1.1348    1.7832    0.6289 O   0  0  0  0  0  0  0  0  0  0  0  0
   -1.3731    0.9842   -0.4687 C   0  0  0  0  0  0  0  0  0  0  0  0
   -2.4809    0.4207   -1.8351 S   0  0  0  0  0  0  0  0  0  0  0  0
    0.1023   -2.0862    0.1574 H   0  0  0  0  0  0  0  0  0  0  0  0
    0.1775   -0.2157   -1.1960 H   0  0  0  0  0  0  0  0  0  0  0  0
   -1.9529    1.1311    0.4483 H   0  0  0  0  0  0  0  0  0  0  0  0
   -0.9535    1.9555   -0.7505 H   0  0  0  0  0  0  0  0  0  0  0  0
   -3.5149    1.2753   -1.6771 H   0  0  0  0  0  0  0  0  0  0  0  0
    1.9045   -0.2504    1.1461 N   0  0  0  0  0  0  0  0  0  0  0  0
    3.1771    0.1927    1.7274 C   0  0  2  0  0  0  0  0  0  0  0  0
    4.2501   -0.9086    1.5913 C   0  0  0  0  0  0  0  0  0  0  0  0
    3.9257   -2.0335    1.2223 O   0  0  0  0  0  0  0  0  0  0  0  0
    2.9441    0.5457    3.1997 C   0  0  0  0  0  0  0  0  0  0  0  0
    1.7916   -1.2545    1.0298 H   0  0  0  0  0  0  0  0  0  0  0  0
    3.5417    1.0777    1.1953 H   0  0  0  0  0  0  0  0  0  0  0  0
    2.5851   -0.3296    3.7505 H   0  0  0  0  0  0  0  0  0  0  0  0
    3.8709    0.8943    3.6648 H   0  0  0  0  0  0  0  0  0  0  0  0
    2.1970    1.3411    3.2852 H   0  0  0  0  0  0  0  0  0  0  0  0
    5.5790   -0.6397    1.8617 N   0  0  0  0  0  0  0  0  0  0  0  0
    6.6380   -1.6340    1.7348 C   0  0  0  0  0  0  0  0  0  0  0  0
    5.8214    0.3040    2.1496 H   0  0  0  0  0  0  0  0  0  0  0  0
    6.4338   -2.4962    2.3785 H   0  0  0  0  0  0  0  0  0  0  0  0
    6.7178   -1.9791    0.6986 H   0  0  0  0  0  0  0  0  0  0  0  0
    7.5996   -1.2036    2.0305 H   0  0  0  0  0  0  0  0  0  0  0  0
  1  2  2  0  0  0  0
  1  3  1  0  0  0  0
  1  7  1  0  0  0  0
  3  4  1  0  0  0  0
  3  5  1  0  0  0  0
  3  6  1  0  0  0  0
  7  8  1  0  0  0  0
  7 12  1  0  0  0  0
  8  9  1  0  0  0  0
  8 11  1  0  0  0  0
  8 13  1  0  0  0  0
  9 10  2  0  0  0  0
  9 17  1  0  0  0  0
 11 14  1  0  0  0  0
 11 15  1  0  0  0  0
 11 16  1  0  0  0  0
 17 18  1  0  0  0  0
 17 23  1  0  0  0  0
 18 19  1  0  0  0  0
 18 21  1  0  0  0  0
 18 24  1  0  0  0  0
 19 20  2  0  0  0  0
 19 28  1  0  0  0  0
 21 22  1  0  0  0  0
 21 25  1  0  0  0  0
 21 26  1  0  0  0  0
 22 27  1  0  0  0  0
 28 29  1  0  0  0  0
 28 33  1  0  0  0  0
 29 30  1  0  0  0  0
 29 32  1  0  0  0  0
 29 34  1  0  0  0  0
 30 31  2  0  0  0  0
 30 38  1  0  0  0  0
 32 35  1  0  0  0  0
 32 36  1  0  0  0  0
 32 37  1  0  0  0  0
 38 39  1  0  0  0  0
 38 40  1  0  0  0  0
 39 41  1  0  0  0  0
 39 42  1  0  0  0  0
 39 43  1  0  0  0  0
M  END
$$$$

  -OEChem-05262216003D

 43 42  0     1  0  0  0  0  0999 V2000
   -3.5512   -5.1713    1.0109 C   0  0  0  0  0  0  0  0  0  0  0  0
   -2.6478   -5.9861    1.1159 O   0  0  0  0  0  0  0  0  0  0  0  0
   -4.9402   -5.5021    1.5243 C   0  0  0  0  0  0  0  0  0  0  0  0
   -5.6642   -5.4426    0.7080 H   0  0  0  0  0  0  0  0  0  0  0  0
   -4.9585   -6.5144    1.9376 H   0  0  0  0  0  0  0  0  0  0  0  0
   -5.2261   -4.7964    2.3082 H   0  0  0  0  0  0  0  0  0  0  0  0
   -3.3063   -3.9421    0.4374 N   0  0  0  0  0  0  0  0  0  0  0  0
   -1.9704   -3.4475    0.0796 C   0  0  2  0  0  0  0  0  0  0  0  0
   -1.8690   -1.9134    0.2293 C   0  0  0  0  0  0  0  0  0  0  0  0
   -2.8690   -1.2782    0.5407 O   0  0  0  0  0  0  0  0  0  0  0  0
   -1.6684   -3.8661   -1.3627 C   0  0  0  0  0  0  0  0  0  0  0  0
   -4.0435   -3.2407    0.5091 H   0  0  0  0  0  0  0  0  0  0  0  0
   -1.2247   -3.8912    0.7480 H   0  0  0  0  0  0  0  0  0  0  0  0
   -2.3955   -3.4214   -2.0499 H   0  0  0  0  0  0  0  0  0  0  0  0
   -0.6663   -3.5417   -1.6582 H   0  0  0  0  0  0  0  0  0  0  0  0
   -1.7193   -4.9553   -1.4592 H   0  0  0  0  0  0  0  0  0  0  0  0
   -0.6217   -1.3078    0.2148 N   0  0  0  0  0  0  0  0  0  0  0  0
   -0.2659    0.0579   -0.2620 C   0  0  2  0  0  0  0  0  0  0  0  0
    0.9370    0.6304    0.5237 C   0  0  0  0  0  0  0  0  0  0  0  0
    0.9649    1.7925    0.9079 O   0  0  0  0  0  0  0  0  0  0  0  0
   -1.3954    1.0892   -0.4798 C   0  0  0  0  0  0  0  0  0  0  0  0
   -2.5293    0.5844   -1.8469 S   0  0  0  0  0  0  0  0  0  0  0  0
    0.1268   -1.9894    0.1404 H   0  0  0  0  0  0  0  0  0  0  0  0
    0.1309   -0.0905   -1.2708 H   0  0  0  0  0  0  0  0  0  0  0  0
   -1.9609    1.2042    0.4507 H   0  0  0  0  0  0  0  0  0  0  0  0
   -0.9706    2.0668   -0.7300 H   0  0  0  0  0  0  0  0  0  0  0  0
   -3.5770    1.4027   -1.6075 H   0  0  0  0  0  0  0  0  0  0  0  0
    2.0433   -0.1642    0.7640 N   0  0  0  0  0  0  0  0  0  0  0  0
    3.2999    0.3025    1.3617 C   0  0  2  0  0  0  0  0  0  0  0  0
    4.4839   -0.5618    0.8776 C   0  0  0  0  0  0  0  0  0  0  0  0
    4.2699   -1.5651    0.2035 O   0  0  0  0  0  0  0  0  0  0  0  0
    3.1698    0.2406    2.8873 C   0  0  0  0  0  0  0  0  0  0  0  0
    2.0876   -1.0669    0.2953 H   0  0  0  0  0  0  0  0  0  0  0  0
    3.4970    1.3355    1.0550 H   0  0  0  0  0  0  0  0  0  0  0  0
    2.9845   -0.7877    3.2134 H   0  0  0  0  0  0  0  0  0  0  0  0
    4.0849    0.5994    3.3677 H   0  0  0  0  0  0  0  0  0  0  0  0
    2.3378    0.8675    3.2239 H   0  0  0  0  0  0  0  0  0  0  0  0
    5.7864   -0.2111    1.1791 N   0  0  0  0  0  0  0  0  0  0  0  0
    6.9447   -0.9803    0.7401 C   0  0  0  0  0  0  0  0  0  0  0  0
    5.9335    0.6315    1.7273 H   0  0  0  0  0  0  0  0  0  0  0  0
    6.8655   -2.0202    1.0747 H   0  0  0  0  0  0  0  0  0  0  0  0
    7.0217   -0.9668   -0.3523 H   0  0  0  0  0  0  0  0  0  0  0  0
    7.8617   -0.5540    1.1581 H   0  0  0  0  0  0  0  0  0  0  0  0
  1  2  2  0  0  0  0
  1  3  1  0  0  0  0
  1  7  1  0  0  0  0
  3  4  1  0  0  0  0
  3  5  1  0  0  0  0
  3  6  1  0  0  0  0
  7  8  1  0  0  0  0
  7 12  1  0  0  0  0
  8  9  1  0  0  0  0
  8 11  1  0  0  0  0
  8 13  1  0  0  0  0
  9 10  2  0  0  0  0
  9 17  1  0  0  0  0
 11 14  1  0  0  0  0
 11 15  1  0  0  0  0
 11 16  1  0  0  0  0
 17 18  1  0  0  0  0
 17 23  1  0  0  0  0
 18 19  1  0  0  0  0
 18 21  1  0  0  0  0
 18 24  1  0  0  0  0
 19 20  2  0  0  0  0
 19 28  1  0  0  0  0
 21 22  1  0  0  0  0
 21 25  1  0  0  0  0
 21 26  1  0  0  0  0
 22 27  1  0  0  0  0
 28 29  1  0  0  0  0
 28 33  1  0  0  0  0
 29 30  1  0  0  0  0
 29 32  1  0  0  0  0
 29 34  1  0  0  0  0
 30 31  2  0  0  0  0
 30 38  1  0  0  0  0
 32 35  1  0  0  0  0
 32 36  1  0  0  0  0
 32 37  1  0  0  0  0
 38 39  1  0  0  0  0
 38 40  1  0  0  0  0
 39 41  1  0  0  0  0
 39 42  1  0  0  0  0
 39 43  1  0  0  0  0
M  END
$$$$

  -OEChem-05262216003D

 43 42  0     1  0  0  0  0  0999 V2000
   -3.4816   -5.1607    1.0607 C   0  0  0  0  0  0  0  0  0  0  0  0
   -2.5633   -5.9541    1.1979 O   0  0  0  0  0  0  0  0  0  0  0  0
   -4.8724   -5.5102    1.5559 C   0  0  0  0  0  0  0  0  0  0  0  0
   -5.5828   -5.4771    0.7263 H   0  0  0  0  0  0  0  0  0  0  0  0
   -4.8780   -6.5161    1.9848 H   0  0  0  0  0  0  0  0  0  0  0  0
   -5.1855   -4.7979    2.3232 H   0  0  0  0  0  0  0  0  0  0  0  0
   -3.2530   -3.9394    0.4638 N   0  0  0  0  0  0  0  0  0  0  0  0
   -1.9226   -3.4275    0.1103 C   0  0  2  0  0  0  0  0  0  0  0  0
   -1.8567   -1.8871    0.2016 C   0  0  0  0  0  0  0  0  0  0  0  0
   -2.8770   -1.2630    0.4645 O   0  0  0  0  0  0  0  0  0  0  0  0
   -1.5867   -3.8947   -1.3097 C   0  0  0  0  0  0  0  0  0  0  0  0
   -4.0074   -3.2536    0.4998 H   0  0  0  0  0  0  0  0  0  0  0  0
   -1.1793   -3.8275    0.8084 H   0  0  0  0  0  0  0  0  0  0  0  0
   -2.3120   -3.4929   -2.0251 H   0  0  0  0  0  0  0  0  0  0  0  0
   -0.5867   -3.5600   -1.6014 H   0  0  0  0  0  0  0  0  0  0  0  0
   -1.6121   -4.9879   -1.3636 H   0  0  0  0  0  0  0  0  0  0  0  0
   -0.6201   -1.2601    0.1818 N   0  0  0  0  0  0  0  0  0  0  0  0
   -0.2745    0.1067   -0.2931 C   0  0  2  0  0  0  0  0  0  0  0  0
    0.9229    0.6754    0.4981 C   0  0  0  0  0  0  0  0  0  0  0  0
    0.8466    1.7253    1.1230 O   0  0  0  0  0  0  0  0  0  0  0  0
   -1.4019    1.1390   -0.5051 C   0  0  0  0  0  0  0  0  0  0  0  0
   -2.5421    0.6412   -1.8695 S   0  0  0  0  0  0  0  0  0  0  0  0
    0.1487   -1.9231    0.1644 H   0  0  0  0  0  0  0  0  0  0  0  0
    0.1189   -0.0365   -1.3039 H   0  0  0  0  0  0  0  0  0  0  0  0
   -1.9655    1.2478    0.4273 H   0  0  0  0  0  0  0  0  0  0  0  0
   -0.9733    2.1171   -0.7473 H   0  0  0  0  0  0  0  0  0  0  0  0
   -3.6036    1.4317   -1.5998 H   0  0  0  0  0  0  0  0  0  0  0  0
    2.1337    0.0074    0.4690 N   0  0  0  0  0  0  0  0  0  0  0  0
    3.3828    0.5079    1.0568 C   0  0  2  0  0  0  0  0  0  0  0  0
    4.6066   -0.0717    0.3143 C   0  0  0  0  0  0  0  0  0  0  0  0
    4.4462   -0.9501   -0.5277 O   0  0  0  0  0  0  0  0  0  0  0  0
    3.4151    0.1222    2.5396 C   0  0  0  0  0  0  0  0  0  0  0  0
    2.2343   -0.7581   -0.1964 H   0  0  0  0  0  0  0  0  0  0  0  0
    3.4253    1.5985    0.9641 H   0  0  0  0  0  0  0  0  0  0  0  0
    3.3863   -0.9665    2.6525 H   0  0  0  0  0  0  0  0  0  0  0  0
    4.3250    0.4989    3.0162 H   0  0  0  0  0  0  0  0  0  0  0  0
    2.5528    0.5493    3.0620 H   0  0  0  0  0  0  0  0  0  0  0  0
    5.8822    0.3966    0.5708 N   0  0  0  0  0  0  0  0  0  0  0  0
    7.0706   -0.1057   -0.1094 C   0  0  0  0  0  0  0  0  0  0  0  0
    5.9865    1.1309    1.2653 H   0  0  0  0  0  0  0  0  0  0  0  0
    7.1660   -1.1875    0.0326 H   0  0  0  0  0  0  0  0  0  0  0  0
    7.0159    0.1050   -1.1827 H   0  0  0  0  0  0  0  0  0  0  0  0
    7.9686    0.3742    0.2918 H   0  0  0  0  0  0  0  0  0  0  0  0
  1  2  2  0  0  0  0
  1  3  1  0  0  0  0
  1  7  1  0  0  0  0
  3  4  1  0  0  0  0
  3  5  1  0  0  0  0
  3  6  1  0  0  0  0
  7  8  1  0  0  0  0
  7 12  1  0  0  0  0
  8  9  1  0  0  0  0
  8 11  1  0  0  0  0
  8 13  1  0  0  0  0
  9 10  2  0  0  0  0
  9 17  1  0  0  0  0
 11 14  1  0  0  0  0
 11 15  1  0  0  0  0
 11 16  1  0  0  0  0
 17 18  1  0  0  0  0
 17 23  1  0  0  0  0
 18 19  1  0  0  0  0
 18 21  1  0  0  0  0
 18 24  1  0  0  0  0
 19 20  2  0  0  0  0
 19 28  1  0  0  0  0
 21 22  1  0  0  0  0
 21 25  1  0  0  0  0
 21 26  1  0  0  0  0
 22 27  1  0  0  0  0
 28 29  1  0  0  0  0
 28 33  1  0  0  0  0
 29 30  1  0  0  0  0
 29 32  1  0  0  0  0
 29 34  1  0  0  0  0
 30 31  2  0  0  0  0
 30 38  1  0  0  0  0
 32 35  1  0  0  0  0
 32 36  1  0  0  0  0
 32 37  1  0  0  0  0
 38 39  1  0  0  0  0
 38 40  1  0  0  0  0
 39 41  1  0  0  0  0
 39 42  1  0  0  0  0
 39 43  1  0  0  0  0
M  END
$$$$

  -OEChem-05262216003D

 43 42  0     1  0  0  0  0  0999 V2000
   -3.3993   -5.0022    1.2105 C   0  0  0  0  0  0  0  0  0  0  0  0
   -2.4522   -5.6862    1.5658 O   0  0  0  0  0  0  0  0  0  0  0  0
   -4.8092   -5.3706    1.6324 C   0  0  0  0  0  0  0  0  0  0  0  0
   -5.4293   -5.5450    0.7498 H   0  0  0  0  0  0  0  0  0  0  0  0
   -4.7954   -6.2804    2.2390 H   0  0  0  0  0  0  0  0  0  0  0  0
   -5.2465   -4.5610    2.2219 H   0  0  0  0  0  0  0  0  0  0  0  0
   -3.1859   -3.8836    0.4335 N   0  0  0  0  0  0  0  0  0  0  0  0
   -1.8599   -3.3449    0.1034 C   0  0  2  0  0  0  0  0  0  0  0  0
   -1.8886   -1.8117   -0.0850 C   0  0  0  0  0  0  0  0  0  0  0  0
   -2.9715   -1.2512   -0.1599 O   0  0  0  0  0  0  0  0  0  0  0  0
   -1.3616   -4.0316   -1.1727 C   0  0  0  0  0  0  0  0  0  0  0  0
   -3.9837   -3.2710    0.2653 H   0  0  0  0  0  0  0  0  0  0  0  0
   -1.1658   -3.5599    0.9232 H   0  0  0  0  0  0  0  0  0  0  0  0
   -2.0396   -3.8265   -2.0075 H   0  0  0  0  0  0  0  0  0  0  0  0
   -0.3624   -3.6743   -1.4388 H   0  0  0  0  0  0  0  0  0  0  0  0
   -1.3102   -5.1152   -1.0247 H   0  0  0  0  0  0  0  0  0  0  0  0
   -0.6875   -1.1204   -0.0757 N   0  0  0  0  0  0  0  0  0  0  0  0
   -0.3380    0.2868   -0.4108 C   0  0  2  0  0  0  0  0  0  0  0  0
    0.8707    0.7228    0.4424 C   0  0  0  0  0  0  0  0  0  0  0  0
    0.7437    1.4569    1.4130 O   0  0  0  0  0  0  0  0  0  0  0  0
   -1.4105    1.4024   -0.4389 C   0  0  0  0  0  0  0  0  0  0  0  0
   -2.6881    1.2020   -1.7515 S   0  0  0  0  0  0  0  0  0  0  0  0
    0.1085   -1.7209    0.1222 H   0  0  0  0  0  0  0  0  0  0  0  0
    0.0266    0.2581   -1.4418 H   0  0  0  0  0  0  0  0  0  0  0  0
   -1.9071    1.4401    0.5365 H   0  0  0  0  0  0  0  0  0  0  0  0
   -0.9185    2.3687   -0.5933 H   0  0  0  0  0  0  0  0  0  0  0  0
   -3.3140    0.0933   -1.2890 H   0  0  0  0  0  0  0  0  0  0  0  0
    2.1318    0.2558    0.1218 N   0  0  0  0  0  0  0  0  0  0  0  0
    3.3716    0.6817    0.7847 C   0  0  2  0  0  0  0  0  0  0  0  0
    4.5812    0.5439   -0.1643 C   0  0  0  0  0  0  0  0  0  0  0  0
    4.4565   -0.0606   -1.2245 O   0  0  0  0  0  0  0  0  0  0  0  0
    3.5746   -0.1690    2.0431 C   0  0  0  0  0  0  0  0  0  0  0  0
    2.2461   -0.2268   -0.7702 H   0  0  0  0  0  0  0  0  0  0  0  0
    3.2951    1.7368    1.0687 H   0  0  0  0  0  0  0  0  0  0  0  0
    3.6649   -1.2274    1.7794 H   0  0  0  0  0  0  0  0  0  0  0  0
    4.4819    0.1373    2.5722 H   0  0  0  0  0  0  0  0  0  0  0  0
    2.7255   -0.0507    2.7238 H   0  0  0  0  0  0  0  0  0  0  0  0
    5.8015    1.1071    0.1595 N   0  0  0  0  0  0  0  0  0  0  0  0
    6.9778    1.0172   -0.6975 C   0  0  0  0  0  0  0  0  0  0  0  0
    5.8712    1.6097    1.0398 H   0  0  0  0  0  0  0  0  0  0  0  0
    7.2651   -0.0290   -0.8458 H   0  0  0  0  0  0  0  0  0  0  0  0
    6.7766    1.4691   -1.6745 H   0  0  0  0  0  0  0  0  0  0  0  0
    7.8206    1.5449   -0.2408 H   0  0  0  0  0  0  0  0  0  0  0  0
  1  2  2  0  0  0  0
  1  3  1  0  0  0  0
  1  7  1  0  0  0  0
  3  4  1  0  0  0  0
  3  5  1  0  0  0  0
  3  6  1  0  0  0  0
  7  8  1  0  0  0  0
  7 12  1  0  0  0  0
  8  9  1  0  0  0  0
  8 11  1  0  0  0  0
  8 13  1  0  0  0  0
  9 10  2  0  0  0  0
  9 17  1  0  0  0  0
 11 14  1  0  0  0  0
 11 15  1  0  0  0  0
 11 16  1  0  0  0  0
 17 18  1  0  0  0  0
 17 23  1  0  0  0  0
 18 19  1  0  0  0  0
 18 21  1  0  0  0  0
 18 24  1  0  0  0  0
 19 20  2  0  0  0  0
 19 28  1  0  0  0  0
 21 22  1  0  0  0  0
 21 25  1  0  0  0  0
 21 26  1  0  0  0  0
 22 27  1  0  0  0  0
 28 29  1  0  0  0  0
 28 33  1  0  0  0  0
 29 30  1  0  0  0  0
 29 32  1  0  0  0  0
 29 34  1  0  0  0  0
 30 31  2  0  0  0  0
 30 38  1  0  0  0  0
 32 35  1  0  0  0  0
 32 36  1  0  0  0  0
 32 37  1  0  0  0  0
 38 39  1  0  0  0  0
 38 40  1  0  0  0  0
 39 41  1  0  0  0  0
 39 42  1  0  0  0  0
 39 43  1  0  0  0  0
M  END
$$$$

  -OEChem-05262216003D

 43 42  0     1  0  0  0  0  0999 V2000
   -3.3962   -4.9807    1.2499 C   0  0  0  0  0  0  0  0  0  0  0  0
   -2.4515   -5.6372    1.6592 O   0  0  0  0  0  0  0  0  0  0  0  0
   -4.8127   -5.3540    1.6444 C   0  0  0  0  0  0  0  0  0  0  0  0
   -5.4212   -5.5082    0.7500 H   0  0  0  0  0  0  0  0  0  0  0  0
   -4.8096   -6.2767    2.2315 H   0  0  0  0  0  0  0  0  0  0  0  0
   -5.2557   -4.5554    2.2446 H   0  0  0  0  0  0  0  0  0  0  0  0
   -3.1743   -3.8924    0.4332 N   0  0  0  0  0  0  0  0  0  0  0  0
   -1.8455   -3.3507    0.1192 C   0  0  2  0  0  0  0  0  0  0  0  0
   -1.8866   -1.8263   -0.1297 C   0  0  0  0  0  0  0  0  0  0  0  0
   -2.9741   -1.2843   -0.2541 O   0  0  0  0  0  0  0  0  0  0  0  0
   -1.3050   -4.0816   -1.1146 C   0  0  0  0  0  0  0  0  0  0  0  0
   -3.9739   -3.2970    0.2180 H   0  0  0  0  0  0  0  0  0  0  0  0
   -1.1725   -3.5248    0.9660 H   0  0  0  0  0  0  0  0  0  0  0  0
   -1.9576   -3.9102   -1.9769 H   0  0  0  0  0  0  0  0  0  0  0  0
   -0.2993   -3.7299   -1.3631 H   0  0  0  0  0  0  0  0  0  0  0  0
   -1.2539   -5.1587   -0.9254 H   0  0  0  0  0  0  0  0  0  0  0  0
   -0.6921   -1.1237   -0.1276 N   0  0  0  0  0  0  0  0  0  0  0  0
   -0.3508    0.2876   -0.4529 C   0  0  2  0  0  0  0  0  0  0  0  0
    0.8637    0.7250    0.3898 C   0  0  0  0  0  0  0  0  0  0  0  0
    0.7224    1.1976    1.5093 O   0  0  0  0  0  0  0  0  0  0  0  0
   -1.4152    1.4105   -0.4393 C   0  0  0  0  0  0  0  0  0  0  0  0
   -2.7333    1.2484   -1.7156 S   0  0  0  0  0  0  0  0  0  0  0  0
    0.1056   -1.7089    0.1063 H   0  0  0  0  0  0  0  0  0  0  0  0
   -0.0073    0.2691   -1.4915 H   0  0  0  0  0  0  0  0  0  0  0  0
   -1.8857    1.4356    0.5495 H   0  0  0  0  0  0  0  0  0  0  0  0
   -0.9185    2.3747   -0.5895 H   0  0  0  0  0  0  0  0  0  0  0  0
   -3.3414    0.1198   -1.2793 H   0  0  0  0  0  0  0  0  0  0  0  0
    2.1428    0.5421   -0.1002 N   0  0  0  0  0  0  0  0  0  0  0  0
    3.3659    1.0095    0.5652 C   0  0  2  0  0  0  0  0  0  0  0  0
    4.4896    1.2661   -0.4616 C   0  0  0  0  0  0  0  0  0  0  0  0
    4.3589    0.8735   -1.6164 O   0  0  0  0  0  0  0  0  0  0  0  0
    3.8025   -0.0440    1.5892 C   0  0  0  0  0  0  0  0  0  0  0  0
    2.2423    0.2682   -1.0785 H   0  0  0  0  0  0  0  0  0  0  0  0
    3.1672    1.9554    1.0802 H   0  0  0  0  0  0  0  0  0  0  0  0
    4.0072   -0.9978    1.0924 H   0  0  0  0  0  0  0  0  0  0  0  0
    4.7084    0.2785    2.1114 H   0  0  0  0  0  0  0  0  0  0  0  0
    3.0157   -0.2007    2.3343 H   0  0  0  0  0  0  0  0  0  0  0  0
    5.6390    1.9445   -0.1005 N   0  0  0  0  0  0  0  0  0  0  0  0
    6.7322    2.2145   -1.0274 C   0  0  0  0  0  0  0  0  0  0  0  0
    5.7162    2.2686    0.8595 H   0  0  0  0  0  0  0  0  0  0  0  0
    7.1539    1.2773   -1.4056 H   0  0  0  0  0  0  0  0  0  0  0  0
    6.3785    2.8094   -1.8762 H   0  0  0  0  0  0  0  0  0  0  0  0
    7.5276    2.7719   -0.5234 H   0  0  0  0  0  0  0  0  0  0  0  0
  1  2  2  0  0  0  0
  1  3  1  0  0  0  0
  1  7  1  0  0  0  0
  3  4  1  0  0  0  0
  3  5  1  0  0  0  0
  3  6  1  0  0  0  0
  7  8  1  0  0  0  0
  7 12  1  0  0  0  0
  8  9  1  0  0  0  0
  8 11  1  0  0  0  0
  8 13  1  0  0  0  0
  9 10  2  0  0  0  0
  9 17  1  0  0  0  0
 11 14  1  0  0  0  0
 11 15  1  0  0  0  0
 11 16  1  0  0  0  0
 17 18  1  0  0  0  0
 17 23  1  0  0  0  0
 18 19  1  0  0  0  0
 18 21  1  0  0  0  0
 18 24  1  0  0  0  0
 19 20  2  0  0  0  0
 19 28  1  0  0  0  0
 21 22  1  0  0  0  0
 21 25  1  0  0  0  0
 21 26  1  0  0  0  0
 22 27  1  0  0  0  0
 28 29  1  0  0  0  0
 28 33  1  0  0  0  0
 29 30  1  0  0  0  0
 29 32  1  0  0  0  0
 29 34  1  0  0  0  0
 30 31  2  0  0  0  0
 30 38  1  0  0  0  0
 32 35  1  0  0  0  0
 32 36  1  0  0  0  0
 32 37  1  0  0  0  0
 38 39  1  0  0  0  0
 38 40  1  0  0  0  0
 39 41  1  0  0  0  0
 39 42  1  0  0  0  0
 39 43  1  0  0  0  0
M  END
$$$$

  -OEChem-05262216003D

 43 42  0     1  0  0  0  0  0999 V2000
   -3.3883   -4.9455    1.3058 C   0  0  0  0  0  0  0  0  0  0  0  0
   -2.4474   -5.5677    1.7731 O   0  0  0  0  0  0  0  0  0  0  0  0
   -4.8107   -5.3249    1.6721 C   0  0  0  0  0  0  0  0  0  0  0  0
   -5.3782   -5.5645    0.7695 H   0  0  0  0  0  0  0  0  0  0  0  0
   -4.8103   -6.1989    2.3297 H   0  0  0  0  0  0  0  0  0  0  0  0
   -5.2962   -4.4940    2.1900 H   0  0  0  0  0  0  0  0  0  0  0  0
   -3.1578   -3.8883    0.4515 N   0  0  0  0  0  0  0  0  0  0  0  0
   -1.8287   -3.3425    0.1471 C   0  0  2  0  0  0  0  0  0  0  0  0
   -1.8854   -1.8382   -0.2028 C   0  0  0  0  0  0  0  0  0  0  0  0
   -2.9743   -1.3322   -0.4228 O   0  0  0  0  0  0  0  0  0  0  0  0
   -1.2345   -4.1424   -1.0175 C   0  0  0  0  0  0  0  0  0  0  0  0
   -3.9605   -3.3245    0.1729 H   0  0  0  0  0  0  0  0  0  0  0  0
   -1.1831   -3.4490    1.0258 H   0  0  0  0  0  0  0  0  0  0  0  0
   -1.8729   -4.0598   -1.9030 H   0  0  0  0  0  0  0  0  0  0  0  0
   -0.2364   -3.7736   -1.2716 H   0  0  0  0  0  0  0  0  0  0  0  0
   -1.1506   -5.1999   -0.7468 H   0  0  0  0  0  0  0  0  0  0  0  0
   -0.7018   -1.1178   -0.2104 N   0  0  0  0  0  0  0  0  0  0  0  0
   -0.3763    0.2998   -0.5231 C   0  0  2  0  0  0  0  0  0  0  0  0
    0.8460    0.7351    0.3084 C   0  0  0  0  0  0  0  0  0  0  0  0
    0.7569    0.8756    1.5203 O   0  0  0  0  0  0  0  0  0  0  0  0
   -1.4339    1.4281   -0.4568 C   0  0  0  0  0  0  0  0  0  0  0  0
   -2.8044    1.3141   -1.6816 S   0  0  0  0  0  0  0  0  0  0  0  0
    0.0891   -1.6659    0.1187 H   0  0  0  0  0  0  0  0  0  0  0  0
   -0.0564    0.2959   -1.5692 H   0  0  0  0  0  0  0  0  0  0  0  0
   -1.8682    1.4357    0.5487 H   0  0  0  0  0  0  0  0  0  0  0  0
   -0.9365    2.3924   -0.6043 H   0  0  0  0  0  0  0  0  0  0  0  0
   -3.3659    0.1390   -1.3133 H   0  0  0  0  0  0  0  0  0  0  0  0
    2.0853    0.8669   -0.2888 N   0  0  0  0  0  0  0  0  0  0  0  0
    3.2958    1.3422    0.3960 C   0  0  2  0  0  0  0  0  0  0  0  0
    4.2679    2.0176   -0.5950 C   0  0  0  0  0  0  0  0  0  0  0  0
    4.0829    1.9059   -1.8022 O   0  0  0  0  0  0  0  0  0  0  0  0
    3.9747    0.1526    1.0836 C   0  0  0  0  0  0  0  0  0  0  0  0
    2.1258    0.8449   -1.3087 H   0  0  0  0  0  0  0  0  0  0  0  0
    3.0235    2.0890    1.1497 H   0  0  0  0  0  0  0  0  0  0  0  0
    4.2599   -0.6035    0.3452 H   0  0  0  0  0  0  0  0  0  0  0  0
    4.8743    0.4775    1.6150 H   0  0  0  0  0  0  0  0  0  0  0  0
    3.2965   -0.3069    1.8095 H   0  0  0  0  0  0  0  0  0  0  0  0
    5.3415    2.7592   -0.1377 N   0  0  0  0  0  0  0  0  0  0  0  0
    6.2917    3.4219   -1.0234 C   0  0  0  0  0  0  0  0  0  0  0  0
    5.4668    2.8404    0.8672 H   0  0  0  0  0  0  0  0  0  0  0  0
    6.8159    2.6862   -1.6424 H   0  0  0  0  0  0  0  0  0  0  0  0
    5.7757    4.1305   -1.6797 H   0  0  0  0  0  0  0  0  0  0  0  0
    7.0344    3.9729   -0.4382 H   0  0  0  0  0  0  0  0  0  0  0  0
  1  2  2  0  0  0  0
  1  3  1  0  0  0  0
  1  7  1  0  0  0  0
  3  4  1  0  0  0  0
  3  5  1  0  0  0  0
  3  6  1  0  0  0  0
  7  8  1  0  0  0  0
  7 12  1  0  0  0  0
  8  9  1  0  0  0  0
  8 11  1  0  0  0  0
  8 13  1  0  0  0  0
  9 10  2  0  0  0  0
  9 17  1  0  0  0  0
 11 14  1  0  0  0  0
 11 15  1  0  0  0  0
 11 16  1  0  0  0  0
 17 18  1  0  0  0  0
 17 23  1  0  0  0  0
 18 19  1  0  0  0  0
 18 21  1  0  0  0  0
 18 24  1  0  0  0  0
 19 20  2  0  0  0  0
 19 28  1  0  0  0  0
 21 22  1  0  0  0  0
 21 25  1  0  0  0  0
 21 26  1  0  0  0  0
 22 27  1  0  0  0  0
 28 29  1  0  0  0  0
 28 33  1  0  0  0  0
 29 30  1  0  0  0  0
 29 32  1  0  0  0  0
 29 34  1  0  0  0  0
 30 31  2  0  0  0  0
 30 38  1  0  0  0  0
 32 35  1  0  0  0  0
 32 36  1  0  0  0  0
 32 37  1  0  0  0  0
 38 39  1  0  0  0  0
 38 40  1  0  0  0  0
 39 41  1  0  0  0  0
 39 42  1  0  0  0  0
 39 43  1  0  0  0  0
M  END
$$$$

  -OEChem-05262216003D

 43 42  0     1  0  0  0  0  0999 V2000
   -3.6824   -4.4313    1.4377 C   0  0  0  0  0  0  0  0  0  0  0  0
   -2.9733   -4.7084    2.3921 O   0  0  0  0  0  0  0  0  0  0  0  0
   -5.1666   -4.7437    1.4750 C   0  0  0  0  0  0  0  0  0  0  0  0
   -5.4050   -5.5061    0.7296 H   0  0  0  0  0  0  0  0  0  0  0  0
   -5.4491   -5.1156    2.4638 H   0  0  0  0  0  0  0  0  0  0  0  0
   -5.7449   -3.8414    1.2613 H   0  0  0  0  0  0  0  0  0  0  0  0
   -3.1353   -3.8320    0.3228 N   0  0  0  0  0  0  0  0  0  0  0  0
   -1.7533   -3.3406    0.2385 C   0  0  2  0  0  0  0  0  0  0  0  0
   -1.6602   -2.0489   -0.6015 C   0  0  0  0  0  0  0  0  0  0  0  0
   -2.5599   -1.7702   -1.3819 O   0  0  0  0  0  0  0  0  0  0  0  0
   -0.8884   -4.4484   -0.3701 C   0  0  0  0  0  0  0  0  0  0  0  0
   -3.7794   -3.5174   -0.4020 H   0  0  0  0  0  0  0  0  0  0  0  0
   -1.3823   -3.1023    1.2417 H   0  0  0  0  0  0  0  0  0  0  0  0
   -1.2295   -4.6862   -1.3829 H   0  0  0  0  0  0  0  0  0  0  0  0
    0.1595   -4.1374   -0.4184 H   0  0  0  0  0  0  0  0  0  0  0  0
   -0.9501   -5.3547    0.2409 H   0  0  0  0  0  0  0  0  0  0  0  0
   -0.4944   -1.3088   -0.6041 N   0  0  0  0  0  0  0  0  0  0  0  0
   -0.3342    0.1643   -0.6602 C   0  0  2  0  0  0  0  0  0  0  0  0
    0.9697    0.5071    0.0865 C   0  0  0  0  0  0  0  0  0  0  0  0
    1.1720    0.0314    1.1977 O   0  0  0  0  0  0  0  0  0  0  0  0
   -1.4039    1.0793   -0.0033 C   0  0  0  0  0  0  0  0  0  0  0  0
   -3.1007    1.0760   -0.7144 S   0  0  0  0  0  0  0  0  0  0  0  0
    0.2122   -1.7369   -0.0059 H   0  0  0  0  0  0  0  0  0  0  0  0
   -0.2394    0.4554   -1.7105 H   0  0  0  0  0  0  0  0  0  0  0  0
   -1.4934    0.7882    1.0490 H   0  0  0  0  0  0  0  0  0  0  0  0
   -1.0455    2.1142   -0.0213 H   0  0  0  0  0  0  0  0  0  0  0  0
   -3.1305   -0.1155   -1.3544 H   0  0  0  0  0  0  0  0  0  0  0  0
    2.0035    1.1523   -0.5628 N   0  0  0  0  0  0  0  0  0  0  0  0
    3.2709    1.5381    0.0717 C   0  0  2  0  0  0  0  0  0  0  0  0
    3.8032    2.8668   -0.5057 C   0  0  0  0  0  0  0  0  0  0  0  0
    3.3005    3.3366   -1.5208 O   0  0  0  0  0  0  0  0  0  0  0  0
    4.2824    0.4088   -0.1467 C   0  0  0  0  0  0  0  0  0  0  0  0
    1.7923    1.6027   -1.4545 H   0  0  0  0  0  0  0  0  0  0  0  0
    3.1203    1.6863    1.1465 H   0  0  0  0  0  0  0  0  0  0  0  0
    4.4557    0.2520   -1.2164 H   0  0  0  0  0  0  0  0  0  0  0  0
    5.2375    0.6497    0.3295 H   0  0  0  0  0  0  0  0  0  0  0  0
    3.9082   -0.5242    0.2866 H   0  0  0  0  0  0  0  0  0  0  0  0
    4.8335    3.5447    0.1188 N   0  0  0  0  0  0  0  0  0  0  0  0
    5.3689    4.8098   -0.3699 C   0  0  0  0  0  0  0  0  0  0  0  0
    5.2202    3.1413    0.9673 H   0  0  0  0  0  0  0  0  0  0  0  0
    5.7681    4.6912   -1.3828 H   0  0  0  0  0  0  0  0  0  0  0  0
    4.5867    5.5763   -0.3870 H   0  0  0  0  0  0  0  0  0  0  0  0
    6.1775    5.1555    0.2815 H   0  0  0  0  0  0  0  0  0  0  0  0
  1  2  2  0  0  0  0
  1  3  1  0  0  0  0
  1  7  1  0  0  0  0
  3  4  1  0  0  0  0
  3  5  1  0  0  0  0
  3  6  1  0  0  0  0
  7  8  1  0  0  0  0
  7 12  1  0  0  0  0
  8  9  1  0  0  0  0
  8 11  1  0  0  0  0
  8 13  1  0  0  0  0
  9 10  2  0  0  0  0
  9 17  1  0  0  0  0
 11 14  1  0  0  0  0
 11 15  1  0  0  0  0
 11 16  1  0  0  0  0
 17 18  1  0  0  0  0
 17 23  1  0  0  0  0
 18 19  1  0  0  0  0
 18 21  1  0  0  0  0
 18 24  1  0  0  0  0
 19 20  2  0  0  0  0
 19 28  1  0  0  0  0
 21 22  1  0  0  0  0
 21 25  1  0  0  0  0
 21 26  1  0  0  0  0
 22 27  1  0  0  0  0
 28 29  1  0  0  0  0
 28 33  1  0  0  0  0
 29 30  1  0  0  0  0
 29 32  1  0  0  0  0
 29 34  1  0  0  0  0
 30 31  2  0  0  0  0
 30 38  1  0  0  0  0
 32 35  1  0  0  0  0
 32 36  1  0  0  0  0
 32 37  1  0  0  0  0
 38 39  1  0  0  0  0
 38 40  1  0  0  0  0
 39 41  1  0  0  0  0
 39 42  1  0  0  0  0
 39 43  1  0  0  0  0
M  END
$$$$

  -OEChem-05262216003D

 43 42  0     1  0  0  0  0  0999 V2000
   -3.5886   -4.5007    1.4486 C   0  0  0  0  0  0  0  0  0  0  0  0
   -2.8451   -4.7789    2.3761 O   0  0  0  0  0  0  0  0  0  0  0  0
   -5.0533   -4.8926    1.5027 C   0  0  0  0  0  0  0  0  0  0  0  0
   -5.2698   -5.6289    0.7249 H   0  0  0  0  0  0  0  0  0  0  0  0
   -5.2917   -5.3275    2.4775 H   0  0  0  0  0  0  0  0  0  0  0  0
   -5.6823   -4.0125    1.3472 H   0  0  0  0  0  0  0  0  0  0  0  0
   -3.0978   -3.8311    0.3477 N   0  0  0  0  0  0  0  0  0  0  0  0
   -1.7349   -3.2942    0.2410 C   0  0  2  0  0  0  0  0  0  0  0  0
   -1.6953   -2.0001   -0.6000 C   0  0  0  0  0  0  0  0  0  0  0  0
   -2.6304   -1.7344   -1.3416 O   0  0  0  0  0  0  0  0  0  0  0  0
   -0.8426   -4.3751   -0.3777 C   0  0  0  0  0  0  0  0  0  0  0  0
   -3.7699   -3.5244   -0.3547 H   0  0  0  0  0  0  0  0  0  0  0  0
   -1.3584   -3.0421    1.2388 H   0  0  0  0  0  0  0  0  0  0  0  0
   -1.1918   -4.6302   -1.3835 H   0  0  0  0  0  0  0  0  0  0  0  0
    0.1933   -4.0296   -0.4442 H   0  0  0  0  0  0  0  0  0  0  0  0
   -0.8631   -5.2801    0.2378 H   0  0  0  0  0  0  0  0  0  0  0  0
   -0.5448   -1.2371   -0.6253 N   0  0  0  0  0  0  0  0  0  0  0  0
   -0.3865    0.2336   -0.7371 C   0  0  2  0  0  0  0  0  0  0  0  0
    0.9115    0.6112    0.0052 C   0  0  0  0  0  0  0  0  0  0  0  0
    1.2218    0.0072    1.0265 O   0  0  0  0  0  0  0  0  0  0  0  0
   -1.4597    1.1757   -0.1271 C   0  0  0  0  0  0  0  0  0  0  0  0
   -3.1522    1.1505   -0.8478 S   0  0  0  0  0  0  0  0  0  0  0  0
    0.1804   -1.6420   -0.0313 H   0  0  0  0  0  0  0  0  0  0  0  0
   -0.2819    0.4820   -1.7976 H   0  0  0  0  0  0  0  0  0  0  0  0
   -1.5562    0.9244    0.9349 H   0  0  0  0  0  0  0  0  0  0  0  0
   -1.1005    2.2091   -0.1830 H   0  0  0  0  0  0  0  0  0  0  0  0
   -3.2162   -0.0929   -1.3746 H   0  0  0  0  0  0  0  0  0  0  0  0
    1.8162    1.4925   -0.5537 N   0  0  0  0  0  0  0  0  0  0  0  0
    3.0510    1.9412    0.1038 C   0  0  2  0  0  0  0  0  0  0  0  0
    3.3951    3.3967   -0.2777 C   0  0  0  0  0  0  0  0  0  0  0  0
    2.7937    3.9456   -1.1944 O   0  0  0  0  0  0  0  0  0  0  0  0
    4.1841    0.9933   -0.3004 C   0  0  0  0  0  0  0  0  0  0  0  0
    1.5087    2.0405   -1.3584 H   0  0  0  0  0  0  0  0  0  0  0  0
    2.9254    1.9110    1.1915 H   0  0  0  0  0  0  0  0  0  0  0  0
    4.3298    1.0121   -1.3854 H   0  0  0  0  0  0  0  0  0  0  0  0
    5.1211    1.2855    0.1831 H   0  0  0  0  0  0  0  0  0  0  0  0
    3.9471   -0.0318    0.0019 H   0  0  0  0  0  0  0  0  0  0  0  0
    4.3658    4.0971    0.4145 N   0  0  0  0  0  0  0  0  0  0  0  0
    4.7256    5.4772    0.1103 C   0  0  0  0  0  0  0  0  0  0  0  0
    4.8349    3.6238    1.1814 H   0  0  0  0  0  0  0  0  0  0  0  0
    5.0720    5.5637   -0.9251 H   0  0  0  0  0  0  0  0  0  0  0  0
    3.8633    6.1377    0.2500 H   0  0  0  0  0  0  0  0  0  0  0  0
    5.5295    5.8149    0.7718 H   0  0  0  0  0  0  0  0  0  0  0  0
  1  2  2  0  0  0  0
  1  3  1  0  0  0  0
  1  7  1  0  0  0  0
  3  4  1  0  0  0  0
  3  5  1  0  0  0  0
  3  6  1  0  0  0  0
  7  8  1  0  0  0  0
  7 12  1  0  0  0  0
  8  9  1  0  0  0  0
  8 11  1  0  0  0  0
  8 13  1  0  0  0  0
  9 10  2  0  0  0  0
  9 17  1  0  0  0  0
 11 14  1  0  0  0  0
 11 15  1  0  0  0  0
 11 16  1  0  0  0  0
 17 18  1  0  0  0  0
 17 23  1  0  0  0  0
 18 19  1  0  0  0  0
 18 21  1  0  0  0  0
 18 24  1  0  0  0  0
 19 20  2  0  0  0  0
 19 28  1  0  0  0  0
 21 22  1  0  0  0  0
 21 25  1  0  0  0  0
 21 26  1  0  0  0  0
 22 27  1  0  0  0  0
 28 29  1  0  0  0  0
 28 33  1  0  0  0  0
 29 30  1  0  0  0  0
 29 32  1  0  0  0  0
 29 34  1  0  0  0  0
 30 31  2  0  0  0  0
 30 38  1  0  0  0  0
 32 35  1  0  0  0  0
 32 36  1  0  0  0  0
 32 37  1  0  0  0  0
 38 39  1  0  0  0  0
 38 40  1  0  0  0  0
 39 41  1  0  0  0  0
 39 42  1  0  0  0  0
 39 43  1  0  0  0  0
M  END
$$$$

  -OEChem-05262216003D

 43 42  0     1  0  0  0  0  0999 V2000
   -3.5530   -4.5118    1.4569 C   0  0  0  0  0  0  0  0  0  0  0  0
   -2.8085   -4.7707    2.3890 O   0  0  0  0  0  0  0  0  0  0  0  0
   -5.0101   -4.9318    1.5059 C   0  0  0  0  0  0  0  0  0  0  0  0
   -5.2120   -5.6669    0.7231 H   0  0  0  0  0  0  0  0  0  0  0  0
   -5.2412   -5.3781    2.4771 H   0  0  0  0  0  0  0  0  0  0  0  0
   -5.6558   -4.0631    1.3558 H   0  0  0  0  0  0  0  0  0  0  0  0
   -3.0704   -3.8373    0.3556 N   0  0  0  0  0  0  0  0  0  0  0  0
   -1.7208   -3.2655    0.2567 C   0  0  2  0  0  0  0  0  0  0  0  0
   -1.7096   -1.9743   -0.5903 C   0  0  0  0  0  0  0  0  0  0  0  0
   -2.6584   -1.7269   -1.3207 O   0  0  0  0  0  0  0  0  0  0  0  0
   -0.7943   -4.3237   -0.3513 C   0  0  0  0  0  0  0  0  0  0  0  0
   -3.7473   -3.5406   -0.3468 H   0  0  0  0  0  0  0  0  0  0  0  0
   -1.3584   -3.0000    1.2562 H   0  0  0  0  0  0  0  0  0  0  0  0
   -1.1279   -4.5894   -1.3595 H   0  0  0  0  0  0  0  0  0  0  0  0
    0.2325   -3.9506   -0.4103 H   0  0  0  0  0  0  0  0  0  0  0  0
   -0.7955   -5.2276    0.2663 H   0  0  0  0  0  0  0  0  0  0  0  0
   -0.5666   -1.2006   -0.6399 N   0  0  0  0  0  0  0  0  0  0  0  0
   -0.4055    0.2664   -0.7961 C   0  0  2  0  0  0  0  0  0  0  0  0
    0.8935    0.6723   -0.0659 C   0  0  0  0  0  0  0  0  0  0  0  0
    1.3273   -0.0295    0.8425 O   0  0  0  0  0  0  0  0  0  0  0  0
   -1.4839    1.2221   -0.2144 C   0  0  0  0  0  0  0  0  0  0  0  0
   -3.1734    1.1700   -0.9392 S   0  0  0  0  0  0  0  0  0  0  0  0
    0.1767   -1.5926   -0.0585 H   0  0  0  0  0  0  0  0  0  0  0  0
   -0.2985    0.4819   -1.8636 H   0  0  0  0  0  0  0  0  0  0  0  0
   -1.5825    0.9995    0.8537 H   0  0  0  0  0  0  0  0  0  0  0  0
   -1.1318    2.2559   -0.2970 H   0  0  0  0  0  0  0  0  0  0  0  0
   -3.2160   -0.0793   -1.4562 H   0  0  0  0  0  0  0  0  0  0  0  0
    1.6415    1.7518   -0.4949 N   0  0  0  0  0  0  0  0  0  0  0  0
    2.8267    2.2688    0.2033 C   0  0  2  0  0  0  0  0  0  0  0  0
    2.9207    3.8049    0.0840 C   0  0  0  0  0  0  0  0  0  0  0  0
    2.1949    4.4012   -0.7042 O   0  0  0  0  0  0  0  0  0  0  0  0
    4.0704    1.6010   -0.3921 C   0  0  0  0  0  0  0  0  0  0  0  0
    1.2171    2.3770   -1.1816 H   0  0  0  0  0  0  0  0  0  0  0  0
    2.7644    2.0299    1.2704 H   0  0  0  0  0  0  0  0  0  0  0  0
    4.1612    1.8412   -1.4563 H   0  0  0  0  0  0  0  0  0  0  0  0
    4.9746    1.9429    0.1207 H   0  0  0  0  0  0  0  0  0  0  0  0
    4.0054    0.5136   -0.2843 H   0  0  0  0  0  0  0  0  0  0  0  0
    3.8014    4.5212    0.8733 N   0  0  0  0  0  0  0  0  0  0  0  0
    3.9227    5.9734    0.8214 C   0  0  0  0  0  0  0  0  0  0  0  0
    4.3755    4.0027    1.5319 H   0  0  0  0  0  0  0  0  0  0  0  0
    4.2076    6.2984   -0.1848 H   0  0  0  0  0  0  0  0  0  0  0  0
    2.9730    6.4483    1.0893 H   0  0  0  0  0  0  0  0  0  0  0  0
    4.6893    6.3143    1.5239 H   0  0  0  0  0  0  0  0  0  0  0  0
  1  2  2  0  0  0  0
  1  3  1  0  0  0  0
  1  7  1  0  0  0  0
  3  4  1  0  0  0  0
  3  5  1  0  0  0  0
  3  6  1  0  0  0  0
  7  8  1  0  0  0  0
  7 12  1  0  0  0  0
  8  9  1  0  0  0  0
  8 11  1  0  0  0  0
  8 13  1  0  0  0  0
  9 10  2  0  0  0  0
  9 17  1  0  0  0  0
 11 14  1  0  0  0  0
 11 15  1  0  0  0  0
 11 16  1  0  0  0  0
 17 18  1  0  0  0  0
 17 23  1  0  0  0  0
 18 19  1  0  0  0  0
 18 21  1  0  0  0  0
 18 24  1  0  0  0  0
 19 20  2  0  0  0  0
 19 28  1  0  0  0  0
 21 22  1  0  0  0  0
 21 25  1  0  0  0  0
 21 26  1  0  0  0  0
 22 27  1  0  0  0  0
 28 29  1  0  0  0  0
 28 33  1  0  0  0  0
 29 30  1  0  0  0  0
 29 32  1  0  0  0  0
 29 34  1  0  0  0  0
 30 31  2  0  0  0  0
 30 38  1  0  0  0  0
 32 35  1  0  0  0  0
 32 36  1  0  0  0  0
 32 37  1  0  0  0  0
 38 39  1  0  0  0  0
 38 40  1  0  0  0  0
 39 41  1  0  0  0  0
 39 42  1  0  0  0  0
 39 43  1  0  0  0  0
M  END
$$$$

  -OEChem-05262216003D

 43 42  0     1  0  0  0  0  0999 V2000
   -3.3338   -4.8235    1.4058 C   0  0  0  0  0  0  0  0  0  0  0  0
   -2.4258   -5.2679    2.0901 O   0  0  0  0  0  0  0  0  0  0  0  0
   -4.7592   -5.2866    1.6402 C   0  0  0  0  0  0  0  0  0  0  0  0
   -5.1745   -5.7016    0.7187 H   0  0  0  0  0  0  0  0  0  0  0  0
   -4.7811   -6.0582    2.4149 H   0  0  0  0  0  0  0  0  0  0  0  0
   -5.3767   -4.4453    1.9637 H   0  0  0  0  0  0  0  0  0  0  0  0
   -3.0654   -3.8939    0.4236 N   0  0  0  0  0  0  0  0  0  0  0  0
   -1.7497   -3.2805    0.1971 C   0  0  2  0  0  0  0  0  0  0  0  0
   -1.8654   -1.8558   -0.3911 C   0  0  0  0  0  0  0  0  0  0  0  0
   -2.9432   -1.4934   -0.8339 O   0  0  0  0  0  0  0  0  0  0  0  0
   -0.9521   -4.1872   -0.7464 C   0  0  0  0  0  0  0  0  0  0  0  0
   -3.8599   -3.4661   -0.0508 H   0  0  0  0  0  0  0  0  0  0  0  0
   -1.2173   -3.1965    1.1511 H   0  0  0  0  0  0  0  0  0  0  0  0
   -1.4644   -4.2827   -1.7092 H   0  0  0  0  0  0  0  0  0  0  0  0
    0.0470   -3.7771   -0.9213 H   0  0  0  0  0  0  0  0  0  0  0  0
   -0.8411   -5.1853   -0.3102 H   0  0  0  0  0  0  0  0  0  0  0  0
   -0.7375   -1.0533   -0.3987 N   0  0  0  0  0  0  0  0  0  0  0  0
   -0.4853    0.3798   -0.7082 C   0  0  2  0  0  0  0  0  0  0  0  0
    0.7161    0.8575    0.1414 C   0  0  0  0  0  0  0  0  0  0  0  0
    1.1673    0.1366    1.0263 O   0  0  0  0  0  0  0  0  0  0  0  0
   -1.6062    1.4471   -0.5845 C   0  0  0  0  0  0  0  0  0  0  0  0
   -3.0316    1.3033   -1.7396 S   0  0  0  0  0  0  0  0  0  0  0  0
    0.0388   -1.4745    0.1143 H   0  0  0  0  0  0  0  0  0  0  0  0
   -0.1637    0.4111   -1.7537 H   0  0  0  0  0  0  0  0  0  0  0  0
   -1.9975    1.4050    0.4374 H   0  0  0  0  0  0  0  0  0  0  0  0
   -1.1803    2.4450   -0.7272 H   0  0  0  0  0  0  0  0  0  0  0  0
   -3.4096    0.0200   -1.5470 H   0  0  0  0  0  0  0  0  0  0  0  0
    1.3732    2.0389   -0.1482 N   0  0  0  0  0  0  0  0  0  0  0  0
    2.4804    2.5976    0.6401 C   0  0  2  0  0  0  0  0  0  0  0  0
    2.5269    4.1366    0.5285 C   0  0  0  0  0  0  0  0  0  0  0  0
    1.8379    4.7083   -0.3093 O   0  0  0  0  0  0  0  0  0  0  0  0
    3.7948    1.9851    0.1442 C   0  0  0  0  0  0  0  0  0  0  0  0
    0.9574    2.6584   -0.8451 H   0  0  0  0  0  0  0  0  0  0  0  0
    2.3414    2.3497    1.6980 H   0  0  0  0  0  0  0  0  0  0  0  0
    3.9557    2.2273   -0.9113 H   0  0  0  0  0  0  0  0  0  0  0  0
    4.6406    2.3684    0.7227 H   0  0  0  0  0  0  0  0  0  0  0  0
    3.7725    0.8961    0.2521 H   0  0  0  0  0  0  0  0  0  0  0  0
    3.3274    4.8822    1.3743 N   0  0  0  0  0  0  0  0  0  0  0  0
    3.4134    6.3370    1.3184 C   0  0  0  0  0  0  0  0  0  0  0  0
    3.8819    4.3824    2.0635 H   0  0  0  0  0  0  0  0  0  0  0  0
    3.8019    6.6607    0.3469 H   0  0  0  0  0  0  0  0  0  0  0  0
    2.4260    6.7858    1.4703 H   0  0  0  0  0  0  0  0  0  0  0  0
    4.0841    6.7072    2.1000 H   0  0  0  0  0  0  0  0  0  0  0  0
  1  2  2  0  0  0  0
  1  3  1  0  0  0  0
  1  7  1  0  0  0  0
  3  4  1  0  0  0  0
  3  5  1  0  0  0  0
  3  6  1  0  0  0  0
  7  8  1  0  0  0  0
  7 12  1  0  0  0  0
  8  9  1  0  0  0  0
  8 11  1  0  0  0  0
  8 13  1  0  0  0  0
  9 10  2  0  0  0  0
  9 17  1  0  0  0  0
 11 14  1  0  0  0  0
 11 15  1  0  0  0  0
 11 16  1  0  0  0  0
 17 18  1  0  0  0  0
 17 23  1  0  0  0  0
 18 19  1  0  0  0  0
 18 21  1  0  0  0  0
 18 24  1  0  0  0  0
 19 20  2  0  0  0  0
 19 28  1  0  0  0  0
 21 22  1  0  0  0  0
 21 25  1  0  0  0  0
 21 26  1  0  0  0  0
 22 27  1  0  0  0  0
 28 29  1  0  0  0  0
 28 33  1  0  0  0  0
 29 30  1  0  0  0  0
 29 32  1  0  0  0  0
 29 34  1  0  0  0  0
 30 31  2  0  0  0  0
 30 38  1  0  0  0  0
 32 35  1  0  0  0  0
 32 36  1  0  0  0  0
 32 37  1  0  0  0  0
 38 39  1  0  0  0  0
 38 40  1  0  0  0  0
 39 41  1  0  0  0  0
 39 42  1  0  0  0  0
 39 43  1  0  0  0  0
M  END
$$$$

  -OEChem-05262216003D

 43 42  0     1  0  0  0  0  0999 V2000
   -3.5444   -4.5826    1.3094 C   0  0  0  0  0  0  0  0  0  0  0  0
   -2.8642   -4.8388    2.2907 O   0  0  0  0  0  0  0  0  0  0  0  0
   -5.0035   -4.9953    1.2646 C   0  0  0  0  0  0  0  0  0  0  0  0
   -5.1758   -5.6641    0.4178 H   0  0  0  0  0  0  0  0  0  0  0  0
   -5.2764   -5.5161    2.1867 H   0  0  0  0  0  0  0  0  0  0  0  0
   -5.6377   -4.1117    1.1577 H   0  0  0  0  0  0  0  0  0  0  0  0
   -2.9919   -3.9062    0.2436 N   0  0  0  0  0  0  0  0  0  0  0  0
   -1.6529   -3.3038    0.2464 C   0  0  2  0  0  0  0  0  0  0  0  0
   -1.6183   -2.0227   -0.6136 C   0  0  0  0  0  0  0  0  0  0  0  0
   -2.5187   -1.8051   -1.4141 O   0  0  0  0  0  0  0  0  0  0  0  0
   -0.6544   -4.3429   -0.2731 C   0  0  0  0  0  0  0  0  0  0  0  0
   -3.6263   -3.5928   -0.4915 H   0  0  0  0  0  0  0  0  0  0  0  0
   -1.3775   -3.0172    1.2670 H   0  0  0  0  0  0  0  0  0  0  0  0
   -0.9054   -4.6351   -1.2977 H   0  0  0  0  0  0  0  0  0  0  0  0
    0.3627   -3.9401   -0.2638 H   0  0  0  0  0  0  0  0  0  0  0  0
   -0.6758   -5.2359    0.3596 H   0  0  0  0  0  0  0  0  0  0  0  0
   -0.4948   -1.2209   -0.6310 N   0  0  0  0  0  0  0  0  0  0  0  0
   -0.4288    0.2466   -0.8092 C   0  0  2  0  0  0  0  0  0  0  0  0
    0.9871    0.7183   -0.3892 C   0  0  0  0  0  0  0  0  0  0  0  0
    1.7840   -0.0820    0.0931 O   0  0  0  0  0  0  0  0  0  0  0  0
   -1.3861    1.0576    0.1165 C   0  0  0  0  0  0  0  0  0  0  0  0
   -3.1944    0.8369   -0.1324 S   0  0  0  0  0  0  0  0  0  0  0  0
    0.2879   -1.5903   -0.0898 H   0  0  0  0  0  0  0  0  0  0  0  0
   -0.6150    0.5016   -1.8574 H   0  0  0  0  0  0  0  0  0  0  0  0
   -1.1571    0.7992    1.1561 H   0  0  0  0  0  0  0  0  0  0  0  0
   -1.1871    2.1269   -0.0052 H   0  0  0  0  0  0  0  0  0  0  0  0
   -3.6993    1.6523    0.8187 H   0  0  0  0  0  0  0  0  0  0  0  0
    1.3517    2.0510   -0.4499 N   0  0  0  0  0  0  0  0  0  0  0  0
    2.5838    2.6169    0.1154 C   0  0  2  0  0  0  0  0  0  0  0  0
    2.3748    4.0872    0.5384 C   0  0  0  0  0  0  0  0  0  0  0  0
    1.3197    4.6541    0.2738 O   0  0  0  0  0  0  0  0  0  0  0  0
    3.6966    2.5040   -0.9322 C   0  0  0  0  0  0  0  0  0  0  0  0
    0.6408    2.7230   -0.7402 H   0  0  0  0  0  0  0  0  0  0  0  0
    2.8725    2.0579    1.0119 H   0  0  0  0  0  0  0  0  0  0  0  0
    3.4270    3.0575   -1.8375 H   0  0  0  0  0  0  0  0  0  0  0  0
    4.6359    2.9080   -0.5431 H   0  0  0  0  0  0  0  0  0  0  0  0
    3.8601    1.4553   -1.2009 H   0  0  0  0  0  0  0  0  0  0  0  0
    3.3576    4.7718    1.2293 N   0  0  0  0  0  0  0  0  0  0  0  0
    3.2219    6.1634    1.6437 C   0  0  0  0  0  0  0  0  0  0  0  0
    4.2210    4.2782    1.4368 H   0  0  0  0  0  0  0  0  0  0  0  0
    3.0633    6.8087    0.7731 H   0  0  0  0  0  0  0  0  0  0  0  0
    2.3741    6.2794    2.3273 H   0  0  0  0  0  0  0  0  0  0  0  0
    4.1285    6.4957    2.1586 H   0  0  0  0  0  0  0  0  0  0  0  0
  1  2  2  0  0  0  0
  1  3  1  0  0  0  0
  1  7  1  0  0  0  0
  3  4  1  0  0  0  0
  3  5  1  0  0  0  0
  3  6  1  0  0  0  0
  7  8  1  0  0  0  0
  7 12  1  0  0  0  0
  8  9  1  0  0  0  0
  8 11  1  0  0  0  0
  8 13  1  0  0  0  0
  9 10  2  0  0  0  0
  9 17  1  0  0  0  0
 11 14  1  0  0  0  0
 11 15  1  0  0  0  0
 11 16  1  0  0  0  0
 17 18  1  0  0  0  0
 17 23  1  0  0  0  0
 18 19  1  0  0  0  0
 18 21  1  0  0  0  0
 18 24  1  0  0  0  0
 19 20  2  0  0  0  0
 19 28  1  0  0  0  0
 21 22  1  0  0  0  0
 21 25  1  0  0  0  0
 21 26  1  0  0  0  0
 22 27  1  0  0  0  0
 28 29  1  0  0  0  0
 28 33  1  0  0  0  0
 29 30  1  0  0  0  0
 29 32  1  0  0  0  0
 29 34  1  0  0  0  0
 30 31  2  0  0  0  0
 30 38  1  0  0  0  0
 32 35  1  0  0  0  0
 32 36  1  0  0  0  0
 32 37  1  0  0  0  0
 38 39  1  0  0  0  0
 38 40  1  0  0  0  0
 39 41  1  0  0  0  0
 39 42  1  0  0  0  0
 39 43  1  0  0  0  0
M  END
$$$$

  -OEChem-05262216003D

 43 42  0     1  0  0  0  0  0999 V2000
   -3.4922   -4.5952    1.3370 C   0  0  0  0  0  0  0  0  0  0  0  0
   -2.8087   -4.8250    2.3227 O   0  0  0  0  0  0  0  0  0  0  0  0
   -4.9348   -5.0621    1.2836 C   0  0  0  0  0  0  0  0  0  0  0  0
   -5.0817   -5.7225    0.4256 H   0  0  0  0  0  0  0  0  0  0  0  0
   -5.1887   -5.6082    2.1963 H   0  0  0  0  0  0  0  0  0  0  0  0
   -5.6017   -4.2017    1.1903 H   0  0  0  0  0  0  0  0  0  0  0  0
   -2.9586   -3.9004    0.2732 N   0  0  0  0  0  0  0  0  0  0  0  0
   -1.6368   -3.2605    0.2736 C   0  0  2  0  0  0  0  0  0  0  0  0
   -1.6383   -1.9780   -0.5859 C   0  0  0  0  0  0  0  0  0  0  0  0
   -2.5385   -1.7971   -1.3953 O   0  0  0  0  0  0  0  0  0  0  0  0
   -0.6135   -4.2714   -0.2527 C   0  0  0  0  0  0  0  0  0  0  0  0
   -3.5977   -3.6159   -0.4694 H   0  0  0  0  0  0  0  0  0  0  0  0
   -1.3661   -2.9693    1.2943 H   0  0  0  0  0  0  0  0  0  0  0  0
   -0.8565   -4.5604   -1.2803 H   0  0  0  0  0  0  0  0  0  0  0  0
    0.3941   -3.8454   -0.2384 H   0  0  0  0  0  0  0  0  0  0  0  0
   -0.6150   -5.1699    0.3724 H   0  0  0  0  0  0  0  0  0  0  0  0
   -0.5378   -1.1436   -0.5984 N   0  0  0  0  0  0  0  0  0  0  0  0
   -0.4867    0.3205   -0.8158 C   0  0  2  0  0  0  0  0  0  0  0  0
    0.9163    0.8194   -0.3669 C   0  0  0  0  0  0  0  0  0  0  0  0
    1.7898    0.0045   -0.0827 O   0  0  0  0  0  0  0  0  0  0  0  0
   -1.5045    1.1378    0.0407 C   0  0  0  0  0  0  0  0  0  0  0  0
   -3.2950    0.8802   -0.2852 S   0  0  0  0  0  0  0  0  0  0  0  0
    0.2646   -1.5005   -0.0786 H   0  0  0  0  0  0  0  0  0  0  0  0
   -0.6355    0.5407   -1.8772 H   0  0  0  0  0  0  0  0  0  0  0  0
   -1.3193    0.9148    1.0969 H   0  0  0  0  0  0  0  0  0  0  0  0
   -1.3283    2.2074   -0.1055 H   0  0  0  0  0  0  0  0  0  0  0  0
   -3.8520    1.7138    0.6195 H   0  0  0  0  0  0  0  0  0  0  0  0
    1.1958    2.1585   -0.1549 N   0  0  0  0  0  0  0  0  0  0  0  0
    2.4186    2.6831    0.4675 C   0  0  2  0  0  0  0  0  0  0  0  0
    2.1333    3.9975    1.2263 C   0  0  0  0  0  0  0  0  0  0  0  0
    1.0301    4.5268    1.1364 O   0  0  0  0  0  0  0  0  0  0  0  0
    3.4641    2.9035   -0.6310 C   0  0  0  0  0  0  0  0  0  0  0  0
    0.4337    2.8258   -0.2727 H   0  0  0  0  0  0  0  0  0  0  0  0
    2.8051    1.9629    1.1966 H   0  0  0  0  0  0  0  0  0  0  0  0
    3.1038    3.6342   -1.3625 H   0  0  0  0  0  0  0  0  0  0  0  0
    4.4016    3.2715   -0.2035 H   0  0  0  0  0  0  0  0  0  0  0  0
    3.6707    1.9630   -1.1517 H   0  0  0  0  0  0  0  0  0  0  0  0
    3.1020    4.5780    2.0240 N   0  0  0  0  0  0  0  0  0  0  0  0
    2.8868    5.8063    2.7800 C   0  0  0  0  0  0  0  0  0  0  0  0
    3.9991    4.1066    2.0961 H   0  0  0  0  0  0  0  0  0  0  0  0
    2.5616    6.6146    2.1164 H   0  0  0  0  0  0  0  0  0  0  0  0
    2.1225    5.6533    3.5489 H   0  0  0  0  0  0  0  0  0  0  0  0
    3.8145    6.1167    3.2703 H   0  0  0  0  0  0  0  0  0  0  0  0
  1  2  2  0  0  0  0
  1  3  1  0  0  0  0
  1  7  1  0  0  0  0
  3  4  1  0  0  0  0
  3  5  1  0  0  0  0
  3  6  1  0  0  0  0
  7  8  1  0  0  0  0
  7 12  1  0  0  0  0
  8  9  1  0  0  0  0
  8 11  1  0  0  0  0
  8 13  1  0  0  0  0
  9 10  2  0  0  0  0
  9 17  1  0  0  0  0
 11 14  1  0  0  0  0
 11 15  1  0  0  0  0
 11 16  1  0  0  0  0
 17 18  1  0  0  0  0
 17 23  1  0  0  0  0
 18 19  1  0  0  0  0
 18 21  1  0  0  0  0
 18 24  1  0  0  0  0
 19 20  2  0  0  0  0
 19 28  1  0  0  0  0
 21 22  1  0  0  0  0
 21 25  1  0  0  0  0
 21 26  1  0  0  0  0
 22 27  1  0  0  0  0
 28 29  1  0  0  0  0
 28 33  1  0  0  0  0
 29 30  1  0  0  0  0
 29 32  1  0  0  0  0
 29 34  1  0  0  0  0
 30 31  2  0  0  0  0
 30 38  1  0  0  0  0
 32 35  1  0  0  0  0
 32 36  1  0  0  0  0
 32 37  1  0  0  0  0
 38 39  1  0  0  0  0
 38 40  1  0  0  0  0
 39 41  1  0  0  0  0
 39 42  1  0  0  0  0
 39 43  1  0  0  0  0
M  END
$$$$

  -OEChem-05262216003D

 43 42  0     1  0  0  0  0  0999 V2000
   -3.4021   -4.6412    1.3633 C   0  0  0  0  0  0  0  0  0  0  0  0
   -2.6805   -4.8682    2.3221 O   0  0  0  0  0  0  0  0  0  0  0  0
   -4.8249   -5.1672    1.3394 C   0  0  0  0  0  0  0  0  0  0  0  0
   -4.9745   -5.7999    0.4611 H   0  0  0  0  0  0  0  0  0  0  0  0
   -5.0231   -5.7590    2.2374 H   0  0  0  0  0  0  0  0  0  0  0  0
   -5.5299   -4.3331    1.3029 H   0  0  0  0  0  0  0  0  0  0  0  0
   -2.9285   -3.8984    0.3034 N   0  0  0  0  0  0  0  0  0  0  0  0
   -1.6272   -3.2187    0.2800 C   0  0  2  0  0  0  0  0  0  0  0  0
   -1.6895   -1.9156   -0.5461 C   0  0  0  0  0  0  0  0  0  0  0  0
   -2.6160   -1.7457   -1.3258 O   0  0  0  0  0  0  0  0  0  0  0  0
   -0.5895   -4.1870   -0.2977 C   0  0  0  0  0  0  0  0  0  0  0  0
   -3.5985   -3.6202   -0.4141 H   0  0  0  0  0  0  0  0  0  0  0  0
   -1.3357   -2.9428    1.2992 H   0  0  0  0  0  0  0  0  0  0  0  0
   -0.8552   -4.4656   -1.3226 H   0  0  0  0  0  0  0  0  0  0  0  0
    0.4039   -3.7287   -0.3069 H   0  0  0  0  0  0  0  0  0  0  0  0
   -0.5414   -5.0963    0.3099 H   0  0  0  0  0  0  0  0  0  0  0  0
   -0.6140   -1.0485   -0.5448 N   0  0  0  0  0  0  0  0  0  0  0  0
   -0.5605    0.4095   -0.8045 C   0  0  2  0  0  0  0  0  0  0  0  0
    0.8277    0.9040   -0.3017 C   0  0  0  0  0  0  0  0  0  0  0  0
    1.7496    0.0993   -0.2029 O   0  0  0  0  0  0  0  0  0  0  0  0
   -1.6319    1.2683   -0.0622 C   0  0  0  0  0  0  0  0  0  0  0  0
   -3.3966    1.0077   -0.5026 S   0  0  0  0  0  0  0  0  0  0  0  0
    0.2093   -1.4028   -0.0570 H   0  0  0  0  0  0  0  0  0  0  0  0
   -0.6414    0.5895   -1.8810 H   0  0  0  0  0  0  0  0  0  0  0  0
   -1.5240    1.0977    1.0144 H   0  0  0  0  0  0  0  0  0  0  0  0
   -1.4363    2.3270   -0.2547 H   0  0  0  0  0  0  0  0  0  0  0  0
   -4.0125    1.8763    0.3278 H   0  0  0  0  0  0  0  0  0  0  0  0
    1.0512    2.1814    0.1835 N   0  0  0  0  0  0  0  0  0  0  0  0
    2.2612    2.6160    0.8941 C   0  0  2  0  0  0  0  0  0  0  0  0
    1.9355    3.7424    1.8979 C   0  0  0  0  0  0  0  0  0  0  0  0
    0.8148    4.2415    1.9133 O   0  0  0  0  0  0  0  0  0  0  0  0
    3.2914    3.0854   -0.1383 C   0  0  0  0  0  0  0  0  0  0  0  0
    0.2533    2.8137    0.2390 H   0  0  0  0  0  0  0  0  0  0  0  0
    2.6774    1.7805    1.4671 H   0  0  0  0  0  0  0  0  0  0  0  0
    2.8981    3.9283   -0.7154 H   0  0  0  0  0  0  0  0  0  0  0  0
    4.2156    3.4010    0.3546 H   0  0  0  0  0  0  0  0  0  0  0  0
    3.5328    2.2722   -0.8301 H   0  0  0  0  0  0  0  0  0  0  0  0
    2.8882    4.1813    2.7982 N   0  0  0  0  0  0  0  0  0  0  0  0
    2.6394    5.2304    3.7795 C   0  0  0  0  0  0  0  0  0  0  0  0
    3.8027    3.7396    2.7707 H   0  0  0  0  0  0  0  0  0  0  0  0
    2.3303    6.1562    3.2825 H   0  0  0  0  0  0  0  0  0  0  0  0
    1.8518    4.9244    4.4762 H   0  0  0  0  0  0  0  0  0  0  0  0
    3.5487    5.4348    4.3529 H   0  0  0  0  0  0  0  0  0  0  0  0
  1  2  2  0  0  0  0
  1  3  1  0  0  0  0
  1  7  1  0  0  0  0
  3  4  1  0  0  0  0
  3  5  1  0  0  0  0
  3  6  1  0  0  0  0
  7  8  1  0  0  0  0
  7 12  1  0  0  0  0
  8  9  1  0  0  0  0
  8 11  1  0  0  0  0
  8 13  1  0  0  0  0
  9 10  2  0  0  0  0
  9 17  1  0  0  0  0
 11 14  1  0  0  0  0
 11 15  1  0  0  0  0
 11 16  1  0  0  0  0
 17 18  1  0  0  0  0
 17 23  1  0  0  0  0
 18 19  1  0  0  0  0
 18 21  1  0  0  0  0
 18 24  1  0  0  0  0
 19 20  2  0  0  0  0
 19 28  1  0  0  0  0
 21 22  1  0  0  0  0
 21 25  1  0  0  0  0
 21 26  1  0  0  0  0
 22 27  1  0  0  0  0
 28 29  1  0  0  0  0
 28 33  1  0  0  0  0
 29 30  1  0  0  0  0
 29 32  1  0  0  0  0
 29 34  1  0  0  0  0
 30 31  2  0  0  0  0
 30 38  1  0  0  0  0
 32 35  1  0  0  0  0
 32 36  1  0  0  0  0
 32 37  1  0  0  0  0
 38 39  1  0  0  0  0
 38 40  1  0  0  0  0
 39 41  1  0  0  0  0
 39 42  1  0  0  0  0
 39 43  1  0  0  0  0
M  END
$$$$

  -OEChem-05262216003D

 43 42  0     1  0  0  0  0  0999 V2000
   -3.3476   -4.6825    1.4028 C   0  0  0  0  0  0  0  0  0  0  0  0
   -2.5955   -4.9310    2.3325 O   0  0  0  0  0  0  0  0  0  0  0  0
   -4.7578   -5.2417    1.3914 C   0  0  0  0  0  0  0  0  0  0  0  0
   -4.9193   -5.8253    0.4817 H   0  0  0  0  0  0  0  0  0  0  0  0
   -4.9139   -5.8899    2.2582 H   0  0  0  0  0  0  0  0  0  0  0  0
   -5.4831   -4.4251    1.4256 H   0  0  0  0  0  0  0  0  0  0  0  0
   -2.9181   -3.8908    0.3598 N   0  0  0  0  0  0  0  0  0  0  0  0
   -1.6278   -3.1915    0.3193 C   0  0  2  0  0  0  0  0  0  0  0  0
   -1.7303   -1.8629   -0.4619 C   0  0  0  0  0  0  0  0  0  0  0  0
   -2.6916   -1.6799   -1.1930 O   0  0  0  0  0  0  0  0  0  0  0  0
   -0.5971   -4.1271   -0.3215 C   0  0  0  0  0  0  0  0  0  0  0  0
   -3.6124   -3.6018   -0.3297 H   0  0  0  0  0  0  0  0  0  0  0  0
   -1.3087   -2.9462    1.3379 H   0  0  0  0  0  0  0  0  0  0  0  0
   -0.8900   -4.3718   -1.3476 H   0  0  0  0  0  0  0  0  0  0  0  0
    0.3911   -3.6583   -0.3428 H   0  0  0  0  0  0  0  0  0  0  0  0
   -0.5227   -5.0571    0.2513 H   0  0  0  0  0  0  0  0  0  0  0  0
   -0.6601   -0.9878   -0.4548 N   0  0  0  0  0  0  0  0  0  0  0  0
   -0.5747    0.4590   -0.7677 C   0  0  2  0  0  0  0  0  0  0  0  0
    0.7975    0.9439   -0.2190 C   0  0  0  0  0  0  0  0  0  0  0  0
    1.7608    0.1880   -0.2922 O   0  0  0  0  0  0  0  0  0  0  0  0
   -1.6715    1.3860   -0.1583 C   0  0  0  0  0  0  0  0  0  0  0  0
   -3.4063    1.1522   -0.7161 S   0  0  0  0  0  0  0  0  0  0  0  0
    0.1785   -1.3593   -0.0086 H   0  0  0  0  0  0  0  0  0  0  0  0
   -0.5846    0.5860   -1.8549 H   0  0  0  0  0  0  0  0  0  0  0  0
   -1.6549    1.2684    0.9305 H   0  0  0  0  0  0  0  0  0  0  0  0
   -1.4208    2.4262   -0.3894 H   0  0  0  0  0  0  0  0  0  0  0  0
   -4.0634    2.0420    0.0590 H   0  0  0  0  0  0  0  0  0  0  0  0
    0.9644    2.1146    0.5023 N   0  0  0  0  0  0  0  0  0  0  0  0
    2.1675    2.4752    1.2639 C   0  0  2  0  0  0  0  0  0  0  0  0
    1.8010    3.3385    2.4903 C   0  0  0  0  0  0  0  0  0  0  0  0
    0.6601    3.7741    2.6091 O   0  0  0  0  0  0  0  0  0  0  0  0
    3.1249    3.2262    0.3330 C   0  0  0  0  0  0  0  0  0  0  0  0
    0.1295    2.6608    0.7131 H   0  0  0  0  0  0  0  0  0  0  0  0
    2.6599    1.5709    1.6367 H   0  0  0  0  0  0  0  0  0  0  0  0
    2.6550    4.1407   -0.0430 H   0  0  0  0  0  0  0  0  0  0  0  0
    4.0431    3.4980    0.8623 H   0  0  0  0  0  0  0  0  0  0  0  0
    3.3947    2.5972   -0.5215 H   0  0  0  0  0  0  0  0  0  0  0  0
    2.7351    3.6032    3.4747 N   0  0  0  0  0  0  0  0  0  0  0  0
    2.4353    4.3755    4.6751 C   0  0  0  0  0  0  0  0  0  0  0  0
    3.6651    3.2100    3.3623 H   0  0  0  0  0  0  0  0  0  0  0  0
    2.1152    5.3888    4.4100 H   0  0  0  0  0  0  0  0  0  0  0  0
    1.6384    3.8942    5.2520 H   0  0  0  0  0  0  0  0  0  0  0  0
    3.3239    4.4493    5.3096 H   0  0  0  0  0  0  0  0  0  0  0  0
  1  2  2  0  0  0  0
  1  3  1  0  0  0  0
  1  7  1  0  0  0  0
  3  4  1  0  0  0  0
  3  5  1  0  0  0  0
  3  6  1  0  0  0  0
  7  8  1  0  0  0  0
  7 12  1  0  0  0  0
  8  9  1  0  0  0  0
  8 11  1  0  0  0  0
  8 13  1  0  0  0  0
  9 10  2  0  0  0  0
  9 17  1  0  0  0  0
 11 14  1  0  0  0  0
 11 15  1  0  0  0  0
 11 16  1  0  0  0  0
 17 18  1  0  0  0  0
 17 23  1  0  0  0  0
 18 19  1  0  0  0  0
 18 21  1  0  0  0  0
 18 24  1  0  0  0  0
 19 20  2  0  0  0  0
 19 28  1  0  0  0  0
 21 22  1  0  0  0  0
 21 25  1  0  0  0  0
 21 26  1  0  0  0  0
 22 27  1  0  0  0  0
 28 29  1  0  0  0  0
 28 33  1  0  0  0  0
 29 30  1  0  0  0  0
 29 32  1  0  0  0  0
 29 34  1  0  0  0  0
 30 31  2  0  0  0  0
 30 38  1  0  0  0  0
 32 35  1  0  0  0  0
 32 36  1  0  0  0  0
 32 37  1  0  0  0  0
 38 39  1  0  0  0  0
 38 40  1  0  0  0  0
 39 41  1  0  0  0  0
 39 42  1  0  0  0  0
 39 43  1  0  0  0  0
M  END
$$$$

  -OEChem-05262216003D

 43 42  0     1  0  0  0  0  0999 V2000
   -3.2224   -4.9751    1.2958 C   0  0  0  0  0  0  0  0  0  0  0  0
   -2.3028   -5.4364    1.9537 O   0  0  0  0  0  0  0  0  0  0  0  0
   -4.6332   -5.5006    1.4853 C   0  0  0  0  0  0  0  0  0  0  0  0
   -5.0012   -5.9273    0.5490 H   0  0  0  0  0  0  0  0  0  0  0  0
   -4.6465   -6.2766    2.2557 H   0  0  0  0  0  0  0  0  0  0  0  0
   -5.2959   -4.6881    1.7929 H   0  0  0  0  0  0  0  0  0  0  0  0
   -2.9823   -3.9681    0.3857 N   0  0  0  0  0  0  0  0  0  0  0  0
   -1.6957   -3.2763    0.2299 C   0  0  2  0  0  0  0  0  0  0  0  0
   -1.8835   -1.8094   -0.2197 C   0  0  0  0  0  0  0  0  0  0  0  0
   -2.9883   -1.4584   -0.5955 O   0  0  0  0  0  0  0  0  0  0  0  0
   -0.8523   -4.0499   -0.7897 C   0  0  0  0  0  0  0  0  0  0  0  0
   -3.7920   -3.5191   -0.0427 H   0  0  0  0  0  0  0  0  0  0  0  0
   -1.1720   -3.2566    1.1918 H   0  0  0  0  0  0  0  0  0  0  0  0
   -1.3542   -4.0706   -1.7625 H   0  0  0  0  0  0  0  0  0  0  0  0
    0.1299   -3.5837   -0.9131 H   0  0  0  0  0  0  0  0  0  0  0  0
   -0.7021   -5.0805   -0.4531 H   0  0  0  0  0  0  0  0  0  0  0  0
   -0.7829   -0.9689   -0.1904 N   0  0  0  0  0  0  0  0  0  0  0  0
   -0.5595    0.4524   -0.5573 C   0  0  2  0  0  0  0  0  0  0  0  0
    0.7921    0.8642    0.0742 C   0  0  0  0  0  0  0  0  0  0  0  0
    1.7657    0.1454   -0.1196 O   0  0  0  0  0  0  0  0  0  0  0  0
   -1.6306    1.5359   -0.2441 C   0  0  0  0  0  0  0  0  0  0  0  0
   -3.2419    1.4077   -1.1205 S   0  0  0  0  0  0  0  0  0  0  0  0
    0.0752   -1.4471    0.0834 H   0  0  0  0  0  0  0  0  0  0  0  0
   -0.4215    0.4793   -1.6426 H   0  0  0  0  0  0  0  0  0  0  0  0
   -1.8379    1.5042    0.8307 H   0  0  0  0  0  0  0  0  0  0  0  0
   -1.2185    2.5229   -0.4786 H   0  0  0  0  0  0  0  0  0  0  0  0
   -3.9845    2.3223   -0.4606 H   0  0  0  0  0  0  0  0  0  0  0  0
    0.9146    1.8901    0.9951 N   0  0  0  0  0  0  0  0  0  0  0  0
    2.1169    2.1776    1.7889 C   0  0  2  0  0  0  0  0  0  0  0  0
    1.7527    2.9324    3.0861 C   0  0  0  0  0  0  0  0  0  0  0  0
    0.6109    3.3513    3.2466 O   0  0  0  0  0  0  0  0  0  0  0  0
    3.0843    3.0063    0.9362 C   0  0  0  0  0  0  0  0  0  0  0  0
    0.0614    2.3652    1.2903 H   0  0  0  0  0  0  0  0  0  0  0  0
    2.6012    1.2390    2.0786 H   0  0  0  0  0  0  0  0  0  0  0  0
    2.6210    3.9544    0.6444 H   0  0  0  0  0  0  0  0  0  0  0  0
    4.0007    3.2224    1.4934 H   0  0  0  0  0  0  0  0  0  0  0  0
    3.3573    2.4584    0.0288 H   0  0  0  0  0  0  0  0  0  0  0  0
    2.6940    3.1320    4.0792 N   0  0  0  0  0  0  0  0  0  0  0  0
    2.4055    3.8344    5.3244 C   0  0  0  0  0  0  0  0  0  0  0  0
    3.6283    2.7633    3.9271 H   0  0  0  0  0  0  0  0  0  0  0  0
    2.0448    4.8479    5.1187 H   0  0  0  0  0  0  0  0  0  0  0  0
    1.6423    3.2988    5.8986 H   0  0  0  0  0  0  0  0  0  0  0  0
    3.3098    3.9087    5.9362 H   0  0  0  0  0  0  0  0  0  0  0  0
  1  2  2  0  0  0  0
  1  3  1  0  0  0  0
  1  7  1  0  0  0  0
  3  4  1  0  0  0  0
  3  5  1  0  0  0  0
  3  6  1  0  0  0  0
  7  8  1  0  0  0  0
  7 12  1  0  0  0  0
  8  9  1  0  0  0  0
  8 11  1  0  0  0  0
  8 13  1  0  0  0  0
  9 10  2  0  0  0  0
  9 17  1  0  0  0  0
 11 14  1  0  0  0  0
 11 15  1  0  0  0  0
 11 16  1  0  0  0  0
 17 18  1  0  0  0  0
 17 23  1  0  0  0  0
 18 19  1  0  0  0  0
 18 21  1  0  0  0  0
 18 24  1  0  0  0  0
 19 20  2  0  0  0  0
 19 28  1  0  0  0  0
 21 22  1  0  0  0  0
 21 25  1  0  0  0  0
 21 26  1  0  0  0  0
 22 27  1  0  0  0  0
 28 29  1  0  0  0  0
 28 33  1  0  0  0  0
 29 30  1  0  0  0  0
 29 32  1  0  0  0  0
 29 34  1  0  0  0  0
 30 31  2  0  0  0  0
 30 38  1  0  0  0  0
 32 35  1  0  0  0  0
 32 36  1  0  0  0  0
 32 37  1  0  0  0  0
 38 39  1  0  0  0  0
 38 40  1  0  0  0  0
 39 41  1  0  0  0  0
 39 42  1  0  0  0  0
 39 43  1  0  0  0  0
M  END
$$$$

  -OEChem-05262216003D

 43 42  0     1  0  0  0  0  0999 V2000
   -3.2572   -5.1101    1.1823 C   0  0  0  0  0  0  0  0  0  0  0  0
   -2.3047   -5.8395    1.4104 O   0  0  0  0  0  0  0  0  0  0  0  0
   -4.6547   -5.5229    1.6049 C   0  0  0  0  0  0  0  0  0  0  0  0
   -5.3091   -5.5695    0.7312 H   0  0  0  0  0  0  0  0  0  0  0  0
   -4.6307   -6.5075    2.0801 H   0  0  0  0  0  0  0  0  0  0  0  0
   -5.0592   -4.7981    2.3158 H   0  0  0  0  0  0  0  0  0  0  0  0
   -3.0650   -3.9010    0.5497 N   0  0  0  0  0  0  0  0  0  0  0  0
   -1.7484   -3.3154    0.2676 C   0  0  2  0  0  0  0  0  0  0  0  0
   -1.7993   -1.7717    0.2714 C   0  0  0  0  0  0  0  0  0  0  0  0
   -2.8614   -1.2114    0.5058 O   0  0  0  0  0  0  0  0  0  0  0  0
   -1.2633   -3.8355   -1.0896 C   0  0  0  0  0  0  0  0  0  0  0  0
   -3.8578   -3.2597    0.5236 H   0  0  0  0  0  0  0  0  0  0  0  0
   -1.0389   -3.6198    1.0447 H   0  0  0  0  0  0  0  0  0  0  0  0
   -1.9515   -3.5300   -1.8842 H   0  0  0  0  0  0  0  0  0  0  0  0
   -0.2678   -3.4445   -1.3203 H   0  0  0  0  0  0  0  0  0  0  0  0
   -1.2080   -4.9288   -1.0781 H   0  0  0  0  0  0  0  0  0  0  0  0
   -0.6170   -1.0536    0.2538 N   0  0  0  0  0  0  0  0  0  0  0  0
   -0.3206    0.2679   -0.3496 C   0  0  2  0  0  0  0  0  0  0  0  0
    1.0053    0.7972    0.2246 C   0  0  0  0  0  0  0  0  0  0  0  0
    2.0422    0.2079   -0.0531 O   0  0  0  0  0  0  0  0  0  0  0  0
   -1.4098    1.3597   -0.4437 C   0  0  0  0  0  0  0  0  0  0  0  0
   -2.8067    0.9145   -1.5620 S   0  0  0  0  0  0  0  0  0  0  0  0
    0.2018   -1.6578    0.2931 H   0  0  0  0  0  0  0  0  0  0  0  0
   -0.0917    0.0534   -1.3985 H   0  0  0  0  0  0  0  0  0  0  0  0
   -1.8110    1.5369    0.5595 H   0  0  0  0  0  0  0  0  0  0  0  0
   -0.9669    2.2958   -0.7998 H   0  0  0  0  0  0  0  0  0  0  0  0
   -3.7844    1.7123   -1.0810 H   0  0  0  0  0  0  0  0  0  0  0  0
    1.0308    1.8099    1.1652 N   0  0  0  0  0  0  0  0  0  0  0  0
    2.1986    2.1420    1.9924 C   0  0  2  0  0  0  0  0  0  0  0  0
    1.7801    2.4186    3.4514 C   0  0  0  0  0  0  0  0  0  0  0  0
    0.6139    2.6965    3.7090 O   0  0  0  0  0  0  0  0  0  0  0  0
    2.8840    3.3679    1.3848 C   0  0  0  0  0  0  0  0  0  0  0  0
    0.1278    2.1014    1.5412 H   0  0  0  0  0  0  0  0  0  0  0  0
    2.9051    1.3055    2.0089 H   0  0  0  0  0  0  0  0  0  0  0  0
    2.2005    4.2232    1.3749 H   0  0  0  0  0  0  0  0  0  0  0  0
    3.7715    3.6376    1.9651 H   0  0  0  0  0  0  0  0  0  0  0  0
    3.1944    3.1575    0.3564 H   0  0  0  0  0  0  0  0  0  0  0  0
    2.7027    2.3351    4.4778 N   0  0  0  0  0  0  0  0  0  0  0  0
    2.3571    2.5268    5.8814 C   0  0  0  0  0  0  0  0  0  0  0  0
    3.6523    2.0647    4.2385 H   0  0  0  0  0  0  0  0  0  0  0  0
    2.0009    3.5479    6.0536 H   0  0  0  0  0  0  0  0  0  0  0  0
    1.5726    1.8244    6.1826 H   0  0  0  0  0  0  0  0  0  0  0  0
    3.2342    2.3552    6.5128 H   0  0  0  0  0  0  0  0  0  0  0  0
  1  2  2  0  0  0  0
  1  3  1  0  0  0  0
  1  7  1  0  0  0  0
  3  4  1  0  0  0  0
  3  5  1  0  0  0  0
  3  6  1  0  0  0  0
  7  8  1  0  0  0  0
  7 12  1  0  0  0  0
  8  9  1  0  0  0  0
  8 11  1  0  0  0  0
  8 13  1  0  0  0  0
  9 10  2  0  0  0  0
  9 17  1  0  0  0  0
 11 14  1  0  0  0  0
 11 15  1  0  0  0  0
 11 16  1  0  0  0  0
 17 18  1  0  0  0  0
 17 23  1  0  0  0  0
 18 19  1  0  0  0  0
 18 21  1  0  0  0  0
 18 24  1  0  0  0  0
 19 20  2  0  0  0  0
 19 28  1  0  0  0  0
 21 22  1  0  0  0  0
 21 25  1  0  0  0  0
 21 26  1  0  0  0  0
 22 27  1  0  0  0  0
 28 29  1  0  0  0  0
 28 33  1  0  0  0  0
 29 30  1  0  0  0  0
 29 32  1  0  0  0  0
 29 34  1  0  0  0  0
 30 31  2  0  0  0  0
 30 38  1  0  0  0  0
 32 35  1  0  0  0  0
 32 36  1  0  0  0  0
 32 37  1  0  0  0  0
 38 39  1  0  0  0  0
 38 40  1  0  0  0  0
 39 41  1  0  0  0  0
 39 42  1  0  0  0  0
 39 43  1  0  0  0  0
M  END
$$$$

  -OEChem-05262216003D

 43 42  0     1  0  0  0  0  0999 V2000
   -3.2519   -5.0203    1.2668 C   0  0  0  0  0  0  0  0  0  0  0  0
   -2.3181   -5.5557    1.8436 O   0  0  0  0  0  0  0  0  0  0  0  0
   -4.6677   -5.5226    1.4782 C   0  0  0  0  0  0  0  0  0  0  0  0
   -5.0818   -5.8763    0.5308 H   0  0  0  0  0  0  0  0  0  0  0  0
   -4.6724   -6.3477    2.1963 H   0  0  0  0  0  0  0  0  0  0  0  0
   -5.2964   -4.7167    1.8645 H   0  0  0  0  0  0  0  0  0  0  0  0
   -3.0203   -3.9553    0.4229 N   0  0  0  0  0  0  0  0  0  0  0  0
   -1.7173   -3.2997    0.2506 C   0  0  2  0  0  0  0  0  0  0  0  0
   -1.8680   -1.8055   -0.1152 C   0  0  0  0  0  0  0  0  0  0  0  0
   -2.9783   -1.3876   -0.3923 O   0  0  0  0  0  0  0  0  0  0  0  0
   -0.9401   -4.0472   -0.8386 C   0  0  0  0  0  0  0  0  0  0  0  0
   -3.8325   -3.4534    0.0631 H   0  0  0  0  0  0  0  0  0  0  0  0
   -1.1580   -3.3490    1.1912 H   0  0  0  0  0  0  0  0  0  0  0  0
   -1.4801   -4.0058   -1.7899 H   0  0  0  0  0  0  0  0  0  0  0  0
    0.0508   -3.6057   -0.9803 H   0  0  0  0  0  0  0  0  0  0  0  0
   -0.8096   -5.0971   -0.5579 H   0  0  0  0  0  0  0  0  0  0  0  0
   -0.7389   -1.0039   -0.0724 N   0  0  0  0  0  0  0  0  0  0  0  0
   -0.4719    0.4048   -0.4605 C   0  0  2  0  0  0  0  0  0  0  0  0
    0.8669    0.8195    0.1784 C   0  0  0  0  0  0  0  0  0  0  0  0
    1.9118    0.4819   -0.3603 O   0  0  0  0  0  0  0  0  0  0  0  0
   -1.5067    1.5364   -0.2167 C   0  0  0  0  0  0  0  0  0  0  0  0
   -3.0867    1.4375   -1.1527 S   0  0  0  0  0  0  0  0  0  0  0  0
    0.1033   -1.5318    0.1467 H   0  0  0  0  0  0  0  0  0  0  0  0
   -0.3111    0.3969   -1.5435 H   0  0  0  0  0  0  0  0  0  0  0  0
   -1.7598    1.5425    0.8481 H   0  0  0  0  0  0  0  0  0  0  0  0
   -1.0407    2.4991   -0.4530 H   0  0  0  0  0  0  0  0  0  0  0  0
   -3.8160    2.4008   -0.5507 H   0  0  0  0  0  0  0  0  0  0  0  0
    0.9221    1.3878    1.4374 N   0  0  0  0  0  0  0  0  0  0  0  0
    2.1535    1.5963    2.2109 C   0  0  2  0  0  0  0  0  0  0  0  0
    1.8695    1.5808    3.7284 C   0  0  0  0  0  0  0  0  0  0  0  0
    0.7120    1.5905    4.1332 O   0  0  0  0  0  0  0  0  0  0  0  0
    2.7717    2.9336    1.7907 C   0  0  0  0  0  0  0  0  0  0  0  0
    0.0465    1.4602    1.9570 H   0  0  0  0  0  0  0  0  0  0  0  0
    2.8626    0.7878    2.0031 H   0  0  0  0  0  0  0  0  0  0  0  0
    2.0813    3.7565    2.0011 H   0  0  0  0  0  0  0  0  0  0  0  0
    3.7045    3.1137    2.3328 H   0  0  0  0  0  0  0  0  0  0  0  0
    2.9933    2.9303    0.7189 H   0  0  0  0  0  0  0  0  0  0  0  0
    2.9071    1.5325    4.6412 N   0  0  0  0  0  0  0  0  0  0  0  0
    2.7018    1.4822    6.0842 C   0  0  0  0  0  0  0  0  0  0  0  0
    3.8552    1.4988    4.2779 H   0  0  0  0  0  0  0  0  0  0  0  0
    2.1108    2.3415    6.4186 H   0  0  0  0  0  0  0  0  0  0  0  0
    2.1770    0.5630    6.3650 H   0  0  0  0  0  0  0  0  0  0  0  0
    3.6643    1.5036    6.6042 H   0  0  0  0  0  0  0  0  0  0  0  0
  1  2  2  0  0  0  0
  1  3  1  0  0  0  0
  1  7  1  0  0  0  0
  3  4  1  0  0  0  0
  3  5  1  0  0  0  0
  3  6  1  0  0  0  0
  7  8  1  0  0  0  0
  7 12  1  0  0  0  0
  8  9  1  0  0  0  0
  8 11  1  0  0  0  0
  8 13  1  0  0  0  0
  9 10  2  0  0  0  0
  9 17  1  0  0  0  0
 11 14  1  0  0  0  0
 11 15  1  0  0  0  0
 11 16  1  0  0  0  0
 17 18  1  0  0  0  0
 17 23  1  0  0  0  0
 18 19  1  0  0  0  0
 18 21  1  0  0  0  0
 18 24  1  0  0  0  0
 19 20  2  0  0  0  0
 19 28  1  0  0  0  0
 21 22  1  0  0  0  0
 21 25  1  0  0  0  0
 21 26  1  0  0  0  0
 22 27  1  0  0  0  0
 28 29  1  0  0  0  0
 28 33  1  0  0  0  0
 29 30  1  0  0  0  0
 29 32  1  0  0  0  0
 29 34  1  0  0  0  0
 30 31  2  0  0  0  0
 30 38  1  0  0  0  0
 32 35  1  0  0  0  0
 32 36  1  0  0  0  0
 32 37  1  0  0  0  0
 38 39  1  0  0  0  0
 38 40  1  0  0  0  0
 39 41  1  0  0  0  0
 39 42  1  0  0  0  0
 39 43  1  0  0  0  0
M  END
$$$$

  -OEChem-05262216003D

 43 42  0     1  0  0  0  0  0999 V2000
   -2.5616   -2.1445    1.8116 C   0  0  0  0  0  0  0  0  0  0  0  0
   -1.8119   -1.2341    2.1439 O   0  0  0  0  0  0  0  0  0  0  0  0
   -4.0561   -1.9966    2.0249 C   0  0  0  0  0  0  0  0  0  0  0  0
   -4.4196   -2.7913    2.6811 H   0  0  0  0  0  0  0  0  0  0  0  0
   -4.2795   -1.0304    2.4858 H   0  0  0  0  0  0  0  0  0  0  0  0
   -4.5772   -2.0584    1.0660 H   0  0  0  0  0  0  0  0  0  0  0  0
   -2.0787   -3.2800    1.1906 N   0  0  0  0  0  0  0  0  0  0  0  0
   -0.6831   -3.4377    0.7584 C   0  0  2  0  0  0  0  0  0  0  0  0
   -0.3633   -2.5178   -0.4400 C   0  0  0  0  0  0  0  0  0  0  0  0
   -0.6341   -2.8398   -1.5878 O   0  0  0  0  0  0  0  0  0  0  0  0
   -0.4505   -4.9152    0.4277 C   0  0  0  0  0  0  0  0  0  0  0  0
   -2.7713   -3.8880    0.7627 H   0  0  0  0  0  0  0  0  0  0  0  0
   -0.0124   -3.1670    1.5818 H   0  0  0  0  0  0  0  0  0  0  0  0
   -1.1149   -5.2405   -0.3793 H   0  0  0  0  0  0  0  0  0  0  0  0
    0.5844   -5.0719    0.1071 H   0  0  0  0  0  0  0  0  0  0  0  0
   -0.6384   -5.5365    1.3085 H   0  0  0  0  0  0  0  0  0  0  0  0
    0.1997   -1.2952   -0.1602 N   0  0  0  0  0  0  0  0  0  0  0  0
   -0.1799    0.0106   -0.7342 C   0  0  2  0  0  0  0  0  0  0  0  0
    0.4993    1.0174    0.2067 C   0  0  0  0  0  0  0  0  0  0  0  0
    1.5626    1.5486   -0.0873 O   0  0  0  0  0  0  0  0  0  0  0  0
   -1.6846    0.3922   -0.8194 C   0  0  0  0  0  0  0  0  0  0  0  0
   -2.7291   -0.6316   -1.9331 S   0  0  0  0  0  0  0  0  0  0  0  0
    0.5238   -1.2394    0.8127 H   0  0  0  0  0  0  0  0  0  0  0  0
    0.2575    0.0983   -1.7343 H   0  0  0  0  0  0  0  0  0  0  0  0
   -2.1350    0.3567    0.1747 H   0  0  0  0  0  0  0  0  0  0  0  0
   -1.7472    1.4290   -1.1659 H   0  0  0  0  0  0  0  0  0  0  0  0
   -3.8913    0.0541   -1.9132 H   0  0  0  0  0  0  0  0  0  0  0  0
   -0.0503    1.2236    1.4615 N   0  0  0  0  0  0  0  0  0  0  0  0
    0.8541    1.4895    2.5857 C   0  0  2  0  0  0  0  0  0  0  0  0
    1.7516    0.2673    2.9104 C   0  0  0  0  0  0  0  0  0  0  0  0
    1.4535   -0.8576    2.5115 O   0  0  0  0  0  0  0  0  0  0  0  0
   -0.0142    1.8472    3.7930 C   0  0  0  0  0  0  0  0  0  0  0  0
   -0.8001    0.5588    1.6750 H   0  0  0  0  0  0  0  0  0  0  0  0
    1.5000    2.3416    2.3482 H   0  0  0  0  0  0  0  0  0  0  0  0
   -0.6635    1.0061    4.0590 H   0  0  0  0  0  0  0  0  0  0  0  0
    0.6111    2.0907    4.6572 H   0  0  0  0  0  0  0  0  0  0  0  0
   -0.6423    2.7139    3.5646 H   0  0  0  0  0  0  0  0  0  0  0  0
    2.9122    0.4321    3.6437 N   0  0  0  0  0  0  0  0  0  0  0  0
    3.8550   -0.6515    3.8950 C   0  0  0  0  0  0  0  0  0  0  0  0
    3.1901    1.3833    3.8671 H   0  0  0  0  0  0  0  0  0  0  0  0
    3.3633   -1.4729    4.4267 H   0  0  0  0  0  0  0  0  0  0  0  0
    4.2589   -1.0339    2.9516 H   0  0  0  0  0  0  0  0  0  0  0  0
    4.6873   -0.2942    4.5090 H   0  0  0  0  0  0  0  0  0  0  0  0
  1  2  2  0  0  0  0
  1  3  1  0  0  0  0
  1  7  1  0  0  0  0
  3  4  1  0  0  0  0
  3  5  1  0  0  0  0
  3  6  1  0  0  0  0
  7  8  1  0  0  0  0
  7 12  1  0  0  0  0
  8  9  1  0  0  0  0
  8 11  1  0  0  0  0
  8 13  1  0  0  0  0
  9 10  2  0  0  0  0
  9 17  1  0  0  0  0
 11 14  1  0  0  0  0
 11 15  1  0  0  0  0
 11 16  1  0  0  0  0
 17 18  1  0  0  0  0
 17 23  1  0  0  0  0
 18 19  1  0  0  0  0
 18 21  1  0  0  0  0
 18 24  1  0  0  0  0
 19 20  2  0  0  0  0
 19 28  1  0  0  0  0
 21 22  1  0  0  0  0
 21 25  1  0  0  0  0
 21 26  1  0  0  0  0
 22 27  1  0  0  0  0
 28 29  1  0  0  0  0
 28 33  1  0  0  0  0
 29 30  1  0  0  0  0
 29 32  1  0  0  0  0
 29 34  1  0  0  0  0
 30 31  2  0  0  0  0
 30 38  1  0  0  0  0
 32 35  1  0  0  0  0
 32 36  1  0  0  0  0
 32 37  1  0  0  0  0
 38 39  1  0  0  0  0
 38 40  1  0  0  0  0
 39 41  1  0  0  0  0
 39 42  1  0  0  0  0
 39 43  1  0  0  0  0
M  END
$$$$

  -OEChem-05262216003D

 43 42  0     1  0  0  0  0  0999 V2000
   -2.4874   -2.3730    1.8012 C   0  0  0  0  0  0  0  0  0  0  0  0
   -1.7167   -1.4931    2.1658 O   0  0  0  0  0  0  0  0  0  0  0  0
   -3.9684   -2.2420    2.1009 C   0  0  0  0  0  0  0  0  0  0  0  0
   -4.3253   -3.1367    2.6169 H   0  0  0  0  0  0  0  0  0  0  0  0
   -4.1503   -1.3730    2.7392 H   0  0  0  0  0  0  0  0  0  0  0  0
   -4.5274   -2.1195    1.1698 H   0  0  0  0  0  0  0  0  0  0  0  0
   -2.0396   -3.4552    1.0689 N   0  0  0  0  0  0  0  0  0  0  0  0
   -0.6691   -3.5733    0.5510 C   0  0  2  0  0  0  0  0  0  0  0  0
   -0.4059   -2.5397   -0.5660 C   0  0  0  0  0  0  0  0  0  0  0  0
   -0.6964   -2.7666   -1.7314 O   0  0  0  0  0  0  0  0  0  0  0  0
   -0.4627   -5.0119    0.0653 C   0  0  0  0  0  0  0  0  0  0  0  0
   -2.7546   -4.0323    0.6351 H   0  0  0  0  0  0  0  0  0  0  0  0
    0.0454   -3.3860    1.3603 H   0  0  0  0  0  0  0  0  0  0  0  0
   -1.1704   -5.2561   -0.7337 H   0  0  0  0  0  0  0  0  0  0  0  0
    0.5529   -5.1363   -0.3240 H   0  0  0  0  0  0  0  0  0  0  0  0
   -0.6070   -5.7170    0.8894 H   0  0  0  0  0  0  0  0  0  0  0  0
    0.1477   -1.3374   -0.1926 N   0  0  0  0  0  0  0  0  0  0  0  0
   -0.2011    0.0115   -0.6837 C   0  0  2  0  0  0  0  0  0  0  0  0
    0.4438    0.9712    0.3291 C   0  0  0  0  0  0  0  0  0  0  0  0
    1.3952    1.6757    0.0188 O   0  0  0  0  0  0  0  0  0  0  0  0
   -1.7031    0.4055   -0.7286 C   0  0  0  0  0  0  0  0  0  0  0  0
   -2.7742   -0.5342   -1.8907 S   0  0  0  0  0  0  0  0  0  0  0  0
    0.5033   -1.3598    0.7700 H   0  0  0  0  0  0  0  0  0  0  0  0
    0.2417    0.1637   -1.6736 H   0  0  0  0  0  0  0  0  0  0  0  0
   -2.1353    0.3043    0.2707 H   0  0  0  0  0  0  0  0  0  0  0  0
   -1.7649    1.4636   -1.0040 H   0  0  0  0  0  0  0  0  0  0  0  0
   -3.9337    0.1502   -1.7982 H   0  0  0  0  0  0  0  0  0  0  0  0
    0.0517    0.8830    1.6555 N   0  0  0  0  0  0  0  0  0  0  0  0
    1.0404    1.0657    2.7230 C   0  0  2  0  0  0  0  0  0  0  0  0
    1.9424   -0.1826    2.8809 C   0  0  0  0  0  0  0  0  0  0  0  0
    1.6237   -1.2550    2.3705 O   0  0  0  0  0  0  0  0  0  0  0  0
    0.2717    1.3404    4.0166 C   0  0  0  0  0  0  0  0  0  0  0  0
   -0.6313    0.1371    1.8288 H   0  0  0  0  0  0  0  0  0  0  0  0
    1.6781    1.9290    2.5037 H   0  0  0  0  0  0  0  0  0  0  0  0
   -0.3697    0.4889    4.2680 H   0  0  0  0  0  0  0  0  0  0  0  0
    0.9647    1.5116    4.8458 H   0  0  0  0  0  0  0  0  0  0  0  0
   -0.3571    2.2289    3.9018 H   0  0  0  0  0  0  0  0  0  0  0  0
    3.1236   -0.1042    3.5948 N   0  0  0  0  0  0  0  0  0  0  0  0
    4.0521   -1.2205    3.7262 C   0  0  0  0  0  0  0  0  0  0  0  0
    3.4052    0.8106    3.9346 H   0  0  0  0  0  0  0  0  0  0  0  0
    3.5586   -2.0769    4.1980 H   0  0  0  0  0  0  0  0  0  0  0  0
    4.4251   -1.5263    2.7429 H   0  0  0  0  0  0  0  0  0  0  0  0
    4.9063   -0.9313    4.3463 H   0  0  0  0  0  0  0  0  0  0  0  0
  1  2  2  0  0  0  0
  1  3  1  0  0  0  0
  1  7  1  0  0  0  0
  3  4  1  0  0  0  0
  3  5  1  0  0  0  0
  3  6  1  0  0  0  0
  7  8  1  0  0  0  0
  7 12  1  0  0  0  0
  8  9  1  0  0  0  0
  8 11  1  0  0  0  0
  8 13  1  0  0  0  0
  9 10  2  0  0  0  0
  9 17  1  0  0  0  0
 11 14  1  0  0  0  0
 11 15  1  0  0  0  0
 11 16  1  0  0  0  0
 17 18  1  0  0  0  0
 17 23  1  0  0  0  0
 18 19  1  0  0  0  0
 18 21  1  0  0  0  0
 18 24  1  0  0  0  0
 19 20  2  0  0  0  0
 19 28  1  0  0  0  0
 21 22  1  0  0  0  0
 21 25  1  0  0  0  0
 21 26  1  0  0  0  0
 22 27  1  0  0  0  0
 28 29  1  0  0  0  0
 28 33  1  0  0  0  0
 29 30  1  0  0  0  0
 29 32  1  0  0  0  0
 29 34  1  0  0  0  0
 30 31  2  0  0  0  0
 30 38  1  0  0  0  0
 32 35  1  0  0  0  0
 32 36  1  0  0  0  0
 32 37  1  0  0  0  0
 38 39  1  0  0  0  0
 38 40  1  0  0  0  0
 39 41  1  0  0  0  0
 39 42  1  0  0  0  0
 39 43  1  0  0  0  0
M  END
$$$$

  -OEChem-05262216003D

 43 42  0     1  0  0  0  0  0999 V2000
   -2.4382   -2.5980    1.7743 C   0  0  0  0  0  0  0  0  0  0  0  0
   -1.6316   -1.7727    2.1856 O   0  0  0  0  0  0  0  0  0  0  0  0
   -3.8961   -2.4894    2.1784 C   0  0  0  0  0  0  0  0  0  0  0  0
   -4.2220   -3.4191    2.6509 H   0  0  0  0  0  0  0  0  0  0  0  0
   -4.0331   -1.6683    2.8877 H   0  0  0  0  0  0  0  0  0  0  0  0
   -4.5141   -2.3009    1.2969 H   0  0  0  0  0  0  0  0  0  0  0  0
   -2.0495   -3.5976    0.9039 N   0  0  0  0  0  0  0  0  0  0  0  0
   -0.7102   -3.6763    0.3030 C   0  0  2  0  0  0  0  0  0  0  0  0
   -0.4832   -2.5279   -0.7050 C   0  0  0  0  0  0  0  0  0  0  0  0
   -0.7875   -2.6392   -1.8834 O   0  0  0  0  0  0  0  0  0  0  0  0
   -0.5581   -5.0564   -0.3449 C   0  0  0  0  0  0  0  0  0  0  0  0
   -2.7947   -4.1278    0.4610 H   0  0  0  0  0  0  0  0  0  0  0  0
    0.0489   -3.5896    1.0886 H   0  0  0  0  0  0  0  0  0  0  0  0
   -1.3090   -5.2018   -1.1283 H   0  0  0  0  0  0  0  0  0  0  0  0
    0.4345   -5.1529   -0.7959 H   0  0  0  0  0  0  0  0  0  0  0  0
   -0.6758   -5.8445    0.4047 H   0  0  0  0  0  0  0  0  0  0  0  0
    0.0740   -1.3684   -0.2165 N   0  0  0  0  0  0  0  0  0  0  0  0
   -0.2020    0.0316   -0.6032 C   0  0  2  0  0  0  0  0  0  0  0  0
    0.4087    0.9081    0.5051 C   0  0  0  0  0  0  0  0  0  0  0  0
    1.2469    1.7589    0.2391 O   0  0  0  0  0  0  0  0  0  0  0  0
   -1.6901    0.4696   -0.6402 C   0  0  0  0  0  0  0  0  0  0  0  0
   -2.7718   -0.3349   -1.8904 S   0  0  0  0  0  0  0  0  0  0  0  0
    0.4708   -1.4905    0.7214 H   0  0  0  0  0  0  0  0  0  0  0  0
    0.2734    0.2514   -1.5646 H   0  0  0  0  0  0  0  0  0  0  0  0
   -2.1355    0.2935    0.3440 H   0  0  0  0  0  0  0  0  0  0  0  0
   -1.7203    1.5486   -0.8267 H   0  0  0  0  0  0  0  0  0  0  0  0
   -3.9134    0.3705   -1.7430 H   0  0  0  0  0  0  0  0  0  0  0  0
    0.1903    0.5498    1.8260 N   0  0  0  0  0  0  0  0  0  0  0  0
    1.2690    0.6268    2.8158 C   0  0  2  0  0  0  0  0  0  0  0  0
    2.1869   -0.6158    2.7411 C   0  0  0  0  0  0  0  0  0  0  0  0
    1.8121   -1.6330    2.1608 O   0  0  0  0  0  0  0  0  0  0  0  0
    0.6191    0.7346    4.1961 C   0  0  0  0  0  0  0  0  0  0  0  0
   -0.4535   -0.2405    1.9449 H   0  0  0  0  0  0  0  0  0  0  0  0
    1.8799    1.5196    2.6459 H   0  0  0  0  0  0  0  0  0  0  0  0
    0.0116   -0.1530    4.4029 H   0  0  0  0  0  0  0  0  0  0  0  0
    1.3837    0.8234    4.9737 H   0  0  0  0  0  0  0  0  0  0  0  0
   -0.0263    1.6174    4.2432 H   0  0  0  0  0  0  0  0  0  0  0  0
    3.4410   -0.5951    3.3223 N   0  0  0  0  0  0  0  0  0  0  0  0
    4.3801   -1.7070    3.2366 C   0  0  0  0  0  0  0  0  0  0  0  0
    3.7528    0.2804    3.7324 H   0  0  0  0  0  0  0  0  0  0  0  0
    3.9430   -2.6128    3.6699 H   0  0  0  0  0  0  0  0  0  0  0  0
    4.6427   -1.9064    2.1923 H   0  0  0  0  0  0  0  0  0  0  0  0
    5.2972   -1.4714    3.7852 H   0  0  0  0  0  0  0  0  0  0  0  0
  1  2  2  0  0  0  0
  1  3  1  0  0  0  0
  1  7  1  0  0  0  0
  3  4  1  0  0  0  0
  3  5  1  0  0  0  0
  3  6  1  0  0  0  0
  7  8  1  0  0  0  0
  7 12  1  0  0  0  0
  8  9  1  0  0  0  0
  8 11  1  0  0  0  0
  8 13  1  0  0  0  0
  9 10  2  0  0  0  0
  9 17  1  0  0  0  0
 11 14  1  0  0  0  0
 11 15  1  0  0  0  0
 11 16  1  0  0  0  0
 17 18  1  0  0  0  0
 17 23  1  0  0  0  0
 18 19  1  0  0  0  0
 18 21  1  0  0  0  0
 18 24  1  0  0  0  0
 19 20  2  0  0  0  0
 19 28  1  0  0  0  0
 21 22  1  0  0  0  0
 21 25  1  0  0  0  0
 21 26  1  0  0  0  0
 22 27  1  0  0  0  0
 28 29  1  0  0  0  0
 28 33  1  0  0  0  0
 29 30  1  0  0  0  0
 29 32  1  0  0  0  0
 29 34  1  0  0  0  0
 30 31  2  0  0  0  0
 30 38  1  0  0  0  0
 32 35  1  0  0  0  0
 32 36  1  0  0  0  0
 32 37  1  0  0  0  0
 38 39  1  0  0  0  0
 38 40  1  0  0  0  0
 39 41  1  0  0  0  0
 39 42  1  0  0  0  0
 39 43  1  0  0  0  0
M  END
$$$$

  -OEChem-05262216003D

 43 42  0     1  0  0  0  0  0999 V2000
   -2.2622   -2.8683    1.8202 C   0  0  0  0  0  0  0  0  0  0  0  0
   -1.3993   -2.0911    2.2085 O   0  0  0  0  0  0  0  0  0  0  0  0
   -3.6394   -2.8424    2.4551 C   0  0  0  0  0  0  0  0  0  0  0  0
   -3.8811   -3.8278    2.8609 H   0  0  0  0  0  0  0  0  0  0  0  0
   -3.6690   -2.1113    3.2678 H   0  0  0  0  0  0  0  0  0  0  0  0
   -4.3894   -2.5695    1.7084 H   0  0  0  0  0  0  0  0  0  0  0  0
   -2.0116   -3.7387    0.7777 N   0  0  0  0  0  0  0  0  0  0  0  0
   -0.7636   -3.7488    0.0002 C   0  0  2  0  0  0  0  0  0  0  0  0
   -0.6355   -2.4857   -0.8818 C   0  0  0  0  0  0  0  0  0  0  0  0
   -0.9953   -2.4830   -2.0488 O   0  0  0  0  0  0  0  0  0  0  0  0
   -0.7301   -5.0420   -0.8220 C   0  0  0  0  0  0  0  0  0  0  0  0
   -2.8096   -4.2402    0.3980 H   0  0  0  0  0  0  0  0  0  0  0  0
    0.0927   -3.7653    0.6843 H   0  0  0  0  0  0  0  0  0  0  0  0
   -1.5746   -5.0805   -1.5179 H   0  0  0  0  0  0  0  0  0  0  0  0
    0.1969   -5.0959   -1.4016 H   0  0  0  0  0  0  0  0  0  0  0  0
   -0.7779   -5.9141   -0.1631 H   0  0  0  0  0  0  0  0  0  0  0  0
   -0.0523   -1.3810   -0.3024 N   0  0  0  0  0  0  0  0  0  0  0  0
   -0.2191    0.0616   -0.5877 C   0  0  2  0  0  0  0  0  0  0  0  0
    0.3830    0.8381    0.6012 C   0  0  0  0  0  0  0  0  0  0  0  0
    1.0996    1.8089    0.3982 O   0  0  0  0  0  0  0  0  0  0  0  0
   -1.6753    0.5938   -0.6433 C   0  0  0  0  0  0  0  0  0  0  0  0
   -2.7572   -0.0374   -1.9890 S   0  0  0  0  0  0  0  0  0  0  0  0
    0.4149   -1.6044    0.5823 H   0  0  0  0  0  0  0  0  0  0  0  0
    0.3071    0.3197   -1.5124 H   0  0  0  0  0  0  0  0  0  0  0  0
   -2.1644    0.3648    0.3092 H   0  0  0  0  0  0  0  0  0  0  0  0
   -1.6369    1.6844   -0.7402 H   0  0  0  0  0  0  0  0  0  0  0  0
   -3.8832    0.6774   -1.7831 H   0  0  0  0  0  0  0  0  0  0  0  0
    0.3567    0.2685    1.8642 N   0  0  0  0  0  0  0  0  0  0  0  0
    1.5372    0.2658    2.7332 C   0  0  2  0  0  0  0  0  0  0  0  0
    2.4169   -0.9788    2.4699 C   0  0  0  0  0  0  0  0  0  0  0  0
    1.9823   -1.9185    1.8067 O   0  0  0  0  0  0  0  0  0  0  0  0
    1.0403    0.2846    4.1794 C   0  0  0  0  0  0  0  0  0  0  0  0
   -0.2455   -0.5583    1.9451 H   0  0  0  0  0  0  0  0  0  0  0  0
    2.1458    1.1596    2.5599 H   0  0  0  0  0  0  0  0  0  0  0  0
    0.4359   -0.6047    4.3872 H   0  0  0  0  0  0  0  0  0  0  0  0
    1.8842    0.3040    4.8752 H   0  0  0  0  0  0  0  0  0  0  0  0
    0.4252    1.1725    4.3558 H   0  0  0  0  0  0  0  0  0  0  0  0
    3.7065   -1.0430    2.9642 N   0  0  0  0  0  0  0  0  0  0  0  0
    4.6102   -2.1558    2.6977 C   0  0  0  0  0  0  0  0  0  0  0  0
    4.0642   -0.2257    3.4499 H   0  0  0  0  0  0  0  0  0  0  0  0
    4.1659   -3.0996    3.0311 H   0  0  0  0  0  0  0  0  0  0  0  0
    4.8249   -2.2257    1.6261 H   0  0  0  0  0  0  0  0  0  0  0  0
    5.5545   -2.0137    3.2322 H   0  0  0  0  0  0  0  0  0  0  0  0
  1  2  2  0  0  0  0
  1  3  1  0  0  0  0
  1  7  1  0  0  0  0
  3  4  1  0  0  0  0
  3  5  1  0  0  0  0
  3  6  1  0  0  0  0
  7  8  1  0  0  0  0
  7 12  1  0  0  0  0
  8  9  1  0  0  0  0
  8 11  1  0  0  0  0
  8 13  1  0  0  0  0
  9 10  2  0  0  0  0
  9 17  1  0  0  0  0
 11 14  1  0  0  0  0
 11 15  1  0  0  0  0
 11 16  1  0  0  0  0
 17 18  1  0  0  0  0
 17 23  1  0  0  0  0
 18 19  1  0  0  0  0
 18 21  1  0  0  0  0
 18 24  1  0  0  0  0
 19 20  2  0  0  0  0
 19 28  1  0  0  0  0
 21 22  1  0  0  0  0
 21 25  1  0  0  0  0
 21 26  1  0  0  0  0
 22 27  1  0  0  0  0
 28 29  1  0  0  0  0
 28 33  1  0  0  0  0
 29 30  1  0  0  0  0
 29 32  1  0  0  0  0
 29 34  1  0  0  0  0
 30 31  2  0  0  0  0
 30 38  1  0  0  0  0
 32 35  1  0  0  0  0
 32 36  1  0  0  0  0
 32 37  1  0  0  0  0
 38 39  1  0  0  0  0
 38 40  1  0  0  0  0
 39 41  1  0  0  0  0
 39 42  1  0  0  0  0
 39 43  1  0  0  0  0
M  END
$$$$

  -OEChem-05262216003D

 43 42  0     1  0  0  0  0  0999 V2000
   -3.1725   -3.9656    1.6521 C   0  0  0  0  0  0  0  0  0  0  0  0
   -2.7344   -3.3612    2.6198 O   0  0  0  0  0  0  0  0  0  0  0  0
   -4.6294   -4.3877    1.6172 C   0  0  0  0  0  0  0  0  0  0  0  0
   -4.7025   -5.4731    1.5143 H   0  0  0  0  0  0  0  0  0  0  0  0
   -5.1320   -4.0862    2.5404 H   0  0  0  0  0  0  0  0  0  0  0  0
   -5.1337   -3.9135    0.7716 H   0  0  0  0  0  0  0  0  0  0  0  0
   -2.3589   -4.2343    0.5708 N   0  0  0  0  0  0  0  0  0  0  0  0
   -1.0528   -3.5840    0.3990 C   0  0  2  0  0  0  0  0  0  0  0  0
   -1.1896   -2.2277   -0.3254 C   0  0  0  0  0  0  0  0  0  0  0  0
   -1.9667   -2.1436   -1.2609 O   0  0  0  0  0  0  0  0  0  0  0  0
   -0.1460   -4.5313   -0.3895 C   0  0  0  0  0  0  0  0  0  0  0  0
   -2.8468   -4.4943   -0.2829 H   0  0  0  0  0  0  0  0  0  0  0  0
   -0.5867   -3.4080    1.3749 H   0  0  0  0  0  0  0  0  0  0  0  0
   -0.5602   -4.7221   -1.3848 H   0  0  0  0  0  0  0  0  0  0  0  0
    0.8506   -4.0936   -0.5051 H   0  0  0  0  0  0  0  0  0  0  0  0
   -0.0451   -5.4852    0.1371 H   0  0  0  0  0  0  0  0  0  0  0  0
   -0.3357   -1.2055    0.0446 N   0  0  0  0  0  0  0  0  0  0  0  0
   -0.2075    0.2143   -0.3872 C   0  0  2  0  0  0  0  0  0  0  0  0
    0.6742    0.9653    0.6350 C   0  0  0  0  0  0  0  0  0  0  0  0
    1.4046    1.8680    0.2508 O   0  0  0  0  0  0  0  0  0  0  0  0
   -1.4833    1.0977   -0.4682 C   0  0  0  0  0  0  0  0  0  0  0  0
   -2.7654    0.6588   -1.7101 S   0  0  0  0  0  0  0  0  0  0  0  0
    0.4376   -1.5506    0.6223 H   0  0  0  0  0  0  0  0  0  0  0  0
    0.2856    0.2334   -1.3644 H   0  0  0  0  0  0  0  0  0  0  0  0
   -1.9636    1.0893    0.5157 H   0  0  0  0  0  0  0  0  0  0  0  0
   -1.1776    2.1295   -0.6756 H   0  0  0  0  0  0  0  0  0  0  0  0
   -3.7260    1.5650   -1.4300 H   0  0  0  0  0  0  0  0  0  0  0  0
    0.9221    0.3919    1.8701 N   0  0  0  0  0  0  0  0  0  0  0  0
    2.2913    0.2045    2.3643 C   0  0  2  0  0  0  0  0  0  0  0  0
    2.8169   -1.1947    1.9679 C   0  0  0  0  0  0  0  0  0  0  0  0
    2.0333   -2.0413    1.5391 O   0  0  0  0  0  0  0  0  0  0  0  0
    2.2663    0.3732    3.8840 C   0  0  0  0  0  0  0  0  0  0  0  0
    0.2803   -0.3657    2.0962 H   0  0  0  0  0  0  0  0  0  0  0  0
    2.9648    0.9577    1.9415 H   0  0  0  0  0  0  0  0  0  0  0  0
    1.6175   -0.3795    4.3437 H   0  0  0  0  0  0  0  0  0  0  0  0
    3.2731    0.2667    4.2988 H   0  0  0  0  0  0  0  0  0  0  0  0
    1.8883    1.3665    4.1462 H   0  0  0  0  0  0  0  0  0  0  0  0
    4.1609   -1.5013    2.0607 N   0  0  0  0  0  0  0  0  0  0  0  0
    4.7189   -2.7845    1.6504 C   0  0  0  0  0  0  0  0  0  0  0  0
    4.7929   -0.7665    2.3666 H   0  0  0  0  0  0  0  0  0  0  0  0
    4.2582   -3.6017    2.2152 H   0  0  0  0  0  0  0  0  0  0  0  0
    4.5473   -2.9530    0.5820 H   0  0  0  0  0  0  0  0  0  0  0  0
    5.7972   -2.8048    1.8350 H   0  0  0  0  0  0  0  0  0  0  0  0
  1  2  2  0  0  0  0
  1  3  1  0  0  0  0
  1  7  1  0  0  0  0
  3  4  1  0  0  0  0
  3  5  1  0  0  0  0
  3  6  1  0  0  0  0
  7  8  1  0  0  0  0
  7 12  1  0  0  0  0
  8  9  1  0  0  0  0
  8 11  1  0  0  0  0
  8 13  1  0  0  0  0
  9 10  2  0  0  0  0
  9 17  1  0  0  0  0
 11 14  1  0  0  0  0
 11 15  1  0  0  0  0
 11 16  1  0  0  0  0
 17 18  1  0  0  0  0
 17 23  1  0  0  0  0
 18 19  1  0  0  0  0
 18 21  1  0  0  0  0
 18 24  1  0  0  0  0
 19 20  2  0  0  0  0
 19 28  1  0  0  0  0
 21 22  1  0  0  0  0
 21 25  1  0  0  0  0
 21 26  1  0  0  0  0
 22 27  1  0  0  0  0
 28 29  1  0  0  0  0
 28 33  1  0  0  0  0
 29 30  1  0  0  0  0
 29 32  1  0  0  0  0
 29 34  1  0  0  0  0
 30 31  2  0  0  0  0
 30 38  1  0  0  0  0
 32 35  1  0  0  0  0
 32 36  1  0  0  0  0
 32 37  1  0  0  0  0
 38 39  1  0  0  0  0
 38 40  1  0  0  0  0
 39 41  1  0  0  0  0
 39 42  1  0  0  0  0
 39 43  1  0  0  0  0
M  END
$$$$

  -OEChem-05262216003D

 43 42  0     1  0  0  0  0  0999 V2000
   -4.1783   -4.3931    1.0409 C   0  0  0  0  0  0  0  0  0  0  0  0
   -3.7947   -4.5883    2.1838 O   0  0  0  0  0  0  0  0  0  0  0  0
   -5.6214   -4.6689    0.6628 C   0  0  0  0  0  0  0  0  0  0  0  0
   -5.6617   -5.4218   -0.1282 H   0  0  0  0  0  0  0  0  0  0  0  0
   -6.1754   -5.0381    1.5304 H   0  0  0  0  0  0  0  0  0  0  0  0
   -6.0956   -3.7510    0.3070 H   0  0  0  0  0  0  0  0  0  0  0  0
   -3.3017   -3.9108    0.0929 N   0  0  0  0  0  0  0  0  0  0  0  0
   -1.9435   -3.4373    0.3859 C   0  0  2  0  0  0  0  0  0  0  0  0
   -1.5741   -2.2275   -0.4973 C   0  0  0  0  0  0  0  0  0  0  0  0
   -2.1957   -2.0116   -1.5293 O   0  0  0  0  0  0  0  0  0  0  0  0
   -0.9691   -4.5970    0.1589 C   0  0  0  0  0  0  0  0  0  0  0  0
   -3.6969   -3.6238   -0.8029 H   0  0  0  0  0  0  0  0  0  0  0  0
   -1.8813   -3.1103    1.4293 H   0  0  0  0  0  0  0  0  0  0  0  0
   -1.0034   -4.9261   -0.8848 H   0  0  0  0  0  0  0  0  0  0  0  0
    0.0553   -4.2938    0.3953 H   0  0  0  0  0  0  0  0  0  0  0  0
   -1.2342   -5.4437    0.8002 H   0  0  0  0  0  0  0  0  0  0  0  0
   -0.4212   -1.5029   -0.2631 N   0  0  0  0  0  0  0  0  0  0  0  0
   -0.3319   -0.0208   -0.3444 C   0  0  2  0  0  0  0  0  0  0  0  0
    0.9818    0.4717    0.3200 C   0  0  0  0  0  0  0  0  0  0  0  0
    1.2353    1.6656    0.4153 O   0  0  0  0  0  0  0  0  0  0  0  0
   -1.4546    0.7349    0.4329 C   0  0  0  0  0  0  0  0  0  0  0  0
   -3.1830    0.5262   -0.1644 S   0  0  0  0  0  0  0  0  0  0  0  0
    0.0899   -1.8963    0.5207 H   0  0  0  0  0  0  0  0  0  0  0  0
   -0.3425    0.2874   -1.3950 H   0  0  0  0  0  0  0  0  0  0  0  0
   -1.4168    0.4327    1.4846 H   0  0  0  0  0  0  0  0  0  0  0  0
   -1.2462    1.8098    0.3958 H   0  0  0  0  0  0  0  0  0  0  0  0
   -3.8487    1.3773    0.6451 H   0  0  0  0  0  0  0  0  0  0  0  0
    1.8751   -0.4275    0.8775 N   0  0  0  0  0  0  0  0  0  0  0  0
    3.1867   -0.0638    1.4298 C   0  0  2  0  0  0  0  0  0  0  0  0
    4.1629   -1.2554    1.3184 C   0  0  0  0  0  0  0  0  0  0  0  0
    3.7412   -2.3497    0.9552 O   0  0  0  0  0  0  0  0  0  0  0  0
    3.0102    0.3610    2.8917 C   0  0  0  0  0  0  0  0  0  0  0  0
    1.8081   -1.3905    0.5501 H   0  0  0  0  0  0  0  0  0  0  0  0
    3.6135    0.7678    0.8583 H   0  0  0  0  0  0  0  0  0  0  0  0
    2.5924   -0.4609    3.4819 H   0  0  0  0  0  0  0  0  0  0  0  0
    3.9712    0.6503    3.3274 H   0  0  0  0  0  0  0  0  0  0  0  0
    2.3324    1.2178    2.9591 H   0  0  0  0  0  0  0  0  0  0  0  0
    5.5088   -1.1030    1.5961 N   0  0  0  0  0  0  0  0  0  0  0  0
    6.4761   -2.1887    1.4839 C   0  0  0  0  0  0  0  0  0  0  0  0
    5.8326   -0.1829    1.8810 H   0  0  0  0  0  0  0  0  0  0  0  0
    6.1963   -3.0217    2.1375 H   0  0  0  0  0  0  0  0  0  0  0  0
    6.5262   -2.5521    0.4521 H   0  0  0  0  0  0  0  0  0  0  0  0
    7.4715   -1.8413    1.7767 H   0  0  0  0  0  0  0  0  0  0  0  0
  1  2  2  0  0  0  0
  1  3  1  0  0  0  0
  1  7  1  0  0  0  0
  3  4  1  0  0  0  0
  3  5  1  0  0  0  0
  3  6  1  0  0  0  0
  7  8  1  0  0  0  0
  7 12  1  0  0  0  0
  8  9  1  0  0  0  0
  8 11  1  0  0  0  0
  8 13  1  0  0  0  0
  9 10  2  0  0  0  0
  9 17  1  0  0  0  0
 11 14  1  0  0  0  0
 11 15  1  0  0  0  0
 11 16  1  0  0  0  0
 17 18  1  0  0  0  0
 17 23  1  0  0  0  0
 18 19  1  0  0  0  0
 18 21  1  0  0  0  0
 18 24  1  0  0  0  0
 19 20  2  0  0  0  0
 19 28  1  0  0  0  0
 21 22  1  0  0  0  0
 21 25  1  0  0  0  0
 21 26  1  0  0  0  0
 22 27  1  0  0  0  0
 28 29  1  0  0  0  0
 28 33  1  0  0  0  0
 29 30  1  0  0  0  0
 29 32  1  0  0  0  0
 29 34  1  0  0  0  0
 30 31  2  0  0  0  0
 30 38  1  0  0  0  0
 32 35  1  0  0  0  0
 32 36  1  0  0  0  0
 32 37  1  0  0  0  0
 38 39  1  0  0  0  0
 38 40  1  0  0  0  0
 39 41  1  0  0  0  0
 39 42  1  0  0  0  0
 39 43  1  0  0  0  0
M  END
$$$$

  -OEChem-05262216003D

 43 42  0     1  0  0  0  0  0999 V2000
   -4.1265   -4.2786    1.1212 C   0  0  0  0  0  0  0  0  0  0  0  0
   -3.7093   -4.4176    2.2607 O   0  0  0  0  0  0  0  0  0  0  0  0
   -5.5981   -4.4884    0.8185 C   0  0  0  0  0  0  0  0  0  0  0  0
   -5.7190   -5.3106    0.1090 H   0  0  0  0  0  0  0  0  0  0  0  0
   -6.1408   -4.7320    1.7361 H   0  0  0  0  0  0  0  0  0  0  0  0
   -6.0242   -3.5786    0.3884 H   0  0  0  0  0  0  0  0  0  0  0  0
   -3.2635   -3.9233    0.1069 N   0  0  0  0  0  0  0  0  0  0  0  0
   -1.8771   -3.4895    0.3187 C   0  0  2  0  0  0  0  0  0  0  0  0
   -1.5452   -2.2536   -0.5419 C   0  0  0  0  0  0  0  0  0  0  0  0
   -2.1914   -2.0215   -1.5552 O   0  0  0  0  0  0  0  0  0  0  0  0
   -0.9548   -4.6626   -0.0233 C   0  0  0  0  0  0  0  0  0  0  0  0
   -3.6853   -3.6623   -0.7844 H   0  0  0  0  0  0  0  0  0  0  0  0
   -1.7254   -3.2054    1.3654 H   0  0  0  0  0  0  0  0  0  0  0  0
   -1.0718   -4.9477   -1.0739 H   0  0  0  0  0  0  0  0  0  0  0  0
    0.0919   -4.3957    0.1508 H   0  0  0  0  0  0  0  0  0  0  0  0
   -1.1983   -5.5279    0.6017 H   0  0  0  0  0  0  0  0  0  0  0  0
   -0.4011   -1.5158   -0.3077 N   0  0  0  0  0  0  0  0  0  0  0  0
   -0.3342   -0.0315   -0.3380 C   0  0  2  0  0  0  0  0  0  0  0  0
    0.9960    0.4244    0.3225 C   0  0  0  0  0  0  0  0  0  0  0  0
    1.1733    1.5722    0.7103 O   0  0  0  0  0  0  0  0  0  0  0  0
   -1.4603    0.6818    0.4747 C   0  0  0  0  0  0  0  0  0  0  0  0
   -3.1916    0.4699   -0.1133 S   0  0  0  0  0  0  0  0  0  0  0  0
    0.1459   -1.9257    0.4446 H   0  0  0  0  0  0  0  0  0  0  0  0
   -0.3586    0.3141   -1.3767 H   0  0  0  0  0  0  0  0  0  0  0  0
   -1.4073    0.3463    1.5156 H   0  0  0  0  0  0  0  0  0  0  0  0
   -1.2689    1.7603    0.4701 H   0  0  0  0  0  0  0  0  0  0  0  0
   -3.8600    1.2725    0.7439 H   0  0  0  0  0  0  0  0  0  0  0  0
    2.0117   -0.4930    0.5313 N   0  0  0  0  0  0  0  0  0  0  0  0
    3.3413   -0.1664    1.0644 C   0  0  2  0  0  0  0  0  0  0  0  0
    4.3874   -1.1975    0.5894 C   0  0  0  0  0  0  0  0  0  0  0  0
    4.0182   -2.2124    0.0068 O   0  0  0  0  0  0  0  0  0  0  0  0
    3.2708   -0.1425    2.5954 C   0  0  0  0  0  0  0  0  0  0  0  0
    1.9615   -1.3528   -0.0172 H   0  0  0  0  0  0  0  0  0  0  0  0
    3.6559    0.8172    0.6990 H   0  0  0  0  0  0  0  0  0  0  0  0
    2.9672   -1.1215    2.9798 H   0  0  0  0  0  0  0  0  0  0  0  0
    4.2456    0.1126    3.0217 H   0  0  0  0  0  0  0  0  0  0  0  0
    2.5451    0.6045    2.9319 H   0  0  0  0  0  0  0  0  0  0  0  0
    5.7371   -0.9891    0.8048 N   0  0  0  0  0  0  0  0  0  0  0  0
    6.7686   -1.9310    0.3857 C   0  0  0  0  0  0  0  0  0  0  0  0
    6.0138   -0.1375    1.2850 H   0  0  0  0  0  0  0  0  0  0  0  0
    6.6133   -2.9064    0.8589 H   0  0  0  0  0  0  0  0  0  0  0  0
    6.7510   -2.0609   -0.7016 H   0  0  0  0  0  0  0  0  0  0  0  0
    7.7578   -1.5618    0.6735 H   0  0  0  0  0  0  0  0  0  0  0  0
  1  2  2  0  0  0  0
  1  3  1  0  0  0  0
  1  7  1  0  0  0  0
  3  4  1  0  0  0  0
  3  5  1  0  0  0  0
  3  6  1  0  0  0  0
  7  8  1  0  0  0  0
  7 12  1  0  0  0  0
  8  9  1  0  0  0  0
  8 11  1  0  0  0  0
  8 13  1  0  0  0  0
  9 10  2  0  0  0  0
  9 17  1  0  0  0  0
 11 14  1  0  0  0  0
 11 15  1  0  0  0  0
 11 16  1  0  0  0  0
 17 18  1  0  0  0  0
 17 23  1  0  0  0  0
 18 19  1  0  0  0  0
 18 21  1  0  0  0  0
 18 24  1  0  0  0  0
 19 20  2  0  0  0  0
 19 28  1  0  0  0  0
 21 22  1  0  0  0  0
 21 25  1  0  0  0  0
 21 26  1  0  0  0  0
 22 27  1  0  0  0  0
 28 29  1  0  0  0  0
 28 33  1  0  0  0  0
 29 30  1  0  0  0  0
 29 32  1  0  0  0  0
 29 34  1  0  0  0  0
 30 31  2  0  0  0  0
 30 38  1  0  0  0  0
 32 35  1  0  0  0  0
 32 36  1  0  0  0  0
 32 37  1  0  0  0  0
 38 39  1  0  0  0  0
 38 40  1  0  0  0  0
 39 41  1  0  0  0  0
 39 42  1  0  0  0  0
 39 43  1  0  0  0  0
M  END
$$$$

  -OEChem-05262216003D

 43 42  0     1  0  0  0  0  0999 V2000
   -4.0255   -4.3965    1.1784 C   0  0  0  0  0  0  0  0  0  0  0  0
   -3.5360   -4.6282    2.2731 O   0  0  0  0  0  0  0  0  0  0  0  0
   -5.5018   -4.6468    0.9344 C   0  0  0  0  0  0  0  0  0  0  0  0
   -5.6280   -5.4113    0.1637 H   0  0  0  0  0  0  0  0  0  0  0  0
   -5.9829   -4.9901    1.8546 H   0  0  0  0  0  0  0  0  0  0  0  0
   -5.9878   -3.7247    0.6060 H   0  0  0  0  0  0  0  0  0  0  0  0
   -3.2380   -3.8991    0.1626 N   0  0  0  0  0  0  0  0  0  0  0  0
   -1.8520   -3.4496    0.3364 C   0  0  2  0  0  0  0  0  0  0  0  0
   -1.5621   -2.2010   -0.5204 C   0  0  0  0  0  0  0  0  0  0  0  0
   -2.2470   -1.9634   -1.5061 O   0  0  0  0  0  0  0  0  0  0  0  0
   -0.9201   -4.6040   -0.0442 C   0  0  0  0  0  0  0  0  0  0  0  0
   -3.7126   -3.5883   -0.6853 H   0  0  0  0  0  0  0  0  0  0  0  0
   -1.6782   -3.1736    1.3819 H   0  0  0  0  0  0  0  0  0  0  0  0
   -1.0676   -4.8847   -1.0922 H   0  0  0  0  0  0  0  0  0  0  0  0
    0.1270   -4.3195    0.0960 H   0  0  0  0  0  0  0  0  0  0  0  0
   -1.1259   -5.4772    0.5832 H   0  0  0  0  0  0  0  0  0  0  0  0
   -0.4124   -1.4630   -0.3185 N   0  0  0  0  0  0  0  0  0  0  0  0
   -0.3216    0.0178   -0.3789 C   0  0  2  0  0  0  0  0  0  0  0  0
    1.0312    0.4329    0.2618 C   0  0  0  0  0  0  0  0  0  0  0  0
    1.1874    1.4813    0.8756 O   0  0  0  0  0  0  0  0  0  0  0  0
   -1.4291    0.7778    0.4161 C   0  0  0  0  0  0  0  0  0  0  0  0
   -3.1661    0.5946   -0.1620 S   0  0  0  0  0  0  0  0  0  0  0  0
    0.1732   -1.8753    0.4035 H   0  0  0  0  0  0  0  0  0  0  0  0
   -0.3420    0.3411   -1.4249 H   0  0  0  0  0  0  0  0  0  0  0  0
   -1.3830    0.4655    1.4644 H   0  0  0  0  0  0  0  0  0  0  0  0
   -1.2082    1.8502    0.3847 H   0  0  0  0  0  0  0  0  0  0  0  0
   -3.8112    1.4240    0.6867 H   0  0  0  0  0  0  0  0  0  0  0  0
    2.1061   -0.4343    0.1790 N   0  0  0  0  0  0  0  0  0  0  0  0
    3.4631   -0.1482    0.6630 C   0  0  2  0  0  0  0  0  0  0  0  0
    4.5046   -1.0046   -0.0879 C   0  0  0  0  0  0  0  0  0  0  0  0
    4.1311   -1.9309   -0.8000 O   0  0  0  0  0  0  0  0  0  0  0  0
    3.5268   -0.4307    2.1686 C   0  0  0  0  0  0  0  0  0  0  0  0
    2.0232   -1.2020   -0.4903 H   0  0  0  0  0  0  0  0  0  0  0  0
    3.7042    0.9045    0.4801 H   0  0  0  0  0  0  0  0  0  0  0  0
    3.2890   -1.4796    2.3728 H   0  0  0  0  0  0  0  0  0  0  0  0
    4.5275   -0.2190    2.5570 H   0  0  0  0  0  0  0  0  0  0  0  0
    2.8114    0.1998    2.7061 H   0  0  0  0  0  0  0  0  0  0  0  0
    5.8562   -0.7378    0.0270 N   0  0  0  0  0  0  0  0  0  0  0  0
    6.8847   -1.5151   -0.6544 C   0  0  0  0  0  0  0  0  0  0  0  0
    6.1369    0.0411    0.6159 H   0  0  0  0  0  0  0  0  0  0  0  0
    6.8406   -2.5645   -0.3438 H   0  0  0  0  0  0  0  0  0  0  0  0
    6.7486   -1.4631   -1.7398 H   0  0  0  0  0  0  0  0  0  0  0  0
    7.8780   -1.1247   -0.4120 H   0  0  0  0  0  0  0  0  0  0  0  0
  1  2  2  0  0  0  0
  1  3  1  0  0  0  0
  1  7  1  0  0  0  0
  3  4  1  0  0  0  0
  3  5  1  0  0  0  0
  3  6  1  0  0  0  0
  7  8  1  0  0  0  0
  7 12  1  0  0  0  0
  8  9  1  0  0  0  0
  8 11  1  0  0  0  0
  8 13  1  0  0  0  0
  9 10  2  0  0  0  0
  9 17  1  0  0  0  0
 11 14  1  0  0  0  0
 11 15  1  0  0  0  0
 11 16  1  0  0  0  0
 17 18  1  0  0  0  0
 17 23  1  0  0  0  0
 18 19  1  0  0  0  0
 18 21  1  0  0  0  0
 18 24  1  0  0  0  0
 19 20  2  0  0  0  0
 19 28  1  0  0  0  0
 21 22  1  0  0  0  0
 21 25  1  0  0  0  0
 21 26  1  0  0  0  0
 22 27  1  0  0  0  0
 28 29  1  0  0  0  0
 28 33  1  0  0  0  0
 29 30  1  0  0  0  0
 29 32  1  0  0  0  0
 29 34  1  0  0  0  0
 30 31  2  0  0  0  0
 30 38  1  0  0  0  0
 32 35  1  0  0  0  0
 32 36  1  0  0  0  0
 32 37  1  0  0  0  0
 38 39  1  0  0  0  0
 38 40  1  0  0  0  0
 39 41  1  0  0  0  0
 39 42  1  0  0  0  0
 39 43  1  0  0  0  0
M  END
$$$$

  -OEChem-05262216003D

 43 42  0     1  0  0  0  0  0999 V2000
   -3.9999   -4.4301    1.2201 C   0  0  0  0  0  0  0  0  0  0  0  0
   -3.4957   -4.6700    2.3062 O   0  0  0  0  0  0  0  0  0  0  0  0
   -5.4758   -4.6949    0.9892 C   0  0  0  0  0  0  0  0  0  0  0  0
   -5.6023   -5.4281    0.1890 H   0  0  0  0  0  0  0  0  0  0  0  0
   -5.9364   -5.0849    1.9012 H   0  0  0  0  0  0  0  0  0  0  0  0
   -5.9819   -3.7680    0.7078 H   0  0  0  0  0  0  0  0  0  0  0  0
   -3.2293   -3.9078    0.2036 N   0  0  0  0  0  0  0  0  0  0  0  0
   -1.8469   -3.4431    0.3690 C   0  0  2  0  0  0  0  0  0  0  0  0
   -1.5728   -2.1950   -0.4949 C   0  0  0  0  0  0  0  0  0  0  0  0
   -2.2791   -1.9595   -1.4657 O   0  0  0  0  0  0  0  0  0  0  0  0
   -0.9057   -4.5903   -0.0112 C   0  0  0  0  0  0  0  0  0  0  0  0
   -3.7151   -3.5954   -0.6375 H   0  0  0  0  0  0  0  0  0  0  0  0
   -1.6716   -3.1610    1.4128 H   0  0  0  0  0  0  0  0  0  0  0  0
   -1.0479   -4.8690   -1.0605 H   0  0  0  0  0  0  0  0  0  0  0  0
    0.1384   -4.2979    0.1338 H   0  0  0  0  0  0  0  0  0  0  0  0
   -1.1067   -5.4670    0.6127 H   0  0  0  0  0  0  0  0  0  0  0  0
   -0.4132   -1.4641   -0.3255 N   0  0  0  0  0  0  0  0  0  0  0  0
   -0.3007    0.0129   -0.4091 C   0  0  2  0  0  0  0  0  0  0  0  0
    1.0709    0.4007    0.2039 C   0  0  0  0  0  0  0  0  0  0  0  0
    1.2130    1.2921    1.0323 O   0  0  0  0  0  0  0  0  0  0  0  0
   -1.3863    0.8134    0.3754 C   0  0  0  0  0  0  0  0  0  0  0  0
   -3.1291    0.6562   -0.1923 S   0  0  0  0  0  0  0  0  0  0  0  0
    0.1937   -1.8780    0.3776 H   0  0  0  0  0  0  0  0  0  0  0  0
   -0.3268    0.3201   -1.4597 H   0  0  0  0  0  0  0  0  0  0  0  0
   -1.3448    0.5170    1.4290 H   0  0  0  0  0  0  0  0  0  0  0  0
   -1.1356    1.8788    0.3258 H   0  0  0  0  0  0  0  0  0  0  0  0
   -3.7574    1.4947    0.6599 H   0  0  0  0  0  0  0  0  0  0  0  0
    2.1859   -0.3348   -0.1540 N   0  0  0  0  0  0  0  0  0  0  0  0
    3.5601   -0.0533    0.2826 C   0  0  2  0  0  0  0  0  0  0  0  0
    4.5903   -0.5929   -0.7319 C   0  0  0  0  0  0  0  0  0  0  0  0
    4.2337   -1.3739   -1.6074 O   0  0  0  0  0  0  0  0  0  0  0  0
    3.7837   -0.6949    1.6569 C   0  0  0  0  0  0  0  0  0  0  0  0
    2.0820   -0.9834   -0.9368 H   0  0  0  0  0  0  0  0  0  0  0  0
    3.7067    1.0295    0.3580 H   0  0  0  0  0  0  0  0  0  0  0  0
    3.6572   -1.7808    1.5980 H   0  0  0  0  0  0  0  0  0  0  0  0
    4.7932   -0.4815    2.0206 H   0  0  0  0  0  0  0  0  0  0  0  0
    3.0677   -0.2997    2.3842 H   0  0  0  0  0  0  0  0  0  0  0  0
    5.9160   -0.2066   -0.6640 N   0  0  0  0  0  0  0  0  0  0  0  0
    6.9380   -0.6926   -1.5835 C   0  0  0  0  0  0  0  0  0  0  0  0
    6.1805    0.4513    0.0636 H   0  0  0  0  0  0  0  0  0  0  0  0
    6.9901   -1.7862   -1.5553 H   0  0  0  0  0  0  0  0  0  0  0  0
    6.7135   -0.3767   -2.6077 H   0  0  0  0  0  0  0  0  0  0  0  0
    7.9183   -0.2943   -1.3050 H   0  0  0  0  0  0  0  0  0  0  0  0
  1  2  2  0  0  0  0
  1  3  1  0  0  0  0
  1  7  1  0  0  0  0
  3  4  1  0  0  0  0
  3  5  1  0  0  0  0
  3  6  1  0  0  0  0
  7  8  1  0  0  0  0
  7 12  1  0  0  0  0
  8  9  1  0  0  0  0
  8 11  1  0  0  0  0
  8 13  1  0  0  0  0
  9 10  2  0  0  0  0
  9 17  1  0  0  0  0
 11 14  1  0  0  0  0
 11 15  1  0  0  0  0
 11 16  1  0  0  0  0
 17 18  1  0  0  0  0
 17 23  1  0  0  0  0
 18 19  1  0  0  0  0
 18 21  1  0  0  0  0
 18 24  1  0  0  0  0
 19 20  2  0  0  0  0
 19 28  1  0  0  0  0
 21 22  1  0  0  0  0
 21 25  1  0  0  0  0
 21 26  1  0  0  0  0
 22 27  1  0  0  0  0
 28 29  1  0  0  0  0
 28 33  1  0  0  0  0
 29 30  1  0  0  0  0
 29 32  1  0  0  0  0
 29 34  1  0  0  0  0
 30 31  2  0  0  0  0
 30 38  1  0  0  0  0
 32 35  1  0  0  0  0
 32 36  1  0  0  0  0
 32 37  1  0  0  0  0
 38 39  1  0  0  0  0
 38 40  1  0  0  0  0
 39 41  1  0  0  0  0
 39 42  1  0  0  0  0
 39 43  1  0  0  0  0
M  END
$$$$

  -OEChem-05262216003D

 43 42  0     1  0  0  0  0  0999 V2000
   -4.0072   -4.3915    1.2371 C   0  0  0  0  0  0  0  0  0  0  0  0
   -3.5297   -4.5843    2.3444 O   0  0  0  0  0  0  0  0  0  0  0  0
   -5.4767   -4.6674    0.9814 C   0  0  0  0  0  0  0  0  0  0  0  0
   -5.5823   -5.5109    0.2947 H   0  0  0  0  0  0  0  0  0  0  0  0
   -5.9843   -4.9090    1.9196 H   0  0  0  0  0  0  0  0  0  0  0  0
   -5.9515   -3.7870    0.5411 H   0  0  0  0  0  0  0  0  0  0  0  0
   -3.2114   -3.9207    0.2153 N   0  0  0  0  0  0  0  0  0  0  0  0
   -1.8346   -3.4442    0.3935 C   0  0  2  0  0  0  0  0  0  0  0  0
   -1.5498   -2.2253   -0.5077 C   0  0  0  0  0  0  0  0  0  0  0  0
   -2.2640   -1.9985   -1.4756 O   0  0  0  0  0  0  0  0  0  0  0  0
   -0.8817   -4.5999    0.0742 C   0  0  0  0  0  0  0  0  0  0  0  0
   -3.6814   -3.6320   -0.6433 H   0  0  0  0  0  0  0  0  0  0  0  0
   -1.6814   -3.1241    1.4300 H   0  0  0  0  0  0  0  0  0  0  0  0
   -1.0138   -4.9290   -0.9614 H   0  0  0  0  0  0  0  0  0  0  0  0
    0.1591   -4.2933    0.2127 H   0  0  0  0  0  0  0  0  0  0  0  0
   -1.0817   -5.4475    0.7374 H   0  0  0  0  0  0  0  0  0  0  0  0
   -0.3826   -1.5012   -0.3674 N   0  0  0  0  0  0  0  0  0  0  0  0
   -0.2812   -0.0252   -0.4425 C   0  0  2  0  0  0  0  0  0  0  0  0
    1.1051    0.3639    0.1293 C   0  0  0  0  0  0  0  0  0  0  0  0
    1.2491    1.0187    1.1548 O   0  0  0  0  0  0  0  0  0  0  0  0
   -1.3468    0.7611    0.3815 C   0  0  0  0  0  0  0  0  0  0  0  0
   -3.1052    0.5974   -0.1346 S   0  0  0  0  0  0  0  0  0  0  0  0
    0.2332   -1.9121    0.3297 H   0  0  0  0  0  0  0  0  0  0  0  0
   -0.3432    0.2910   -1.4887 H   0  0  0  0  0  0  0  0  0  0  0  0
   -1.2779    0.4486    1.4290 H   0  0  0  0  0  0  0  0  0  0  0  0
   -1.0964    1.8267    0.3421 H   0  0  0  0  0  0  0  0  0  0  0  0
   -3.7167    1.3932    0.7692 H   0  0  0  0  0  0  0  0  0  0  0  0
    2.2361   -0.1347   -0.4884 N   0  0  0  0  0  0  0  0  0  0  0  0
    3.6190    0.1571   -0.0864 C   0  0  2  0  0  0  0  0  0  0  0  0
    4.5930    0.0121   -1.2760 C   0  0  0  0  0  0  0  0  0  0  0  0
    4.2125   -0.5088   -2.3186 O   0  0  0  0  0  0  0  0  0  0  0  0
    4.0126   -0.7992    1.0454 C   0  0  0  0  0  0  0  0  0  0  0  0
    2.1104   -0.6068   -1.3857 H   0  0  0  0  0  0  0  0  0  0  0  0
    3.6873    1.1904    0.2706 H   0  0  0  0  0  0  0  0  0  0  0  0
    3.9520   -1.8381    0.7057 H   0  0  0  0  0  0  0  0  0  0  0  0
    5.0354   -0.6006    1.3792 H   0  0  0  0  0  0  0  0  0  0  0  0
    3.3434   -0.6727    1.9023 H   0  0  0  0  0  0  0  0  0  0  0  0
    5.8948    0.4695   -1.1830 N   0  0  0  0  0  0  0  0  0  0  0  0
    6.8611    0.3602   -2.2697 C   0  0  0  0  0  0  0  0  0  0  0  0
    6.1829    0.9016   -0.3099 H   0  0  0  0  0  0  0  0  0  0  0  0
    7.0192   -0.6896   -2.5391 H   0  0  0  0  0  0  0  0  0  0  0  0
    6.5071    0.9014   -3.1536 H   0  0  0  0  0  0  0  0  0  0  0  0
    7.8219    0.7867   -1.9656 H   0  0  0  0  0  0  0  0  0  0  0  0
  1  2  2  0  0  0  0
  1  3  1  0  0  0  0
  1  7  1  0  0  0  0
  3  4  1  0  0  0  0
  3  5  1  0  0  0  0
  3  6  1  0  0  0  0
  7  8  1  0  0  0  0
  7 12  1  0  0  0  0
  8  9  1  0  0  0  0
  8 11  1  0  0  0  0
  8 13  1  0  0  0  0
  9 10  2  0  0  0  0
  9 17  1  0  0  0  0
 11 14  1  0  0  0  0
 11 15  1  0  0  0  0
 11 16  1  0  0  0  0
 17 18  1  0  0  0  0
 17 23  1  0  0  0  0
 18 19  1  0  0  0  0
 18 21  1  0  0  0  0
 18 24  1  0  0  0  0
 19 20  2  0  0  0  0
 19 28  1  0  0  0  0
 21 22  1  0  0  0  0
 21 25  1  0  0  0  0
 21 26  1  0  0  0  0
 22 27  1  0  0  0  0
 28 29  1  0  0  0  0
 28 33  1  0  0  0  0
 29 30  1  0  0  0  0
 29 32  1  0  0  0  0
 29 34  1  0  0  0  0
 30 31  2  0  0  0  0
 30 38  1  0  0  0  0
 32 35  1  0  0  0  0
 32 36  1  0  0  0  0
 32 37  1  0  0  0  0
 38 39  1  0  0  0  0
 38 40  1  0  0  0  0
 39 41  1  0  0  0  0
 39 42  1  0  0  0  0
 39 43  1  0  0  0  0
M  END
$$$$

  -OEChem-05262216003D

 43 42  0     1  0  0  0  0  0999 V2000
   -4.0256   -4.3820    1.2803 C   0  0  0  0  0  0  0  0  0  0  0  0
   -3.5272   -4.6132    2.3709 O   0  0  0  0  0  0  0  0  0  0  0  0
   -5.5032   -4.6340    1.0473 C   0  0  0  0  0  0  0  0  0  0  0  0
   -5.6334   -5.4107    0.2898 H   0  0  0  0  0  0  0  0  0  0  0  0
   -5.9809   -4.9617    1.9746 H   0  0  0  0  0  0  0  0  0  0  0  0
   -5.9889   -3.7167    0.7059 H   0  0  0  0  0  0  0  0  0  0  0  0
   -3.2461   -3.8891    0.2565 N   0  0  0  0  0  0  0  0  0  0  0  0
   -1.8531   -3.4542    0.4109 C   0  0  2  0  0  0  0  0  0  0  0  0
   -1.5411   -2.2590   -0.5130 C   0  0  0  0  0  0  0  0  0  0  0  0
   -2.2623   -2.0234   -1.4736 O   0  0  0  0  0  0  0  0  0  0  0  0
   -0.9414   -4.6448    0.0991 C   0  0  0  0  0  0  0  0  0  0  0  0
   -3.7261   -3.5799   -0.5892 H   0  0  0  0  0  0  0  0  0  0  0  0
   -1.6795   -3.1231    1.4406 H   0  0  0  0  0  0  0  0  0  0  0  0
   -1.0915   -4.9807   -0.9320 H   0  0  0  0  0  0  0  0  0  0  0  0
    0.1099   -4.3716    0.2284 H   0  0  0  0  0  0  0  0  0  0  0  0
   -1.1654   -5.4780    0.7730 H   0  0  0  0  0  0  0  0  0  0  0  0
   -0.3528   -1.5659   -0.3984 N   0  0  0  0  0  0  0  0  0  0  0  0
   -0.2192   -0.0953   -0.4981 C   0  0  2  0  0  0  0  0  0  0  0  0
    1.1786    0.2811    0.0466 C   0  0  0  0  0  0  0  0  0  0  0  0
    1.3557    0.6789    1.1921 O   0  0  0  0  0  0  0  0  0  0  0  0
   -1.2502    0.7380    0.3225 C   0  0  0  0  0  0  0  0  0  0  0  0
   -3.0185    0.6146   -0.1697 S   0  0  0  0  0  0  0  0  0  0  0  0
    0.2595   -1.9781    0.3013 H   0  0  0  0  0  0  0  0  0  0  0  0
   -0.2910    0.2021   -1.5497 H   0  0  0  0  0  0  0  0  0  0  0  0
   -1.1826    0.4405    1.3746 H   0  0  0  0  0  0  0  0  0  0  0  0
   -0.9655    1.7939    0.2634 H   0  0  0  0  0  0  0  0  0  0  0  0
   -3.5966    1.4434    0.7262 H   0  0  0  0  0  0  0  0  0  0  0  0
    2.2874    0.0275   -0.7362 N   0  0  0  0  0  0  0  0  0  0  0  0
    3.6681    0.3761   -0.3774 C   0  0  2  0  0  0  0  0  0  0  0  0
    4.5062    0.7068   -1.6301 C   0  0  0  0  0  0  0  0  0  0  0  0
    4.0738    0.4387   -2.7457 O   0  0  0  0  0  0  0  0  0  0  0  0
    4.2816   -0.8028    0.3840 C   0  0  0  0  0  0  0  0  0  0  0  0
    2.1235   -0.2407   -1.7080 H   0  0  0  0  0  0  0  0  0  0  0  0
    3.6728    1.2647    0.2633 H   0  0  0  0  0  0  0  0  0  0  0  0
    4.2926   -1.6989   -0.2449 H   0  0  0  0  0  0  0  0  0  0  0  0
    5.3087   -0.5749    0.6843 H   0  0  0  0  0  0  0  0  0  0  0  0
    3.6992   -1.0164    1.2857 H   0  0  0  0  0  0  0  0  0  0  0  0
    5.7425    1.3131   -1.5082 N   0  0  0  0  0  0  0  0  0  0  0  0
    6.5804    1.6574   -2.6506 C   0  0  0  0  0  0  0  0  0  0  0  0
    6.0672    1.5403   -0.5728 H   0  0  0  0  0  0  0  0  0  0  0  0
    6.8286    0.7610   -3.2289 H   0  0  0  0  0  0  0  0  0  0  0  0
    6.0626    2.3663   -3.3051 H   0  0  0  0  0  0  0  0  0  0  0  0
    7.5132    2.1178   -2.3109 H   0  0  0  0  0  0  0  0  0  0  0  0
  1  2  2  0  0  0  0
  1  3  1  0  0  0  0
  1  7  1  0  0  0  0
  3  4  1  0  0  0  0
  3  5  1  0  0  0  0
  3  6  1  0  0  0  0
  7  8  1  0  0  0  0
  7 12  1  0  0  0  0
  8  9  1  0  0  0  0
  8 11  1  0  0  0  0
  8 13  1  0  0  0  0
  9 10  2  0  0  0  0
  9 17  1  0  0  0  0
 11 14  1  0  0  0  0
 11 15  1  0  0  0  0
 11 16  1  0  0  0  0
 17 18  1  0  0  0  0
 17 23  1  0  0  0  0
 18 19  1  0  0  0  0
 18 21  1  0  0  0  0
 18 24  1  0  0  0  0
 19 20  2  0  0  0  0
 19 28  1  0  0  0  0
 21 22  1  0  0  0  0
 21 25  1  0  0  0  0
 21 26  1  0  0  0  0
 22 27  1  0  0  0  0
 28 29  1  0  0  0  0
 28 33  1  0  0  0  0
 29 30  1  0  0  0  0
 29 32  1  0  0  0  0
 29 34  1  0  0  0  0
 30 31  2  0  0  0  0
 30 38  1  0  0  0  0
 32 35  1  0  0  0  0
 32 36  1  0  0  0  0
 32 37  1  0  0  0  0
 38 39  1  0  0  0  0
 38 40  1  0  0  0  0
 39 41  1  0  0  0  0
 39 42  1  0  0  0  0
 39 43  1  0  0  0  0
M  END
$$$$

  -OEChem-05262216003D

 43 42  0     1  0  0  0  0  0999 V2000
   -3.8808   -4.4758    1.3092 C   0  0  0  0  0  0  0  0  0  0  0  0
   -3.3130   -4.7344    2.3589 O   0  0  0  0  0  0  0  0  0  0  0  0
   -5.3571   -4.7846    1.1462 C   0  0  0  0  0  0  0  0  0  0  0  0
   -5.4949   -5.5491    0.3778 H   0  0  0  0  0  0  0  0  0  0  0  0
   -5.7713   -5.1530    2.0887 H   0  0  0  0  0  0  0  0  0  0  0  0
   -5.8984   -3.8816    0.8535 H   0  0  0  0  0  0  0  0  0  0  0  0
   -3.1809   -3.9004    0.2708 N   0  0  0  0  0  0  0  0  0  0  0  0
   -1.7993   -3.4155    0.3720 C   0  0  2  0  0  0  0  0  0  0  0  0
   -1.5683   -2.1939   -0.5417 C   0  0  0  0  0  0  0  0  0  0  0  0
   -2.3473   -1.9564   -1.4557 O   0  0  0  0  0  0  0  0  0  0  0  0
   -0.8543   -4.5634    0.0023 C   0  0  0  0  0  0  0  0  0  0  0  0
   -3.7173   -3.5787   -0.5352 H   0  0  0  0  0  0  0  0  0  0  0  0
   -1.5950   -3.0949    1.3994 H   0  0  0  0  0  0  0  0  0  0  0  0
   -1.0338   -4.8898   -1.0270 H   0  0  0  0  0  0  0  0  0  0  0  0
    0.1897   -4.2493    0.0920 H   0  0  0  0  0  0  0  0  0  0  0  0
   -1.0146   -5.4153    0.6707 H   0  0  0  0  0  0  0  0  0  0  0  0
   -0.3917   -1.4756   -0.4692 N   0  0  0  0  0  0  0  0  0  0  0  0
   -0.2802   -0.0051   -0.5754 C   0  0  2  0  0  0  0  0  0  0  0  0
    1.1285    0.3835   -0.0773 C   0  0  0  0  0  0  0  0  0  0  0  0
    1.3799    0.4632    1.1195 O   0  0  0  0  0  0  0  0  0  0  0  0
   -1.2759    0.8221    0.2907 C   0  0  0  0  0  0  0  0  0  0  0  0
   -3.0631    0.6793   -0.1196 S   0  0  0  0  0  0  0  0  0  0  0  0
    0.2527   -1.8729    0.2106 H   0  0  0  0  0  0  0  0  0  0  0  0
   -0.3980    0.2913   -1.6226 H   0  0  0  0  0  0  0  0  0  0  0  0
   -1.1595    0.5247    1.3384 H   0  0  0  0  0  0  0  0  0  0  0  0
   -1.0017    1.8800    0.2199 H   0  0  0  0  0  0  0  0  0  0  0  0
   -3.6127    1.4779    0.8203 H   0  0  0  0  0  0  0  0  0  0  0  0
    2.1771    0.4437   -0.9739 N   0  0  0  0  0  0  0  0  0  0  0  0
    3.5689    0.7541   -0.6219 C   0  0  2  0  0  0  0  0  0  0  0  0
    4.3186    1.4088   -1.8016 C   0  0  0  0  0  0  0  0  0  0  0  0
    3.8172    1.4138   -2.9203 O   0  0  0  0  0  0  0  0  0  0  0  0
    4.2648   -0.5447   -0.1992 C   0  0  0  0  0  0  0  0  0  0  0  0
    1.9547    0.4036   -1.9696 H   0  0  0  0  0  0  0  0  0  0  0  0
    3.5875    1.4641    0.2118 H   0  0  0  0  0  0  0  0  0  0  0  0
    4.2540   -1.2692   -1.0200 H   0  0  0  0  0  0  0  0  0  0  0  0
    5.3045   -0.3516    0.0809 H   0  0  0  0  0  0  0  0  0  0  0  0
    3.7551   -0.9870    0.6625 H   0  0  0  0  0  0  0  0  0  0  0  0
    5.5540    1.9990   -1.6082 N   0  0  0  0  0  0  0  0  0  0  0  0
    6.3180    2.6265   -2.6798 C   0  0  0  0  0  0  0  0  0  0  0  0
    5.9424    1.9855   -0.6696 H   0  0  0  0  0  0  0  0  0  0  0  0
    6.5345    1.9016   -3.4716 H   0  0  0  0  0  0  0  0  0  0  0  0
    5.7582    3.4631   -3.1114 H   0  0  0  0  0  0  0  0  0  0  0  0
    7.2680    3.0084   -2.2935 H   0  0  0  0  0  0  0  0  0  0  0  0
  1  2  2  0  0  0  0
  1  3  1  0  0  0  0
  1  7  1  0  0  0  0
  3  4  1  0  0  0  0
  3  5  1  0  0  0  0
  3  6  1  0  0  0  0
  7  8  1  0  0  0  0
  7 12  1  0  0  0  0
  8  9  1  0  0  0  0
  8 11  1  0  0  0  0
  8 13  1  0  0  0  0
  9 10  2  0  0  0  0
  9 17  1  0  0  0  0
 11 14  1  0  0  0  0
 11 15  1  0  0  0  0
 11 16  1  0  0  0  0
 17 18  1  0  0  0  0
 17 23  1  0  0  0  0
 18 19  1  0  0  0  0
 18 21  1  0  0  0  0
 18 24  1  0  0  0  0
 19 20  2  0  0  0  0
 19 28  1  0  0  0  0
 21 22  1  0  0  0  0
 21 25  1  0  0  0  0
 21 26  1  0  0  0  0
 22 27  1  0  0  0  0
 28 29  1  0  0  0  0
 28 33  1  0  0  0  0
 29 30  1  0  0  0  0
 29 32  1  0  0  0  0
 29 34  1  0  0  0  0
 30 31  2  0  0  0  0
 30 38  1  0  0  0  0
 32 35  1  0  0  0  0
 32 36  1  0  0  0  0
 32 37  1  0  0  0  0
 38 39  1  0  0  0  0
 38 40  1  0  0  0  0
 39 41  1  0  0  0  0
 39 42  1  0  0  0  0
 39 43  1  0  0  0  0
M  END
$$$$

  -OEChem-05262216003D

 43 42  0     1  0  0  0  0  0999 V2000
   -3.8346   -4.4856    1.3253 C   0  0  0  0  0  0  0  0  0  0  0  0
   -3.2513   -4.7345    2.3690 O   0  0  0  0  0  0  0  0  0  0  0  0
   -5.3097   -4.8079    1.1808 C   0  0  0  0  0  0  0  0  0  0  0  0
   -5.4526   -5.5494    0.3911 H   0  0  0  0  0  0  0  0  0  0  0  0
   -5.7012   -5.2108    2.1189 H   0  0  0  0  0  0  0  0  0  0  0  0
   -5.8666   -3.9029    0.9266 H   0  0  0  0  0  0  0  0  0  0  0  0
   -3.1527   -3.9098    0.2752 N   0  0  0  0  0  0  0  0  0  0  0  0
   -1.7729   -3.4156    0.3549 C   0  0  2  0  0  0  0  0  0  0  0  0
   -1.5639   -2.1918   -0.5614 C   0  0  0  0  0  0  0  0  0  0  0  0
   -2.3652   -1.9519   -1.4557 O   0  0  0  0  0  0  0  0  0  0  0  0
   -0.8284   -4.5584   -0.0313 C   0  0  0  0  0  0  0  0  0  0  0  0
   -3.7018   -3.5955   -0.5252 H   0  0  0  0  0  0  0  0  0  0  0  0
   -1.5541   -3.0952    1.3793 H   0  0  0  0  0  0  0  0  0  0  0  0
   -1.0189   -4.8813   -1.0600 H   0  0  0  0  0  0  0  0  0  0  0  0
    0.2154   -4.2406    0.0475 H   0  0  0  0  0  0  0  0  0  0  0  0
   -0.9780   -5.4134    0.6358 H   0  0  0  0  0  0  0  0  0  0  0  0
   -0.3881   -1.4702   -0.5164 N   0  0  0  0  0  0  0  0  0  0  0  0
   -0.2853   -0.0010   -0.6378 C   0  0  2  0  0  0  0  0  0  0  0  0
    1.1286    0.3980   -0.1696 C   0  0  0  0  0  0  0  0  0  0  0  0
    1.4661    0.2184    0.9951 O   0  0  0  0  0  0  0  0  0  0  0  0
   -1.2449    0.8324    0.2598 C   0  0  0  0  0  0  0  0  0  0  0  0
   -3.0465    0.6817   -0.0779 S   0  0  0  0  0  0  0  0  0  0  0  0
    0.2702   -1.8538    0.1593 H   0  0  0  0  0  0  0  0  0  0  0  0
   -0.4335    0.2873   -1.6830 H   0  0  0  0  0  0  0  0  0  0  0  0
   -1.0825    0.5487    1.3053 H   0  0  0  0  0  0  0  0  0  0  0  0
   -0.9782    1.8903    0.1646 H   0  0  0  0  0  0  0  0  0  0  0  0
   -3.5600    1.5060    0.8606 H   0  0  0  0  0  0  0  0  0  0  0  0
    2.0916    0.7607   -1.0908 N   0  0  0  0  0  0  0  0  0  0  0  0
    3.4740    1.1290   -0.7566 C   0  0  2  0  0  0  0  0  0  0  0  0
    4.0584    2.1243   -1.7821 C   0  0  0  0  0  0  0  0  0  0  0  0
    3.4478    2.3654   -2.8175 O   0  0  0  0  0  0  0  0  0  0  0  0
    4.3177   -0.1493   -0.7050 C   0  0  0  0  0  0  0  0  0  0  0  0
    1.7895    0.9437   -2.0487 H   0  0  0  0  0  0  0  0  0  0  0  0
    3.4973    1.6182    0.2231 H   0  0  0  0  0  0  0  0  0  0  0  0
    4.3202   -0.6448   -1.6812 H   0  0  0  0  0  0  0  0  0  0  0  0
    5.3506    0.0818   -0.4282 H   0  0  0  0  0  0  0  0  0  0  0  0
    3.9117   -0.8440    0.0372 H   0  0  0  0  0  0  0  0  0  0  0  0
    5.2609    2.7629   -1.5400 N   0  0  0  0  0  0  0  0  0  0  0  0
    5.8596    3.7179   -2.4654 C   0  0  0  0  0  0  0  0  0  0  0  0
    5.7432    2.5501   -0.6716 H   0  0  0  0  0  0  0  0  0  0  0  0
    6.0637    3.2416   -3.4302 H   0  0  0  0  0  0  0  0  0  0  0  0
    5.1879    4.5677   -2.6276 H   0  0  0  0  0  0  0  0  0  0  0  0
    6.8035    4.0963   -2.0613 H   0  0  0  0  0  0  0  0  0  0  0  0
  1  2  2  0  0  0  0
  1  3  1  0  0  0  0
  1  7  1  0  0  0  0
  3  4  1  0  0  0  0
  3  5  1  0  0  0  0
  3  6  1  0  0  0  0
  7  8  1  0  0  0  0
  7 12  1  0  0  0  0
  8  9  1  0  0  0  0
  8 11  1  0  0  0  0
  8 13  1  0  0  0  0
  9 10  2  0  0  0  0
  9 17  1  0  0  0  0
 11 14  1  0  0  0  0
 11 15  1  0  0  0  0
 11 16  1  0  0  0  0
 17 18  1  0  0  0  0
 17 23  1  0  0  0  0
 18 19  1  0  0  0  0
 18 21  1  0  0  0  0
 18 24  1  0  0  0  0
 19 20  2  0  0  0  0
 19 28  1  0  0  0  0
 21 22  1  0  0  0  0
 21 25  1  0  0  0  0
 21 26  1  0  0  0  0
 22 27  1  0  0  0  0
 28 29  1  0  0  0  0
 28 33  1  0  0  0  0
 29 30  1  0  0  0  0
 29 32  1  0  0  0  0
 29 34  1  0  0  0  0
 30 31  2  0  0  0  0
 30 38  1  0  0  0  0
 32 35  1  0  0  0  0
 32 36  1  0  0  0  0
 32 37  1  0  0  0  0
 38 39  1  0  0  0  0
 38 40  1  0  0  0  0
 39 41  1  0  0  0  0
 39 42  1  0  0  0  0
 39 43  1  0  0  0  0
M  END
$$$$

  -OEChem-05262216003D

 43 42  0     1  0  0  0  0  0999 V2000
   -3.7958   -4.4793    1.3168 C   0  0  0  0  0  0  0  0  0  0  0  0
   -3.2245   -4.6939    2.3746 O   0  0  0  0  0  0  0  0  0  0  0  0
   -5.2696   -4.8055    1.1666 C   0  0  0  0  0  0  0  0  0  0  0  0
   -5.4039   -5.5837    0.4113 H   0  0  0  0  0  0  0  0  0  0  0  0
   -5.6751   -5.1618    2.1177 H   0  0  0  0  0  0  0  0  0  0  0  0
   -5.8203   -3.9122    0.8615 H   0  0  0  0  0  0  0  0  0  0  0  0
   -3.1051   -3.9336    0.2564 N   0  0  0  0  0  0  0  0  0  0  0  0
   -1.7372   -3.4085    0.3435 C   0  0  2  0  0  0  0  0  0  0  0  0
   -1.5488   -2.1886   -0.5826 C   0  0  0  0  0  0  0  0  0  0  0  0
   -2.3668   -1.9550   -1.4639 O   0  0  0  0  0  0  0  0  0  0  0  0
   -0.7659   -4.5335   -0.0257 C   0  0  0  0  0  0  0  0  0  0  0  0
   -3.6514   -3.6377   -0.5528 H   0  0  0  0  0  0  0  0  0  0  0  0
   -1.5327   -3.0731    1.3663 H   0  0  0  0  0  0  0  0  0  0  0  0
   -0.9400   -4.8654   -1.0542 H   0  0  0  0  0  0  0  0  0  0  0  0
    0.2698   -4.1927    0.0615 H   0  0  0  0  0  0  0  0  0  0  0  0
   -0.9040   -5.3879    0.6448 H   0  0  0  0  0  0  0  0  0  0  0  0
   -0.3785   -1.4574   -0.5577 N   0  0  0  0  0  0  0  0  0  0  0  0
   -0.2908    0.0116   -0.6872 C   0  0  2  0  0  0  0  0  0  0  0  0
    1.1238    0.4294   -0.2422 C   0  0  0  0  0  0  0  0  0  0  0  0
    1.5600    0.0470    0.8383 O   0  0  0  0  0  0  0  0  0  0  0  0
   -1.2279    0.8374    0.2379 C   0  0  0  0  0  0  0  0  0  0  0  0
   -3.0376    0.6682   -0.0434 S   0  0  0  0  0  0  0  0  0  0  0  0
    0.2989   -1.8299    0.1066 H   0  0  0  0  0  0  0  0  0  0  0  0
   -0.4638    0.2961   -1.7298 H   0  0  0  0  0  0  0  0  0  0  0  0
   -1.0268    0.5582    1.2779 H   0  0  0  0  0  0  0  0  0  0  0  0
   -0.9761    1.8981    0.1303 H   0  0  0  0  0  0  0  0  0  0  0  0
   -3.5313    1.4692    0.9258 H   0  0  0  0  0  0  0  0  0  0  0  0
    1.9700    1.0856   -1.1139 N   0  0  0  0  0  0  0  0  0  0  0  0
    3.3372    1.5142   -0.7909 C   0  0  2  0  0  0  0  0  0  0  0  0
    3.7351    2.7748   -1.5884 C   0  0  0  0  0  0  0  0  0  0  0  0
    3.0119    3.1825   -2.4909 O   0  0  0  0  0  0  0  0  0  0  0  0
    4.2918    0.3552   -1.0971 C   0  0  0  0  0  0  0  0  0  0  0  0
    1.5723    1.4463   -1.9821 H   0  0  0  0  0  0  0  0  0  0  0  0
    3.4034    1.7665    0.2729 H   0  0  0  0  0  0  0  0  0  0  0  0
    4.2453    0.0924   -2.1588 H   0  0  0  0  0  0  0  0  0  0  0  0
    5.3220    0.6280   -0.8500 H   0  0  0  0  0  0  0  0  0  0  0  0
    4.0200   -0.5265   -0.5079 H   0  0  0  0  0  0  0  0  0  0  0  0
    4.8939    3.4657   -1.2851 N   0  0  0  0  0  0  0  0  0  0  0  0
    5.3134    4.6711   -1.9904 C   0  0  0  0  0  0  0  0  0  0  0  0
    5.4674    3.1169   -0.5225 H   0  0  0  0  0  0  0  0  0  0  0  0
    5.4127    4.4733   -3.0629 H   0  0  0  0  0  0  0  0  0  0  0  0
    4.5819    5.4732   -1.8468 H   0  0  0  0  0  0  0  0  0  0  0  0
    6.2816    5.0143   -1.6131 H   0  0  0  0  0  0  0  0  0  0  0  0
  1  2  2  0  0  0  0
  1  3  1  0  0  0  0
  1  7  1  0  0  0  0
  3  4  1  0  0  0  0
  3  5  1  0  0  0  0
  3  6  1  0  0  0  0
  7  8  1  0  0  0  0
  7 12  1  0  0  0  0
  8  9  1  0  0  0  0
  8 11  1  0  0  0  0
  8 13  1  0  0  0  0
  9 10  2  0  0  0  0
  9 17  1  0  0  0  0
 11 14  1  0  0  0  0
 11 15  1  0  0  0  0
 11 16  1  0  0  0  0
 17 18  1  0  0  0  0
 17 23  1  0  0  0  0
 18 19  1  0  0  0  0
 18 21  1  0  0  0  0
 18 24  1  0  0  0  0
 19 20  2  0  0  0  0
 19 28  1  0  0  0  0
 21 22  1  0  0  0  0
 21 25  1  0  0  0  0
 21 26  1  0  0  0  0
 22 27  1  0  0  0  0
 28 29  1  0  0  0  0
 28 33  1  0  0  0  0
 29 30  1  0  0  0  0
 29 32  1  0  0  0  0
 29 34  1  0  0  0  0
 30 31  2  0  0  0  0
 30 38  1  0  0  0  0
 32 35  1  0  0  0  0
 32 36  1  0  0  0  0
 32 37  1  0  0  0  0
 38 39  1  0  0  0  0
 38 40  1  0  0  0  0
 39 41  1  0  0  0  0
 39 42  1  0  0  0  0
 39 43  1  0  0  0  0
M  END
$$$$

  -OEChem-05262216003D

 43 42  0     1  0  0  0  0  0999 V2000
   -3.7366   -4.5162    1.3058 C   0  0  0  0  0  0  0  0  0  0  0  0
   -3.1319   -4.7608    2.3381 O   0  0  0  0  0  0  0  0  0  0  0  0
   -5.2099   -4.8583    1.1864 C   0  0  0  0  0  0  0  0  0  0  0  0
   -5.3584   -5.5939    0.3921 H   0  0  0  0  0  0  0  0  0  0  0  0
   -5.5771   -5.2765    2.1277 H   0  0  0  0  0  0  0  0  0  0  0  0
   -5.7845   -3.9586    0.9528 H   0  0  0  0  0  0  0  0  0  0  0  0
   -3.0835   -3.9233    0.2470 N   0  0  0  0  0  0  0  0  0  0  0  0
   -1.7150   -3.3955    0.3068 C   0  0  2  0  0  0  0  0  0  0  0  0
   -1.5562   -2.1570   -0.5997 C   0  0  0  0  0  0  0  0  0  0  0  0
   -2.3970   -1.9130   -1.4563 O   0  0  0  0  0  0  0  0  0  0  0  0
   -0.7484   -4.5081   -0.1111 C   0  0  0  0  0  0  0  0  0  0  0  0
   -3.6549   -3.6081   -0.5371 H   0  0  0  0  0  0  0  0  0  0  0  0
   -1.4835   -3.0803    1.3299 H   0  0  0  0  0  0  0  0  0  0  0  0
   -0.9478   -4.8204   -1.1412 H   0  0  0  0  0  0  0  0  0  0  0  0
    0.2881   -4.1645   -0.0443 H   0  0  0  0  0  0  0  0  0  0  0  0
   -0.8648   -5.3764    0.5453 H   0  0  0  0  0  0  0  0  0  0  0  0
   -0.3909   -1.4175   -0.5875 N   0  0  0  0  0  0  0  0  0  0  0  0
   -0.3043    0.0513   -0.7229 C   0  0  2  0  0  0  0  0  0  0  0  0
    1.1108    0.4829   -0.2923 C   0  0  0  0  0  0  0  0  0  0  0  0
    1.6406   -0.0483    0.6785 O   0  0  0  0  0  0  0  0  0  0  0  0
   -1.2250    0.8764    0.2179 C   0  0  0  0  0  0  0  0  0  0  0  0
   -3.0392    0.7064   -0.0289 S   0  0  0  0  0  0  0  0  0  0  0  0
    0.3084   -1.7908    0.0543 H   0  0  0  0  0  0  0  0  0  0  0  0
   -0.4909    0.3318   -1.7642 H   0  0  0  0  0  0  0  0  0  0  0  0
   -1.0021    0.5968    1.2537 H   0  0  0  0  0  0  0  0  0  0  0  0
   -0.9775    1.9376    0.1055 H   0  0  0  0  0  0  0  0  0  0  0  0
   -3.5144    1.5262    0.9337 H   0  0  0  0  0  0  0  0  0  0  0  0
    1.8295    1.3940   -1.0410 N   0  0  0  0  0  0  0  0  0  0  0  0
    3.1631    1.8994   -0.6893 C   0  0  2  0  0  0  0  0  0  0  0  0
    3.3863    3.3277   -1.2322 C   0  0  0  0  0  0  0  0  0  0  0  0
    2.5659    3.8273   -1.9944 O   0  0  0  0  0  0  0  0  0  0  0  0
    4.2104    0.9351   -1.2561 C   0  0  0  0  0  0  0  0  0  0  0  0
    1.3432    1.8793   -1.7962 H   0  0  0  0  0  0  0  0  0  0  0  0
    3.2644    1.9450    0.4003 H   0  0  0  0  0  0  0  0  0  0  0  0
    4.1346    0.8868   -2.3473 H   0  0  0  0  0  0  0  0  0  0  0  0
    5.2198    1.2627   -0.9904 H   0  0  0  0  0  0  0  0  0  0  0  0
    4.0590   -0.0709   -0.8518 H   0  0  0  0  0  0  0  0  0  0  0  0
    4.4960    4.0621   -0.8560 N   0  0  0  0  0  0  0  0  0  0  0  0
    4.7555    5.4171   -1.3288 C   0  0  0  0  0  0  0  0  0  0  0  0
    5.1513    3.6324   -0.2094 H   0  0  0  0  0  0  0  0  0  0  0  0
    4.7856    5.4433   -2.4233 H   0  0  0  0  0  0  0  0  0  0  0  0
    3.9726    6.0997   -0.9822 H   0  0  0  0  0  0  0  0  0  0  0  0
    5.7182    5.7736   -0.9500 H   0  0  0  0  0  0  0  0  0  0  0  0
  1  2  2  0  0  0  0
  1  3  1  0  0  0  0
  1  7  1  0  0  0  0
  3  4  1  0  0  0  0
  3  5  1  0  0  0  0
  3  6  1  0  0  0  0
  7  8  1  0  0  0  0
  7 12  1  0  0  0  0
  8  9  1  0  0  0  0
  8 11  1  0  0  0  0
  8 13  1  0  0  0  0
  9 10  2  0  0  0  0
  9 17  1  0  0  0  0
 11 14  1  0  0  0  0
 11 15  1  0  0  0  0
 11 16  1  0  0  0  0
 17 18  1  0  0  0  0
 17 23  1  0  0  0  0
 18 19  1  0  0  0  0
 18 21  1  0  0  0  0
 18 24  1  0  0  0  0
 19 20  2  0  0  0  0
 19 28  1  0  0  0  0
 21 22  1  0  0  0  0
 21 25  1  0  0  0  0
 21 26  1  0  0  0  0
 22 27  1  0  0  0  0
 28 29  1  0  0  0  0
 28 33  1  0  0  0  0
 29 30  1  0  0  0  0
 29 32  1  0  0  0  0
 29 34  1  0  0  0  0
 30 31  2  0  0  0  0
 30 38  1  0  0  0  0
 32 35  1  0  0  0  0
 32 36  1  0  0  0  0
 32 37  1  0  0  0  0
 38 39  1  0  0  0  0
 38 40  1  0  0  0  0
 39 41  1  0  0  0  0
 39 42  1  0  0  0  0
 39 43  1  0  0  0  0
M  END
$$$$

  -OEChem-05262216003D

 43 42  0     1  0  0  0  0  0999 V2000
   -3.6807   -4.5501    1.2911 C   0  0  0  0  0  0  0  0  0  0  0  0
   -3.0503   -4.8207    2.3014 O   0  0  0  0  0  0  0  0  0  0  0  0
   -5.1513   -4.9084    1.1897 C   0  0  0  0  0  0  0  0  0  0  0  0
   -5.3067   -5.6125    0.3686 H   0  0  0  0  0  0  0  0  0  0  0  0
   -5.4932   -5.3703    2.1200 H   0  0  0  0  0  0  0  0  0  0  0  0
   -5.7428   -4.0082    1.0050 H   0  0  0  0  0  0  0  0  0  0  0  0
   -3.0599   -3.9139    0.2381 N   0  0  0  0  0  0  0  0  0  0  0  0
   -1.6950   -3.3746    0.2795 C   0  0  2  0  0  0  0  0  0  0  0  0
   -1.5693   -2.1147   -0.6030 C   0  0  0  0  0  0  0  0  0  0  0  0
   -2.4306   -1.8659   -1.4374 O   0  0  0  0  0  0  0  0  0  0  0  0
   -0.7284   -4.4676   -0.1871 C   0  0  0  0  0  0  0  0  0  0  0  0
   -3.6522   -3.5859   -0.5252 H   0  0  0  0  0  0  0  0  0  0  0  0
   -1.4435   -3.0809    1.3044 H   0  0  0  0  0  0  0  0  0  0  0  0
   -0.9507   -4.7583   -1.2187 H   0  0  0  0  0  0  0  0  0  0  0  0
    0.3060   -4.1149   -0.1388 H   0  0  0  0  0  0  0  0  0  0  0  0
   -0.8197   -5.3517    0.4518 H   0  0  0  0  0  0  0  0  0  0  0  0
   -0.4111   -1.3639   -0.6010 N   0  0  0  0  0  0  0  0  0  0  0  0
   -0.3242    0.1042   -0.7452 C   0  0  2  0  0  0  0  0  0  0  0  0
    1.0914    0.5469   -0.3234 C   0  0  0  0  0  0  0  0  0  0  0  0
    1.7154   -0.1047    0.5088 O   0  0  0  0  0  0  0  0  0  0  0  0
   -1.2410    0.9296    0.2001 C   0  0  0  0  0  0  0  0  0  0  0  0
   -3.0566    0.7575   -0.0315 S   0  0  0  0  0  0  0  0  0  0  0  0
    0.3137   -1.7401    0.0108 H   0  0  0  0  0  0  0  0  0  0  0  0
   -0.5155    0.3797   -1.7871 H   0  0  0  0  0  0  0  0  0  0  0  0
   -1.0104    0.6498    1.2340 H   0  0  0  0  0  0  0  0  0  0  0  0
   -0.9979    1.9918    0.0870 H   0  0  0  0  0  0  0  0  0  0  0  0
   -3.5257    1.5701    0.9396 H   0  0  0  0  0  0  0  0  0  0  0  0
    1.6778    1.6624   -0.8886 N   0  0  0  0  0  0  0  0  0  0  0  0
    2.9704    2.2267   -0.4801 C   0  0  2  0  0  0  0  0  0  0  0  0
    3.0236    3.7477   -0.7398 C   0  0  0  0  0  0  0  0  0  0  0  0
    2.1091    4.2967   -1.3451 O   0  0  0  0  0  0  0  0  0  0  0  0
    4.0811    1.5061   -1.2513 C   0  0  0  0  0  0  0  0  0  0  0  0
    1.1040    2.2419   -1.5029 H   0  0  0  0  0  0  0  0  0  0  0  0
    3.1169    2.0727    0.5944 H   0  0  0  0  0  0  0  0  0  0  0  0
    3.9568    1.6552   -2.3288 H   0  0  0  0  0  0  0  0  0  0  0  0
    5.0638    1.8862   -0.9573 H   0  0  0  0  0  0  0  0  0  0  0  0
    4.0533    0.4319   -1.0429 H   0  0  0  0  0  0  0  0  0  0  0  0
    4.0843    4.5069   -0.2812 N   0  0  0  0  0  0  0  0  0  0  0  0
    4.1907    5.9452   -0.4974 C   0  0  0  0  0  0  0  0  0  0  0  0
    4.8240    4.0291    0.2254 H   0  0  0  0  0  0  0  0  0  0  0  0
    4.1871    6.1740   -1.5685 H   0  0  0  0  0  0  0  0  0  0  0  0
    3.3527    6.4671   -0.0231 H   0  0  0  0  0  0  0  0  0  0  0  0
    5.1227    6.3248   -0.0675 H   0  0  0  0  0  0  0  0  0  0  0  0
  1  2  2  0  0  0  0
  1  3  1  0  0  0  0
  1  7  1  0  0  0  0
  3  4  1  0  0  0  0
  3  5  1  0  0  0  0
  3  6  1  0  0  0  0
  7  8  1  0  0  0  0
  7 12  1  0  0  0  0
  8  9  1  0  0  0  0
  8 11  1  0  0  0  0
  8 13  1  0  0  0  0
  9 10  2  0  0  0  0
  9 17  1  0  0  0  0
 11 14  1  0  0  0  0
 11 15  1  0  0  0  0
 11 16  1  0  0  0  0
 17 18  1  0  0  0  0
 17 23  1  0  0  0  0
 18 19  1  0  0  0  0
 18 21  1  0  0  0  0
 18 24  1  0  0  0  0
 19 20  2  0  0  0  0
 19 28  1  0  0  0  0
 21 22  1  0  0  0  0
 21 25  1  0  0  0  0
 21 26  1  0  0  0  0
 22 27  1  0  0  0  0
 28 29  1  0  0  0  0
 28 33  1  0  0  0  0
 29 30  1  0  0  0  0
 29 32  1  0  0  0  0
 29 34  1  0  0  0  0
 30 31  2  0  0  0  0
 30 38  1  0  0  0  0
 32 35  1  0  0  0  0
 32 36  1  0  0  0  0
 32 37  1  0  0  0  0
 38 39  1  0  0  0  0
 38 40  1  0  0  0  0
 39 41  1  0  0  0  0
 39 42  1  0  0  0  0
 39 43  1  0  0  0  0
M  END
$$$$

  -OEChem-05262216003D

 43 42  0     1  0  0  0  0  0999 V2000
   -3.6340   -4.5365    1.3017 C   0  0  0  0  0  0  0  0  0  0  0  0
   -2.9944   -4.7884    2.3110 O   0  0  0  0  0  0  0  0  0  0  0  0
   -5.1038   -4.9032    1.2198 C   0  0  0  0  0  0  0  0  0  0  0  0
   -5.2669   -5.6117    0.4039 H   0  0  0  0  0  0  0  0  0  0  0  0
   -5.4297   -5.3631    2.1568 H   0  0  0  0  0  0  0  0  0  0  0  0
   -5.7026   -4.0070    1.0398 H   0  0  0  0  0  0  0  0  0  0  0  0
   -3.0258   -3.9104    0.2357 N   0  0  0  0  0  0  0  0  0  0  0  0
   -1.6692   -3.3500    0.2652 C   0  0  2  0  0  0  0  0  0  0  0  0
   -1.5768   -2.0827   -0.6109 C   0  0  0  0  0  0  0  0  0  0  0  0
   -2.4576   -1.8419   -1.4273 O   0  0  0  0  0  0  0  0  0  0  0  0
   -0.6921   -4.4266   -0.2165 C   0  0  0  0  0  0  0  0  0  0  0  0
   -3.6286   -3.5901   -0.5227 H   0  0  0  0  0  0  0  0  0  0  0  0
   -1.4091   -3.0575    1.2882 H   0  0  0  0  0  0  0  0  0  0  0  0
   -0.9249   -4.7216   -1.2446 H   0  0  0  0  0  0  0  0  0  0  0  0
    0.3369   -4.0572   -0.1829 H   0  0  0  0  0  0  0  0  0  0  0  0
   -0.7602   -5.3114    0.4241 H   0  0  0  0  0  0  0  0  0  0  0  0
   -0.4288   -1.3164   -0.6266 N   0  0  0  0  0  0  0  0  0  0  0  0
   -0.3485    0.1514   -0.7861 C   0  0  2  0  0  0  0  0  0  0  0  0
    1.0705    0.6090   -0.3792 C   0  0  0  0  0  0  0  0  0  0  0  0
    1.7907   -0.1308    0.2851 O   0  0  0  0  0  0  0  0  0  0  0  0
   -1.2683    0.9701    0.1664 C   0  0  0  0  0  0  0  0  0  0  0  0
   -3.0851    0.7814   -0.0450 S   0  0  0  0  0  0  0  0  0  0  0  0
    0.3241   -1.6916   -0.0485 H   0  0  0  0  0  0  0  0  0  0  0  0
   -0.5499    0.4199   -1.8278 H   0  0  0  0  0  0  0  0  0  0  0  0
   -1.0229    0.6974    1.1985 H   0  0  0  0  0  0  0  0  0  0  0  0
   -1.0439    2.0355    0.0487 H   0  0  0  0  0  0  0  0  0  0  0  0
   -3.5546    1.5961    0.9245 H   0  0  0  0  0  0  0  0  0  0  0  0
    1.5294    1.8683   -0.7157 N   0  0  0  0  0  0  0  0  0  0  0  0
    2.7868    2.4603   -0.2414 C   0  0  2  0  0  0  0  0  0  0  0  0
    2.6692    3.9954   -0.1248 C   0  0  0  0  0  0  0  0  0  0  0  0
    1.6600    4.5628   -0.5297 O   0  0  0  0  0  0  0  0  0  0  0  0
    3.9021    2.0733   -1.2183 C   0  0  0  0  0  0  0  0  0  0  0  0
    0.8736    2.5054   -1.1695 H   0  0  0  0  0  0  0  0  0  0  0  0
    3.0270    2.0743    0.7551 H   0  0  0  0  0  0  0  0  0  0  0  0
    3.6837    2.4577   -2.2200 H   0  0  0  0  0  0  0  0  0  0  0  0
    4.8625    2.4820   -0.8900 H   0  0  0  0  0  0  0  0  0  0  0  0
    3.9950    0.9841   -1.2758 H   0  0  0  0  0  0  0  0  0  0  0  0
    3.6823    4.7420    0.4481 N   0  0  0  0  0  0  0  0  0  0  0  0
    3.6275    6.1931    0.5833 C   0  0  0  0  0  0  0  0  0  0  0  0
    4.5056    4.2473    0.7792 H   0  0  0  0  0  0  0  0  0  0  0  0
    3.5108    6.6664   -0.3976 H   0  0  0  0  0  0  0  0  0  0  0  0
    2.7851    6.4870    1.2184 H   0  0  0  0  0  0  0  0  0  0  0  0
    4.5504    6.5663    1.0377 H   0  0  0  0  0  0  0  0  0  0  0  0
  1  2  2  0  0  0  0
  1  3  1  0  0  0  0
  1  7  1  0  0  0  0
  3  4  1  0  0  0  0
  3  5  1  0  0  0  0
  3  6  1  0  0  0  0
  7  8  1  0  0  0  0
  7 12  1  0  0  0  0
  8  9  1  0  0  0  0
  8 11  1  0  0  0  0
  8 13  1  0  0  0  0
  9 10  2  0  0  0  0
  9 17  1  0  0  0  0
 11 14  1  0  0  0  0
 11 15  1  0  0  0  0
 11 16  1  0  0  0  0
 17 18  1  0  0  0  0
 17 23  1  0  0  0  0
 18 19  1  0  0  0  0
 18 21  1  0  0  0  0
 18 24  1  0  0  0  0
 19 20  2  0  0  0  0
 19 28  1  0  0  0  0
 21 22  1  0  0  0  0
 21 25  1  0  0  0  0
 21 26  1  0  0  0  0
 22 27  1  0  0  0  0
 28 29  1  0  0  0  0
 28 33  1  0  0  0  0
 29 30  1  0  0  0  0
 29 32  1  0  0  0  0
 29 34  1  0  0  0  0
 30 31  2  0  0  0  0
 30 38  1  0  0  0  0
 32 35  1  0  0  0  0
 32 36  1  0  0  0  0
 32 37  1  0  0  0  0
 38 39  1  0  0  0  0
 38 40  1  0  0  0  0
 39 41  1  0  0  0  0
 39 42  1  0  0  0  0
 39 43  1  0  0  0  0
M  END
$$$$
