
  -OEChem-05262214473D

 43 42  0     1  0  0  0  0  0999 V2000
   -2.8661   -4.7415    2.2943 C   0  0  0  0  0  0  0  0  0  0  0  0
   -2.0233   -5.5727    2.6109 O   0  0  0  0  0  0  0  0  0  0  0  0
   -4.3078   -5.0134    2.5698 C   0  0  0  0  0  0  0  0  0  0  0  0
   -4.8057   -5.5295    1.7332 H   0  0  0  0  0  0  0  0  0  0  0  0
   -4.4526   -5.6688    3.4436 H   0  0  0  0  0  0  0  0  0  0  0  0
   -4.9255   -4.1233    2.7700 H   0  0  0  0  0  0  0  0  0  0  0  0
   -2.6241   -3.5219    1.6838 N   0  0  0  0  0  0  0  0  0  0  0  0
   -1.3070   -3.0608    1.3315 C   0  0  2  0  0  0  0  0  0  0  0  0
   -1.3931   -1.5680    1.0422 C   0  0  0  0  0  0  0  0  0  0  0  0
   -2.4385   -1.0059    0.7226 O   0  0  0  0  0  0  0  0  0  0  0  0
   -0.7590   -3.8164    0.1309 C   0  0  0  0  0  0  0  0  0  0  0  0
   -3.4188   -2.9207    1.4735 H   0  0  0  0  0  0  0  0  0  0  0  0
   -0.6690   -3.2277    2.2062 H   0  0  0  0  0  0  0  0  0  0  0  0
   -1.3852   -3.6613   -0.7553 H   0  0  0  0  0  0  0  0  0  0  0  0
    0.2542   -3.4843   -0.1182 H   0  0  0  0  0  0  0  0  0  0  0  0
   -0.7257   -4.8930    0.3300 H   0  0  0  0  0  0  0  0  0  0  0  0
   -0.1563   -0.9420    1.1402 N   0  0  0  0  0  0  0  0  0  0  0  0
    0.0261    0.4671    0.9001 C   0  0  2  0  0  0  0  0  0  0  0  0
    1.5006    0.8150    1.0941 C   0  0  0  0  0  0  0  0  0  0  0  0
    2.3462   -0.0138    1.4250 O   0  0  0  0  0  0  0  0  0  0  0  0
   -0.9168    1.3288    1.7436 C   0  0  0  0  0  0  0  0  0  0  0  0
   -2.6789    1.1063    1.3338 S   0  0  0  0  0  0  0  0  0  0  0  0
    0.6533   -1.4855    1.4300 H   0  0  0  0  0  0  0  0  0  0  0  0
   -0.2131    0.6189   -0.1598 H   0  0  0  0  0  0  0  0  0  0  0  0
   -0.7968    1.1011    2.8078 H   0  0  0  0  0  0  0  0  0  0  0  0
   -0.6790    2.3888    1.6036 H   0  0  0  0  0  0  0  0  0  0  0  0
   -3.1386    1.9810    2.2377 H   0  0  0  0  0  0  0  0  0  0  0  0
    1.7549    2.1620    0.8787 N   0  0  0  0  0  0  0  0  0  0  0  0
    3.0730    2.7370    1.0117 C   0  0  2  0  0  0  0  0  0  0  0  0
    2.9446    4.2472    0.8628 C   0  0  0  0  0  0  0  0  0  0  0  0
    2.0023    4.7867    0.2866 O   0  0  0  0  0  0  0  0  0  0  0  0
    4.0317    2.1684   -0.0228 C   0  0  0  0  0  0  0  0  0  0  0  0
    1.0008    2.7708    0.5747 H   0  0  0  0  0  0  0  0  0  0  0  0
    3.4221    2.4974    2.0221 H   0  0  0  0  0  0  0  0  0  0  0  0
    3.6985    2.3984   -1.0414 H   0  0  0  0  0  0  0  0  0  0  0  0
    5.0376    2.5840    0.0976 H   0  0  0  0  0  0  0  0  0  0  0  0
    4.1001    1.0788    0.0665 H   0  0  0  0  0  0  0  0  0  0  0  0
    4.0277    4.9197    1.4113 N   0  0  0  0  0  0  0  0  0  0  0  0
    4.1461    6.3589    1.3855 C   0  0  0  0  0  0  0  0  0  0  0  0
    4.7545    4.3928    1.8865 H   0  0  0  0  0  0  0  0  0  0  0  0
    4.7118    6.6648    0.4931 H   0  0  0  0  0  0  0  0  0  0  0  0
    3.1428    6.8088    1.3555 H   0  0  0  0  0  0  0  0  0  0  0  0
    4.6739    6.6995    2.2886 H   0  0  0  0  0  0  0  0  0  0  0  0
  1  3  1  0  0  0  0
  1  7  1  0  0  0  0
  1  2  2  0  0  0  0
 29 30  1  0  0  0  0
 30 38  1  0  0  0  0
 30 31  2  0  0  0  0
  8  9  1  0  0  0  0
  9 17  1  0  0  0  0
  9 10  2  0  0  0  0
 18 19  1  0  0  0  0
 19 28  1  0  0  0  0
 19 20  2  0  0  0  0
 29 32  1  0  0  0  0
  8 11  1  0  0  0  0
 38 39  1  0  0  0  0
 18 21  1  0  0  0  0
 21 22  1  0  0  0  0
 28 29  1  0  0  0  0
  7  8  1  0  0  0  0
 17 18  1  0  0  0  0
  3  4  1  0  0  0  0
  3  5  1  0  0  0  0
  3  6  1  0  0  0  0
 32 35  1  0  0  0  0
 32 36  1  0  0  0  0
 32 37  1  0  0  0  0
 11 14  1  0  0  0  0
 11 15  1  0  0  0  0
 11 16  1  0  0  0  0
 39 41  1  0  0  0  0
 39 42  1  0  0  0  0
 39 43  1  0  0  0  0
 21 25  1  0  0  0  0
 21 26  1  0  0  0  0
 29 34  1  0  0  0  0
  8 13  1  0  0  0  0
 18 24  1  0  0  0  0
 38 40  1  0  0  0  0
  7 12  1  0  0  0  0
 28 33  1  0  0  0  0
 17 23  1  0  0  0  0
 22 27  1  0  0  0  0
M  END
$$$$

  -OEChem-05262214473D

 43 42  0     1  0  0  0  0  0999 V2000
   -2.8661   -4.7415    2.2943 C   0  0  0  0  0  0  0  0  0  0  0  0
   -2.0233   -5.5727    2.6109 O   0  0  0  0  0  0  0  0  0  0  0  0
   -4.3078   -5.0134    2.5698 C   0  0  0  0  0  0  0  0  0  0  0  0
   -4.8057   -5.5295    1.7332 H   0  0  0  0  0  0  0  0  0  0  0  0
   -4.4526   -5.6688    3.4436 H   0  0  0  0  0  0  0  0  0  0  0  0
   -4.9255   -4.1233    2.7700 H   0  0  0  0  0  0  0  0  0  0  0  0
   -2.6241   -3.5219    1.6838 N   0  0  0  0  0  0  0  0  0  0  0  0
   -1.3070   -3.0608    1.3315 C   0  0  2  0  0  0  0  0  0  0  0  0
   -1.3931   -1.5680    1.0422 C   0  0  0  0  0  0  0  0  0  0  0  0
   -2.4385   -1.0059    0.7226 O   0  0  0  0  0  0  0  0  0  0  0  0
   -0.7590   -3.8164    0.1309 C   0  0  0  0  0  0  0  0  0  0  0  0
   -3.4188   -2.9207    1.4735 H   0  0  0  0  0  0  0  0  0  0  0  0
   -0.6690   -3.2277    2.2062 H   0  0  0  0  0  0  0  0  0  0  0  0
   -1.3852   -3.6613   -0.7553 H   0  0  0  0  0  0  0  0  0  0  0  0
    0.2542   -3.4843   -0.1182 H   0  0  0  0  0  0  0  0  0  0  0  0
   -0.7257   -4.8930    0.3300 H   0  0  0  0  0  0  0  0  0  0  0  0
   -0.1563   -0.9420    1.1402 N   0  0  0  0  0  0  0  0  0  0  0  0
    0.0261    0.4671    0.9001 C   0  0  2  0  0  0  0  0  0  0  0  0
    1.5006    0.8150    1.0941 C   0  0  0  0  0  0  0  0  0  0  0  0
    2.3862   -0.0353    1.1597 O   0  0  0  0  0  0  0  0  0  0  0  0
   -0.9168    1.3288    1.7436 C   0  0  0  0  0  0  0  0  0  0  0  0
   -2.6789    1.1063    1.3338 S   0  0  0  0  0  0  0  0  0  0  0  0
    0.6533   -1.4855    1.4300 H   0  0  0  0  0  0  0  0  0  0  0  0
   -0.2131    0.6189   -0.1598 H   0  0  0  0  0  0  0  0  0  0  0  0
   -0.7968    1.1011    2.8078 H   0  0  0  0  0  0  0  0  0  0  0  0
   -0.6790    2.3888    1.6036 H   0  0  0  0  0  0  0  0  0  0  0  0
   -3.1386    1.9810    2.2377 H   0  0  0  0  0  0  0  0  0  0  0  0
    1.7065    2.1824    1.2099 N   0  0  0  0  0  0  0  0  0  0  0  0
    3.0154    2.7588    1.4105 C   0  0  2  0  0  0  0  0  0  0  0  0
    2.8395    4.2522    1.6525 C   0  0  0  0  0  0  0  0  0  0  0  0
    1.8493    4.8796    1.2825 O   0  0  0  0  0  0  0  0  0  0  0  0
    3.9210    2.5048    0.2155 C   0  0  0  0  0  0  0  0  0  0  0  0
    0.9195    2.8167    1.1101 H   0  0  0  0  0  0  0  0  0  0  0  0
    3.4335    2.2896    2.3078 H   0  0  0  0  0  0  0  0  0  0  0  0
    3.5184    2.9674   -0.6930 H   0  0  0  0  0  0  0  0  0  0  0  0
    4.9216    2.9176    0.3811 H   0  0  0  0  0  0  0  0  0  0  0  0
    4.0225    1.4309    0.0248 H   0  0  0  0  0  0  0  0  0  0  0  0
    3.9377    4.8101    2.2920 N   0  0  0  0  0  0  0  0  0  0  0  0
    4.0177    6.2140    2.6215 C   0  0  0  0  0  0  0  0  0  0  0  0
    4.7062    4.2113    2.5792 H   0  0  0  0  0  0  0  0  0  0  0  0
    4.5180    6.7550    1.8048 H   0  0  0  0  0  0  0  0  0  0  0  0
    3.0034    6.6164    2.7604 H   0  0  0  0  0  0  0  0  0  0  0  0
    4.5926    6.3402    3.5509 H   0  0  0  0  0  0  0  0  0  0  0  0
  1  3  1  0  0  0  0
  1  7  1  0  0  0  0
  1  2  2  0  0  0  0
 29 30  1  0  0  0  0
 30 38  1  0  0  0  0
 30 31  2  0  0  0  0
  8  9  1  0  0  0  0
  9 17  1  0  0  0  0
  9 10  2  0  0  0  0
 18 19  1  0  0  0  0
 19 28  1  0  0  0  0
 19 20  2  0  0  0  0
 29 32  1  0  0  0  0
  8 11  1  0  0  0  0
 38 39  1  0  0  0  0
 18 21  1  0  0  0  0
 21 22  1  0  0  0  0
 28 29  1  0  0  0  0
  7  8  1  0  0  0  0
 17 18  1  0  0  0  0
  3  4  1  0  0  0  0
  3  5  1  0  0  0  0
  3  6  1  0  0  0  0
 32 35  1  0  0  0  0
 32 36  1  0  0  0  0
 32 37  1  0  0  0  0
 11 14  1  0  0  0  0
 11 15  1  0  0  0  0
 11 16  1  0  0  0  0
 39 41  1  0  0  0  0
 39 42  1  0  0  0  0
 39 43  1  0  0  0  0
 21 25  1  0  0  0  0
 21 26  1  0  0  0  0
 29 34  1  0  0  0  0
  8 13  1  0  0  0  0
 18 24  1  0  0  0  0
 38 40  1  0  0  0  0
  7 12  1  0  0  0  0
 28 33  1  0  0  0  0
 17 23  1  0  0  0  0
 22 27  1  0  0  0  0
M  END
$$$$

  -OEChem-05262214473D

 43 42  0     1  0  0  0  0  0999 V2000
   -2.8661   -4.7415    2.2943 C   0  0  0  0  0  0  0  0  0  0  0  0
   -2.0233   -5.5727    2.6109 O   0  0  0  0  0  0  0  0  0  0  0  0
   -4.3078   -5.0134    2.5698 C   0  0  0  0  0  0  0  0  0  0  0  0
   -4.8057   -5.5295    1.7332 H   0  0  0  0  0  0  0  0  0  0  0  0
   -4.4526   -5.6688    3.4436 H   0  0  0  0  0  0  0  0  0  0  0  0
   -4.9255   -4.1233    2.7700 H   0  0  0  0  0  0  0  0  0  0  0  0
   -2.6241   -3.5219    1.6838 N   0  0  0  0  0  0  0  0  0  0  0  0
   -1.3070   -3.0608    1.3315 C   0  0  2  0  0  0  0  0  0  0  0  0
   -1.3931   -1.5680    1.0422 C   0  0  0  0  0  0  0  0  0  0  0  0
   -2.4385   -1.0059    0.7226 O   0  0  0  0  0  0  0  0  0  0  0  0
   -0.7590   -3.8164    0.1309 C   0  0  0  0  0  0  0  0  0  0  0  0
   -3.4188   -2.9207    1.4735 H   0  0  0  0  0  0  0  0  0  0  0  0
   -0.6690   -3.2277    2.2062 H   0  0  0  0  0  0  0  0  0  0  0  0
   -1.3852   -3.6613   -0.7553 H   0  0  0  0  0  0  0  0  0  0  0  0
    0.2542   -3.4843   -0.1182 H   0  0  0  0  0  0  0  0  0  0  0  0
   -0.7257   -4.8930    0.3300 H   0  0  0  0  0  0  0  0  0  0  0  0
   -0.1563   -0.9420    1.1402 N   0  0  0  0  0  0  0  0  0  0  0  0
    0.0261    0.4671    0.9001 C   0  0  2  0  0  0  0  0  0  0  0  0
    1.5006    0.8150    1.0941 C   0  0  0  0  0  0  0  0  0  0  0  0
    2.4098    0.0116    0.8957 O   0  0  0  0  0  0  0  0  0  0  0  0
   -0.9168    1.3288    1.7436 C   0  0  0  0  0  0  0  0  0  0  0  0
   -2.6789    1.1063    1.3338 S   0  0  0  0  0  0  0  0  0  0  0  0
    0.6533   -1.4855    1.4300 H   0  0  0  0  0  0  0  0  0  0  0  0
   -0.2131    0.6189   -0.1598 H   0  0  0  0  0  0  0  0  0  0  0  0
   -0.7968    1.1011    2.8078 H   0  0  0  0  0  0  0  0  0  0  0  0
   -0.6790    2.3888    1.6036 H   0  0  0  0  0  0  0  0  0  0  0  0
   -3.1386    1.9810    2.2377 H   0  0  0  0  0  0  0  0  0  0  0  0
    1.6786    2.1177    1.5377 N   0  0  0  0  0  0  0  0  0  0  0  0
    2.9825    2.6784    1.8046 C   0  0  2  0  0  0  0  0  0  0  0  0
    2.7845    4.0562    2.4227 C   0  0  0  0  0  0  0  0  0  0  0  0
    1.7573    4.7155    2.2767 O   0  0  0  0  0  0  0  0  0  0  0  0
    3.8171    2.7665    0.5363 C   0  0  0  0  0  0  0  0  0  0  0  0
    0.8711    2.7245    1.6435 H   0  0  0  0  0  0  0  0  0  0  0  0
    3.4682    2.0179    2.5312 H   0  0  0  0  0  0  0  0  0  0  0  0
    3.3463    3.4241   -0.2036 H   0  0  0  0  0  0  0  0  0  0  0  0
    4.8153    3.1652    0.7451 H   0  0  0  0  0  0  0  0  0  0  0  0
    3.9335    1.7790    0.0770 H   0  0  0  0  0  0  0  0  0  0  0  0
    3.9062    4.4813    3.1205 N   0  0  0  0  0  0  0  0  0  0  0  0
    3.9713    5.7611    3.7869 C   0  0  0  0  0  0  0  0  0  0  0  0
    4.7063    3.8613    3.2058 H   0  0  0  0  0  0  0  0  0  0  0  0
    4.4051    6.5080    3.1058 H   0  0  0  0  0  0  0  0  0  0  0  0
    2.9579    6.0749    4.0775 H   0  0  0  0  0  0  0  0  0  0  0  0
    4.6003    5.6750    4.6852 H   0  0  0  0  0  0  0  0  0  0  0  0
  1  3  1  0  0  0  0
  1  7  1  0  0  0  0
  1  2  2  0  0  0  0
 29 30  1  0  0  0  0
 30 38  1  0  0  0  0
 30 31  2  0  0  0  0
  8  9  1  0  0  0  0
  9 17  1  0  0  0  0
  9 10  2  0  0  0  0
 18 19  1  0  0  0  0
 19 28  1  0  0  0  0
 19 20  2  0  0  0  0
 29 32  1  0  0  0  0
  8 11  1  0  0  0  0
 38 39  1  0  0  0  0
 18 21  1  0  0  0  0
 21 22  1  0  0  0  0
 28 29  1  0  0  0  0
  7  8  1  0  0  0  0
 17 18  1  0  0  0  0
  3  4  1  0  0  0  0
  3  5  1  0  0  0  0
  3  6  1  0  0  0  0
 32 35  1  0  0  0  0
 32 36  1  0  0  0  0
 32 37  1  0  0  0  0
 11 14  1  0  0  0  0
 11 15  1  0  0  0  0
 11 16  1  0  0  0  0
 39 41  1  0  0  0  0
 39 42  1  0  0  0  0
 39 43  1  0  0  0  0
 21 25  1  0  0  0  0
 21 26  1  0  0  0  0
 29 34  1  0  0  0  0
  8 13  1  0  0  0  0
 18 24  1  0  0  0  0
 38 40  1  0  0  0  0
  7 12  1  0  0  0  0
 28 33  1  0  0  0  0
 17 23  1  0  0  0  0
 22 27  1  0  0  0  0
M  END
$$$$

  -OEChem-05262214473D

 43 42  0     1  0  0  0  0  0999 V2000
   -2.8661   -4.7415    2.2943 C   0  0  0  0  0  0  0  0  0  0  0  0
   -2.0233   -5.5727    2.6109 O   0  0  0  0  0  0  0  0  0  0  0  0
   -4.3078   -5.0134    2.5698 C   0  0  0  0  0  0  0  0  0  0  0  0
   -4.8057   -5.5295    1.7332 H   0  0  0  0  0  0  0  0  0  0  0  0
   -4.4526   -5.6688    3.4436 H   0  0  0  0  0  0  0  0  0  0  0  0
   -4.9255   -4.1233    2.7700 H   0  0  0  0  0  0  0  0  0  0  0  0
   -2.6241   -3.5219    1.6838 N   0  0  0  0  0  0  0  0  0  0  0  0
   -1.3070   -3.0608    1.3315 C   0  0  2  0  0  0  0  0  0  0  0  0
   -1.3931   -1.5680    1.0422 C   0  0  0  0  0  0  0  0  0  0  0  0
   -2.4385   -1.0059    0.7226 O   0  0  0  0  0  0  0  0  0  0  0  0
   -0.7590   -3.8164    0.1309 C   0  0  0  0  0  0  0  0  0  0  0  0
   -3.4188   -2.9207    1.4735 H   0  0  0  0  0  0  0  0  0  0  0  0
   -0.6690   -3.2277    2.2062 H   0  0  0  0  0  0  0  0  0  0  0  0
   -1.3852   -3.6613   -0.7553 H   0  0  0  0  0  0  0  0  0  0  0  0
    0.2542   -3.4843   -0.1182 H   0  0  0  0  0  0  0  0  0  0  0  0
   -0.7257   -4.8930    0.3300 H   0  0  0  0  0  0  0  0  0  0  0  0
   -0.1563   -0.9420    1.1402 N   0  0  0  0  0  0  0  0  0  0  0  0
    0.0261    0.4671    0.9001 C   0  0  2  0  0  0  0  0  0  0  0  0
    1.5006    0.8150    1.0941 C   0  0  0  0  0  0  0  0  0  0  0  0
    2.4156    0.1236    0.6510 O   0  0  0  0  0  0  0  0  0  0  0  0
   -0.9168    1.3288    1.7436 C   0  0  0  0  0  0  0  0  0  0  0  0
   -2.6789    1.1063    1.3338 S   0  0  0  0  0  0  0  0  0  0  0  0
    0.6533   -1.4855    1.4300 H   0  0  0  0  0  0  0  0  0  0  0  0
   -0.2131    0.6189   -0.1598 H   0  0  0  0  0  0  0  0  0  0  0  0
   -0.7968    1.1011    2.8078 H   0  0  0  0  0  0  0  0  0  0  0  0
   -0.6790    2.3888    1.6036 H   0  0  0  0  0  0  0  0  0  0  0  0
   -3.1386    1.9810    2.2377 H   0  0  0  0  0  0  0  0  0  0  0  0
    1.6732    1.9724    1.8399 N   0  0  0  0  0  0  0  0  0  0  0  0
    2.9767    2.5012    2.1671 C   0  0  2  0  0  0  0  0  0  0  0  0
    2.7831    3.6726    3.1209 C   0  0  0  0  0  0  0  0  0  0  0  0
    1.7323    4.3055    3.2014 O   0  0  0  0  0  0  0  0  0  0  0  0
    3.7270    2.9358    0.9177 C   0  0  0  0  0  0  0  0  0  0  0  0
    0.8587    2.5007    2.1386 H   0  0  0  0  0  0  0  0  0  0  0  0
    3.5238    1.7008    2.6770 H   0  0  0  0  0  0  0  0  0  0  0  0
    3.1939    3.7372    0.3933 H   0  0  0  0  0  0  0  0  0  0  0  0
    4.7260    3.3099    1.1649 H   0  0  0  0  0  0  0  0  0  0  0  0
    3.8392    2.0991    0.2197 H   0  0  0  0  0  0  0  0  0  0  0  0
    3.9355    3.9556    3.8406 N   0  0  0  0  0  0  0  0  0  0  0  0
    4.0100    5.0308    4.8020 C   0  0  0  0  0  0  0  0  0  0  0  0
    4.7549    3.3667    3.7237 H   0  0  0  0  0  0  0  0  0  0  0  0
    4.3809    5.9406    4.3074 H   0  0  0  0  0  0  0  0  0  0  0  0
    3.0093    5.2213    5.2171 H   0  0  0  0  0  0  0  0  0  0  0  0
    4.6964    4.7494    5.6142 H   0  0  0  0  0  0  0  0  0  0  0  0
  1  3  1  0  0  0  0
  1  7  1  0  0  0  0
  1  2  2  0  0  0  0
 29 30  1  0  0  0  0
 30 38  1  0  0  0  0
 30 31  2  0  0  0  0
  8  9  1  0  0  0  0
  9 17  1  0  0  0  0
  9 10  2  0  0  0  0
 18 19  1  0  0  0  0
 19 28  1  0  0  0  0
 19 20  2  0  0  0  0
 29 32  1  0  0  0  0
  8 11  1  0  0  0  0
 38 39  1  0  0  0  0
 18 21  1  0  0  0  0
 21 22  1  0  0  0  0
 28 29  1  0  0  0  0
  7  8  1  0  0  0  0
 17 18  1  0  0  0  0
  3  4  1  0  0  0  0
  3  5  1  0  0  0  0
  3  6  1  0  0  0  0
 32 35  1  0  0  0  0
 32 36  1  0  0  0  0
 32 37  1  0  0  0  0
 11 14  1  0  0  0  0
 11 15  1  0  0  0  0
 11 16  1  0  0  0  0
 39 41  1  0  0  0  0
 39 42  1  0  0  0  0
 39 43  1  0  0  0  0
 21 25  1  0  0  0  0
 21 26  1  0  0  0  0
 29 34  1  0  0  0  0
  8 13  1  0  0  0  0
 18 24  1  0  0  0  0
 38 40  1  0  0  0  0
  7 12  1  0  0  0  0
 28 33  1  0  0  0  0
 17 23  1  0  0  0  0
 22 27  1  0  0  0  0
M  END
$$$$

  -OEChem-05262214473D

 43 42  0     1  0  0  0  0  0999 V2000
   -2.8661   -4.7415    2.2943 C   0  0  0  0  0  0  0  0  0  0  0  0
   -2.0233   -5.5727    2.6109 O   0  0  0  0  0  0  0  0  0  0  0  0
   -4.3078   -5.0134    2.5698 C   0  0  0  0  0  0  0  0  0  0  0  0
   -4.8057   -5.5295    1.7332 H   0  0  0  0  0  0  0  0  0  0  0  0
   -4.4526   -5.6688    3.4436 H   0  0  0  0  0  0  0  0  0  0  0  0
   -4.9255   -4.1233    2.7700 H   0  0  0  0  0  0  0  0  0  0  0  0
   -2.6241   -3.5219    1.6838 N   0  0  0  0  0  0  0  0  0  0  0  0
   -1.3070   -3.0608    1.3315 C   0  0  2  0  0  0  0  0  0  0  0  0
   -1.3931   -1.5680    1.0422 C   0  0  0  0  0  0  0  0  0  0  0  0
   -2.4385   -1.0059    0.7226 O   0  0  0  0  0  0  0  0  0  0  0  0
   -0.7590   -3.8164    0.1309 C   0  0  0  0  0  0  0  0  0  0  0  0
   -3.4188   -2.9207    1.4735 H   0  0  0  0  0  0  0  0  0  0  0  0
   -0.6690   -3.2277    2.2062 H   0  0  0  0  0  0  0  0  0  0  0  0
   -1.3852   -3.6613   -0.7553 H   0  0  0  0  0  0  0  0  0  0  0  0
    0.2542   -3.4843   -0.1182 H   0  0  0  0  0  0  0  0  0  0  0  0
   -0.7257   -4.8930    0.3300 H   0  0  0  0  0  0  0  0  0  0  0  0
   -0.1563   -0.9420    1.1402 N   0  0  0  0  0  0  0  0  0  0  0  0
    0.0261    0.4671    0.9001 C   0  0  2  0  0  0  0  0  0  0  0  0
    1.5006    0.8150    1.0941 C   0  0  0  0  0  0  0  0  0  0  0  0
    2.4031    0.2932    0.4424 O   0  0  0  0  0  0  0  0  0  0  0  0
   -0.9168    1.3288    1.7436 C   0  0  0  0  0  0  0  0  0  0  0  0
   -2.6789    1.1063    1.3338 S   0  0  0  0  0  0  0  0  0  0  0  0
    0.6533   -1.4855    1.4300 H   0  0  0  0  0  0  0  0  0  0  0  0
   -0.2131    0.6189   -0.1598 H   0  0  0  0  0  0  0  0  0  0  0  0
   -0.7968    1.1011    2.8078 H   0  0  0  0  0  0  0  0  0  0  0  0
   -0.6790    2.3888    1.6036 H   0  0  0  0  0  0  0  0  0  0  0  0
   -3.1386    1.9810    2.2377 H   0  0  0  0  0  0  0  0  0  0  0  0
    1.6905    1.7563    2.0958 N   0  0  0  0  0  0  0  0  0  0  0  0
    2.9982    2.2393    2.4733 C   0  0  2  0  0  0  0  0  0  0  0  0
    2.8355    3.1276    3.6995 C   0  0  0  0  0  0  0  0  0  0  0  0
    1.7762    3.6776    3.9937 O   0  0  0  0  0  0  0  0  0  0  0  0
    3.6569    3.0010    1.3337 C   0  0  0  0  0  0  0  0  0  0  0  0
    0.8834    2.1604    2.5616 H   0  0  0  0  0  0  0  0  0  0  0  0
    3.5966    1.3599    2.7354 H   0  0  0  0  0  0  0  0  0  0  0  0
    3.0716    3.8856    1.0571 H   0  0  0  0  0  0  0  0  0  0  0  0
    4.6597    3.3419    1.6117 H   0  0  0  0  0  0  0  0  0  0  0  0
    3.7460    2.3697    0.4431 H   0  0  0  0  0  0  0  0  0  0  0  0
    4.0235    3.2689    4.4030 N   0  0  0  0  0  0  0  0  0  0  0  0
    4.1313    4.0731    5.5978 C   0  0  0  0  0  0  0  0  0  0  0  0
    4.8486    2.7612    4.0974 H   0  0  0  0  0  0  0  0  0  0  0  0
    4.4470    5.0915    5.3277 H   0  0  0  0  0  0  0  0  0  0  0  0
    3.1542    4.1137    6.1016 H   0  0  0  0  0  0  0  0  0  0  0  0
    4.8745    3.6263    6.2746 H   0  0  0  0  0  0  0  0  0  0  0  0
  1  3  1  0  0  0  0
  1  7  1  0  0  0  0
  1  2  2  0  0  0  0
 29 30  1  0  0  0  0
 30 38  1  0  0  0  0
 30 31  2  0  0  0  0
  8  9  1  0  0  0  0
  9 17  1  0  0  0  0
  9 10  2  0  0  0  0
 18 19  1  0  0  0  0
 19 28  1  0  0  0  0
 19 20  2  0  0  0  0
 29 32  1  0  0  0  0
  8 11  1  0  0  0  0
 38 39  1  0  0  0  0
 18 21  1  0  0  0  0
 21 22  1  0  0  0  0
 28 29  1  0  0  0  0
  7  8  1  0  0  0  0
 17 18  1  0  0  0  0
  3  4  1  0  0  0  0
  3  5  1  0  0  0  0
  3  6  1  0  0  0  0
 32 35  1  0  0  0  0
 32 36  1  0  0  0  0
 32 37  1  0  0  0  0
 11 14  1  0  0  0  0
 11 15  1  0  0  0  0
 11 16  1  0  0  0  0
 39 41  1  0  0  0  0
 39 42  1  0  0  0  0
 39 43  1  0  0  0  0
 21 25  1  0  0  0  0
 21 26  1  0  0  0  0
 29 34  1  0  0  0  0
  8 13  1  0  0  0  0
 18 24  1  0  0  0  0
 38 40  1  0  0  0  0
  7 12  1  0  0  0  0
 28 33  1  0  0  0  0
 17 23  1  0  0  0  0
 22 27  1  0  0  0  0
M  END
$$$$

  -OEChem-05262214473D

 43 42  0     1  0  0  0  0  0999 V2000
   -2.8661   -4.7415    2.2943 C   0  0  0  0  0  0  0  0  0  0  0  0
   -2.0233   -5.5727    2.6109 O   0  0  0  0  0  0  0  0  0  0  0  0
   -4.3078   -5.0134    2.5698 C   0  0  0  0  0  0  0  0  0  0  0  0
   -4.8057   -5.5295    1.7332 H   0  0  0  0  0  0  0  0  0  0  0  0
   -4.4526   -5.6688    3.4436 H   0  0  0  0  0  0  0  0  0  0  0  0
   -4.9255   -4.1233    2.7700 H   0  0  0  0  0  0  0  0  0  0  0  0
   -2.6241   -3.5219    1.6838 N   0  0  0  0  0  0  0  0  0  0  0  0
   -1.3070   -3.0608    1.3315 C   0  0  2  0  0  0  0  0  0  0  0  0
   -1.3931   -1.5680    1.0422 C   0  0  0  0  0  0  0  0  0  0  0  0
   -2.4385   -1.0059    0.7226 O   0  0  0  0  0  0  0  0  0  0  0  0
   -0.7590   -3.8164    0.1309 C   0  0  0  0  0  0  0  0  0  0  0  0
   -3.4188   -2.9207    1.4735 H   0  0  0  0  0  0  0  0  0  0  0  0
   -0.6690   -3.2277    2.2062 H   0  0  0  0  0  0  0  0  0  0  0  0
   -1.3852   -3.6613   -0.7553 H   0  0  0  0  0  0  0  0  0  0  0  0
    0.2542   -3.4843   -0.1182 H   0  0  0  0  0  0  0  0  0  0  0  0
   -0.7257   -4.8930    0.3300 H   0  0  0  0  0  0  0  0  0  0  0  0
   -0.1563   -0.9420    1.1402 N   0  0  0  0  0  0  0  0  0  0  0  0
    0.0261    0.4671    0.9001 C   0  0  2  0  0  0  0  0  0  0  0  0
    1.5006    0.8150    1.0941 C   0  0  0  0  0  0  0  0  0  0  0  0
    2.3731    0.5087    0.2839 O   0  0  0  0  0  0  0  0  0  0  0  0
   -0.9168    1.3288    1.7436 C   0  0  0  0  0  0  0  0  0  0  0  0
   -2.6789    1.1063    1.3338 S   0  0  0  0  0  0  0  0  0  0  0  0
    0.6533   -1.4855    1.4300 H   0  0  0  0  0  0  0  0  0  0  0  0
   -0.2131    0.6189   -0.1598 H   0  0  0  0  0  0  0  0  0  0  0  0
   -0.7968    1.1011    2.8078 H   0  0  0  0  0  0  0  0  0  0  0  0
   -0.6790    2.3888    1.6036 H   0  0  0  0  0  0  0  0  0  0  0  0
   -3.1386    1.9810    2.2377 H   0  0  0  0  0  0  0  0  0  0  0  0
    1.7294    1.4843    2.2879 N   0  0  0  0  0  0  0  0  0  0  0  0
    3.0456    1.9104    2.7023 C   0  0  2  0  0  0  0  0  0  0  0  0
    2.9382    2.4584    4.1192 C   0  0  0  0  0  0  0  0  0  0  0  0
    1.8860    2.8746    4.5995 O   0  0  0  0  0  0  0  0  0  0  0  0
    3.6115    2.9578    1.7560 C   0  0  0  0  0  0  0  0  0  0  0  0
    0.9433    1.7267    2.8837 H   0  0  0  0  0  0  0  0  0  0  0  0
    3.6815    1.0184    2.7023 H   0  0  0  0  0  0  0  0  0  0  0  0
    2.9877    3.8590    1.7426 H   0  0  0  0  0  0  0  0  0  0  0  0
    4.6209    3.2589    2.0552 H   0  0  0  0  0  0  0  0  0  0  0  0
    3.6603    2.5721    0.7319 H   0  0  0  0  0  0  0  0  0  0  0  0
    4.1643    2.4679    4.7694 N   0  0  0  0  0  0  0  0  0  0  0  0
    4.3268    2.9531    6.1201 C   0  0  0  0  0  0  0  0  0  0  0  0
    4.9810    2.0860    4.3016 H   0  0  0  0  0  0  0  0  0  0  0  0
    4.5989    4.0186    6.0972 H   0  0  0  0  0  0  0  0  0  0  0  0
    3.3828    2.8276    6.6707 H   0  0  0  0  0  0  0  0  0  0  0  0
    5.1223    2.3823    6.6214 H   0  0  0  0  0  0  0  0  0  0  0  0
  1  3  1  0  0  0  0
  1  7  1  0  0  0  0
  1  2  2  0  0  0  0
 29 30  1  0  0  0  0
 30 38  1  0  0  0  0
 30 31  2  0  0  0  0
  8  9  1  0  0  0  0
  9 17  1  0  0  0  0
  9 10  2  0  0  0  0
 18 19  1  0  0  0  0
 19 28  1  0  0  0  0
 19 20  2  0  0  0  0
 29 32  1  0  0  0  0
  8 11  1  0  0  0  0
 38 39  1  0  0  0  0
 18 21  1  0  0  0  0
 21 22  1  0  0  0  0
 28 29  1  0  0  0  0
  7  8  1  0  0  0  0
 17 18  1  0  0  0  0
  3  4  1  0  0  0  0
  3  5  1  0  0  0  0
  3  6  1  0  0  0  0
 32 35  1  0  0  0  0
 32 36  1  0  0  0  0
 32 37  1  0  0  0  0
 11 14  1  0  0  0  0
 11 15  1  0  0  0  0
 11 16  1  0  0  0  0
 39 41  1  0  0  0  0
 39 42  1  0  0  0  0
 39 43  1  0  0  0  0
 21 25  1  0  0  0  0
 21 26  1  0  0  0  0
 29 34  1  0  0  0  0
  8 13  1  0  0  0  0
 18 24  1  0  0  0  0
 38 40  1  0  0  0  0
  7 12  1  0  0  0  0
 28 33  1  0  0  0  0
 17 23  1  0  0  0  0
 22 27  1  0  0  0  0
M  END
$$$$

  -OEChem-05262214473D

 43 42  0     1  0  0  0  0  0999 V2000
   -2.8661   -4.7415    2.2943 C   0  0  0  0  0  0  0  0  0  0  0  0
   -2.0233   -5.5727    2.6109 O   0  0  0  0  0  0  0  0  0  0  0  0
   -4.3078   -5.0134    2.5698 C   0  0  0  0  0  0  0  0  0  0  0  0
   -4.8057   -5.5295    1.7332 H   0  0  0  0  0  0  0  0  0  0  0  0
   -4.4526   -5.6688    3.4436 H   0  0  0  0  0  0  0  0  0  0  0  0
   -4.9255   -4.1233    2.7700 H   0  0  0  0  0  0  0  0  0  0  0  0
   -2.6241   -3.5219    1.6838 N   0  0  0  0  0  0  0  0  0  0  0  0
   -1.3070   -3.0608    1.3315 C   0  0  2  0  0  0  0  0  0  0  0  0
   -1.3931   -1.5680    1.0422 C   0  0  0  0  0  0  0  0  0  0  0  0
   -2.4385   -1.0059    0.7226 O   0  0  0  0  0  0  0  0  0  0  0  0
   -0.7590   -3.8164    0.1309 C   0  0  0  0  0  0  0  0  0  0  0  0
   -3.4188   -2.9207    1.4735 H   0  0  0  0  0  0  0  0  0  0  0  0
   -0.6690   -3.2277    2.2062 H   0  0  0  0  0  0  0  0  0  0  0  0
   -1.3852   -3.6613   -0.7553 H   0  0  0  0  0  0  0  0  0  0  0  0
    0.2542   -3.4843   -0.1182 H   0  0  0  0  0  0  0  0  0  0  0  0
   -0.7257   -4.8930    0.3300 H   0  0  0  0  0  0  0  0  0  0  0  0
   -0.1563   -0.9420    1.1402 N   0  0  0  0  0  0  0  0  0  0  0  0
    0.0261    0.4671    0.9001 C   0  0  2  0  0  0  0  0  0  0  0  0
    1.5006    0.8150    1.0941 C   0  0  0  0  0  0  0  0  0  0  0  0
    2.3277    0.7554    0.1864 O   0  0  0  0  0  0  0  0  0  0  0  0
   -0.9168    1.3288    1.7436 C   0  0  0  0  0  0  0  0  0  0  0  0
   -2.6789    1.1063    1.3338 S   0  0  0  0  0  0  0  0  0  0  0  0
    0.6533   -1.4855    1.4300 H   0  0  0  0  0  0  0  0  0  0  0  0
   -0.2131    0.6189   -0.1598 H   0  0  0  0  0  0  0  0  0  0  0  0
   -0.7968    1.1011    2.8078 H   0  0  0  0  0  0  0  0  0  0  0  0
   -0.6790    2.3888    1.6036 H   0  0  0  0  0  0  0  0  0  0  0  0
   -3.1386    1.9810    2.2377 H   0  0  0  0  0  0  0  0  0  0  0  0
    1.7872    1.1747    2.4033 N   0  0  0  0  0  0  0  0  0  0  0  0
    3.1158    1.5371    2.8386 C   0  0  2  0  0  0  0  0  0  0  0  0
    3.0841    1.7104    4.3513 C   0  0  0  0  0  0  0  0  0  0  0  0
    2.0541    1.9512    4.9775 O   0  0  0  0  0  0  0  0  0  0  0  0
    3.5940    2.8090    2.1557 C   0  0  0  0  0  0  0  0  0  0  0  0
    1.0344    1.2294    3.0830 H   0  0  0  0  0  0  0  0  0  0  0  0
    3.7728    0.6996    2.5800 H   0  0  0  0  0  0  0  0  0  0  0  0
    2.9480    3.6593    2.4030 H   0  0  0  0  0  0  0  0  0  0  0  0
    4.6123    3.0667    2.4652 H   0  0  0  0  0  0  0  0  0  0  0  0
    3.5878    2.6926    1.0666 H   0  0  0  0  0  0  0  0  0  0  0  0
    4.3482    1.6073    4.9150 N   0  0  0  0  0  0  0  0  0  0  0  0
    4.5832    1.7472    6.3332 C   0  0  0  0  0  0  0  0  0  0  0  0
    5.1431    1.3871    4.3223 H   0  0  0  0  0  0  0  0  0  0  0  0
    4.8262    2.7950    6.5634 H   0  0  0  0  0  0  0  0  0  0  0  0
    3.6793    1.4506    6.8855 H   0  0  0  0  0  0  0  0  0  0  0  0
    5.4230    1.1022    6.6309 H   0  0  0  0  0  0  0  0  0  0  0  0
  1  3  1  0  0  0  0
  1  7  1  0  0  0  0
  1  2  2  0  0  0  0
 29 30  1  0  0  0  0
 30 38  1  0  0  0  0
 30 31  2  0  0  0  0
  8  9  1  0  0  0  0
  9 17  1  0  0  0  0
  9 10  2  0  0  0  0
 18 19  1  0  0  0  0
 19 28  1  0  0  0  0
 19 20  2  0  0  0  0
 29 32  1  0  0  0  0
  8 11  1  0  0  0  0
 38 39  1  0  0  0  0
 18 21  1  0  0  0  0
 21 22  1  0  0  0  0
 28 29  1  0  0  0  0
  7  8  1  0  0  0  0
 17 18  1  0  0  0  0
  3  4  1  0  0  0  0
  3  5  1  0  0  0  0
  3  6  1  0  0  0  0
 32 35  1  0  0  0  0
 32 36  1  0  0  0  0
 32 37  1  0  0  0  0
 11 14  1  0  0  0  0
 11 15  1  0  0  0  0
 11 16  1  0  0  0  0
 39 41  1  0  0  0  0
 39 42  1  0  0  0  0
 39 43  1  0  0  0  0
 21 25  1  0  0  0  0
 21 26  1  0  0  0  0
 29 34  1  0  0  0  0
  8 13  1  0  0  0  0
 18 24  1  0  0  0  0
 38 40  1  0  0  0  0
  7 12  1  0  0  0  0
 28 33  1  0  0  0  0
 17 23  1  0  0  0  0
 22 27  1  0  0  0  0
M  END
$$$$

  -OEChem-05262214473D

 43 42  0     1  0  0  0  0  0999 V2000
   -2.8661   -4.7415    2.2943 C   0  0  0  0  0  0  0  0  0  0  0  0
   -2.0233   -5.5727    2.6109 O   0  0  0  0  0  0  0  0  0  0  0  0
   -4.3078   -5.0134    2.5698 C   0  0  0  0  0  0  0  0  0  0  0  0
   -4.8057   -5.5295    1.7332 H   0  0  0  0  0  0  0  0  0  0  0  0
   -4.4526   -5.6688    3.4436 H   0  0  0  0  0  0  0  0  0  0  0  0
   -4.9255   -4.1233    2.7700 H   0  0  0  0  0  0  0  0  0  0  0  0
   -2.6241   -3.5219    1.6838 N   0  0  0  0  0  0  0  0  0  0  0  0
   -1.3070   -3.0608    1.3315 C   0  0  2  0  0  0  0  0  0  0  0  0
   -1.3931   -1.5680    1.0422 C   0  0  0  0  0  0  0  0  0  0  0  0
   -2.4385   -1.0059    0.7226 O   0  0  0  0  0  0  0  0  0  0  0  0
   -0.7590   -3.8164    0.1309 C   0  0  0  0  0  0  0  0  0  0  0  0
   -3.4188   -2.9207    1.4735 H   0  0  0  0  0  0  0  0  0  0  0  0
   -0.6690   -3.2277    2.2062 H   0  0  0  0  0  0  0  0  0  0  0  0
   -1.3852   -3.6613   -0.7553 H   0  0  0  0  0  0  0  0  0  0  0  0
    0.2542   -3.4843   -0.1182 H   0  0  0  0  0  0  0  0  0  0  0  0
   -0.7257   -4.8930    0.3300 H   0  0  0  0  0  0  0  0  0  0  0  0
   -0.1563   -0.9420    1.1402 N   0  0  0  0  0  0  0  0  0  0  0  0
    0.0261    0.4671    0.9001 C   0  0  2  0  0  0  0  0  0  0  0  0
    1.5006    0.8150    1.0941 C   0  0  0  0  0  0  0  0  0  0  0  0
    2.2700    1.0166    0.1566 O   0  0  0  0  0  0  0  0  0  0  0  0
   -0.9168    1.3288    1.7436 C   0  0  0  0  0  0  0  0  0  0  0  0
   -2.6789    1.1063    1.3338 S   0  0  0  0  0  0  0  0  0  0  0  0
    0.6533   -1.4855    1.4300 H   0  0  0  0  0  0  0  0  0  0  0  0
   -0.2131    0.6189   -0.1598 H   0  0  0  0  0  0  0  0  0  0  0  0
   -0.7968    1.1011    2.8078 H   0  0  0  0  0  0  0  0  0  0  0  0
   -0.6790    2.3888    1.6036 H   0  0  0  0  0  0  0  0  0  0  0  0
   -3.1386    1.9810    2.2377 H   0  0  0  0  0  0  0  0  0  0  0  0
    1.8601    0.8488    2.4339 N   0  0  0  0  0  0  0  0  0  0  0  0
    3.2038    1.1448    2.8728 C   0  0  2  0  0  0  0  0  0  0  0  0
    3.2633    0.9347    4.3800 C   0  0  0  0  0  0  0  0  0  0  0  0
    2.2691    0.9703    5.1020 O   0  0  0  0  0  0  0  0  0  0  0  0
    3.6056    2.5649    2.5057 C   0  0  0  0  0  0  0  0  0  0  0  0
    1.1505    0.7022    3.1458 H   0  0  0  0  0  0  0  0  0  0  0  0
    3.8642    0.4252    2.3768 H   0  0  0  0  0  0  0  0  0  0  0  0
    2.9551    3.3000    2.9933 H   0  0  0  0  0  0  0  0  0  0  0  0
    4.6345    2.7783    2.8137 H   0  0  0  0  0  0  0  0  0  0  0  0
    3.5336    2.7230    1.4242 H   0  0  0  0  0  0  0  0  0  0  0  0
    4.5626    0.7456    4.8297 N   0  0  0  0  0  0  0  0  0  0  0  0
    4.8831    0.5376    6.2225 C   0  0  0  0  0  0  0  0  0  0  0  0
    5.3239    0.7122    4.1581 H   0  0  0  0  0  0  0  0  0  0  0  0
    5.1135    1.5040    6.6947 H   0  0  0  0  0  0  0  0  0  0  0  0
    4.0237    0.0766    6.7315 H   0  0  0  0  0  0  0  0  0  0  0  0
    5.7561   -0.1268    6.3025 H   0  0  0  0  0  0  0  0  0  0  0  0
  1  3  1  0  0  0  0
  1  7  1  0  0  0  0
  1  2  2  0  0  0  0
 29 30  1  0  0  0  0
 30 38  1  0  0  0  0
 30 31  2  0  0  0  0
  8  9  1  0  0  0  0
  9 17  1  0  0  0  0
  9 10  2  0  0  0  0
 18 19  1  0  0  0  0
 19 28  1  0  0  0  0
 19 20  2  0  0  0  0
 29 32  1  0  0  0  0
  8 11  1  0  0  0  0
 38 39  1  0  0  0  0
 18 21  1  0  0  0  0
 21 22  1  0  0  0  0
 28 29  1  0  0  0  0
  7  8  1  0  0  0  0
 17 18  1  0  0  0  0
  3  4  1  0  0  0  0
  3  5  1  0  0  0  0
  3  6  1  0  0  0  0
 32 35  1  0  0  0  0
 32 36  1  0  0  0  0
 32 37  1  0  0  0  0
 11 14  1  0  0  0  0
 11 15  1  0  0  0  0
 11 16  1  0  0  0  0
 39 41  1  0  0  0  0
 39 42  1  0  0  0  0
 39 43  1  0  0  0  0
 21 25  1  0  0  0  0
 21 26  1  0  0  0  0
 29 34  1  0  0  0  0
  8 13  1  0  0  0  0
 18 24  1  0  0  0  0
 38 40  1  0  0  0  0
  7 12  1  0  0  0  0
 28 33  1  0  0  0  0
 17 23  1  0  0  0  0
 22 27  1  0  0  0  0
M  END
$$$$

  -OEChem-05262214473D

 43 42  0     1  0  0  0  0  0999 V2000
   -2.8661   -4.7415    2.2943 C   0  0  0  0  0  0  0  0  0  0  0  0
   -2.0233   -5.5727    2.6109 O   0  0  0  0  0  0  0  0  0  0  0  0
   -4.3078   -5.0134    2.5698 C   0  0  0  0  0  0  0  0  0  0  0  0
   -4.8057   -5.5295    1.7332 H   0  0  0  0  0  0  0  0  0  0  0  0
   -4.4526   -5.6688    3.4436 H   0  0  0  0  0  0  0  0  0  0  0  0
   -4.9255   -4.1233    2.7700 H   0  0  0  0  0  0  0  0  0  0  0  0
   -2.6241   -3.5219    1.6838 N   0  0  0  0  0  0  0  0  0  0  0  0
   -1.3070   -3.0608    1.3315 C   0  0  2  0  0  0  0  0  0  0  0  0
   -1.3931   -1.5680    1.0422 C   0  0  0  0  0  0  0  0  0  0  0  0
   -2.4385   -1.0059    0.7226 O   0  0  0  0  0  0  0  0  0  0  0  0
   -0.7590   -3.8164    0.1309 C   0  0  0  0  0  0  0  0  0  0  0  0
   -3.4188   -2.9207    1.4735 H   0  0  0  0  0  0  0  0  0  0  0  0
   -0.6690   -3.2277    2.2062 H   0  0  0  0  0  0  0  0  0  0  0  0
   -1.3852   -3.6613   -0.7553 H   0  0  0  0  0  0  0  0  0  0  0  0
    0.2542   -3.4843   -0.1182 H   0  0  0  0  0  0  0  0  0  0  0  0
   -0.7257   -4.8930    0.3300 H   0  0  0  0  0  0  0  0  0  0  0  0
   -0.1563   -0.9420    1.1402 N   0  0  0  0  0  0  0  0  0  0  0  0
    0.0261    0.4671    0.9001 C   0  0  2  0  0  0  0  0  0  0  0  0
    1.5006    0.8150    1.0941 C   0  0  0  0  0  0  0  0  0  0  0  0
    2.2039    1.2744    0.1965 O   0  0  0  0  0  0  0  0  0  0  0  0
   -0.9168    1.3288    1.7436 C   0  0  0  0  0  0  0  0  0  0  0  0
   -2.6789    1.1063    1.3338 S   0  0  0  0  0  0  0  0  0  0  0  0
    0.6533   -1.4855    1.4300 H   0  0  0  0  0  0  0  0  0  0  0  0
   -0.2131    0.6189   -0.1598 H   0  0  0  0  0  0  0  0  0  0  0  0
   -0.7968    1.1011    2.8078 H   0  0  0  0  0  0  0  0  0  0  0  0
   -0.6790    2.3888    1.6036 H   0  0  0  0  0  0  0  0  0  0  0  0
   -3.1386    1.9810    2.2377 H   0  0  0  0  0  0  0  0  0  0  0  0
    1.9429    0.5288    2.3778 N   0  0  0  0  0  0  0  0  0  0  0  0
    3.3038    0.7602    2.8026 C   0  0  2  0  0  0  0  0  0  0  0  0
    3.4636    0.1842    4.2034 C   0  0  0  0  0  0  0  0  0  0  0  0
    2.5163   -0.0012    4.9646 O   0  0  0  0  0  0  0  0  0  0  0  0
    3.6454    2.2420    2.7820 C   0  0  0  0  0  0  0  0  0  0  0  0
    1.2837    0.1811    3.0679 H   0  0  0  0  0  0  0  0  0  0  0  0
    3.9496    0.2140    2.1066 H   0  0  0  0  0  0  0  0  0  0  0  0
    3.0085    2.8058    3.4734 H   0  0  0  0  0  0  0  0  0  0  0  0
    4.6860    2.4134    3.0769 H   0  0  0  0  0  0  0  0  0  0  0  0
    3.5013    2.6613    1.7804 H   0  0  0  0  0  0  0  0  0  0  0  0
    4.7931   -0.0583    4.5194 N   0  0  0  0  0  0  0  0  0  0  0  0
    5.2060   -0.5933    5.7958 C   0  0  0  0  0  0  0  0  0  0  0  0
    5.5111    0.1072    3.8202 H   0  0  0  0  0  0  0  0  0  0  0  0
    5.4411    0.2337    6.4819 H   0  0  0  0  0  0  0  0  0  0  0  0
    4.3924   -1.2007    6.2191 H   0  0  0  0  0  0  0  0  0  0  0  0
    6.0989   -1.2209    5.6586 H   0  0  0  0  0  0  0  0  0  0  0  0
  1  3  1  0  0  0  0
  1  7  1  0  0  0  0
  1  2  2  0  0  0  0
 29 30  1  0  0  0  0
 30 38  1  0  0  0  0
 30 31  2  0  0  0  0
  8  9  1  0  0  0  0
  9 17  1  0  0  0  0
  9 10  2  0  0  0  0
 18 19  1  0  0  0  0
 19 28  1  0  0  0  0
 19 20  2  0  0  0  0
 29 32  1  0  0  0  0
  8 11  1  0  0  0  0
 38 39  1  0  0  0  0
 18 21  1  0  0  0  0
 21 22  1  0  0  0  0
 28 29  1  0  0  0  0
  7  8  1  0  0  0  0
 17 18  1  0  0  0  0
  3  4  1  0  0  0  0
  3  5  1  0  0  0  0
  3  6  1  0  0  0  0
 32 35  1  0  0  0  0
 32 36  1  0  0  0  0
 32 37  1  0  0  0  0
 11 14  1  0  0  0  0
 11 15  1  0  0  0  0
 11 16  1  0  0  0  0
 39 41  1  0  0  0  0
 39 42  1  0  0  0  0
 39 43  1  0  0  0  0
 21 25  1  0  0  0  0
 21 26  1  0  0  0  0
 29 34  1  0  0  0  0
  8 13  1  0  0  0  0
 18 24  1  0  0  0  0
 38 40  1  0  0  0  0
  7 12  1  0  0  0  0
 28 33  1  0  0  0  0
 17 23  1  0  0  0  0
 22 27  1  0  0  0  0
M  END
$$$$

  -OEChem-05262214473D

 43 42  0     1  0  0  0  0  0999 V2000
   -2.8661   -4.7415    2.2943 C   0  0  0  0  0  0  0  0  0  0  0  0
   -2.0233   -5.5727    2.6109 O   0  0  0  0  0  0  0  0  0  0  0  0
   -4.3078   -5.0134    2.5698 C   0  0  0  0  0  0  0  0  0  0  0  0
   -4.8057   -5.5295    1.7332 H   0  0  0  0  0  0  0  0  0  0  0  0
   -4.4526   -5.6688    3.4436 H   0  0  0  0  0  0  0  0  0  0  0  0
   -4.9255   -4.1233    2.7700 H   0  0  0  0  0  0  0  0  0  0  0  0
   -2.6241   -3.5219    1.6838 N   0  0  0  0  0  0  0  0  0  0  0  0
   -1.3070   -3.0608    1.3315 C   0  0  2  0  0  0  0  0  0  0  0  0
   -1.3931   -1.5680    1.0422 C   0  0  0  0  0  0  0  0  0  0  0  0
   -2.4385   -1.0059    0.7226 O   0  0  0  0  0  0  0  0  0  0  0  0
   -0.7590   -3.8164    0.1309 C   0  0  0  0  0  0  0  0  0  0  0  0
   -3.4188   -2.9207    1.4735 H   0  0  0  0  0  0  0  0  0  0  0  0
   -0.6690   -3.2277    2.2062 H   0  0  0  0  0  0  0  0  0  0  0  0
   -1.3852   -3.6613   -0.7553 H   0  0  0  0  0  0  0  0  0  0  0  0
    0.2542   -3.4843   -0.1182 H   0  0  0  0  0  0  0  0  0  0  0  0
   -0.7257   -4.8930    0.3300 H   0  0  0  0  0  0  0  0  0  0  0  0
   -0.1563   -0.9420    1.1402 N   0  0  0  0  0  0  0  0  0  0  0  0
    0.0261    0.4671    0.9001 C   0  0  2  0  0  0  0  0  0  0  0  0
    1.5006    0.8150    1.0941 C   0  0  0  0  0  0  0  0  0  0  0  0
    2.1340    1.5114    0.3034 O   0  0  0  0  0  0  0  0  0  0  0  0
   -0.9168    1.3288    1.7436 C   0  0  0  0  0  0  0  0  0  0  0  0
   -2.6789    1.1063    1.3338 S   0  0  0  0  0  0  0  0  0  0  0  0
    0.6533   -1.4855    1.4300 H   0  0  0  0  0  0  0  0  0  0  0  0
   -0.2131    0.6189   -0.1598 H   0  0  0  0  0  0  0  0  0  0  0  0
   -0.7968    1.1011    2.8078 H   0  0  0  0  0  0  0  0  0  0  0  0
   -0.6790    2.3888    1.6036 H   0  0  0  0  0  0  0  0  0  0  0  0
   -3.1386    1.9810    2.2377 H   0  0  0  0  0  0  0  0  0  0  0  0
    2.0302    0.2364    2.2388 N   0  0  0  0  0  0  0  0  0  0  0  0
    3.4088    0.4096    2.6329 C   0  0  2  0  0  0  0  0  0  0  0  0
    3.6713   -0.4901    3.8334 C   0  0  0  0  0  0  0  0  0  0  0  0
    2.7790   -0.8971    4.5744 O   0  0  0  0  0  0  0  0  0  0  0  0
    3.7108    1.8623    2.9660 C   0  0  0  0  0  0  0  0  0  0  0  0
    1.4249   -0.2984    2.8546 H   0  0  0  0  0  0  0  0  0  0  0  0
    4.0231    0.0802    1.7878 H   0  0  0  0  0  0  0  0  0  0  0  0
    3.1047    2.2101    3.8104 H   0  0  0  0  0  0  0  0  0  0  0  0
    4.7632    1.9968    3.2369 H   0  0  0  0  0  0  0  0  0  0  0  0
    3.4931    2.5116    2.1110 H   0  0  0  0  0  0  0  0  0  0  0  0
    5.0238   -0.7497    4.0052 N   0  0  0  0  0  0  0  0  0  0  0  0
    5.5299   -1.5684    5.0820 C   0  0  0  0  0  0  0  0  0  0  0  0
    5.6918   -0.3865    3.3317 H   0  0  0  0  0  0  0  0  0  0  0  0
    5.7868   -0.9294    5.9397 H   0  0  0  0  0  0  0  0  0  0  0  0
    4.7604   -2.2944    5.3833 H   0  0  0  0  0  0  0  0  0  0  0  0
    6.4280   -2.1055    4.7431 H   0  0  0  0  0  0  0  0  0  0  0  0
  1  3  1  0  0  0  0
  1  7  1  0  0  0  0
  1  2  2  0  0  0  0
 29 30  1  0  0  0  0
 30 38  1  0  0  0  0
 30 31  2  0  0  0  0
  8  9  1  0  0  0  0
  9 17  1  0  0  0  0
  9 10  2  0  0  0  0
 18 19  1  0  0  0  0
 19 28  1  0  0  0  0
 19 20  2  0  0  0  0
 29 32  1  0  0  0  0
  8 11  1  0  0  0  0
 38 39  1  0  0  0  0
 18 21  1  0  0  0  0
 21 22  1  0  0  0  0
 28 29  1  0  0  0  0
  7  8  1  0  0  0  0
 17 18  1  0  0  0  0
  3  4  1  0  0  0  0
  3  5  1  0  0  0  0
  3  6  1  0  0  0  0
 32 35  1  0  0  0  0
 32 36  1  0  0  0  0
 32 37  1  0  0  0  0
 11 14  1  0  0  0  0
 11 15  1  0  0  0  0
 11 16  1  0  0  0  0
 39 41  1  0  0  0  0
 39 42  1  0  0  0  0
 39 43  1  0  0  0  0
 21 25  1  0  0  0  0
 21 26  1  0  0  0  0
 29 34  1  0  0  0  0
  8 13  1  0  0  0  0
 18 24  1  0  0  0  0
 38 40  1  0  0  0  0
  7 12  1  0  0  0  0
 28 33  1  0  0  0  0
 17 23  1  0  0  0  0
 22 27  1  0  0  0  0
M  END
$$$$

  -OEChem-05262214473D

 43 42  0     1  0  0  0  0  0999 V2000
   -2.8661   -4.7415    2.2943 C   0  0  0  0  0  0  0  0  0  0  0  0
   -2.0233   -5.5727    2.6109 O   0  0  0  0  0  0  0  0  0  0  0  0
   -4.3078   -5.0134    2.5698 C   0  0  0  0  0  0  0  0  0  0  0  0
   -4.8057   -5.5295    1.7332 H   0  0  0  0  0  0  0  0  0  0  0  0
   -4.4526   -5.6688    3.4436 H   0  0  0  0  0  0  0  0  0  0  0  0
   -4.9255   -4.1233    2.7700 H   0  0  0  0  0  0  0  0  0  0  0  0
   -2.6241   -3.5219    1.6838 N   0  0  0  0  0  0  0  0  0  0  0  0
   -1.3070   -3.0608    1.3315 C   0  0  2  0  0  0  0  0  0  0  0  0
   -1.3931   -1.5680    1.0422 C   0  0  0  0  0  0  0  0  0  0  0  0
   -2.4385   -1.0059    0.7226 O   0  0  0  0  0  0  0  0  0  0  0  0
   -0.7590   -3.8164    0.1309 C   0  0  0  0  0  0  0  0  0  0  0  0
   -3.4188   -2.9207    1.4735 H   0  0  0  0  0  0  0  0  0  0  0  0
   -0.6690   -3.2277    2.2062 H   0  0  0  0  0  0  0  0  0  0  0  0
   -1.3852   -3.6613   -0.7553 H   0  0  0  0  0  0  0  0  0  0  0  0
    0.2542   -3.4843   -0.1182 H   0  0  0  0  0  0  0  0  0  0  0  0
   -0.7257   -4.8930    0.3300 H   0  0  0  0  0  0  0  0  0  0  0  0
   -0.1563   -0.9420    1.1402 N   0  0  0  0  0  0  0  0  0  0  0  0
    0.0261    0.4671    0.9001 C   0  0  2  0  0  0  0  0  0  0  0  0
    1.5006    0.8150    1.0941 C   0  0  0  0  0  0  0  0  0  0  0  0
    2.0649    1.7112    0.4699 O   0  0  0  0  0  0  0  0  0  0  0  0
   -0.9168    1.3288    1.7436 C   0  0  0  0  0  0  0  0  0  0  0  0
   -2.6789    1.1063    1.3338 S   0  0  0  0  0  0  0  0  0  0  0  0
    0.6533   -1.4855    1.4300 H   0  0  0  0  0  0  0  0  0  0  0  0
   -0.2131    0.6189   -0.1598 H   0  0  0  0  0  0  0  0  0  0  0  0
   -0.7968    1.1011    2.8078 H   0  0  0  0  0  0  0  0  0  0  0  0
   -0.6790    2.3888    1.6036 H   0  0  0  0  0  0  0  0  0  0  0  0
   -3.1386    1.9810    2.2377 H   0  0  0  0  0  0  0  0  0  0  0  0
    2.1159   -0.0084    2.0263 N   0  0  0  0  0  0  0  0  0  0  0  0
    3.5118    0.1167    2.3751 C   0  0  2  0  0  0  0  0  0  0  0  0
    3.8723   -1.0421    3.2953 C   0  0  0  0  0  0  0  0  0  0  0  0
    3.0392   -1.6564    3.9583 O   0  0  0  0  0  0  0  0  0  0  0  0
    3.7972    1.4518    3.0449 C   0  0  0  0  0  0  0  0  0  0  0  0
    1.5644   -0.7037    2.5204 H   0  0  0  0  0  0  0  0  0  0  0  0
    4.0797    0.0332    1.4421 H   0  0  0  0  0  0  0  0  0  0  0  0
    3.2370    1.5537    3.9815 H   0  0  0  0  0  0  0  0  0  0  0  0
    4.8609    1.5570    3.2829 H   0  0  0  0  0  0  0  0  0  0  0  0
    3.5096    2.2841    2.3934 H   0  0  0  0  0  0  0  0  0  0  0  0
    5.2391   -1.2814    3.3222 N   0  0  0  0  0  0  0  0  0  0  0  0
    5.8328   -2.3213    4.1298 C   0  0  0  0  0  0  0  0  0  0  0  0
    5.8538   -0.7354    2.7257 H   0  0  0  0  0  0  0  0  0  0  0  0
    6.1270   -1.9060    5.1049 H   0  0  0  0  0  0  0  0  0  0  0  0
    5.1025   -3.1299    4.2810 H   0  0  0  0  0  0  0  0  0  0  0  0
    6.7211   -2.7205    3.6183 H   0  0  0  0  0  0  0  0  0  0  0  0
  1  3  1  0  0  0  0
  1  7  1  0  0  0  0
  1  2  2  0  0  0  0
 29 30  1  0  0  0  0
 30 38  1  0  0  0  0
 30 31  2  0  0  0  0
  8  9  1  0  0  0  0
  9 17  1  0  0  0  0
  9 10  2  0  0  0  0
 18 19  1  0  0  0  0
 19 28  1  0  0  0  0
 19 20  2  0  0  0  0
 29 32  1  0  0  0  0
  8 11  1  0  0  0  0
 38 39  1  0  0  0  0
 18 21  1  0  0  0  0
 21 22  1  0  0  0  0
 28 29  1  0  0  0  0
  7  8  1  0  0  0  0
 17 18  1  0  0  0  0
  3  4  1  0  0  0  0
  3  5  1  0  0  0  0
  3  6  1  0  0  0  0
 32 35  1  0  0  0  0
 32 36  1  0  0  0  0
 32 37  1  0  0  0  0
 11 14  1  0  0  0  0
 11 15  1  0  0  0  0
 11 16  1  0  0  0  0
 39 41  1  0  0  0  0
 39 42  1  0  0  0  0
 39 43  1  0  0  0  0
 21 25  1  0  0  0  0
 21 26  1  0  0  0  0
 29 34  1  0  0  0  0
  8 13  1  0  0  0  0
 18 24  1  0  0  0  0
 38 40  1  0  0  0  0
  7 12  1  0  0  0  0
 28 33  1  0  0  0  0
 17 23  1  0  0  0  0
 22 27  1  0  0  0  0
M  END
$$$$

  -OEChem-05262214473D

 43 42  0     1  0  0  0  0  0999 V2000
   -2.8661   -4.7415    2.2943 C   0  0  0  0  0  0  0  0  0  0  0  0
   -2.0233   -5.5727    2.6109 O   0  0  0  0  0  0  0  0  0  0  0  0
   -4.3078   -5.0134    2.5698 C   0  0  0  0  0  0  0  0  0  0  0  0
   -4.8057   -5.5295    1.7332 H   0  0  0  0  0  0  0  0  0  0  0  0
   -4.4526   -5.6688    3.4436 H   0  0  0  0  0  0  0  0  0  0  0  0
   -4.9255   -4.1233    2.7700 H   0  0  0  0  0  0  0  0  0  0  0  0
   -2.6241   -3.5219    1.6838 N   0  0  0  0  0  0  0  0  0  0  0  0
   -1.3070   -3.0608    1.3315 C   0  0  2  0  0  0  0  0  0  0  0  0
   -1.3931   -1.5680    1.0422 C   0  0  0  0  0  0  0  0  0  0  0  0
   -2.4385   -1.0059    0.7226 O   0  0  0  0  0  0  0  0  0  0  0  0
   -0.7590   -3.8164    0.1309 C   0  0  0  0  0  0  0  0  0  0  0  0
   -3.4188   -2.9207    1.4735 H   0  0  0  0  0  0  0  0  0  0  0  0
   -0.6690   -3.2277    2.2062 H   0  0  0  0  0  0  0  0  0  0  0  0
   -1.3852   -3.6613   -0.7553 H   0  0  0  0  0  0  0  0  0  0  0  0
    0.2542   -3.4843   -0.1182 H   0  0  0  0  0  0  0  0  0  0  0  0
   -0.7257   -4.8930    0.3300 H   0  0  0  0  0  0  0  0  0  0  0  0
   -0.1563   -0.9420    1.1402 N   0  0  0  0  0  0  0  0  0  0  0  0
    0.0261    0.4671    0.9001 C   0  0  2  0  0  0  0  0  0  0  0  0
    1.5006    0.8150    1.0941 C   0  0  0  0  0  0  0  0  0  0  0  0
    2.0015    1.8604    0.6847 O   0  0  0  0  0  0  0  0  0  0  0  0
   -0.9168    1.3288    1.7436 C   0  0  0  0  0  0  0  0  0  0  0  0
   -2.6789    1.1063    1.3338 S   0  0  0  0  0  0  0  0  0  0  0  0
    0.6533   -1.4855    1.4300 H   0  0  0  0  0  0  0  0  0  0  0  0
   -0.2131    0.6189   -0.1598 H   0  0  0  0  0  0  0  0  0  0  0  0
   -0.7968    1.1011    2.8078 H   0  0  0  0  0  0  0  0  0  0  0  0
   -0.6790    2.3888    1.6036 H   0  0  0  0  0  0  0  0  0  0  0  0
   -3.1386    1.9810    2.2377 H   0  0  0  0  0  0  0  0  0  0  0  0
    2.1942   -0.1890    1.7548 N   0  0  0  0  0  0  0  0  0  0  0  0
    3.6057   -0.0984    2.0468 C   0  0  2  0  0  0  0  0  0  0  0  0
    4.0529   -1.4342    2.6258 C   0  0  0  0  0  0  0  0  0  0  0  0
    3.2791   -2.2273    3.1580 O   0  0  0  0  0  0  0  0  0  0  0  0
    3.8989    1.0384    3.0135 C   0  0  0  0  0  0  0  0  0  0  0  0
    1.6928   -1.0070    2.0882 H   0  0  0  0  0  0  0  0  0  0  0  0
    4.1155    0.0759    1.0930 H   0  0  0  0  0  0  0  0  0  0  0  0
    3.3965    0.8813    3.9749 H   0  0  0  0  0  0  0  0  0  0  0  0
    4.9724    1.1239    3.2116 H   0  0  0  0  0  0  0  0  0  0  0  0
    3.5497    1.9943    2.6083 H   0  0  0  0  0  0  0  0  0  0  0  0
    5.4243   -1.6173    2.5169 N   0  0  0  0  0  0  0  0  0  0  0  0
    6.0939   -2.8007    3.0040 C   0  0  0  0  0  0  0  0  0  0  0  0
    5.9861   -0.9157    2.0437 H   0  0  0  0  0  0  0  0  0  0  0  0
    6.4385   -2.6296    4.0345 H   0  0  0  0  0  0  0  0  0  0  0  0
    5.3954   -3.6502    2.9873 H   0  0  0  0  0  0  0  0  0  0  0  0
    6.9580   -3.0238    2.3609 H   0  0  0  0  0  0  0  0  0  0  0  0
  1  3  1  0  0  0  0
  1  7  1  0  0  0  0
  1  2  2  0  0  0  0
 29 30  1  0  0  0  0
 30 38  1  0  0  0  0
 30 31  2  0  0  0  0
  8  9  1  0  0  0  0
  9 17  1  0  0  0  0
  9 10  2  0  0  0  0
 18 19  1  0  0  0  0
 19 28  1  0  0  0  0
 19 20  2  0  0  0  0
 29 32  1  0  0  0  0
  8 11  1  0  0  0  0
 38 39  1  0  0  0  0
 18 21  1  0  0  0  0
 21 22  1  0  0  0  0
 28 29  1  0  0  0  0
  7  8  1  0  0  0  0
 17 18  1  0  0  0  0
  3  4  1  0  0  0  0
  3  5  1  0  0  0  0
  3  6  1  0  0  0  0
 32 35  1  0  0  0  0
 32 36  1  0  0  0  0
 32 37  1  0  0  0  0
 11 14  1  0  0  0  0
 11 15  1  0  0  0  0
 11 16  1  0  0  0  0
 39 41  1  0  0  0  0
 39 42  1  0  0  0  0
 39 43  1  0  0  0  0
 21 25  1  0  0  0  0
 21 26  1  0  0  0  0
 29 34  1  0  0  0  0
  8 13  1  0  0  0  0
 18 24  1  0  0  0  0
 38 40  1  0  0  0  0
  7 12  1  0  0  0  0
 28 33  1  0  0  0  0
 17 23  1  0  0  0  0
 22 27  1  0  0  0  0
M  END
$$$$

  -OEChem-05262214473D

 43 42  0     1  0  0  0  0  0999 V2000
   -2.8661   -4.7415    2.2943 C   0  0  0  0  0  0  0  0  0  0  0  0
   -2.0233   -5.5727    2.6109 O   0  0  0  0  0  0  0  0  0  0  0  0
   -4.3078   -5.0134    2.5698 C   0  0  0  0  0  0  0  0  0  0  0  0
   -4.8057   -5.5295    1.7332 H   0  0  0  0  0  0  0  0  0  0  0  0
   -4.4526   -5.6688    3.4436 H   0  0  0  0  0  0  0  0  0  0  0  0
   -4.9255   -4.1233    2.7700 H   0  0  0  0  0  0  0  0  0  0  0  0
   -2.6241   -3.5219    1.6838 N   0  0  0  0  0  0  0  0  0  0  0  0
   -1.3070   -3.0608    1.3315 C   0  0  2  0  0  0  0  0  0  0  0  0
   -1.3931   -1.5680    1.0422 C   0  0  0  0  0  0  0  0  0  0  0  0
   -2.4385   -1.0059    0.7226 O   0  0  0  0  0  0  0  0  0  0  0  0
   -0.7590   -3.8164    0.1309 C   0  0  0  0  0  0  0  0  0  0  0  0
   -3.4188   -2.9207    1.4735 H   0  0  0  0  0  0  0  0  0  0  0  0
   -0.6690   -3.2277    2.2062 H   0  0  0  0  0  0  0  0  0  0  0  0
   -1.3852   -3.6613   -0.7553 H   0  0  0  0  0  0  0  0  0  0  0  0
    0.2542   -3.4843   -0.1182 H   0  0  0  0  0  0  0  0  0  0  0  0
   -0.7257   -4.8930    0.3300 H   0  0  0  0  0  0  0  0  0  0  0  0
   -0.1563   -0.9420    1.1402 N   0  0  0  0  0  0  0  0  0  0  0  0
    0.0261    0.4671    0.9001 C   0  0  2  0  0  0  0  0  0  0  0  0
    1.5006    0.8150    1.0941 C   0  0  0  0  0  0  0  0  0  0  0  0
    1.9479    1.9487    0.9333 O   0  0  0  0  0  0  0  0  0  0  0  0
   -0.9168    1.3288    1.7436 C   0  0  0  0  0  0  0  0  0  0  0  0
   -2.6789    1.1063    1.3338 S   0  0  0  0  0  0  0  0  0  0  0  0
    0.6533   -1.4855    1.4300 H   0  0  0  0  0  0  0  0  0  0  0  0
   -0.2131    0.6189   -0.1598 H   0  0  0  0  0  0  0  0  0  0  0  0
   -0.7968    1.1011    2.8078 H   0  0  0  0  0  0  0  0  0  0  0  0
   -0.6790    2.3888    1.6036 H   0  0  0  0  0  0  0  0  0  0  0  0
   -3.1386    1.9810    2.2377 H   0  0  0  0  0  0  0  0  0  0  0  0
    2.2598   -0.2930    1.4428 N   0  0  0  0  0  0  0  0  0  0  0  0
    3.6842   -0.2211    1.6705 C   0  0  2  0  0  0  0  0  0  0  0  0
    4.2007   -1.6397    1.8705 C   0  0  0  0  0  0  0  0  0  0  0  0
    3.4825   -2.5709    2.2283 O   0  0  0  0  0  0  0  0  0  0  0  0
    4.0088    0.6503    2.8739 C   0  0  0  0  0  0  0  0  0  0  0  0
    1.8014   -1.1878    1.5873 H   0  0  0  0  0  0  0  0  0  0  0  0
    4.1281    0.2056    0.7645 H   0  0  0  0  0  0  0  0  0  0  0  0
    3.5723    0.2387    3.7912 H   0  0  0  0  0  0  0  0  0  0  0  0
    5.0902    0.7270    3.0280 H   0  0  0  0  0  0  0  0  0  0  0  0
    3.6106    1.6621    2.7412 H   0  0  0  0  0  0  0  0  0  0  0  0
    5.5667   -1.7345    1.6441 N   0  0  0  0  0  0  0  0  0  0  0  0
    6.2956   -2.9738    1.7814 C   0  0  0  0  0  0  0  0  0  0  0  0
    6.0795   -0.9151    1.3321 H   0  0  0  0  0  0  0  0  0  0  0  0
    6.7001   -3.0508    2.8015 H   0  0  0  0  0  0  0  0  0  0  0  0
    5.6192   -3.8200    1.5905 H   0  0  0  0  0  0  0  0  0  0  0  0
    7.1228   -2.9948    1.0566 H   0  0  0  0  0  0  0  0  0  0  0  0
  1  3  1  0  0  0  0
  1  7  1  0  0  0  0
  1  2  2  0  0  0  0
 29 30  1  0  0  0  0
 30 38  1  0  0  0  0
 30 31  2  0  0  0  0
  8  9  1  0  0  0  0
  9 17  1  0  0  0  0
  9 10  2  0  0  0  0
 18 19  1  0  0  0  0
 19 28  1  0  0  0  0
 19 20  2  0  0  0  0
 29 32  1  0  0  0  0
  8 11  1  0  0  0  0
 38 39  1  0  0  0  0
 18 21  1  0  0  0  0
 21 22  1  0  0  0  0
 28 29  1  0  0  0  0
  7  8  1  0  0  0  0
 17 18  1  0  0  0  0
  3  4  1  0  0  0  0
  3  5  1  0  0  0  0
  3  6  1  0  0  0  0
 32 35  1  0  0  0  0
 32 36  1  0  0  0  0
 32 37  1  0  0  0  0
 11 14  1  0  0  0  0
 11 15  1  0  0  0  0
 11 16  1  0  0  0  0
 39 41  1  0  0  0  0
 39 42  1  0  0  0  0
 39 43  1  0  0  0  0
 21 25  1  0  0  0  0
 21 26  1  0  0  0  0
 29 34  1  0  0  0  0
  8 13  1  0  0  0  0
 18 24  1  0  0  0  0
 38 40  1  0  0  0  0
  7 12  1  0  0  0  0
 28 33  1  0  0  0  0
 17 23  1  0  0  0  0
 22 27  1  0  0  0  0
M  END
$$$$

  -OEChem-05262214473D

 43 42  0     1  0  0  0  0  0999 V2000
   -2.8661   -4.7415    2.2943 C   0  0  0  0  0  0  0  0  0  0  0  0
   -2.0233   -5.5727    2.6109 O   0  0  0  0  0  0  0  0  0  0  0  0
   -4.3078   -5.0134    2.5698 C   0  0  0  0  0  0  0  0  0  0  0  0
   -4.8057   -5.5295    1.7332 H   0  0  0  0  0  0  0  0  0  0  0  0
   -4.4526   -5.6688    3.4436 H   0  0  0  0  0  0  0  0  0  0  0  0
   -4.9255   -4.1233    2.7700 H   0  0  0  0  0  0  0  0  0  0  0  0
   -2.6241   -3.5219    1.6838 N   0  0  0  0  0  0  0  0  0  0  0  0
   -1.3070   -3.0608    1.3315 C   0  0  2  0  0  0  0  0  0  0  0  0
   -1.3931   -1.5680    1.0422 C   0  0  0  0  0  0  0  0  0  0  0  0
   -2.4385   -1.0059    0.7226 O   0  0  0  0  0  0  0  0  0  0  0  0
   -0.7590   -3.8164    0.1309 C   0  0  0  0  0  0  0  0  0  0  0  0
   -3.4188   -2.9207    1.4735 H   0  0  0  0  0  0  0  0  0  0  0  0
   -0.6690   -3.2277    2.2062 H   0  0  0  0  0  0  0  0  0  0  0  0
   -1.3852   -3.6613   -0.7553 H   0  0  0  0  0  0  0  0  0  0  0  0
    0.2542   -3.4843   -0.1182 H   0  0  0  0  0  0  0  0  0  0  0  0
   -0.7257   -4.8930    0.3300 H   0  0  0  0  0  0  0  0  0  0  0  0
   -0.1563   -0.9420    1.1402 N   0  0  0  0  0  0  0  0  0  0  0  0
    0.0261    0.4671    0.9001 C   0  0  2  0  0  0  0  0  0  0  0  0
    1.5006    0.8150    1.0941 C   0  0  0  0  0  0  0  0  0  0  0  0
    1.9080    1.9702    1.1986 O   0  0  0  0  0  0  0  0  0  0  0  0
   -0.9168    1.3288    1.7436 C   0  0  0  0  0  0  0  0  0  0  0  0
   -2.6789    1.1063    1.3338 S   0  0  0  0  0  0  0  0  0  0  0  0
    0.6533   -1.4855    1.4300 H   0  0  0  0  0  0  0  0  0  0  0  0
   -0.2131    0.6189   -0.1598 H   0  0  0  0  0  0  0  0  0  0  0  0
   -0.7968    1.1011    2.8078 H   0  0  0  0  0  0  0  0  0  0  0  0
   -0.6790    2.3888    1.6036 H   0  0  0  0  0  0  0  0  0  0  0  0
   -3.1386    1.9810    2.2377 H   0  0  0  0  0  0  0  0  0  0  0  0
    2.3082   -0.3134    1.1116 N   0  0  0  0  0  0  0  0  0  0  0  0
    3.7418   -0.2429    1.2717 C   0  0  2  0  0  0  0  0  0  0  0  0
    4.3058   -1.6447    1.0808 C   0  0  0  0  0  0  0  0  0  0  0  0
    3.6354   -2.6638    1.2324 O   0  0  0  0  0  0  0  0  0  0  0  0
    4.1195    0.3139    2.6355 C   0  0  0  0  0  0  0  0  0  0  0  0
    1.8826   -1.2337    1.0518 H   0  0  0  0  0  0  0  0  0  0  0  0
    4.1167    0.4133    0.4788 H   0  0  0  0  0  0  0  0  0  0  0  0
    3.7523   -0.3303    3.4428 H   0  0  0  0  0  0  0  0  0  0  0  0
    5.2062    0.3934    2.7445 H   0  0  0  0  0  0  0  0  0  0  0  0
    3.6882    1.3099    2.7829 H   0  0  0  0  0  0  0  0  0  0  0  0
    5.6567   -1.6249    0.7635 N   0  0  0  0  0  0  0  0  0  0  0  0
    6.4240   -2.8289    0.5454 C   0  0  0  0  0  0  0  0  0  0  0  0
    6.1279   -0.7337    0.6393 H   0  0  0  0  0  0  0  0  0  0  0  0
    6.8939   -3.1410    1.4898 H   0  0  0  0  0  0  0  0  0  0  0  0
    5.7586   -3.6275    0.1856 H   0  0  0  0  0  0  0  0  0  0  0  0
    7.2040   -2.6355   -0.2057 H   0  0  0  0  0  0  0  0  0  0  0  0
  1  3  1  0  0  0  0
  1  7  1  0  0  0  0
  1  2  2  0  0  0  0
 29 30  1  0  0  0  0
 30 38  1  0  0  0  0
 30 31  2  0  0  0  0
  8  9  1  0  0  0  0
  9 17  1  0  0  0  0
  9 10  2  0  0  0  0
 18 19  1  0  0  0  0
 19 28  1  0  0  0  0
 19 20  2  0  0  0  0
 29 32  1  0  0  0  0
  8 11  1  0  0  0  0
 38 39  1  0  0  0  0
 18 21  1  0  0  0  0
 21 22  1  0  0  0  0
 28 29  1  0  0  0  0
  7  8  1  0  0  0  0
 17 18  1  0  0  0  0
  3  4  1  0  0  0  0
  3  5  1  0  0  0  0
  3  6  1  0  0  0  0
 32 35  1  0  0  0  0
 32 36  1  0  0  0  0
 32 37  1  0  0  0  0
 11 14  1  0  0  0  0
 11 15  1  0  0  0  0
 11 16  1  0  0  0  0
 39 41  1  0  0  0  0
 39 42  1  0  0  0  0
 39 43  1  0  0  0  0
 21 25  1  0  0  0  0
 21 26  1  0  0  0  0
 29 34  1  0  0  0  0
  8 13  1  0  0  0  0
 18 24  1  0  0  0  0
 38 40  1  0  0  0  0
  7 12  1  0  0  0  0
 28 33  1  0  0  0  0
 17 23  1  0  0  0  0
 22 27  1  0  0  0  0
M  END
$$$$

  -OEChem-05262214473D

 43 42  0     1  0  0  0  0  0999 V2000
   -2.8661   -4.7415    2.2943 C   0  0  0  0  0  0  0  0  0  0  0  0
   -2.0233   -5.5727    2.6109 O   0  0  0  0  0  0  0  0  0  0  0  0
   -4.3078   -5.0134    2.5698 C   0  0  0  0  0  0  0  0  0  0  0  0
   -4.8057   -5.5295    1.7332 H   0  0  0  0  0  0  0  0  0  0  0  0
   -4.4526   -5.6688    3.4436 H   0  0  0  0  0  0  0  0  0  0  0  0
   -4.9255   -4.1233    2.7700 H   0  0  0  0  0  0  0  0  0  0  0  0
   -2.6241   -3.5219    1.6838 N   0  0  0  0  0  0  0  0  0  0  0  0
   -1.3070   -3.0608    1.3315 C   0  0  2  0  0  0  0  0  0  0  0  0
   -1.3931   -1.5680    1.0422 C   0  0  0  0  0  0  0  0  0  0  0  0
   -2.4385   -1.0059    0.7226 O   0  0  0  0  0  0  0  0  0  0  0  0
   -0.7590   -3.8164    0.1309 C   0  0  0  0  0  0  0  0  0  0  0  0
   -3.4188   -2.9207    1.4735 H   0  0  0  0  0  0  0  0  0  0  0  0
   -0.6690   -3.2277    2.2062 H   0  0  0  0  0  0  0  0  0  0  0  0
   -1.3852   -3.6613   -0.7553 H   0  0  0  0  0  0  0  0  0  0  0  0
    0.2542   -3.4843   -0.1182 H   0  0  0  0  0  0  0  0  0  0  0  0
   -0.7257   -4.8930    0.3300 H   0  0  0  0  0  0  0  0  0  0  0  0
   -0.1563   -0.9420    1.1402 N   0  0  0  0  0  0  0  0  0  0  0  0
    0.0261    0.4671    0.9001 C   0  0  2  0  0  0  0  0  0  0  0  0
    1.5006    0.8150    1.0941 C   0  0  0  0  0  0  0  0  0  0  0  0
    1.8843    1.9233    1.4626 O   0  0  0  0  0  0  0  0  0  0  0  0
   -0.9168    1.3288    1.7436 C   0  0  0  0  0  0  0  0  0  0  0  0
   -2.6789    1.1063    1.3338 S   0  0  0  0  0  0  0  0  0  0  0  0
    0.6533   -1.4855    1.4300 H   0  0  0  0  0  0  0  0  0  0  0  0
   -0.2131    0.6189   -0.1598 H   0  0  0  0  0  0  0  0  0  0  0  0
   -0.7968    1.1011    2.8078 H   0  0  0  0  0  0  0  0  0  0  0  0
   -0.6790    2.3888    1.6036 H   0  0  0  0  0  0  0  0  0  0  0  0
   -3.1386    1.9810    2.2377 H   0  0  0  0  0  0  0  0  0  0  0  0
    2.3360   -0.2487    0.7837 N   0  0  0  0  0  0  0  0  0  0  0  0
    3.7746   -0.1625    0.8777 C   0  0  2  0  0  0  0  0  0  0  0  0
    4.3609   -1.4487    0.3106 C   0  0  0  0  0  0  0  0  0  0  0  0
    3.7275   -2.4997    0.2382 O   0  0  0  0  0  0  0  0  0  0  0  0
    4.2235    0.0521    2.3147 C   0  0  0  0  0  0  0  0  0  0  0  0
    1.9311   -1.1416    0.5184 H   0  0  0  0  0  0  0  0  0  0  0  0
    4.0820    0.6850    0.2554 H   0  0  0  0  0  0  0  0  0  0  0  0
    3.9244   -0.7870    2.9534 H   0  0  0  0  0  0  0  0  0  0  0  0
    5.3125    0.1458    2.3805 H   0  0  0  0  0  0  0  0  0  0  0  0
    3.7772    0.9619    2.7307 H   0  0  0  0  0  0  0  0  0  0  0  0
    5.6881   -1.2961   -0.0651 N   0  0  0  0  0  0  0  0  0  0  0  0
    6.4705   -2.3760   -0.6199 C   0  0  0  0  0  0  0  0  0  0  0  0
    6.1277   -0.3837    0.0127 H   0  0  0  0  0  0  0  0  0  0  0  0
    7.0068   -2.8940    0.1888 H   0  0  0  0  0  0  0  0  0  0  0  0
    5.8041   -3.0861   -1.1315 H   0  0  0  0  0  0  0  0  0  0  0  0
    7.1964   -1.9703   -1.3400 H   0  0  0  0  0  0  0  0  0  0  0  0
  1  3  1  0  0  0  0
  1  7  1  0  0  0  0
  1  2  2  0  0  0  0
 29 30  1  0  0  0  0
 30 38  1  0  0  0  0
 30 31  2  0  0  0  0
  8  9  1  0  0  0  0
  9 17  1  0  0  0  0
  9 10  2  0  0  0  0
 18 19  1  0  0  0  0
 19 28  1  0  0  0  0
 19 20  2  0  0  0  0
 29 32  1  0  0  0  0
  8 11  1  0  0  0  0
 38 39  1  0  0  0  0
 18 21  1  0  0  0  0
 21 22  1  0  0  0  0
 28 29  1  0  0  0  0
  7  8  1  0  0  0  0
 17 18  1  0  0  0  0
  3  4  1  0  0  0  0
  3  5  1  0  0  0  0
  3  6  1  0  0  0  0
 32 35  1  0  0  0  0
 32 36  1  0  0  0  0
 32 37  1  0  0  0  0
 11 14  1  0  0  0  0
 11 15  1  0  0  0  0
 11 16  1  0  0  0  0
 39 41  1  0  0  0  0
 39 42  1  0  0  0  0
 39 43  1  0  0  0  0
 21 25  1  0  0  0  0
 21 26  1  0  0  0  0
 29 34  1  0  0  0  0
  8 13  1  0  0  0  0
 18 24  1  0  0  0  0
 38 40  1  0  0  0  0
  7 12  1  0  0  0  0
 28 33  1  0  0  0  0
 17 23  1  0  0  0  0
 22 27  1  0  0  0  0
M  END
$$$$

  -OEChem-05262214473D

 43 42  0     1  0  0  0  0  0999 V2000
   -2.8661   -4.7415    2.2943 C   0  0  0  0  0  0  0  0  0  0  0  0
   -2.0233   -5.5727    2.6109 O   0  0  0  0  0  0  0  0  0  0  0  0
   -4.3078   -5.0134    2.5698 C   0  0  0  0  0  0  0  0  0  0  0  0
   -4.8057   -5.5295    1.7332 H   0  0  0  0  0  0  0  0  0  0  0  0
   -4.4526   -5.6688    3.4436 H   0  0  0  0  0  0  0  0  0  0  0  0
   -4.9255   -4.1233    2.7700 H   0  0  0  0  0  0  0  0  0  0  0  0
   -2.6241   -3.5219    1.6838 N   0  0  0  0  0  0  0  0  0  0  0  0
   -1.3070   -3.0608    1.3315 C   0  0  2  0  0  0  0  0  0  0  0  0
   -1.3931   -1.5680    1.0422 C   0  0  0  0  0  0  0  0  0  0  0  0
   -2.4385   -1.0059    0.7226 O   0  0  0  0  0  0  0  0  0  0  0  0
   -0.7590   -3.8164    0.1309 C   0  0  0  0  0  0  0  0  0  0  0  0
   -3.4188   -2.9207    1.4735 H   0  0  0  0  0  0  0  0  0  0  0  0
   -0.6690   -3.2277    2.2062 H   0  0  0  0  0  0  0  0  0  0  0  0
   -1.3852   -3.6613   -0.7553 H   0  0  0  0  0  0  0  0  0  0  0  0
    0.2542   -3.4843   -0.1182 H   0  0  0  0  0  0  0  0  0  0  0  0
   -0.7257   -4.8930    0.3300 H   0  0  0  0  0  0  0  0  0  0  0  0
   -0.1563   -0.9420    1.1402 N   0  0  0  0  0  0  0  0  0  0  0  0
    0.0261    0.4671    0.9001 C   0  0  2  0  0  0  0  0  0  0  0  0
    1.5006    0.8150    1.0941 C   0  0  0  0  0  0  0  0  0  0  0  0
    1.8786    1.8113    1.7072 O   0  0  0  0  0  0  0  0  0  0  0  0
   -0.9168    1.3288    1.7436 C   0  0  0  0  0  0  0  0  0  0  0  0
   -2.6789    1.1063    1.3338 S   0  0  0  0  0  0  0  0  0  0  0  0
    0.6533   -1.4855    1.4300 H   0  0  0  0  0  0  0  0  0  0  0  0
   -0.2131    0.6189   -0.1598 H   0  0  0  0  0  0  0  0  0  0  0  0
   -0.7968    1.1011    2.8078 H   0  0  0  0  0  0  0  0  0  0  0  0
   -0.6790    2.3888    1.6036 H   0  0  0  0  0  0  0  0  0  0  0  0
   -3.1386    1.9810    2.2377 H   0  0  0  0  0  0  0  0  0  0  0  0
    2.3415   -0.1034    0.4816 N   0  0  0  0  0  0  0  0  0  0  0  0
    3.7805    0.0147    0.5152 C   0  0  2  0  0  0  0  0  0  0  0  0
    4.3622   -1.0651   -0.3876 C   0  0  0  0  0  0  0  0  0  0  0  0
    3.7524   -2.0897   -0.6866 O   0  0  0  0  0  0  0  0  0  0  0  0
    4.3136   -0.1171    1.9333 C   0  0  0  0  0  0  0  0  0  0  0  0
    1.9434   -0.9177    0.0234 H   0  0  0  0  0  0  0  0  0  0  0  0
    4.0264    1.0022    0.1095 H   0  0  0  0  0  0  0  0  0  0  0  0
    4.0768   -1.1001    2.3565 H   0  0  0  0  0  0  0  0  0  0  0  0
    5.4018    0.0011    1.9608 H   0  0  0  0  0  0  0  0  0  0  0  0
    3.8715    0.6417    2.5880 H   0  0  0  0  0  0  0  0  0  0  0  0
    5.6589   -0.7704   -0.7851 N   0  0  0  0  0  0  0  0  0  0  0  0
    6.4317   -1.6457   -1.6351 C   0  0  0  0  0  0  0  0  0  0  0  0
    6.0792    0.1109   -0.5051 H   0  0  0  0  0  0  0  0  0  0  0  0
    7.0310   -2.3267   -1.0128 H   0  0  0  0  0  0  0  0  0  0  0  0
    5.7527   -2.2324   -2.2712 H   0  0  0  0  0  0  0  0  0  0  0  0
    7.1002   -1.0447   -2.2690 H   0  0  0  0  0  0  0  0  0  0  0  0
  1  3  1  0  0  0  0
  1  7  1  0  0  0  0
  1  2  2  0  0  0  0
 29 30  1  0  0  0  0
 30 38  1  0  0  0  0
 30 31  2  0  0  0  0
  8  9  1  0  0  0  0
  9 17  1  0  0  0  0
  9 10  2  0  0  0  0
 18 19  1  0  0  0  0
 19 28  1  0  0  0  0
 19 20  2  0  0  0  0
 29 32  1  0  0  0  0
  8 11  1  0  0  0  0
 38 39  1  0  0  0  0
 18 21  1  0  0  0  0
 21 22  1  0  0  0  0
 28 29  1  0  0  0  0
  7  8  1  0  0  0  0
 17 18  1  0  0  0  0
  3  4  1  0  0  0  0
  3  5  1  0  0  0  0
  3  6  1  0  0  0  0
 32 35  1  0  0  0  0
 32 36  1  0  0  0  0
 32 37  1  0  0  0  0
 11 14  1  0  0  0  0
 11 15  1  0  0  0  0
 11 16  1  0  0  0  0
 39 41  1  0  0  0  0
 39 42  1  0  0  0  0
 39 43  1  0  0  0  0
 21 25  1  0  0  0  0
 21 26  1  0  0  0  0
 29 34  1  0  0  0  0
  8 13  1  0  0  0  0
 18 24  1  0  0  0  0
 38 40  1  0  0  0  0
  7 12  1  0  0  0  0
 28 33  1  0  0  0  0
 17 23  1  0  0  0  0
 22 27  1  0  0  0  0
M  END
$$$$

  -OEChem-05262214473D

 43 42  0     1  0  0  0  0  0999 V2000
   -2.8661   -4.7415    2.2943 C   0  0  0  0  0  0  0  0  0  0  0  0
   -2.0233   -5.5727    2.6109 O   0  0  0  0  0  0  0  0  0  0  0  0
   -4.3078   -5.0134    2.5698 C   0  0  0  0  0  0  0  0  0  0  0  0
   -4.8057   -5.5295    1.7332 H   0  0  0  0  0  0  0  0  0  0  0  0
   -4.4526   -5.6688    3.4436 H   0  0  0  0  0  0  0  0  0  0  0  0
   -4.9255   -4.1233    2.7700 H   0  0  0  0  0  0  0  0  0  0  0  0
   -2.6241   -3.5219    1.6838 N   0  0  0  0  0  0  0  0  0  0  0  0
   -1.3070   -3.0608    1.3315 C   0  0  2  0  0  0  0  0  0  0  0  0
   -1.3931   -1.5680    1.0422 C   0  0  0  0  0  0  0  0  0  0  0  0
   -2.4385   -1.0059    0.7226 O   0  0  0  0  0  0  0  0  0  0  0  0
   -0.7590   -3.8164    0.1309 C   0  0  0  0  0  0  0  0  0  0  0  0
   -3.4188   -2.9207    1.4735 H   0  0  0  0  0  0  0  0  0  0  0  0
   -0.6690   -3.2277    2.2062 H   0  0  0  0  0  0  0  0  0  0  0  0
   -1.3852   -3.6613   -0.7553 H   0  0  0  0  0  0  0  0  0  0  0  0
    0.2542   -3.4843   -0.1182 H   0  0  0  0  0  0  0  0  0  0  0  0
   -0.7257   -4.8930    0.3300 H   0  0  0  0  0  0  0  0  0  0  0  0
   -0.1563   -0.9420    1.1402 N   0  0  0  0  0  0  0  0  0  0  0  0
    0.0261    0.4671    0.9001 C   0  0  2  0  0  0  0  0  0  0  0  0
    1.5006    0.8150    1.0941 C   0  0  0  0  0  0  0  0  0  0  0  0
    1.8911    1.6417    1.9159 O   0  0  0  0  0  0  0  0  0  0  0  0
   -0.9168    1.3288    1.7436 C   0  0  0  0  0  0  0  0  0  0  0  0
   -2.6789    1.1063    1.3338 S   0  0  0  0  0  0  0  0  0  0  0  0
    0.6533   -1.4855    1.4300 H   0  0  0  0  0  0  0  0  0  0  0  0
   -0.2131    0.6189   -0.1598 H   0  0  0  0  0  0  0  0  0  0  0  0
   -0.7968    1.1011    2.8078 H   0  0  0  0  0  0  0  0  0  0  0  0
   -0.6790    2.3888    1.6036 H   0  0  0  0  0  0  0  0  0  0  0  0
   -3.1386    1.9810    2.2377 H   0  0  0  0  0  0  0  0  0  0  0  0
    2.3242    0.1127    0.2257 N   0  0  0  0  0  0  0  0  0  0  0  0
    3.7590    0.2767    0.2090 C   0  0  2  0  0  0  0  0  0  0  0  0
    4.3098   -0.5202   -0.9662 C   0  0  0  0  0  0  0  0  0  0  0  0
    3.7085   -1.4618   -1.4788 O   0  0  0  0  0  0  0  0  0  0  0  0
    4.3837   -0.1823    1.5174 C   0  0  0  0  0  0  0  0  0  0  0  0
    1.9188   -0.5774   -0.3997 H   0  0  0  0  0  0  0  0  0  0  0  0
    3.9536    1.3431    0.0512 H   0  0  0  0  0  0  0  0  0  0  0  0
    4.1991   -1.2485    1.6927 H   0  0  0  0  0  0  0  0  0  0  0  0
    5.4681   -0.0308    1.5139 H   0  0  0  0  0  0  0  0  0  0  0  0
    3.9647    0.3712    2.3646 H   0  0  0  0  0  0  0  0  0  0  0  0
    5.5708   -0.0836   -1.3475 N   0  0  0  0  0  0  0  0  0  0  0  0
    6.3105   -0.6879   -2.4309 C   0  0  0  0  0  0  0  0  0  0  0  0
    5.9855    0.7165   -0.8789 H   0  0  0  0  0  0  0  0  0  0  0  0
    6.9649   -1.4776   -2.0331 H   0  0  0  0  0  0  0  0  0  0  0  0
    5.6077   -1.1248   -3.1556 H   0  0  0  0  0  0  0  0  0  0  0  0
    6.9221    0.0784   -2.9294 H   0  0  0  0  0  0  0  0  0  0  0  0
  1  3  1  0  0  0  0
  1  7  1  0  0  0  0
  1  2  2  0  0  0  0
 29 30  1  0  0  0  0
 30 38  1  0  0  0  0
 30 31  2  0  0  0  0
  8  9  1  0  0  0  0
  9 17  1  0  0  0  0
  9 10  2  0  0  0  0
 18 19  1  0  0  0  0
 19 28  1  0  0  0  0
 19 20  2  0  0  0  0
 29 32  1  0  0  0  0
  8 11  1  0  0  0  0
 38 39  1  0  0  0  0
 18 21  1  0  0  0  0
 21 22  1  0  0  0  0
 28 29  1  0  0  0  0
  7  8  1  0  0  0  0
 17 18  1  0  0  0  0
  3  4  1  0  0  0  0
  3  5  1  0  0  0  0
  3  6  1  0  0  0  0
 32 35  1  0  0  0  0
 32 36  1  0  0  0  0
 32 37  1  0  0  0  0
 11 14  1  0  0  0  0
 11 15  1  0  0  0  0
 11 16  1  0  0  0  0
 39 41  1  0  0  0  0
 39 42  1  0  0  0  0
 39 43  1  0  0  0  0
 21 25  1  0  0  0  0
 21 26  1  0  0  0  0
 29 34  1  0  0  0  0
  8 13  1  0  0  0  0
 18 24  1  0  0  0  0
 38 40  1  0  0  0  0
  7 12  1  0  0  0  0
 28 33  1  0  0  0  0
 17 23  1  0  0  0  0
 22 27  1  0  0  0  0
M  END
$$$$

  -OEChem-05262214473D

 43 42  0     1  0  0  0  0  0999 V2000
   -2.8661   -4.7415    2.2943 C   0  0  0  0  0  0  0  0  0  0  0  0
   -2.0233   -5.5727    2.6109 O   0  0  0  0  0  0  0  0  0  0  0  0
   -4.3078   -5.0134    2.5698 C   0  0  0  0  0  0  0  0  0  0  0  0
   -4.8057   -5.5295    1.7332 H   0  0  0  0  0  0  0  0  0  0  0  0
   -4.4526   -5.6688    3.4436 H   0  0  0  0  0  0  0  0  0  0  0  0
   -4.9255   -4.1233    2.7700 H   0  0  0  0  0  0  0  0  0  0  0  0
   -2.6241   -3.5219    1.6838 N   0  0  0  0  0  0  0  0  0  0  0  0
   -1.3070   -3.0608    1.3315 C   0  0  2  0  0  0  0  0  0  0  0  0
   -1.3931   -1.5680    1.0422 C   0  0  0  0  0  0  0  0  0  0  0  0
   -2.4385   -1.0059    0.7226 O   0  0  0  0  0  0  0  0  0  0  0  0
   -0.7590   -3.8164    0.1309 C   0  0  0  0  0  0  0  0  0  0  0  0
   -3.4188   -2.9207    1.4735 H   0  0  0  0  0  0  0  0  0  0  0  0
   -0.6690   -3.2277    2.2062 H   0  0  0  0  0  0  0  0  0  0  0  0
   -1.3852   -3.6613   -0.7553 H   0  0  0  0  0  0  0  0  0  0  0  0
    0.2542   -3.4843   -0.1182 H   0  0  0  0  0  0  0  0  0  0  0  0
   -0.7257   -4.8930    0.3300 H   0  0  0  0  0  0  0  0  0  0  0  0
   -0.1563   -0.9420    1.1402 N   0  0  0  0  0  0  0  0  0  0  0  0
    0.0261    0.4671    0.9001 C   0  0  2  0  0  0  0  0  0  0  0  0
    1.5006    0.8150    1.0941 C   0  0  0  0  0  0  0  0  0  0  0  0
    1.9211    1.4263    2.0743 O   0  0  0  0  0  0  0  0  0  0  0  0
   -0.9168    1.3288    1.7436 C   0  0  0  0  0  0  0  0  0  0  0  0
   -2.6789    1.1063    1.3338 S   0  0  0  0  0  0  0  0  0  0  0  0
    0.6533   -1.4855    1.4300 H   0  0  0  0  0  0  0  0  0  0  0  0
   -0.2131    0.6189   -0.1598 H   0  0  0  0  0  0  0  0  0  0  0  0
   -0.7968    1.1011    2.8078 H   0  0  0  0  0  0  0  0  0  0  0  0
   -0.6790    2.3888    1.6036 H   0  0  0  0  0  0  0  0  0  0  0  0
   -3.1386    1.9810    2.2377 H   0  0  0  0  0  0  0  0  0  0  0  0
    2.2853    0.3847    0.0335 N   0  0  0  0  0  0  0  0  0  0  0  0
    3.7116    0.6055   -0.0200 C   0  0  2  0  0  0  0  0  0  0  0  0
    4.2071    0.1491   -1.3859 C   0  0  0  0  0  0  0  0  0  0  0  0
    3.5988   -0.6588   -2.0846 O   0  0  0  0  0  0  0  0  0  0  0  0
    4.4290   -0.1391    1.0951 C   0  0  0  0  0  0  0  0  0  0  0  0
    1.8588   -0.1438   -0.7218 H   0  0  0  0  0  0  0  0  0  0  0  0
    3.8687    1.6846    0.0843 H   0  0  0  0  0  0  0  0  0  0  0  0
    4.2830   -1.2219    1.0072 H   0  0  0  0  0  0  0  0  0  0  0  0
    5.5069    0.0521    1.0704 H   0  0  0  0  0  0  0  0  0  0  0  0
    4.0504    0.1688    2.0758 H   0  0  0  0  0  0  0  0  0  0  0  0
    5.4301    0.7173   -1.7140 N   0  0  0  0  0  0  0  0  0  0  0  0
    6.1150    0.4320   -2.9531 C   0  0  0  0  0  0  0  0  0  0  0  0
    5.8531    1.3917   -1.0830 H   0  0  0  0  0  0  0  0  0  0  0  0
    6.8130   -0.4047   -2.8026 H   0  0  0  0  0  0  0  0  0  0  0  0
    5.3792    0.1613   -3.7247 H   0  0  0  0  0  0  0  0  0  0  0  0
    6.6743    1.3224   -3.2762 H   0  0  0  0  0  0  0  0  0  0  0  0
  1  3  1  0  0  0  0
  1  7  1  0  0  0  0
  1  2  2  0  0  0  0
 29 30  1  0  0  0  0
 30 38  1  0  0  0  0
 30 31  2  0  0  0  0
  8  9  1  0  0  0  0
  9 17  1  0  0  0  0
  9 10  2  0  0  0  0
 18 19  1  0  0  0  0
 19 28  1  0  0  0  0
 19 20  2  0  0  0  0
 29 32  1  0  0  0  0
  8 11  1  0  0  0  0
 38 39  1  0  0  0  0
 18 21  1  0  0  0  0
 21 22  1  0  0  0  0
 28 29  1  0  0  0  0
  7  8  1  0  0  0  0
 17 18  1  0  0  0  0
  3  4  1  0  0  0  0
  3  5  1  0  0  0  0
  3  6  1  0  0  0  0
 32 35  1  0  0  0  0
 32 36  1  0  0  0  0
 32 37  1  0  0  0  0
 11 14  1  0  0  0  0
 11 15  1  0  0  0  0
 11 16  1  0  0  0  0
 39 41  1  0  0  0  0
 39 42  1  0  0  0  0
 39 43  1  0  0  0  0
 21 25  1  0  0  0  0
 21 26  1  0  0  0  0
 29 34  1  0  0  0  0
  8 13  1  0  0  0  0
 18 24  1  0  0  0  0
 38 40  1  0  0  0  0
  7 12  1  0  0  0  0
 28 33  1  0  0  0  0
 17 23  1  0  0  0  0
 22 27  1  0  0  0  0
M  END
$$$$

  -OEChem-05262214473D

 43 42  0     1  0  0  0  0  0999 V2000
   -2.8661   -4.7415    2.2943 C   0  0  0  0  0  0  0  0  0  0  0  0
   -2.0233   -5.5727    2.6109 O   0  0  0  0  0  0  0  0  0  0  0  0
   -4.3078   -5.0134    2.5698 C   0  0  0  0  0  0  0  0  0  0  0  0
   -4.8057   -5.5295    1.7332 H   0  0  0  0  0  0  0  0  0  0  0  0
   -4.4526   -5.6688    3.4436 H   0  0  0  0  0  0  0  0  0  0  0  0
   -4.9255   -4.1233    2.7700 H   0  0  0  0  0  0  0  0  0  0  0  0
   -2.6241   -3.5219    1.6838 N   0  0  0  0  0  0  0  0  0  0  0  0
   -1.3070   -3.0608    1.3315 C   0  0  2  0  0  0  0  0  0  0  0  0
   -1.3931   -1.5680    1.0422 C   0  0  0  0  0  0  0  0  0  0  0  0
   -2.4385   -1.0059    0.7226 O   0  0  0  0  0  0  0  0  0  0  0  0
   -0.7590   -3.8164    0.1309 C   0  0  0  0  0  0  0  0  0  0  0  0
   -3.4188   -2.9207    1.4735 H   0  0  0  0  0  0  0  0  0  0  0  0
   -0.6690   -3.2277    2.2062 H   0  0  0  0  0  0  0  0  0  0  0  0
   -1.3852   -3.6613   -0.7553 H   0  0  0  0  0  0  0  0  0  0  0  0
    0.2542   -3.4843   -0.1182 H   0  0  0  0  0  0  0  0  0  0  0  0
   -0.7257   -4.8930    0.3300 H   0  0  0  0  0  0  0  0  0  0  0  0
   -0.1563   -0.9420    1.1402 N   0  0  0  0  0  0  0  0  0  0  0  0
    0.0261    0.4671    0.9001 C   0  0  2  0  0  0  0  0  0  0  0  0
    1.5006    0.8150    1.0941 C   0  0  0  0  0  0  0  0  0  0  0  0
    1.9665    1.1795    2.1718 O   0  0  0  0  0  0  0  0  0  0  0  0
   -0.9168    1.3288    1.7436 C   0  0  0  0  0  0  0  0  0  0  0  0
   -2.6789    1.1063    1.3338 S   0  0  0  0  0  0  0  0  0  0  0  0
    0.6533   -1.4855    1.4300 H   0  0  0  0  0  0  0  0  0  0  0  0
   -0.2131    0.6189   -0.1598 H   0  0  0  0  0  0  0  0  0  0  0  0
   -0.7968    1.1011    2.8078 H   0  0  0  0  0  0  0  0  0  0  0  0
   -0.6790    2.3888    1.6036 H   0  0  0  0  0  0  0  0  0  0  0  0
   -3.1386    1.9810    2.2377 H   0  0  0  0  0  0  0  0  0  0  0  0
    2.2275    0.6943   -0.0818 N   0  0  0  0  0  0  0  0  0  0  0  0
    3.6414    0.9788   -0.1563 C   0  0  2  0  0  0  0  0  0  0  0  0
    4.0612    0.8971   -1.6180 C   0  0  0  0  0  0  0  0  0  0  0  0
    3.4307    0.2646   -2.4627 O   0  0  0  0  0  0  0  0  0  0  0  0
    4.4465    0.0097    0.6954 C   0  0  0  0  0  0  0  0  0  0  0  0
    1.7677    0.3536   -0.9210 H   0  0  0  0  0  0  0  0  0  0  0  0
    3.7774    2.0034    0.2066 H   0  0  0  0  0  0  0  0  0  0  0  0
    4.3228   -1.0222    0.3468 H   0  0  0  0  0  0  0  0  0  0  0  0
    5.5155    0.2444    0.6604 H   0  0  0  0  0  0  0  0  0  0  0  0
    4.1229    0.0483    1.7411 H   0  0  0  0  0  0  0  0  0  0  0  0
    5.2462    1.5779   -1.8595 N   0  0  0  0  0  0  0  0  0  0  0  0
    5.8586    1.6379   -3.1662 C   0  0  0  0  0  0  0  0  0  0  0  0
    5.6909    2.0906   -1.1037 H   0  0  0  0  0  0  0  0  0  0  0  0
    6.5857    0.8190   -3.2689 H   0  0  0  0  0  0  0  0  0  0  0  0
    5.0827    1.5382   -3.9395 H   0  0  0  0  0  0  0  0  0  0  0  0
    6.3736    2.6025   -3.2857 H   0  0  0  0  0  0  0  0  0  0  0  0
  1  3  1  0  0  0  0
  1  7  1  0  0  0  0
  1  2  2  0  0  0  0
 29 30  1  0  0  0  0
 30 38  1  0  0  0  0
 30 31  2  0  0  0  0
  8  9  1  0  0  0  0
  9 17  1  0  0  0  0
  9 10  2  0  0  0  0
 18 19  1  0  0  0  0
 19 28  1  0  0  0  0
 19 20  2  0  0  0  0
 29 32  1  0  0  0  0
  8 11  1  0  0  0  0
 38 39  1  0  0  0  0
 18 21  1  0  0  0  0
 21 22  1  0  0  0  0
 28 29  1  0  0  0  0
  7  8  1  0  0  0  0
 17 18  1  0  0  0  0
  3  4  1  0  0  0  0
  3  5  1  0  0  0  0
  3  6  1  0  0  0  0
 32 35  1  0  0  0  0
 32 36  1  0  0  0  0
 32 37  1  0  0  0  0
 11 14  1  0  0  0  0
 11 15  1  0  0  0  0
 11 16  1  0  0  0  0
 39 41  1  0  0  0  0
 39 42  1  0  0  0  0
 39 43  1  0  0  0  0
 21 25  1  0  0  0  0
 21 26  1  0  0  0  0
 29 34  1  0  0  0  0
  8 13  1  0  0  0  0
 18 24  1  0  0  0  0
 38 40  1  0  0  0  0
  7 12  1  0  0  0  0
 28 33  1  0  0  0  0
 17 23  1  0  0  0  0
 22 27  1  0  0  0  0
M  END
$$$$

  -OEChem-05262214473D

 43 42  0     1  0  0  0  0  0999 V2000
   -2.8661   -4.7415    2.2943 C   0  0  0  0  0  0  0  0  0  0  0  0
   -2.0233   -5.5727    2.6109 O   0  0  0  0  0  0  0  0  0  0  0  0
   -4.3078   -5.0134    2.5698 C   0  0  0  0  0  0  0  0  0  0  0  0
   -4.8057   -5.5295    1.7332 H   0  0  0  0  0  0  0  0  0  0  0  0
   -4.4526   -5.6688    3.4436 H   0  0  0  0  0  0  0  0  0  0  0  0
   -4.9255   -4.1233    2.7700 H   0  0  0  0  0  0  0  0  0  0  0  0
   -2.6241   -3.5219    1.6838 N   0  0  0  0  0  0  0  0  0  0  0  0
   -1.3070   -3.0608    1.3315 C   0  0  2  0  0  0  0  0  0  0  0  0
   -1.3931   -1.5680    1.0422 C   0  0  0  0  0  0  0  0  0  0  0  0
   -2.4385   -1.0059    0.7226 O   0  0  0  0  0  0  0  0  0  0  0  0
   -0.7590   -3.8164    0.1309 C   0  0  0  0  0  0  0  0  0  0  0  0
   -3.4188   -2.9207    1.4735 H   0  0  0  0  0  0  0  0  0  0  0  0
   -0.6690   -3.2277    2.2062 H   0  0  0  0  0  0  0  0  0  0  0  0
   -1.3852   -3.6613   -0.7553 H   0  0  0  0  0  0  0  0  0  0  0  0
    0.2542   -3.4843   -0.1182 H   0  0  0  0  0  0  0  0  0  0  0  0
   -0.7257   -4.8930    0.3300 H   0  0  0  0  0  0  0  0  0  0  0  0
   -0.1563   -0.9420    1.1402 N   0  0  0  0  0  0  0  0  0  0  0  0
    0.0261    0.4671    0.9001 C   0  0  2  0  0  0  0  0  0  0  0  0
    1.5006    0.8150    1.0941 C   0  0  0  0  0  0  0  0  0  0  0  0
    2.0242    0.9183    2.2016 O   0  0  0  0  0  0  0  0  0  0  0  0
   -0.9168    1.3288    1.7436 C   0  0  0  0  0  0  0  0  0  0  0  0
   -2.6789    1.1063    1.3338 S   0  0  0  0  0  0  0  0  0  0  0  0
    0.6533   -1.4855    1.4300 H   0  0  0  0  0  0  0  0  0  0  0  0
   -0.2131    0.6189   -0.1598 H   0  0  0  0  0  0  0  0  0  0  0  0
   -0.7968    1.1011    2.8078 H   0  0  0  0  0  0  0  0  0  0  0  0
   -0.6790    2.3888    1.6036 H   0  0  0  0  0  0  0  0  0  0  0  0
   -3.1386    1.9810    2.2377 H   0  0  0  0  0  0  0  0  0  0  0  0
    2.1546    1.0201   -0.1125 N   0  0  0  0  0  0  0  0  0  0  0  0
    3.5534    1.3711   -0.1905 C   0  0  2  0  0  0  0  0  0  0  0  0
    3.8820    1.6728   -1.6467 C   0  0  0  0  0  0  0  0  0  0  0  0
    3.2156    1.2455   -2.5872 O   0  0  0  0  0  0  0  0  0  0  0  0
    4.4349    0.2538    0.3454 C   0  0  0  0  0  0  0  0  0  0  0  0
    1.6516    0.8808   -0.9838 H   0  0  0  0  0  0  0  0  0  0  0  0
    3.6860    2.2778    0.4098 H   0  0  0  0  0  0  0  0  0  0  0  0
    4.3157   -0.6629   -0.2435 H   0  0  0  0  0  0  0  0  0  0  0  0
    5.4933    0.5328    0.3120 H   0  0  0  0  0  0  0  0  0  0  0  0
    4.1771    0.0178    1.3835 H   0  0  0  0  0  0  0  0  0  0  0  0
    5.0318    2.4396   -1.7742 N   0  0  0  0  0  0  0  0  0  0  0  0
    5.5587    2.8475   -3.0556 C   0  0  0  0  0  0  0  0  0  0  0  0
    5.5101    2.7655   -0.9396 H   0  0  0  0  0  0  0  0  0  0  0  0
    6.2985    2.1099   -3.4001 H   0  0  0  0  0  0  0  0  0  0  0  0
    4.7383    2.9122   -3.7855 H   0  0  0  0  0  0  0  0  0  0  0  0
    6.0405    3.8315   -2.9574 H   0  0  0  0  0  0  0  0  0  0  0  0
  1  3  1  0  0  0  0
  1  7  1  0  0  0  0
  1  2  2  0  0  0  0
 29 30  1  0  0  0  0
 30 38  1  0  0  0  0
 30 31  2  0  0  0  0
  8  9  1  0  0  0  0
  9 17  1  0  0  0  0
  9 10  2  0  0  0  0
 18 19  1  0  0  0  0
 19 28  1  0  0  0  0
 19 20  2  0  0  0  0
 29 32  1  0  0  0  0
  8 11  1  0  0  0  0
 38 39  1  0  0  0  0
 18 21  1  0  0  0  0
 21 22  1  0  0  0  0
 28 29  1  0  0  0  0
  7  8  1  0  0  0  0
 17 18  1  0  0  0  0
  3  4  1  0  0  0  0
  3  5  1  0  0  0  0
  3  6  1  0  0  0  0
 32 35  1  0  0  0  0
 32 36  1  0  0  0  0
 32 37  1  0  0  0  0
 11 14  1  0  0  0  0
 11 15  1  0  0  0  0
 11 16  1  0  0  0  0
 39 41  1  0  0  0  0
 39 42  1  0  0  0  0
 39 43  1  0  0  0  0
 21 25  1  0  0  0  0
 21 26  1  0  0  0  0
 29 34  1  0  0  0  0
  8 13  1  0  0  0  0
 18 24  1  0  0  0  0
 38 40  1  0  0  0  0
  7 12  1  0  0  0  0
 28 33  1  0  0  0  0
 17 23  1  0  0  0  0
 22 27  1  0  0  0  0
M  END
$$$$

  -OEChem-05262214473D

 43 42  0     1  0  0  0  0  0999 V2000
   -2.8661   -4.7415    2.2943 C   0  0  0  0  0  0  0  0  0  0  0  0
   -2.0233   -5.5727    2.6109 O   0  0  0  0  0  0  0  0  0  0  0  0
   -4.3078   -5.0134    2.5698 C   0  0  0  0  0  0  0  0  0  0  0  0
   -4.8057   -5.5295    1.7332 H   0  0  0  0  0  0  0  0  0  0  0  0
   -4.4526   -5.6688    3.4436 H   0  0  0  0  0  0  0  0  0  0  0  0
   -4.9255   -4.1233    2.7700 H   0  0  0  0  0  0  0  0  0  0  0  0
   -2.6241   -3.5219    1.6838 N   0  0  0  0  0  0  0  0  0  0  0  0
   -1.3070   -3.0608    1.3315 C   0  0  2  0  0  0  0  0  0  0  0  0
   -1.3931   -1.5680    1.0422 C   0  0  0  0  0  0  0  0  0  0  0  0
   -2.4385   -1.0059    0.7226 O   0  0  0  0  0  0  0  0  0  0  0  0
   -0.7590   -3.8164    0.1309 C   0  0  0  0  0  0  0  0  0  0  0  0
   -3.4188   -2.9207    1.4735 H   0  0  0  0  0  0  0  0  0  0  0  0
   -0.6690   -3.2277    2.2062 H   0  0  0  0  0  0  0  0  0  0  0  0
   -1.3852   -3.6613   -0.7553 H   0  0  0  0  0  0  0  0  0  0  0  0
    0.2542   -3.4843   -0.1182 H   0  0  0  0  0  0  0  0  0  0  0  0
   -0.7257   -4.8930    0.3300 H   0  0  0  0  0  0  0  0  0  0  0  0
   -0.1563   -0.9420    1.1402 N   0  0  0  0  0  0  0  0  0  0  0  0
    0.0261    0.4671    0.9001 C   0  0  2  0  0  0  0  0  0  0  0  0
    1.5006    0.8150    1.0941 C   0  0  0  0  0  0  0  0  0  0  0  0
    2.0902    0.6605    2.1617 O   0  0  0  0  0  0  0  0  0  0  0  0
   -0.9168    1.3288    1.7436 C   0  0  0  0  0  0  0  0  0  0  0  0
   -2.6789    1.1063    1.3338 S   0  0  0  0  0  0  0  0  0  0  0  0
    0.6533   -1.4855    1.4300 H   0  0  0  0  0  0  0  0  0  0  0  0
   -0.2131    0.6189   -0.1598 H   0  0  0  0  0  0  0  0  0  0  0  0
   -0.7968    1.1011    2.8078 H   0  0  0  0  0  0  0  0  0  0  0  0
   -0.6790    2.3888    1.6036 H   0  0  0  0  0  0  0  0  0  0  0  0
   -3.1386    1.9810    2.2377 H   0  0  0  0  0  0  0  0  0  0  0  0
    2.0717    1.3402   -0.0564 N   0  0  0  0  0  0  0  0  0  0  0  0
    3.4534    1.7557   -0.1204 C   0  0  2  0  0  0  0  0  0  0  0  0
    3.6817    2.4233   -1.4701 C   0  0  0  0  0  0  0  0  0  0  0  0
    2.9684    2.2170   -2.4497 O   0  0  0  0  0  0  0  0  0  0  0  0
    4.3951    0.5767    0.0690 C   0  0  0  0  0  0  0  0  0  0  0  0
    1.5185    1.4019   -0.9059 H   0  0  0  0  0  0  0  0  0  0  0  0
    3.6006    2.4890    0.6800 H   0  0  0  0  0  0  0  0  0  0  0  0
    4.2623   -0.1687   -0.7236 H   0  0  0  0  0  0  0  0  0  0  0  0
    5.4418    0.8977    0.0487 H   0  0  0  0  0  0  0  0  0  0  0  0
    4.2094    0.0796    1.0272 H   0  0  0  0  0  0  0  0  0  0  0  0
    4.8013    3.2435   -1.4639 N   0  0  0  0  0  0  0  0  0  0  0  0
    5.2358    3.9784   -2.6289 C   0  0  0  0  0  0  0  0  0  0  0  0
    5.3230    3.3704   -0.6017 H   0  0  0  0  0  0  0  0  0  0  0  0
    5.9708    3.3802   -3.1874 H   0  0  0  0  0  0  0  0  0  0  0  0
    4.3696    4.1896   -3.2731 H   0  0  0  0  0  0  0  0  0  0  0  0
    5.6977    4.9256   -2.3135 H   0  0  0  0  0  0  0  0  0  0  0  0
  1  3  1  0  0  0  0
  1  7  1  0  0  0  0
  1  2  2  0  0  0  0
 29 30  1  0  0  0  0
 30 38  1  0  0  0  0
 30 31  2  0  0  0  0
  8  9  1  0  0  0  0
  9 17  1  0  0  0  0
  9 10  2  0  0  0  0
 18 19  1  0  0  0  0
 19 28  1  0  0  0  0
 19 20  2  0  0  0  0
 29 32  1  0  0  0  0
  8 11  1  0  0  0  0
 38 39  1  0  0  0  0
 18 21  1  0  0  0  0
 21 22  1  0  0  0  0
 28 29  1  0  0  0  0
  7  8  1  0  0  0  0
 17 18  1  0  0  0  0
  3  4  1  0  0  0  0
  3  5  1  0  0  0  0
  3  6  1  0  0  0  0
 32 35  1  0  0  0  0
 32 36  1  0  0  0  0
 32 37  1  0  0  0  0
 11 14  1  0  0  0  0
 11 15  1  0  0  0  0
 11 16  1  0  0  0  0
 39 41  1  0  0  0  0
 39 42  1  0  0  0  0
 39 43  1  0  0  0  0
 21 25  1  0  0  0  0
 21 26  1  0  0  0  0
 29 34  1  0  0  0  0
  8 13  1  0  0  0  0
 18 24  1  0  0  0  0
 38 40  1  0  0  0  0
  7 12  1  0  0  0  0
 28 33  1  0  0  0  0
 17 23  1  0  0  0  0
 22 27  1  0  0  0  0
M  END
$$$$

  -OEChem-05262214473D

 43 42  0     1  0  0  0  0  0999 V2000
   -2.8661   -4.7415    2.2943 C   0  0  0  0  0  0  0  0  0  0  0  0
   -2.0233   -5.5727    2.6109 O   0  0  0  0  0  0  0  0  0  0  0  0
   -4.3078   -5.0134    2.5698 C   0  0  0  0  0  0  0  0  0  0  0  0
   -4.8057   -5.5295    1.7332 H   0  0  0  0  0  0  0  0  0  0  0  0
   -4.4526   -5.6688    3.4436 H   0  0  0  0  0  0  0  0  0  0  0  0
   -4.9255   -4.1233    2.7700 H   0  0  0  0  0  0  0  0  0  0  0  0
   -2.6241   -3.5219    1.6838 N   0  0  0  0  0  0  0  0  0  0  0  0
   -1.3070   -3.0608    1.3315 C   0  0  2  0  0  0  0  0  0  0  0  0
   -1.3931   -1.5680    1.0422 C   0  0  0  0  0  0  0  0  0  0  0  0
   -2.4385   -1.0059    0.7226 O   0  0  0  0  0  0  0  0  0  0  0  0
   -0.7590   -3.8164    0.1309 C   0  0  0  0  0  0  0  0  0  0  0  0
   -3.4188   -2.9207    1.4735 H   0  0  0  0  0  0  0  0  0  0  0  0
   -0.6690   -3.2277    2.2062 H   0  0  0  0  0  0  0  0  0  0  0  0
   -1.3852   -3.6613   -0.7553 H   0  0  0  0  0  0  0  0  0  0  0  0
    0.2542   -3.4843   -0.1182 H   0  0  0  0  0  0  0  0  0  0  0  0
   -0.7257   -4.8930    0.3300 H   0  0  0  0  0  0  0  0  0  0  0  0
   -0.1563   -0.9420    1.1402 N   0  0  0  0  0  0  0  0  0  0  0  0
    0.0261    0.4671    0.9001 C   0  0  2  0  0  0  0  0  0  0  0  0
    1.5006    0.8150    1.0941 C   0  0  0  0  0  0  0  0  0  0  0  0
    2.1602    0.4235    2.0549 O   0  0  0  0  0  0  0  0  0  0  0  0
   -0.9168    1.3288    1.7436 C   0  0  0  0  0  0  0  0  0  0  0  0
   -2.6789    1.1063    1.3338 S   0  0  0  0  0  0  0  0  0  0  0  0
    0.6533   -1.4855    1.4300 H   0  0  0  0  0  0  0  0  0  0  0  0
   -0.2131    0.6189   -0.1598 H   0  0  0  0  0  0  0  0  0  0  0  0
   -0.7968    1.1011    2.8078 H   0  0  0  0  0  0  0  0  0  0  0  0
   -0.6790    2.3888    1.6036 H   0  0  0  0  0  0  0  0  0  0  0  0
   -3.1386    1.9810    2.2377 H   0  0  0  0  0  0  0  0  0  0  0  0
    1.9845    1.6326    0.0827 N   0  0  0  0  0  0  0  0  0  0  0  0
    3.3484    2.1064    0.0494 C   0  0  2  0  0  0  0  0  0  0  0  0
    3.4740    3.0976   -1.1001 C   0  0  0  0  0  0  0  0  0  0  0  0
    2.7057    3.1129   -2.0596 O   0  0  0  0  0  0  0  0  0  0  0  0
    4.3298    0.9563   -0.1149 C   0  0  0  0  0  0  0  0  0  0  0  0
    1.3773    1.8814   -0.6926 H   0  0  0  0  0  0  0  0  0  0  0  0
    3.5271    2.6227    0.9988 H   0  0  0  0  0  0  0  0  0  0  0  0
    4.1661    0.4270   -1.0606 H   0  0  0  0  0  0  0  0  0  0  0  0
    5.3646    1.3142   -0.1113 H   0  0  0  0  0  0  0  0  0  0  0  0
    4.2176    0.2293    0.6967 H   0  0  0  0  0  0  0  0  0  0  0  0
    4.5706    3.9349   -0.9497 N   0  0  0  0  0  0  0  0  0  0  0  0
    4.9118    4.9535   -1.9151 C   0  0  0  0  0  0  0  0  0  0  0  0
    5.1422    3.8642   -0.1131 H   0  0  0  0  0  0  0  0  0  0  0  0
    5.6251    4.5433   -2.6451 H   0  0  0  0  0  0  0  0  0  0  0  0
    4.0016    5.2832   -2.4373 H   0  0  0  0  0  0  0  0  0  0  0  0
    5.3686    5.8103   -1.3979 H   0  0  0  0  0  0  0  0  0  0  0  0
  1  3  1  0  0  0  0
  1  7  1  0  0  0  0
  1  2  2  0  0  0  0
 29 30  1  0  0  0  0
 30 38  1  0  0  0  0
 30 31  2  0  0  0  0
  8  9  1  0  0  0  0
  9 17  1  0  0  0  0
  9 10  2  0  0  0  0
 18 19  1  0  0  0  0
 19 28  1  0  0  0  0
 19 20  2  0  0  0  0
 29 32  1  0  0  0  0
  8 11  1  0  0  0  0
 38 39  1  0  0  0  0
 18 21  1  0  0  0  0
 21 22  1  0  0  0  0
 28 29  1  0  0  0  0
  7  8  1  0  0  0  0
 17 18  1  0  0  0  0
  3  4  1  0  0  0  0
  3  5  1  0  0  0  0
  3  6  1  0  0  0  0
 32 35  1  0  0  0  0
 32 36  1  0  0  0  0
 32 37  1  0  0  0  0
 11 14  1  0  0  0  0
 11 15  1  0  0  0  0
 11 16  1  0  0  0  0
 39 41  1  0  0  0  0
 39 42  1  0  0  0  0
 39 43  1  0  0  0  0
 21 25  1  0  0  0  0
 21 26  1  0  0  0  0
 29 34  1  0  0  0  0
  8 13  1  0  0  0  0
 18 24  1  0  0  0  0
 38 40  1  0  0  0  0
  7 12  1  0  0  0  0
 28 33  1  0  0  0  0
 17 23  1  0  0  0  0
 22 27  1  0  0  0  0
M  END
$$$$

  -OEChem-05262214473D

 43 42  0     1  0  0  0  0  0999 V2000
   -2.8661   -4.7415    2.2943 C   0  0  0  0  0  0  0  0  0  0  0  0
   -2.0233   -5.5727    2.6109 O   0  0  0  0  0  0  0  0  0  0  0  0
   -4.3078   -5.0134    2.5698 C   0  0  0  0  0  0  0  0  0  0  0  0
   -4.8057   -5.5295    1.7332 H   0  0  0  0  0  0  0  0  0  0  0  0
   -4.4526   -5.6688    3.4436 H   0  0  0  0  0  0  0  0  0  0  0  0
   -4.9255   -4.1233    2.7700 H   0  0  0  0  0  0  0  0  0  0  0  0
   -2.6241   -3.5219    1.6838 N   0  0  0  0  0  0  0  0  0  0  0  0
   -1.3070   -3.0608    1.3315 C   0  0  2  0  0  0  0  0  0  0  0  0
   -1.3931   -1.5680    1.0422 C   0  0  0  0  0  0  0  0  0  0  0  0
   -2.4385   -1.0059    0.7226 O   0  0  0  0  0  0  0  0  0  0  0  0
   -0.7590   -3.8164    0.1309 C   0  0  0  0  0  0  0  0  0  0  0  0
   -3.4188   -2.9207    1.4735 H   0  0  0  0  0  0  0  0  0  0  0  0
   -0.6690   -3.2277    2.2062 H   0  0  0  0  0  0  0  0  0  0  0  0
   -1.3852   -3.6613   -0.7553 H   0  0  0  0  0  0  0  0  0  0  0  0
    0.2542   -3.4843   -0.1182 H   0  0  0  0  0  0  0  0  0  0  0  0
   -0.7257   -4.8930    0.3300 H   0  0  0  0  0  0  0  0  0  0  0  0
   -0.1563   -0.9420    1.1402 N   0  0  0  0  0  0  0  0  0  0  0  0
    0.0261    0.4671    0.9001 C   0  0  2  0  0  0  0  0  0  0  0  0
    1.5006    0.8150    1.0941 C   0  0  0  0  0  0  0  0  0  0  0  0
    2.2292    0.2237    1.8884 O   0  0  0  0  0  0  0  0  0  0  0  0
   -0.9168    1.3288    1.7436 C   0  0  0  0  0  0  0  0  0  0  0  0
   -2.6789    1.1063    1.3338 S   0  0  0  0  0  0  0  0  0  0  0  0
    0.6533   -1.4855    1.4300 H   0  0  0  0  0  0  0  0  0  0  0  0
   -0.2131    0.6189   -0.1598 H   0  0  0  0  0  0  0  0  0  0  0  0
   -0.7968    1.1011    2.8078 H   0  0  0  0  0  0  0  0  0  0  0  0
   -0.6790    2.3888    1.6036 H   0  0  0  0  0  0  0  0  0  0  0  0
   -3.1386    1.9810    2.2377 H   0  0  0  0  0  0  0  0  0  0  0  0
    1.8988    1.8774    0.2952 N   0  0  0  0  0  0  0  0  0  0  0  0
    3.2454    2.3992    0.3071 C   0  0  2  0  0  0  0  0  0  0  0  0
    3.2730    3.6495   -0.5620 C   0  0  0  0  0  0  0  0  0  0  0  0
    2.4456    3.8722   -1.4434 O   0  0  0  0  0  0  0  0  0  0  0  0
    4.2433    1.3668   -0.1938 C   0  0  0  0  0  0  0  0  0  0  0  0
    1.2377    2.2866   -0.3584 H   0  0  0  0  0  0  0  0  0  0  0  0
    3.4705    2.6698    1.3445 H   0  0  0  0  0  0  0  0  0  0  0  0
    4.0338    1.0833   -1.2317 H   0  0  0  0  0  0  0  0  0  0  0  0
    5.2669    1.7541   -0.1573 H   0  0  0  0  0  0  0  0  0  0  0  0
    4.2010    0.4568    0.4143 H   0  0  0  0  0  0  0  0  0  0  0  0
    4.3553    4.4666   -0.2667 N   0  0  0  0  0  0  0  0  0  0  0  0
    4.6090    5.7064   -0.9628 C   0  0  0  0  0  0  0  0  0  0  0  0
    4.9802    4.2131    0.4928 H   0  0  0  0  0  0  0  0  0  0  0  0
    5.2849    5.5200   -1.8104 H   0  0  0  0  0  0  0  0  0  0  0  0
    3.6595    6.1187   -1.3350 H   0  0  0  0  0  0  0  0  0  0  0  0
    5.0755    6.4252   -0.2731 H   0  0  0  0  0  0  0  0  0  0  0  0
  1  3  1  0  0  0  0
  1  7  1  0  0  0  0
  1  2  2  0  0  0  0
 29 30  1  0  0  0  0
 30 38  1  0  0  0  0
 30 31  2  0  0  0  0
  8  9  1  0  0  0  0
  9 17  1  0  0  0  0
  9 10  2  0  0  0  0
 18 19  1  0  0  0  0
 19 28  1  0  0  0  0
 19 20  2  0  0  0  0
 29 32  1  0  0  0  0
  8 11  1  0  0  0  0
 38 39  1  0  0  0  0
 18 21  1  0  0  0  0
 21 22  1  0  0  0  0
 28 29  1  0  0  0  0
  7  8  1  0  0  0  0
 17 18  1  0  0  0  0
  3  4  1  0  0  0  0
  3  5  1  0  0  0  0
  3  6  1  0  0  0  0
 32 35  1  0  0  0  0
 32 36  1  0  0  0  0
 32 37  1  0  0  0  0
 11 14  1  0  0  0  0
 11 15  1  0  0  0  0
 11 16  1  0  0  0  0
 39 41  1  0  0  0  0
 39 42  1  0  0  0  0
 39 43  1  0  0  0  0
 21 25  1  0  0  0  0
 21 26  1  0  0  0  0
 29 34  1  0  0  0  0
  8 13  1  0  0  0  0
 18 24  1  0  0  0  0
 38 40  1  0  0  0  0
  7 12  1  0  0  0  0
 28 33  1  0  0  0  0
 17 23  1  0  0  0  0
 22 27  1  0  0  0  0
M  END
$$$$

  -OEChem-05262214473D

 43 42  0     1  0  0  0  0  0999 V2000
   -2.8661   -4.7415    2.2943 C   0  0  0  0  0  0  0  0  0  0  0  0
   -2.0233   -5.5727    2.6109 O   0  0  0  0  0  0  0  0  0  0  0  0
   -4.3078   -5.0134    2.5698 C   0  0  0  0  0  0  0  0  0  0  0  0
   -4.8057   -5.5295    1.7332 H   0  0  0  0  0  0  0  0  0  0  0  0
   -4.4526   -5.6688    3.4436 H   0  0  0  0  0  0  0  0  0  0  0  0
   -4.9255   -4.1233    2.7700 H   0  0  0  0  0  0  0  0  0  0  0  0
   -2.6241   -3.5219    1.6838 N   0  0  0  0  0  0  0  0  0  0  0  0
   -1.3070   -3.0608    1.3315 C   0  0  2  0  0  0  0  0  0  0  0  0
   -1.3931   -1.5680    1.0422 C   0  0  0  0  0  0  0  0  0  0  0  0
   -2.4385   -1.0059    0.7226 O   0  0  0  0  0  0  0  0  0  0  0  0
   -0.7590   -3.8164    0.1309 C   0  0  0  0  0  0  0  0  0  0  0  0
   -3.4188   -2.9207    1.4735 H   0  0  0  0  0  0  0  0  0  0  0  0
   -0.6690   -3.2277    2.2062 H   0  0  0  0  0  0  0  0  0  0  0  0
   -1.3852   -3.6613   -0.7553 H   0  0  0  0  0  0  0  0  0  0  0  0
    0.2542   -3.4843   -0.1182 H   0  0  0  0  0  0  0  0  0  0  0  0
   -0.7257   -4.8930    0.3300 H   0  0  0  0  0  0  0  0  0  0  0  0
   -0.1563   -0.9420    1.1402 N   0  0  0  0  0  0  0  0  0  0  0  0
    0.0261    0.4671    0.9001 C   0  0  2  0  0  0  0  0  0  0  0  0
    1.5006    0.8150    1.0941 C   0  0  0  0  0  0  0  0  0  0  0  0
    2.2927    0.0745    1.6735 O   0  0  0  0  0  0  0  0  0  0  0  0
   -0.9168    1.3288    1.7436 C   0  0  0  0  0  0  0  0  0  0  0  0
   -2.6789    1.1063    1.3338 S   0  0  0  0  0  0  0  0  0  0  0  0
    0.6533   -1.4855    1.4300 H   0  0  0  0  0  0  0  0  0  0  0  0
   -0.2131    0.6189   -0.1598 H   0  0  0  0  0  0  0  0  0  0  0  0
   -0.7968    1.1011    2.8078 H   0  0  0  0  0  0  0  0  0  0  0  0
   -0.6790    2.3888    1.6036 H   0  0  0  0  0  0  0  0  0  0  0  0
   -3.1386    1.9810    2.2377 H   0  0  0  0  0  0  0  0  0  0  0  0
    1.8205    2.0580    0.5667 N   0  0  0  0  0  0  0  0  0  0  0  0
    3.1515    2.6143    0.6354 C   0  0  2  0  0  0  0  0  0  0  0  0
    3.0924    4.0417    0.1075 C   0  0  0  0  0  0  0  0  0  0  0  0
    2.2056    4.4431   -0.6432 O   0  0  0  0  0  0  0  0  0  0  0  0
    4.1417    1.7802   -0.1624 C   0  0  0  0  0  0  0  0  0  0  0  0
    1.1093    2.5900    0.0738 H   0  0  0  0  0  0  0  0  0  0  0  0
    3.4347    2.6271    1.6935 H   0  0  0  0  0  0  0  0  0  0  0  0
    3.8743    1.7557   -1.2251 H   0  0  0  0  0  0  0  0  0  0  0  0
    5.1554    2.1872   -0.0860 H   0  0  0  0  0  0  0  0  0  0  0  0
    4.1610    0.7465    0.1993 H   0  0  0  0  0  0  0  0  0  0  0  0
    4.1701    4.8026    0.5386 N   0  0  0  0  0  0  0  0  0  0  0  0
    4.3478    6.1858    0.1629 C   0  0  0  0  0  0  0  0  0  0  0  0
    4.8480    4.3934    1.1748 H   0  0  0  0  0  0  0  0  0  0  0  0
    4.9734    6.2436   -0.7400 H   0  0  0  0  0  0  0  0  0  0  0  0
    3.3666    6.6391   -0.0414 H   0  0  0  0  0  0  0  0  0  0  0  0
    4.8386    6.7285    0.9843 H   0  0  0  0  0  0  0  0  0  0  0  0
  1  3  1  0  0  0  0
  1  7  1  0  0  0  0
  1  2  2  0  0  0  0
 29 30  1  0  0  0  0
 30 38  1  0  0  0  0
 30 31  2  0  0  0  0
  8  9  1  0  0  0  0
  9 17  1  0  0  0  0
  9 10  2  0  0  0  0
 18 19  1  0  0  0  0
 19 28  1  0  0  0  0
 19 20  2  0  0  0  0
 29 32  1  0  0  0  0
  8 11  1  0  0  0  0
 38 39  1  0  0  0  0
 18 21  1  0  0  0  0
 21 22  1  0  0  0  0
 28 29  1  0  0  0  0
  7  8  1  0  0  0  0
 17 18  1  0  0  0  0
  3  4  1  0  0  0  0
  3  5  1  0  0  0  0
  3  6  1  0  0  0  0
 32 35  1  0  0  0  0
 32 36  1  0  0  0  0
 32 37  1  0  0  0  0
 11 14  1  0  0  0  0
 11 15  1  0  0  0  0
 11 16  1  0  0  0  0
 39 41  1  0  0  0  0
 39 42  1  0  0  0  0
 39 43  1  0  0  0  0
 21 25  1  0  0  0  0
 21 26  1  0  0  0  0
 29 34  1  0  0  0  0
  8 13  1  0  0  0  0
 18 24  1  0  0  0  0
 38 40  1  0  0  0  0
  7 12  1  0  0  0  0
 28 33  1  0  0  0  0
 17 23  1  0  0  0  0
 22 27  1  0  0  0  0
M  END
$$$$

  -OEChem-05262214473D

 43 42  0     1  0  0  0  0  0999 V2000
   -2.8661   -4.7415    2.2943 C   0  0  0  0  0  0  0  0  0  0  0  0
   -2.0233   -5.5727    2.6109 O   0  0  0  0  0  0  0  0  0  0  0  0
   -4.3078   -5.0134    2.5698 C   0  0  0  0  0  0  0  0  0  0  0  0
   -4.8057   -5.5295    1.7332 H   0  0  0  0  0  0  0  0  0  0  0  0
   -4.4526   -5.6688    3.4436 H   0  0  0  0  0  0  0  0  0  0  0  0
   -4.9255   -4.1233    2.7700 H   0  0  0  0  0  0  0  0  0  0  0  0
   -2.6241   -3.5219    1.6838 N   0  0  0  0  0  0  0  0  0  0  0  0
   -1.3070   -3.0608    1.3315 C   0  0  2  0  0  0  0  0  0  0  0  0
   -1.3931   -1.5680    1.0422 C   0  0  0  0  0  0  0  0  0  0  0  0
   -2.4385   -1.0059    0.7226 O   0  0  0  0  0  0  0  0  0  0  0  0
   -0.7590   -3.8164    0.1309 C   0  0  0  0  0  0  0  0  0  0  0  0
   -3.4188   -2.9207    1.4735 H   0  0  0  0  0  0  0  0  0  0  0  0
   -0.6690   -3.2277    2.2062 H   0  0  0  0  0  0  0  0  0  0  0  0
   -1.3852   -3.6613   -0.7553 H   0  0  0  0  0  0  0  0  0  0  0  0
    0.2542   -3.4843   -0.1182 H   0  0  0  0  0  0  0  0  0  0  0  0
   -0.7257   -4.8930    0.3300 H   0  0  0  0  0  0  0  0  0  0  0  0
   -0.1563   -0.9420    1.1402 N   0  0  0  0  0  0  0  0  0  0  0  0
    0.0261    0.4671    0.9001 C   0  0  2  0  0  0  0  0  0  0  0  0
    1.5166    0.7496    0.7229 C   0  0  0  0  0  0  0  0  0  0  0  0
    2.3781   -0.1235    0.8056 O   0  0  0  0  0  0  0  0  0  0  0  0
   -0.6315    1.3319    1.9784 C   0  0  0  0  0  0  0  0  0  0  0  0
   -2.4485    1.1940    2.0234 S   0  0  0  0  0  0  0  0  0  0  0  0
    0.6533   -1.4855    1.4300 H   0  0  0  0  0  0  0  0  0  0  0  0
   -0.4654    0.6686   -0.0598 H   0  0  0  0  0  0  0  0  0  0  0  0
   -0.2577    1.0591    2.9707 H   0  0  0  0  0  0  0  0  0  0  0  0
   -0.3868    2.3864    1.8116 H   0  0  0  0  0  0  0  0  0  0  0  0
   -2.6233    2.0506    3.0378 H   0  0  0  0  0  0  0  0  0  0  0  0
    1.7718    2.0930    0.4868 N   0  0  0  0  0  0  0  0  0  0  0  0
    3.1065    2.6108    0.2965 C   0  0  2  0  0  0  0  0  0  0  0  0
    3.0163    4.1295    0.2262 C   0  0  0  0  0  0  0  0  0  0  0  0
    1.9857    4.7269   -0.0771 O   0  0  0  0  0  0  0  0  0  0  0  0
    3.7451    2.0454   -0.9626 C   0  0  0  0  0  0  0  0  0  0  0  0
    0.9950    2.7419    0.4009 H   0  0  0  0  0  0  0  0  0  0  0  0
    3.6875    2.3193    1.1783 H   0  0  0  0  0  0  0  0  0  0  0  0
    3.1768    2.3270   -1.8566 H   0  0  0  0  0  0  0  0  0  0  0  0
    4.7673    2.4166   -1.0901 H   0  0  0  0  0  0  0  0  0  0  0  0
    3.7820    0.9513   -0.9232 H   0  0  0  0  0  0  0  0  0  0  0  0
    4.2333    4.7378    0.5000 N   0  0  0  0  0  0  0  0  0  0  0  0
    4.4095    6.1712    0.4841 C   0  0  0  0  0  0  0  0  0  0  0  0
    5.0308    4.1651    0.7606 H   0  0  0  0  0  0  0  0  0  0  0  0
    4.7455    6.4888   -0.5140 H   0  0  0  0  0  0  0  0  0  0  0  0
    3.4535    6.6606    0.7220 H   0  0  0  0  0  0  0  0  0  0  0  0
    5.1635    6.4562    1.2326 H   0  0  0  0  0  0  0  0  0  0  0  0
  1  3  1  0  0  0  0
  1  7  1  0  0  0  0
  1  2  2  0  0  0  0
 29 30  1  0  0  0  0
 30 38  1  0  0  0  0
 30 31  2  0  0  0  0
  8  9  1  0  0  0  0
  9 17  1  0  0  0  0
  9 10  2  0  0  0  0
 18 19  1  0  0  0  0
 19 28  1  0  0  0  0
 19 20  2  0  0  0  0
 29 32  1  0  0  0  0
  8 11  1  0  0  0  0
 38 39  1  0  0  0  0
 18 21  1  0  0  0  0
 21 22  1  0  0  0  0
 28 29  1  0  0  0  0
  7  8  1  0  0  0  0
 17 18  1  0  0  0  0
  3  4  1  0  0  0  0
  3  5  1  0  0  0  0
  3  6  1  0  0  0  0
 32 35  1  0  0  0  0
 32 36  1  0  0  0  0
 32 37  1  0  0  0  0
 11 14  1  0  0  0  0
 11 15  1  0  0  0  0
 11 16  1  0  0  0  0
 39 41  1  0  0  0  0
 39 42  1  0  0  0  0
 39 43  1  0  0  0  0
 21 25  1  0  0  0  0
 21 26  1  0  0  0  0
 29 34  1  0  0  0  0
  8 13  1  0  0  0  0
 18 24  1  0  0  0  0
 38 40  1  0  0  0  0
  7 12  1  0  0  0  0
 28 33  1  0  0  0  0
 17 23  1  0  0  0  0
 22 27  1  0  0  0  0
M  END
$$$$

  -OEChem-05262214473D

 43 42  0     1  0  0  0  0  0999 V2000
   -2.8661   -4.7415    2.2943 C   0  0  0  0  0  0  0  0  0  0  0  0
   -2.0233   -5.5727    2.6109 O   0  0  0  0  0  0  0  0  0  0  0  0
   -4.3078   -5.0134    2.5698 C   0  0  0  0  0  0  0  0  0  0  0  0
   -4.8057   -5.5295    1.7332 H   0  0  0  0  0  0  0  0  0  0  0  0
   -4.4526   -5.6688    3.4436 H   0  0  0  0  0  0  0  0  0  0  0  0
   -4.9255   -4.1233    2.7700 H   0  0  0  0  0  0  0  0  0  0  0  0
   -2.6241   -3.5219    1.6838 N   0  0  0  0  0  0  0  0  0  0  0  0
   -1.3070   -3.0608    1.3315 C   0  0  2  0  0  0  0  0  0  0  0  0
   -1.3931   -1.5680    1.0422 C   0  0  0  0  0  0  0  0  0  0  0  0
   -2.4385   -1.0059    0.7226 O   0  0  0  0  0  0  0  0  0  0  0  0
   -0.7590   -3.8164    0.1309 C   0  0  0  0  0  0  0  0  0  0  0  0
   -3.4188   -2.9207    1.4735 H   0  0  0  0  0  0  0  0  0  0  0  0
   -0.6690   -3.2277    2.2062 H   0  0  0  0  0  0  0  0  0  0  0  0
   -1.3852   -3.6613   -0.7553 H   0  0  0  0  0  0  0  0  0  0  0  0
    0.2542   -3.4843   -0.1182 H   0  0  0  0  0  0  0  0  0  0  0  0
   -0.7257   -4.8930    0.3300 H   0  0  0  0  0  0  0  0  0  0  0  0
   -0.1563   -0.9420    1.1402 N   0  0  0  0  0  0  0  0  0  0  0  0
    0.0261    0.4671    0.9001 C   0  0  2  0  0  0  0  0  0  0  0  0
    1.5166    0.7496    0.7229 C   0  0  0  0  0  0  0  0  0  0  0  0
    2.3488   -0.1363    0.5384 O   0  0  0  0  0  0  0  0  0  0  0  0
   -0.6315    1.3319    1.9784 C   0  0  0  0  0  0  0  0  0  0  0  0
   -2.4485    1.1940    2.0234 S   0  0  0  0  0  0  0  0  0  0  0  0
    0.6533   -1.4855    1.4300 H   0  0  0  0  0  0  0  0  0  0  0  0
   -0.4654    0.6686   -0.0598 H   0  0  0  0  0  0  0  0  0  0  0  0
   -0.2577    1.0591    2.9707 H   0  0  0  0  0  0  0  0  0  0  0  0
   -0.3868    2.3864    1.8116 H   0  0  0  0  0  0  0  0  0  0  0  0
   -2.6233    2.0506    3.0378 H   0  0  0  0  0  0  0  0  0  0  0  0
    1.8096    2.1025    0.8198 N   0  0  0  0  0  0  0  0  0  0  0  0
    3.1525    2.6196    0.6973 C   0  0  2  0  0  0  0  0  0  0  0  0
    3.1143    4.1082    1.0165 C   0  0  0  0  0  0  0  0  0  0  0  0
    2.0936    4.7874    0.9272 O   0  0  0  0  0  0  0  0  0  0  0  0
    3.7142    2.3764   -0.6949 C   0  0  0  0  0  0  0  0  0  0  0  0
    1.0538    2.7704    0.9404 H   0  0  0  0  0  0  0  0  0  0  0  0
    3.7608    2.1004    1.4460 H   0  0  0  0  0  0  0  0  0  0  0  0
    3.1177    2.8888   -1.4585 H   0  0  0  0  0  0  0  0  0  0  0  0
    4.7425    2.7434   -0.7775 H   0  0  0  0  0  0  0  0  0  0  0  0
    3.7132    1.3076   -0.9343 H   0  0  0  0  0  0  0  0  0  0  0  0
    4.3634    4.5981    1.3713 N   0  0  0  0  0  0  0  0  0  0  0  0
    4.5904    5.9842    1.7079 C   0  0  0  0  0  0  0  0  0  0  0  0
    5.1503    3.9593    1.4377 H   0  0  0  0  0  0  0  0  0  0  0  0
    4.8934    6.5362    0.8059 H   0  0  0  0  0  0  0  0  0  0  0  0
    3.6642    6.4201    2.1105 H   0  0  0  0  0  0  0  0  0  0  0  0
    5.3865    6.0522    2.4640 H   0  0  0  0  0  0  0  0  0  0  0  0
  1  3  1  0  0  0  0
  1  7  1  0  0  0  0
  1  2  2  0  0  0  0
 29 30  1  0  0  0  0
 30 38  1  0  0  0  0
 30 31  2  0  0  0  0
  8  9  1  0  0  0  0
  9 17  1  0  0  0  0
  9 10  2  0  0  0  0
 18 19  1  0  0  0  0
 19 28  1  0  0  0  0
 19 20  2  0  0  0  0
 29 32  1  0  0  0  0
  8 11  1  0  0  0  0
 38 39  1  0  0  0  0
 18 21  1  0  0  0  0
 21 22  1  0  0  0  0
 28 29  1  0  0  0  0
  7  8  1  0  0  0  0
 17 18  1  0  0  0  0
  3  4  1  0  0  0  0
  3  5  1  0  0  0  0
  3  6  1  0  0  0  0
 32 35  1  0  0  0  0
 32 36  1  0  0  0  0
 32 37  1  0  0  0  0
 11 14  1  0  0  0  0
 11 15  1  0  0  0  0
 11 16  1  0  0  0  0
 39 41  1  0  0  0  0
 39 42  1  0  0  0  0
 39 43  1  0  0  0  0
 21 25  1  0  0  0  0
 21 26  1  0  0  0  0
 29 34  1  0  0  0  0
  8 13  1  0  0  0  0
 18 24  1  0  0  0  0
 38 40  1  0  0  0  0
  7 12  1  0  0  0  0
 28 33  1  0  0  0  0
 17 23  1  0  0  0  0
 22 27  1  0  0  0  0
M  END
$$$$

  -OEChem-05262214473D

 43 42  0     1  0  0  0  0  0999 V2000
   -2.8661   -4.7415    2.2943 C   0  0  0  0  0  0  0  0  0  0  0  0
   -2.0233   -5.5727    2.6109 O   0  0  0  0  0  0  0  0  0  0  0  0
   -4.3078   -5.0134    2.5698 C   0  0  0  0  0  0  0  0  0  0  0  0
   -4.8057   -5.5295    1.7332 H   0  0  0  0  0  0  0  0  0  0  0  0
   -4.4526   -5.6688    3.4436 H   0  0  0  0  0  0  0  0  0  0  0  0
   -4.9255   -4.1233    2.7700 H   0  0  0  0  0  0  0  0  0  0  0  0
   -2.6241   -3.5219    1.6838 N   0  0  0  0  0  0  0  0  0  0  0  0
   -1.3070   -3.0608    1.3315 C   0  0  2  0  0  0  0  0  0  0  0  0
   -1.3931   -1.5680    1.0422 C   0  0  0  0  0  0  0  0  0  0  0  0
   -2.4385   -1.0059    0.7226 O   0  0  0  0  0  0  0  0  0  0  0  0
   -0.7590   -3.8164    0.1309 C   0  0  0  0  0  0  0  0  0  0  0  0
   -3.4188   -2.9207    1.4735 H   0  0  0  0  0  0  0  0  0  0  0  0
   -0.6690   -3.2277    2.2062 H   0  0  0  0  0  0  0  0  0  0  0  0
   -1.3852   -3.6613   -0.7553 H   0  0  0  0  0  0  0  0  0  0  0  0
    0.2542   -3.4843   -0.1182 H   0  0  0  0  0  0  0  0  0  0  0  0
   -0.7257   -4.8930    0.3300 H   0  0  0  0  0  0  0  0  0  0  0  0
   -0.1563   -0.9420    1.1402 N   0  0  0  0  0  0  0  0  0  0  0  0
    0.0261    0.4671    0.9001 C   0  0  2  0  0  0  0  0  0  0  0  0
    1.5166    0.7496    0.7229 C   0  0  0  0  0  0  0  0  0  0  0  0
    2.3072   -0.0803    0.2784 O   0  0  0  0  0  0  0  0  0  0  0  0
   -0.6315    1.3319    1.9784 C   0  0  0  0  0  0  0  0  0  0  0  0
   -2.4485    1.1940    2.0234 S   0  0  0  0  0  0  0  0  0  0  0  0
    0.6533   -1.4855    1.4300 H   0  0  0  0  0  0  0  0  0  0  0  0
   -0.4654    0.6686   -0.0598 H   0  0  0  0  0  0  0  0  0  0  0  0
   -0.2577    1.0591    2.9707 H   0  0  0  0  0  0  0  0  0  0  0  0
   -0.3868    2.3864    1.8116 H   0  0  0  0  0  0  0  0  0  0  0  0
   -2.6233    2.0506    3.0378 H   0  0  0  0  0  0  0  0  0  0  0  0
    1.8623    2.0265    1.1421 N   0  0  0  0  0  0  0  0  0  0  0  0
    3.2164    2.5254    1.0845 C   0  0  2  0  0  0  0  0  0  0  0  0
    3.2461    3.8852    1.7698 C   0  0  0  0  0  0  0  0  0  0  0  0
    2.2478    4.5890    1.9074 O   0  0  0  0  0  0  0  0  0  0  0  0
    3.7070    2.6295   -0.3512 C   0  0  0  0  0  0  0  0  0  0  0  0
    1.1372    2.6598    1.4659 H   0  0  0  0  0  0  0  0  0  0  0  0
    3.8378    1.8192    1.6458 H   0  0  0  0  0  0  0  0  0  0  0  0
    3.0965    3.3328   -0.9293 H   0  0  0  0  0  0  0  0  0  0  0  0
    4.7434    2.9808   -0.3918 H   0  0  0  0  0  0  0  0  0  0  0  0
    3.6569    1.6565   -0.8517 H   0  0  0  0  0  0  0  0  0  0  0  0
    4.5266    4.2392    2.1715 N   0  0  0  0  0  0  0  0  0  0  0  0
    4.8182    5.4890    2.8340 C   0  0  0  0  0  0  0  0  0  0  0  0
    5.2920    3.5858    2.0340 H   0  0  0  0  0  0  0  0  0  0  0  0
    5.1010    6.2441    2.0858 H   0  0  0  0  0  0  0  0  0  0  0  0
    3.9269    5.8307    3.3808 H   0  0  0  0  0  0  0  0  0  0  0  0
    5.6487    5.3442    3.5406 H   0  0  0  0  0  0  0  0  0  0  0  0
  1  3  1  0  0  0  0
  1  7  1  0  0  0  0
  1  2  2  0  0  0  0
 29 30  1  0  0  0  0
 30 38  1  0  0  0  0
 30 31  2  0  0  0  0
  8  9  1  0  0  0  0
  9 17  1  0  0  0  0
  9 10  2  0  0  0  0
 18 19  1  0  0  0  0
 19 28  1  0  0  0  0
 19 20  2  0  0  0  0
 29 32  1  0  0  0  0
  8 11  1  0  0  0  0
 38 39  1  0  0  0  0
 18 21  1  0  0  0  0
 21 22  1  0  0  0  0
 28 29  1  0  0  0  0
  7  8  1  0  0  0  0
 17 18  1  0  0  0  0
  3  4  1  0  0  0  0
  3  5  1  0  0  0  0
  3  6  1  0  0  0  0
 32 35  1  0  0  0  0
 32 36  1  0  0  0  0
 32 37  1  0  0  0  0
 11 14  1  0  0  0  0
 11 15  1  0  0  0  0
 11 16  1  0  0  0  0
 39 41  1  0  0  0  0
 39 42  1  0  0  0  0
 39 43  1  0  0  0  0
 21 25  1  0  0  0  0
 21 26  1  0  0  0  0
 29 34  1  0  0  0  0
  8 13  1  0  0  0  0
 18 24  1  0  0  0  0
 38 40  1  0  0  0  0
  7 12  1  0  0  0  0
 28 33  1  0  0  0  0
 17 23  1  0  0  0  0
 22 27  1  0  0  0  0
M  END
$$$$

  -OEChem-05262214473D

 43 42  0     1  0  0  0  0  0999 V2000
   -2.8661   -4.7415    2.2943 C   0  0  0  0  0  0  0  0  0  0  0  0
   -2.0233   -5.5727    2.6109 O   0  0  0  0  0  0  0  0  0  0  0  0
   -4.3078   -5.0134    2.5698 C   0  0  0  0  0  0  0  0  0  0  0  0
   -4.8057   -5.5295    1.7332 H   0  0  0  0  0  0  0  0  0  0  0  0
   -4.4526   -5.6688    3.4436 H   0  0  0  0  0  0  0  0  0  0  0  0
   -4.9255   -4.1233    2.7700 H   0  0  0  0  0  0  0  0  0  0  0  0
   -2.6241   -3.5219    1.6838 N   0  0  0  0  0  0  0  0  0  0  0  0
   -1.3070   -3.0608    1.3315 C   0  0  2  0  0  0  0  0  0  0  0  0
   -1.3931   -1.5680    1.0422 C   0  0  0  0  0  0  0  0  0  0  0  0
   -2.4385   -1.0059    0.7226 O   0  0  0  0  0  0  0  0  0  0  0  0
   -0.7590   -3.8164    0.1309 C   0  0  0  0  0  0  0  0  0  0  0  0
   -3.4188   -2.9207    1.4735 H   0  0  0  0  0  0  0  0  0  0  0  0
   -0.6690   -3.2277    2.2062 H   0  0  0  0  0  0  0  0  0  0  0  0
   -1.3852   -3.6613   -0.7553 H   0  0  0  0  0  0  0  0  0  0  0  0
    0.2542   -3.4843   -0.1182 H   0  0  0  0  0  0  0  0  0  0  0  0
   -0.7257   -4.8930    0.3300 H   0  0  0  0  0  0  0  0  0  0  0  0
   -0.1563   -0.9420    1.1402 N   0  0  0  0  0  0  0  0  0  0  0  0
    0.0261    0.4671    0.9001 C   0  0  2  0  0  0  0  0  0  0  0  0
    1.5166    0.7496    0.7229 C   0  0  0  0  0  0  0  0  0  0  0  0
    2.2564    0.0407    0.0435 O   0  0  0  0  0  0  0  0  0  0  0  0
   -0.6315    1.3319    1.9784 C   0  0  0  0  0  0  0  0  0  0  0  0
   -2.4485    1.1940    2.0234 S   0  0  0  0  0  0  0  0  0  0  0  0
    0.6533   -1.4855    1.4300 H   0  0  0  0  0  0  0  0  0  0  0  0
   -0.4654    0.6686   -0.0598 H   0  0  0  0  0  0  0  0  0  0  0  0
   -0.2577    1.0591    2.9707 H   0  0  0  0  0  0  0  0  0  0  0  0
   -0.3868    2.3864    1.8116 H   0  0  0  0  0  0  0  0  0  0  0  0
   -2.6233    2.0506    3.0378 H   0  0  0  0  0  0  0  0  0  0  0  0
    1.9264    1.8700    1.4317 N   0  0  0  0  0  0  0  0  0  0  0  0
    3.2938    2.3348    1.4316 C   0  0  2  0  0  0  0  0  0  0  0  0
    3.4029    3.4755    2.4348 C   0  0  0  0  0  0  0  0  0  0  0  0
    2.4376    4.1452    2.7966 O   0  0  0  0  0  0  0  0  0  0  0  0
    3.7242    2.7874    0.0450 C   0  0  0  0  0  0  0  0  0  0  0  0
    1.2397    2.4178    1.9416 H   0  0  0  0  0  0  0  0  0  0  0  0
    3.9134    1.4948    1.7640 H   0  0  0  0  0  0  0  0  0  0  0  0
    3.1147    3.6285   -0.3049 H   0  0  0  0  0  0  0  0  0  0  0  0
    4.7698    3.1127    0.0406 H   0  0  0  0  0  0  0  0  0  0  0  0
    3.6169    1.9744   -0.6811 H   0  0  0  0  0  0  0  0  0  0  0  0
    4.7117    3.6856    2.8459 N   0  0  0  0  0  0  0  0  0  0  0  0
    5.0772    4.7194    3.7859 C   0  0  0  0  0  0  0  0  0  0  0  0
    5.4462    3.0702    2.5089 H   0  0  0  0  0  0  0  0  0  0  0  0
    5.3540    5.6324    3.2383 H   0  0  0  0  0  0  0  0  0  0  0  0
    4.2239    4.9327    4.4464 H   0  0  0  0  0  0  0  0  0  0  0  0
    5.9323    4.3806    4.3893 H   0  0  0  0  0  0  0  0  0  0  0  0
  1  3  1  0  0  0  0
  1  7  1  0  0  0  0
  1  2  2  0  0  0  0
 29 30  1  0  0  0  0
 30 38  1  0  0  0  0
 30 31  2  0  0  0  0
  8  9  1  0  0  0  0
  9 17  1  0  0  0  0
  9 10  2  0  0  0  0
 18 19  1  0  0  0  0
 19 28  1  0  0  0  0
 19 20  2  0  0  0  0
 29 32  1  0  0  0  0
  8 11  1  0  0  0  0
 38 39  1  0  0  0  0
 18 21  1  0  0  0  0
 21 22  1  0  0  0  0
 28 29  1  0  0  0  0
  7  8  1  0  0  0  0
 17 18  1  0  0  0  0
  3  4  1  0  0  0  0
  3  5  1  0  0  0  0
  3  6  1  0  0  0  0
 32 35  1  0  0  0  0
 32 36  1  0  0  0  0
 32 37  1  0  0  0  0
 11 14  1  0  0  0  0
 11 15  1  0  0  0  0
 11 16  1  0  0  0  0
 39 41  1  0  0  0  0
 39 42  1  0  0  0  0
 39 43  1  0  0  0  0
 21 25  1  0  0  0  0
 21 26  1  0  0  0  0
 29 34  1  0  0  0  0
  8 13  1  0  0  0  0
 18 24  1  0  0  0  0
 38 40  1  0  0  0  0
  7 12  1  0  0  0  0
 28 33  1  0  0  0  0
 17 23  1  0  0  0  0
 22 27  1  0  0  0  0
M  END
$$$$

  -OEChem-05262214473D

 43 42  0     1  0  0  0  0  0999 V2000
   -2.8661   -4.7415    2.2943 C   0  0  0  0  0  0  0  0  0  0  0  0
   -2.0233   -5.5727    2.6109 O   0  0  0  0  0  0  0  0  0  0  0  0
   -4.3078   -5.0134    2.5698 C   0  0  0  0  0  0  0  0  0  0  0  0
   -4.8057   -5.5295    1.7332 H   0  0  0  0  0  0  0  0  0  0  0  0
   -4.4526   -5.6688    3.4436 H   0  0  0  0  0  0  0  0  0  0  0  0
   -4.9255   -4.1233    2.7700 H   0  0  0  0  0  0  0  0  0  0  0  0
   -2.6241   -3.5219    1.6838 N   0  0  0  0  0  0  0  0  0  0  0  0
   -1.3070   -3.0608    1.3315 C   0  0  2  0  0  0  0  0  0  0  0  0
   -1.3931   -1.5680    1.0422 C   0  0  0  0  0  0  0  0  0  0  0  0
   -2.4385   -1.0059    0.7226 O   0  0  0  0  0  0  0  0  0  0  0  0
   -0.7590   -3.8164    0.1309 C   0  0  0  0  0  0  0  0  0  0  0  0
   -3.4188   -2.9207    1.4735 H   0  0  0  0  0  0  0  0  0  0  0  0
   -0.6690   -3.2277    2.2062 H   0  0  0  0  0  0  0  0  0  0  0  0
   -1.3852   -3.6613   -0.7553 H   0  0  0  0  0  0  0  0  0  0  0  0
    0.2542   -3.4843   -0.1182 H   0  0  0  0  0  0  0  0  0  0  0  0
   -0.7257   -4.8930    0.3300 H   0  0  0  0  0  0  0  0  0  0  0  0
   -0.1563   -0.9420    1.1402 N   0  0  0  0  0  0  0  0  0  0  0  0
    0.0261    0.4671    0.9001 C   0  0  2  0  0  0  0  0  0  0  0  0
    1.5166    0.7496    0.7229 C   0  0  0  0  0  0  0  0  0  0  0  0
    2.1996    0.2185   -0.1505 O   0  0  0  0  0  0  0  0  0  0  0  0
   -0.6315    1.3319    1.9784 C   0  0  0  0  0  0  0  0  0  0  0  0
   -2.4485    1.1940    2.0234 S   0  0  0  0  0  0  0  0  0  0  0  0
    0.6533   -1.4855    1.4300 H   0  0  0  0  0  0  0  0  0  0  0  0
   -0.4654    0.6686   -0.0598 H   0  0  0  0  0  0  0  0  0  0  0  0
   -0.2577    1.0591    2.9707 H   0  0  0  0  0  0  0  0  0  0  0  0
   -0.3868    2.3864    1.8116 H   0  0  0  0  0  0  0  0  0  0  0  0
   -2.6233    2.0506    3.0378 H   0  0  0  0  0  0  0  0  0  0  0  0
    1.9975    1.6438    1.6688 N   0  0  0  0  0  0  0  0  0  0  0  0
    3.3795    2.0607    1.7151 C   0  0  2  0  0  0  0  0  0  0  0  0
    3.5738    2.9071    2.9662 C   0  0  0  0  0  0  0  0  0  0  0  0
    2.6503    3.4861    3.5344 O   0  0  0  0  0  0  0  0  0  0  0  0
    3.7645    2.8393    0.4668 C   0  0  0  0  0  0  0  0  0  0  0  0
    1.3541    2.0608    2.3351 H   0  0  0  0  0  0  0  0  0  0  0  0
    3.9823    1.1493    1.7927 H   0  0  0  0  0  0  0  0  0  0  0  0
    3.1710    3.7560    0.3720 H   0  0  0  0  0  0  0  0  0  0  0  0
    4.8200    3.1300    0.4904 H   0  0  0  0  0  0  0  0  0  0  0  0
    3.5960    2.2396   -0.4341 H   0  0  0  0  0  0  0  0  0  0  0  0
    4.9062    2.9749    3.3486 N   0  0  0  0  0  0  0  0  0  0  0  0
    5.3499    3.7279    4.4985 C   0  0  0  0  0  0  0  0  0  0  0  0
    5.6024    2.4476    2.8300 H   0  0  0  0  0  0  0  0  0  0  0  0
    5.6351    4.7429    4.1849 H   0  0  0  0  0  0  0  0  0  0  0  0
    4.5347    3.7872    5.2346 H   0  0  0  0  0  0  0  0  0  0  0  0
    6.2178    3.2269    4.9520 H   0  0  0  0  0  0  0  0  0  0  0  0
  1  3  1  0  0  0  0
  1  7  1  0  0  0  0
  1  2  2  0  0  0  0
 29 30  1  0  0  0  0
 30 38  1  0  0  0  0
 30 31  2  0  0  0  0
  8  9  1  0  0  0  0
  9 17  1  0  0  0  0
  9 10  2  0  0  0  0
 18 19  1  0  0  0  0
 19 28  1  0  0  0  0
 19 20  2  0  0  0  0
 29 32  1  0  0  0  0
  8 11  1  0  0  0  0
 38 39  1  0  0  0  0
 18 21  1  0  0  0  0
 21 22  1  0  0  0  0
 28 29  1  0  0  0  0
  7  8  1  0  0  0  0
 17 18  1  0  0  0  0
  3  4  1  0  0  0  0
  3  5  1  0  0  0  0
  3  6  1  0  0  0  0
 32 35  1  0  0  0  0
 32 36  1  0  0  0  0
 32 37  1  0  0  0  0
 11 14  1  0  0  0  0
 11 15  1  0  0  0  0
 11 16  1  0  0  0  0
 39 41  1  0  0  0  0
 39 42  1  0  0  0  0
 39 43  1  0  0  0  0
 21 25  1  0  0  0  0
 21 26  1  0  0  0  0
 29 34  1  0  0  0  0
  8 13  1  0  0  0  0
 18 24  1  0  0  0  0
 38 40  1  0  0  0  0
  7 12  1  0  0  0  0
 28 33  1  0  0  0  0
 17 23  1  0  0  0  0
 22 27  1  0  0  0  0
M  END
$$$$

  -OEChem-05262214473D

 43 42  0     1  0  0  0  0  0999 V2000
   -2.8661   -4.7415    2.2943 C   0  0  0  0  0  0  0  0  0  0  0  0
   -2.0233   -5.5727    2.6109 O   0  0  0  0  0  0  0  0  0  0  0  0
   -4.3078   -5.0134    2.5698 C   0  0  0  0  0  0  0  0  0  0  0  0
   -4.8057   -5.5295    1.7332 H   0  0  0  0  0  0  0  0  0  0  0  0
   -4.4526   -5.6688    3.4436 H   0  0  0  0  0  0  0  0  0  0  0  0
   -4.9255   -4.1233    2.7700 H   0  0  0  0  0  0  0  0  0  0  0  0
   -2.6241   -3.5219    1.6838 N   0  0  0  0  0  0  0  0  0  0  0  0
   -1.3070   -3.0608    1.3315 C   0  0  2  0  0  0  0  0  0  0  0  0
   -1.3931   -1.5680    1.0422 C   0  0  0  0  0  0  0  0  0  0  0  0
   -2.4385   -1.0059    0.7226 O   0  0  0  0  0  0  0  0  0  0  0  0
   -0.7590   -3.8164    0.1309 C   0  0  0  0  0  0  0  0  0  0  0  0
   -3.4188   -2.9207    1.4735 H   0  0  0  0  0  0  0  0  0  0  0  0
   -0.6690   -3.2277    2.2062 H   0  0  0  0  0  0  0  0  0  0  0  0
   -1.3852   -3.6613   -0.7553 H   0  0  0  0  0  0  0  0  0  0  0  0
    0.2542   -3.4843   -0.1182 H   0  0  0  0  0  0  0  0  0  0  0  0
   -0.7257   -4.8930    0.3300 H   0  0  0  0  0  0  0  0  0  0  0  0
   -0.1563   -0.9420    1.1402 N   0  0  0  0  0  0  0  0  0  0  0  0
    0.0261    0.4671    0.9001 C   0  0  2  0  0  0  0  0  0  0  0  0
    1.5166    0.7496    0.7229 C   0  0  0  0  0  0  0  0  0  0  0  0
    2.1408    0.4409   -0.2902 O   0  0  0  0  0  0  0  0  0  0  0  0
   -0.6315    1.3319    1.9784 C   0  0  0  0  0  0  0  0  0  0  0  0
   -2.4485    1.1940    2.0234 S   0  0  0  0  0  0  0  0  0  0  0  0
    0.6533   -1.4855    1.4300 H   0  0  0  0  0  0  0  0  0  0  0  0
   -0.4654    0.6686   -0.0598 H   0  0  0  0  0  0  0  0  0  0  0  0
   -0.2577    1.0591    2.9707 H   0  0  0  0  0  0  0  0  0  0  0  0
   -0.3868    2.3864    1.8116 H   0  0  0  0  0  0  0  0  0  0  0  0
   -2.6233    2.0506    3.0378 H   0  0  0  0  0  0  0  0  0  0  0  0
    2.0707    1.3633    1.8374 N   0  0  0  0  0  0  0  0  0  0  0  0
    3.4675    1.7217    1.9155 C   0  0  2  0  0  0  0  0  0  0  0  0
    3.7472    2.2187    3.3277 C   0  0  0  0  0  0  0  0  0  0  0  0
    2.8712    2.6568    4.0704 O   0  0  0  0  0  0  0  0  0  0  0  0
    3.8252    2.7818    0.8854 C   0  0  0  0  0  0  0  0  0  0  0  0
    1.4728    1.6132    2.6195 H   0  0  0  0  0  0  0  0  0  0  0  0
    4.0398    0.8063    1.7298 H   0  0  0  0  0  0  0  0  0  0  0  0
    3.2616    3.7064    1.0553 H   0  0  0  0  0  0  0  0  0  0  0  0
    4.8905    3.0317    0.9268 H   0  0  0  0  0  0  0  0  0  0  0  0
    3.5956    2.4340   -0.1276 H   0  0  0  0  0  0  0  0  0  0  0  0
    5.0968    2.1556    3.6454 N   0  0  0  0  0  0  0  0  0  0  0  0
    5.6176    2.5820    4.9233 C   0  0  0  0  0  0  0  0  0  0  0  0
    5.7499    1.7604    2.9754 H   0  0  0  0  0  0  0  0  0  0  0  0
    5.9253    3.6362    4.8611 H   0  0  0  0  0  0  0  0  0  0  0  0
    4.8383    2.4723    5.6918 H   0  0  0  0  0  0  0  0  0  0  0  0
    6.4860    1.9619    5.1905 H   0  0  0  0  0  0  0  0  0  0  0  0
  1  3  1  0  0  0  0
  1  7  1  0  0  0  0
  1  2  2  0  0  0  0
 29 30  1  0  0  0  0
 30 38  1  0  0  0  0
 30 31  2  0  0  0  0
  8  9  1  0  0  0  0
  9 17  1  0  0  0  0
  9 10  2  0  0  0  0
 18 19  1  0  0  0  0
 19 28  1  0  0  0  0
 19 20  2  0  0  0  0
 29 32  1  0  0  0  0
  8 11  1  0  0  0  0
 38 39  1  0  0  0  0
 18 21  1  0  0  0  0
 21 22  1  0  0  0  0
 28 29  1  0  0  0  0
  7  8  1  0  0  0  0
 17 18  1  0  0  0  0
  3  4  1  0  0  0  0
  3  5  1  0  0  0  0
  3  6  1  0  0  0  0
 32 35  1  0  0  0  0
 32 36  1  0  0  0  0
 32 37  1  0  0  0  0
 11 14  1  0  0  0  0
 11 15  1  0  0  0  0
 11 16  1  0  0  0  0
 39 41  1  0  0  0  0
 39 42  1  0  0  0  0
 39 43  1  0  0  0  0
 21 25  1  0  0  0  0
 21 26  1  0  0  0  0
 29 34  1  0  0  0  0
  8 13  1  0  0  0  0
 18 24  1  0  0  0  0
 38 40  1  0  0  0  0
  7 12  1  0  0  0  0
 28 33  1  0  0  0  0
 17 23  1  0  0  0  0
 22 27  1  0  0  0  0
M  END
$$$$

  -OEChem-05262214473D

 43 42  0     1  0  0  0  0  0999 V2000
   -2.8661   -4.7415    2.2943 C   0  0  0  0  0  0  0  0  0  0  0  0
   -2.0233   -5.5727    2.6109 O   0  0  0  0  0  0  0  0  0  0  0  0
   -4.3078   -5.0134    2.5698 C   0  0  0  0  0  0  0  0  0  0  0  0
   -4.8057   -5.5295    1.7332 H   0  0  0  0  0  0  0  0  0  0  0  0
   -4.4526   -5.6688    3.4436 H   0  0  0  0  0  0  0  0  0  0  0  0
   -4.9255   -4.1233    2.7700 H   0  0  0  0  0  0  0  0  0  0  0  0
   -2.6241   -3.5219    1.6838 N   0  0  0  0  0  0  0  0  0  0  0  0
   -1.3070   -3.0608    1.3315 C   0  0  2  0  0  0  0  0  0  0  0  0
   -1.3931   -1.5680    1.0422 C   0  0  0  0  0  0  0  0  0  0  0  0
   -2.4385   -1.0059    0.7226 O   0  0  0  0  0  0  0  0  0  0  0  0
   -0.7590   -3.8164    0.1309 C   0  0  0  0  0  0  0  0  0  0  0  0
   -3.4188   -2.9207    1.4735 H   0  0  0  0  0  0  0  0  0  0  0  0
   -0.6690   -3.2277    2.2062 H   0  0  0  0  0  0  0  0  0  0  0  0
   -1.3852   -3.6613   -0.7553 H   0  0  0  0  0  0  0  0  0  0  0  0
    0.2542   -3.4843   -0.1182 H   0  0  0  0  0  0  0  0  0  0  0  0
   -0.7257   -4.8930    0.3300 H   0  0  0  0  0  0  0  0  0  0  0  0
   -0.1563   -0.9420    1.1402 N   0  0  0  0  0  0  0  0  0  0  0  0
    0.0261    0.4671    0.9001 C   0  0  2  0  0  0  0  0  0  0  0  0
    1.5166    0.7496    0.7229 C   0  0  0  0  0  0  0  0  0  0  0  0
    2.0841    0.6928   -0.3662 O   0  0  0  0  0  0  0  0  0  0  0  0
   -0.6315    1.3319    1.9784 C   0  0  0  0  0  0  0  0  0  0  0  0
   -2.4485    1.1940    2.0234 S   0  0  0  0  0  0  0  0  0  0  0  0
    0.6533   -1.4855    1.4300 H   0  0  0  0  0  0  0  0  0  0  0  0
   -0.4654    0.6686   -0.0598 H   0  0  0  0  0  0  0  0  0  0  0  0
   -0.2577    1.0591    2.9707 H   0  0  0  0  0  0  0  0  0  0  0  0
   -0.3868    2.3864    1.8116 H   0  0  0  0  0  0  0  0  0  0  0  0
   -2.6233    2.0506    3.0378 H   0  0  0  0  0  0  0  0  0  0  0  0
    2.1410    1.0475    1.9258 N   0  0  0  0  0  0  0  0  0  0  0  0
    3.5520    1.3410    2.0193 C   0  0  2  0  0  0  0  0  0  0  0  0
    3.9114    1.4573    3.4947 C   0  0  0  0  0  0  0  0  0  0  0  0
    3.0853    1.7138    4.3681 O   0  0  0  0  0  0  0  0  0  0  0  0
    3.9022    2.6186    1.2723 C   0  0  0  0  0  0  0  0  0  0  0  0
    1.5876    1.1054    2.7755 H   0  0  0  0  0  0  0  0  0  0  0  0
    4.0821    0.4891    1.5797 H   0  0  0  0  0  0  0  0  0  0  0  0
    3.3804    3.4832    1.6985 H   0  0  0  0  0  0  0  0  0  0  0  0
    4.9766    2.8244    1.3201 H   0  0  0  0  0  0  0  0  0  0  0  0
    3.6158    2.5443    0.2177 H   0  0  0  0  0  0  0  0  0  0  0  0
    5.2705    1.2835    3.7161 N   0  0  0  0  0  0  0  0  0  0  0  0
    5.8621    1.3597    5.0314 C   0  0  0  0  0  0  0  0  0  0  0  0
    5.8788    1.0555    2.9352 H   0  0  0  0  0  0  0  0  0  0  0  0
    6.2047    2.3877    5.2209 H   0  0  0  0  0  0  0  0  0  0  0  0
    5.1139    1.0776    5.7868 H   0  0  0  0  0  0  0  0  0  0  0  0
    6.7184    0.6716    5.0886 H   0  0  0  0  0  0  0  0  0  0  0  0
  1  3  1  0  0  0  0
  1  7  1  0  0  0  0
  1  2  2  0  0  0  0
 29 30  1  0  0  0  0
 30 38  1  0  0  0  0
 30 31  2  0  0  0  0
  8  9  1  0  0  0  0
  9 17  1  0  0  0  0
  9 10  2  0  0  0  0
 18 19  1  0  0  0  0
 19 28  1  0  0  0  0
 19 20  2  0  0  0  0
 29 32  1  0  0  0  0
  8 11  1  0  0  0  0
 38 39  1  0  0  0  0
 18 21  1  0  0  0  0
 21 22  1  0  0  0  0
 28 29  1  0  0  0  0
  7  8  1  0  0  0  0
 17 18  1  0  0  0  0
  3  4  1  0  0  0  0
  3  5  1  0  0  0  0
  3  6  1  0  0  0  0
 32 35  1  0  0  0  0
 32 36  1  0  0  0  0
 32 37  1  0  0  0  0
 11 14  1  0  0  0  0
 11 15  1  0  0  0  0
 11 16  1  0  0  0  0
 39 41  1  0  0  0  0
 39 42  1  0  0  0  0
 39 43  1  0  0  0  0
 21 25  1  0  0  0  0
 21 26  1  0  0  0  0
 29 34  1  0  0  0  0
  8 13  1  0  0  0  0
 18 24  1  0  0  0  0
 38 40  1  0  0  0  0
  7 12  1  0  0  0  0
 28 33  1  0  0  0  0
 17 23  1  0  0  0  0
 22 27  1  0  0  0  0
M  END
$$$$

  -OEChem-05262214473D

 43 42  0     1  0  0  0  0  0999 V2000
   -2.8661   -4.7415    2.2943 C   0  0  0  0  0  0  0  0  0  0  0  0
   -2.0233   -5.5727    2.6109 O   0  0  0  0  0  0  0  0  0  0  0  0
   -4.3078   -5.0134    2.5698 C   0  0  0  0  0  0  0  0  0  0  0  0
   -4.8057   -5.5295    1.7332 H   0  0  0  0  0  0  0  0  0  0  0  0
   -4.4526   -5.6688    3.4436 H   0  0  0  0  0  0  0  0  0  0  0  0
   -4.9255   -4.1233    2.7700 H   0  0  0  0  0  0  0  0  0  0  0  0
   -2.6241   -3.5219    1.6838 N   0  0  0  0  0  0  0  0  0  0  0  0
   -1.3070   -3.0608    1.3315 C   0  0  2  0  0  0  0  0  0  0  0  0
   -1.3931   -1.5680    1.0422 C   0  0  0  0  0  0  0  0  0  0  0  0
   -2.4385   -1.0059    0.7226 O   0  0  0  0  0  0  0  0  0  0  0  0
   -0.7590   -3.8164    0.1309 C   0  0  0  0  0  0  0  0  0  0  0  0
   -3.4188   -2.9207    1.4735 H   0  0  0  0  0  0  0  0  0  0  0  0
   -0.6690   -3.2277    2.2062 H   0  0  0  0  0  0  0  0  0  0  0  0
   -1.3852   -3.6613   -0.7553 H   0  0  0  0  0  0  0  0  0  0  0  0
    0.2542   -3.4843   -0.1182 H   0  0  0  0  0  0  0  0  0  0  0  0
   -0.7257   -4.8930    0.3300 H   0  0  0  0  0  0  0  0  0  0  0  0
   -0.1563   -0.9420    1.1402 N   0  0  0  0  0  0  0  0  0  0  0  0
    0.0261    0.4671    0.9001 C   0  0  2  0  0  0  0  0  0  0  0  0
    1.5166    0.7496    0.7229 C   0  0  0  0  0  0  0  0  0  0  0  0
    2.0331    0.9570   -0.3733 O   0  0  0  0  0  0  0  0  0  0  0  0
   -0.6315    1.3319    1.9784 C   0  0  0  0  0  0  0  0  0  0  0  0
   -2.4485    1.1940    2.0234 S   0  0  0  0  0  0  0  0  0  0  0  0
    0.6533   -1.4855    1.4300 H   0  0  0  0  0  0  0  0  0  0  0  0
   -0.4654    0.6686   -0.0598 H   0  0  0  0  0  0  0  0  0  0  0  0
   -0.2577    1.0591    2.9707 H   0  0  0  0  0  0  0  0  0  0  0  0
   -0.3868    2.3864    1.8116 H   0  0  0  0  0  0  0  0  0  0  0  0
   -2.6233    2.0506    3.0378 H   0  0  0  0  0  0  0  0  0  0  0  0
    2.2037    0.7181    1.9281 N   0  0  0  0  0  0  0  0  0  0  0  0
    3.6272    0.9446    2.0194 C   0  0  2  0  0  0  0  0  0  0  0  0
    4.0551    0.6747    3.4559 C   0  0  0  0  0  0  0  0  0  0  0  0
    3.2781    0.7212    4.4073 O   0  0  0  0  0  0  0  0  0  0  0  0
    3.9901    2.3609    1.6011 C   0  0  0  0  0  0  0  0  0  0  0  0
    1.6907    0.5720    2.7924 H   0  0  0  0  0  0  0  0  0  0  0  0
    4.1062    0.2194    1.3526 H   0  0  0  0  0  0  0  0  0  0  0  0
    3.5192    3.1016    2.2577 H   0  0  0  0  0  0  0  0  0  0  0  0
    5.0723    2.5222    1.6436 H   0  0  0  0  0  0  0  0  0  0  0  0
    3.6551    2.5631    0.5780 H   0  0  0  0  0  0  0  0  0  0  0  0
    5.4154    0.4181    3.5557 N   0  0  0  0  0  0  0  0  0  0  0  0
    6.0668    0.1445    4.8154 C   0  0  0  0  0  0  0  0  0  0  0  0
    5.9801    0.3808    2.7122 H   0  0  0  0  0  0  0  0  0  0  0  0
    6.4543    1.0825    5.2397 H   0  0  0  0  0  0  0  0  0  0  0  0
    5.3428   -0.3018    5.5131 H   0  0  0  0  0  0  0  0  0  0  0  0
    6.8993   -0.5559    4.6531 H   0  0  0  0  0  0  0  0  0  0  0  0
  1  3  1  0  0  0  0
  1  7  1  0  0  0  0
  1  2  2  0  0  0  0
 29 30  1  0  0  0  0
 30 38  1  0  0  0  0
 30 31  2  0  0  0  0
  8  9  1  0  0  0  0
  9 17  1  0  0  0  0
  9 10  2  0  0  0  0
 18 19  1  0  0  0  0
 19 28  1  0  0  0  0
 19 20  2  0  0  0  0
 29 32  1  0  0  0  0
  8 11  1  0  0  0  0
 38 39  1  0  0  0  0
 18 21  1  0  0  0  0
 21 22  1  0  0  0  0
 28 29  1  0  0  0  0
  7  8  1  0  0  0  0
 17 18  1  0  0  0  0
  3  4  1  0  0  0  0
  3  5  1  0  0  0  0
  3  6  1  0  0  0  0
 32 35  1  0  0  0  0
 32 36  1  0  0  0  0
 32 37  1  0  0  0  0
 11 14  1  0  0  0  0
 11 15  1  0  0  0  0
 11 16  1  0  0  0  0
 39 41  1  0  0  0  0
 39 42  1  0  0  0  0
 39 43  1  0  0  0  0
 21 25  1  0  0  0  0
 21 26  1  0  0  0  0
 29 34  1  0  0  0  0
  8 13  1  0  0  0  0
 18 24  1  0  0  0  0
 38 40  1  0  0  0  0
  7 12  1  0  0  0  0
 28 33  1  0  0  0  0
 17 23  1  0  0  0  0
 22 27  1  0  0  0  0
M  END
$$$$

  -OEChem-05262214473D

 43 42  0     1  0  0  0  0  0999 V2000
   -2.8661   -4.7415    2.2943 C   0  0  0  0  0  0  0  0  0  0  0  0
   -2.0233   -5.5727    2.6109 O   0  0  0  0  0  0  0  0  0  0  0  0
   -4.3078   -5.0134    2.5698 C   0  0  0  0  0  0  0  0  0  0  0  0
   -4.8057   -5.5295    1.7332 H   0  0  0  0  0  0  0  0  0  0  0  0
   -4.4526   -5.6688    3.4436 H   0  0  0  0  0  0  0  0  0  0  0  0
   -4.9255   -4.1233    2.7700 H   0  0  0  0  0  0  0  0  0  0  0  0
   -2.6241   -3.5219    1.6838 N   0  0  0  0  0  0  0  0  0  0  0  0
   -1.3070   -3.0608    1.3315 C   0  0  2  0  0  0  0  0  0  0  0  0
   -1.3931   -1.5680    1.0422 C   0  0  0  0  0  0  0  0  0  0  0  0
   -2.4385   -1.0059    0.7226 O   0  0  0  0  0  0  0  0  0  0  0  0
   -0.7590   -3.8164    0.1309 C   0  0  0  0  0  0  0  0  0  0  0  0
   -3.4188   -2.9207    1.4735 H   0  0  0  0  0  0  0  0  0  0  0  0
   -0.6690   -3.2277    2.2062 H   0  0  0  0  0  0  0  0  0  0  0  0
   -1.3852   -3.6613   -0.7553 H   0  0  0  0  0  0  0  0  0  0  0  0
    0.2542   -3.4843   -0.1182 H   0  0  0  0  0  0  0  0  0  0  0  0
   -0.7257   -4.8930    0.3300 H   0  0  0  0  0  0  0  0  0  0  0  0
   -0.1563   -0.9420    1.1402 N   0  0  0  0  0  0  0  0  0  0  0  0
    0.0261    0.4671    0.9001 C   0  0  2  0  0  0  0  0  0  0  0  0
    1.5166    0.7496    0.7229 C   0  0  0  0  0  0  0  0  0  0  0  0
    1.9916    1.2155   -0.3109 O   0  0  0  0  0  0  0  0  0  0  0  0
   -0.6315    1.3319    1.9784 C   0  0  0  0  0  0  0  0  0  0  0  0
   -2.4485    1.1940    2.0234 S   0  0  0  0  0  0  0  0  0  0  0  0
    0.6533   -1.4855    1.4300 H   0  0  0  0  0  0  0  0  0  0  0  0
   -0.4654    0.6686   -0.0598 H   0  0  0  0  0  0  0  0  0  0  0  0
   -0.2577    1.0591    2.9707 H   0  0  0  0  0  0  0  0  0  0  0  0
   -0.3868    2.3864    1.8116 H   0  0  0  0  0  0  0  0  0  0  0  0
   -2.6233    2.0506    3.0378 H   0  0  0  0  0  0  0  0  0  0  0  0
    2.2545    0.3975    1.8441 N   0  0  0  0  0  0  0  0  0  0  0  0
    3.6879    0.5594    1.9157 C   0  0  2  0  0  0  0  0  0  0  0  0
    4.1686   -0.0758    3.2138 C   0  0  0  0  0  0  0  0  0  0  0  0
    3.4364   -0.2532    4.1851 O   0  0  0  0  0  0  0  0  0  0  0  0
    4.0830    2.0264    1.8494 C   0  0  0  0  0  0  0  0  0  0  0  0
    1.7751    0.0495    2.6691 H   0  0  0  0  0  0  0  0  0  0  0  0
    4.1105    0.0155    1.0639 H   0  0  0  0  0  0  0  0  0  0  0  0
    3.6687    2.5876    2.6949 H   0  0  0  0  0  0  0  0  0  0  0  0
    5.1712    2.1457    1.8751 H   0  0  0  0  0  0  0  0  0  0  0  0
    3.7108    2.4891    0.9290 H   0  0  0  0  0  0  0  0  0  0  0  0
    5.5218   -0.3817    3.1753 N   0  0  0  0  0  0  0  0  0  0  0  0
    6.2176   -0.9809    4.2901 C   0  0  0  0  0  0  0  0  0  0  0  0
    6.0471   -0.2176    2.3216 H   0  0  0  0  0  0  0  0  0  0  0  0
    6.6572   -0.1906    4.9163 H   0  0  0  0  0  0  0  0  0  0  0  0
    5.5094   -1.5720    4.8893 H   0  0  0  0  0  0  0  0  0  0  0  0
    7.0163   -1.6370    3.9137 H   0  0  0  0  0  0  0  0  0  0  0  0
  1  3  1  0  0  0  0
  1  7  1  0  0  0  0
  1  2  2  0  0  0  0
 29 30  1  0  0  0  0
 30 38  1  0  0  0  0
 30 31  2  0  0  0  0
  8  9  1  0  0  0  0
  9 17  1  0  0  0  0
  9 10  2  0  0  0  0
 18 19  1  0  0  0  0
 19 28  1  0  0  0  0
 19 20  2  0  0  0  0
 29 32  1  0  0  0  0
  8 11  1  0  0  0  0
 38 39  1  0  0  0  0
 18 21  1  0  0  0  0
 21 22  1  0  0  0  0
 28 29  1  0  0  0  0
  7  8  1  0  0  0  0
 17 18  1  0  0  0  0
  3  4  1  0  0  0  0
  3  5  1  0  0  0  0
  3  6  1  0  0  0  0
 32 35  1  0  0  0  0
 32 36  1  0  0  0  0
 32 37  1  0  0  0  0
 11 14  1  0  0  0  0
 11 15  1  0  0  0  0
 11 16  1  0  0  0  0
 39 41  1  0  0  0  0
 39 42  1  0  0  0  0
 39 43  1  0  0  0  0
 21 25  1  0  0  0  0
 21 26  1  0  0  0  0
 29 34  1  0  0  0  0
  8 13  1  0  0  0  0
 18 24  1  0  0  0  0
 38 40  1  0  0  0  0
  7 12  1  0  0  0  0
 28 33  1  0  0  0  0
 17 23  1  0  0  0  0
 22 27  1  0  0  0  0
M  END
$$$$

  -OEChem-05262214473D

 43 42  0     1  0  0  0  0  0999 V2000
   -2.8661   -4.7415    2.2943 C   0  0  0  0  0  0  0  0  0  0  0  0
   -2.0233   -5.5727    2.6109 O   0  0  0  0  0  0  0  0  0  0  0  0
   -4.3078   -5.0134    2.5698 C   0  0  0  0  0  0  0  0  0  0  0  0
   -4.8057   -5.5295    1.7332 H   0  0  0  0  0  0  0  0  0  0  0  0
   -4.4526   -5.6688    3.4436 H   0  0  0  0  0  0  0  0  0  0  0  0
   -4.9255   -4.1233    2.7700 H   0  0  0  0  0  0  0  0  0  0  0  0
   -2.6241   -3.5219    1.6838 N   0  0  0  0  0  0  0  0  0  0  0  0
   -1.3070   -3.0608    1.3315 C   0  0  2  0  0  0  0  0  0  0  0  0
   -1.3931   -1.5680    1.0422 C   0  0  0  0  0  0  0  0  0  0  0  0
   -2.4385   -1.0059    0.7226 O   0  0  0  0  0  0  0  0  0  0  0  0
   -0.7590   -3.8164    0.1309 C   0  0  0  0  0  0  0  0  0  0  0  0
   -3.4188   -2.9207    1.4735 H   0  0  0  0  0  0  0  0  0  0  0  0
   -0.6690   -3.2277    2.2062 H   0  0  0  0  0  0  0  0  0  0  0  0
   -1.3852   -3.6613   -0.7553 H   0  0  0  0  0  0  0  0  0  0  0  0
    0.2542   -3.4843   -0.1182 H   0  0  0  0  0  0  0  0  0  0  0  0
   -0.7257   -4.8930    0.3300 H   0  0  0  0  0  0  0  0  0  0  0  0
   -0.1563   -0.9420    1.1402 N   0  0  0  0  0  0  0  0  0  0  0  0
    0.0261    0.4671    0.9001 C   0  0  2  0  0  0  0  0  0  0  0  0
    1.5166    0.7496    0.7229 C   0  0  0  0  0  0  0  0  0  0  0  0
    1.9621    1.4507   -0.1834 O   0  0  0  0  0  0  0  0  0  0  0  0
   -0.6315    1.3319    1.9784 C   0  0  0  0  0  0  0  0  0  0  0  0
   -2.4485    1.1940    2.0234 S   0  0  0  0  0  0  0  0  0  0  0  0
    0.6533   -1.4855    1.4300 H   0  0  0  0  0  0  0  0  0  0  0  0
   -0.4654    0.6686   -0.0598 H   0  0  0  0  0  0  0  0  0  0  0  0
   -0.2577    1.0591    2.9707 H   0  0  0  0  0  0  0  0  0  0  0  0
   -0.3868    2.3864    1.8116 H   0  0  0  0  0  0  0  0  0  0  0  0
   -2.6233    2.0506    3.0378 H   0  0  0  0  0  0  0  0  0  0  0  0
    2.2899    0.1074    1.6795 N   0  0  0  0  0  0  0  0  0  0  0  0
    3.7300    0.2116    1.7154 C   0  0  2  0  0  0  0  0  0  0  0  0
    4.2440   -0.7429    2.7850 C   0  0  0  0  0  0  0  0  0  0  0  0
    3.5494   -1.1430    3.7169 O   0  0  0  0  0  0  0  0  0  0  0  0
    4.1746    1.6377    2.0003 C   0  0  0  0  0  0  0  0  0  0  0  0
    1.8350   -0.4266    2.4140 H   0  0  0  0  0  0  0  0  0  0  0  0
    4.0948   -0.1087    0.7334 H   0  0  0  0  0  0  0  0  0  0  0  0
    3.8185    1.9762    2.9801 H   0  0  0  0  0  0  0  0  0  0  0  0
    5.2665    1.7206    1.9989 H   0  0  0  0  0  0  0  0  0  0  0  0
    3.7793    2.3272    1.2466 H   0  0  0  0  0  0  0  0  0  0  0  0
    5.5823   -1.0613    2.6008 N   0  0  0  0  0  0  0  0  0  0  0  0
    6.3044   -1.9398    3.4911 C   0  0  0  0  0  0  0  0  0  0  0  0
    6.0751   -0.6989    1.7899 H   0  0  0  0  0  0  0  0  0  0  0  0
    6.7994   -1.3446    4.2726 H   0  0  0  0  0  0  0  0  0  0  0  0
    5.6023   -2.6463    3.9580 H   0  0  0  0  0  0  0  0  0  0  0  0
    7.0614   -2.4981    2.9209 H   0  0  0  0  0  0  0  0  0  0  0  0
  1  3  1  0  0  0  0
  1  7  1  0  0  0  0
  1  2  2  0  0  0  0
 29 30  1  0  0  0  0
 30 38  1  0  0  0  0
 30 31  2  0  0  0  0
  8  9  1  0  0  0  0
  9 17  1  0  0  0  0
  9 10  2  0  0  0  0
 18 19  1  0  0  0  0
 19 28  1  0  0  0  0
 19 20  2  0  0  0  0
 29 32  1  0  0  0  0
  8 11  1  0  0  0  0
 38 39  1  0  0  0  0
 18 21  1  0  0  0  0
 21 22  1  0  0  0  0
 28 29  1  0  0  0  0
  7  8  1  0  0  0  0
 17 18  1  0  0  0  0
  3  4  1  0  0  0  0
  3  5  1  0  0  0  0
  3  6  1  0  0  0  0
 32 35  1  0  0  0  0
 32 36  1  0  0  0  0
 32 37  1  0  0  0  0
 11 14  1  0  0  0  0
 11 15  1  0  0  0  0
 11 16  1  0  0  0  0
 39 41  1  0  0  0  0
 39 42  1  0  0  0  0
 39 43  1  0  0  0  0
 21 25  1  0  0  0  0
 21 26  1  0  0  0  0
 29 34  1  0  0  0  0
  8 13  1  0  0  0  0
 18 24  1  0  0  0  0
 38 40  1  0  0  0  0
  7 12  1  0  0  0  0
 28 33  1  0  0  0  0
 17 23  1  0  0  0  0
 22 27  1  0  0  0  0
M  END
$$$$

  -OEChem-05262214473D

 43 42  0     1  0  0  0  0  0999 V2000
   -2.8661   -4.7415    2.2943 C   0  0  0  0  0  0  0  0  0  0  0  0
   -2.0233   -5.5727    2.6109 O   0  0  0  0  0  0  0  0  0  0  0  0
   -4.3078   -5.0134    2.5698 C   0  0  0  0  0  0  0  0  0  0  0  0
   -4.8057   -5.5295    1.7332 H   0  0  0  0  0  0  0  0  0  0  0  0
   -4.4526   -5.6688    3.4436 H   0  0  0  0  0  0  0  0  0  0  0  0
   -4.9255   -4.1233    2.7700 H   0  0  0  0  0  0  0  0  0  0  0  0
   -2.6241   -3.5219    1.6838 N   0  0  0  0  0  0  0  0  0  0  0  0
   -1.3070   -3.0608    1.3315 C   0  0  2  0  0  0  0  0  0  0  0  0
   -1.3931   -1.5680    1.0422 C   0  0  0  0  0  0  0  0  0  0  0  0
   -2.4385   -1.0059    0.7226 O   0  0  0  0  0  0  0  0  0  0  0  0
   -0.7590   -3.8164    0.1309 C   0  0  0  0  0  0  0  0  0  0  0  0
   -3.4188   -2.9207    1.4735 H   0  0  0  0  0  0  0  0  0  0  0  0
   -0.6690   -3.2277    2.2062 H   0  0  0  0  0  0  0  0  0  0  0  0
   -1.3852   -3.6613   -0.7553 H   0  0  0  0  0  0  0  0  0  0  0  0
    0.2542   -3.4843   -0.1182 H   0  0  0  0  0  0  0  0  0  0  0  0
   -0.7257   -4.8930    0.3300 H   0  0  0  0  0  0  0  0  0  0  0  0
   -0.1563   -0.9420    1.1402 N   0  0  0  0  0  0  0  0  0  0  0  0
    0.0261    0.4671    0.9001 C   0  0  2  0  0  0  0  0  0  0  0  0
    1.5166    0.7496    0.7229 C   0  0  0  0  0  0  0  0  0  0  0  0
    1.9469    1.6465    0.0005 O   0  0  0  0  0  0  0  0  0  0  0  0
   -0.6315    1.3319    1.9784 C   0  0  0  0  0  0  0  0  0  0  0  0
   -2.4485    1.1940    2.0234 S   0  0  0  0  0  0  0  0  0  0  0  0
    0.6533   -1.4855    1.4300 H   0  0  0  0  0  0  0  0  0  0  0  0
   -0.4654    0.6686   -0.0598 H   0  0  0  0  0  0  0  0  0  0  0  0
   -0.2577    1.0591    2.9707 H   0  0  0  0  0  0  0  0  0  0  0  0
   -0.3868    2.3864    1.8116 H   0  0  0  0  0  0  0  0  0  0  0  0
   -2.6233    2.0506    3.0378 H   0  0  0  0  0  0  0  0  0  0  0  0
    2.3075   -0.1322    1.4456 N   0  0  0  0  0  0  0  0  0  0  0  0
    3.7506   -0.0749    1.4320 C   0  0  2  0  0  0  0  0  0  0  0  0
    4.2764   -1.2813    2.1987 C   0  0  0  0  0  0  0  0  0  0  0  0
    3.6094   -1.8877    3.0344 O   0  0  0  0  0  0  0  0  0  0  0  0
    4.2587    1.2214    2.0435 C   0  0  0  0  0  0  0  0  0  0  0  0
    1.8663   -0.8239    2.0444 H   0  0  0  0  0  0  0  0  0  0  0  0
    4.0600   -0.1447    0.3835 H   0  0  0  0  0  0  0  0  0  0  0  0
    3.9584    1.3091    3.0941 H   0  0  0  0  0  0  0  0  0  0  0  0
    5.3517    1.2759    2.0065 H   0  0  0  0  0  0  0  0  0  0  0  0
    3.8557    2.0886    1.5093 H   0  0  0  0  0  0  0  0  0  0  0  0
    5.5928   -1.5745    1.8713 N   0  0  0  0  0  0  0  0  0  0  0  0
    6.3211   -2.6669    2.4731 C   0  0  0  0  0  0  0  0  0  0  0  0
    6.0622   -1.0303    1.1534 H   0  0  0  0  0  0  0  0  0  0  0  0
    6.8712   -2.3010    3.3526 H   0  0  0  0  0  0  0  0  0  0  0  0
    5.6152   -3.4516    2.7827 H   0  0  0  0  0  0  0  0  0  0  0  0
    7.0317   -3.0804    1.7423 H   0  0  0  0  0  0  0  0  0  0  0  0
  1  3  1  0  0  0  0
  1  7  1  0  0  0  0
  1  2  2  0  0  0  0
 29 30  1  0  0  0  0
 30 38  1  0  0  0  0
 30 31  2  0  0  0  0
  8  9  1  0  0  0  0
  9 17  1  0  0  0  0
  9 10  2  0  0  0  0
 18 19  1  0  0  0  0
 19 28  1  0  0  0  0
 19 20  2  0  0  0  0
 29 32  1  0  0  0  0
  8 11  1  0  0  0  0
 38 39  1  0  0  0  0
 18 21  1  0  0  0  0
 21 22  1  0  0  0  0
 28 29  1  0  0  0  0
  7  8  1  0  0  0  0
 17 18  1  0  0  0  0
  3  4  1  0  0  0  0
  3  5  1  0  0  0  0
  3  6  1  0  0  0  0
 32 35  1  0  0  0  0
 32 36  1  0  0  0  0
 32 37  1  0  0  0  0
 11 14  1  0  0  0  0
 11 15  1  0  0  0  0
 11 16  1  0  0  0  0
 39 41  1  0  0  0  0
 39 42  1  0  0  0  0
 39 43  1  0  0  0  0
 21 25  1  0  0  0  0
 21 26  1  0  0  0  0
 29 34  1  0  0  0  0
  8 13  1  0  0  0  0
 18 24  1  0  0  0  0
 38 40  1  0  0  0  0
  7 12  1  0  0  0  0
 28 33  1  0  0  0  0
 17 23  1  0  0  0  0
 22 27  1  0  0  0  0
M  END
$$$$

  -OEChem-05262214473D

 43 42  0     1  0  0  0  0  0999 V2000
   -2.8661   -4.7415    2.2943 C   0  0  0  0  0  0  0  0  0  0  0  0
   -2.0233   -5.5727    2.6109 O   0  0  0  0  0  0  0  0  0  0  0  0
   -4.3078   -5.0134    2.5698 C   0  0  0  0  0  0  0  0  0  0  0  0
   -4.8057   -5.5295    1.7332 H   0  0  0  0  0  0  0  0  0  0  0  0
   -4.4526   -5.6688    3.4436 H   0  0  0  0  0  0  0  0  0  0  0  0
   -4.9255   -4.1233    2.7700 H   0  0  0  0  0  0  0  0  0  0  0  0
   -2.6241   -3.5219    1.6838 N   0  0  0  0  0  0  0  0  0  0  0  0
   -1.3070   -3.0608    1.3315 C   0  0  2  0  0  0  0  0  0  0  0  0
   -1.3931   -1.5680    1.0422 C   0  0  0  0  0  0  0  0  0  0  0  0
   -2.4385   -1.0059    0.7226 O   0  0  0  0  0  0  0  0  0  0  0  0
   -0.7590   -3.8164    0.1309 C   0  0  0  0  0  0  0  0  0  0  0  0
   -3.4188   -2.9207    1.4735 H   0  0  0  0  0  0  0  0  0  0  0  0
   -0.6690   -3.2277    2.2062 H   0  0  0  0  0  0  0  0  0  0  0  0
   -1.3852   -3.6613   -0.7553 H   0  0  0  0  0  0  0  0  0  0  0  0
    0.2542   -3.4843   -0.1182 H   0  0  0  0  0  0  0  0  0  0  0  0
   -0.7257   -4.8930    0.3300 H   0  0  0  0  0  0  0  0  0  0  0  0
   -0.1563   -0.9420    1.1402 N   0  0  0  0  0  0  0  0  0  0  0  0
    0.0261    0.4671    0.9001 C   0  0  2  0  0  0  0  0  0  0  0  0
    1.5166    0.7496    0.7229 C   0  0  0  0  0  0  0  0  0  0  0  0
    1.9468    1.7897    0.2284 O   0  0  0  0  0  0  0  0  0  0  0  0
   -0.6315    1.3319    1.9784 C   0  0  0  0  0  0  0  0  0  0  0  0
   -2.4485    1.1940    2.0234 S   0  0  0  0  0  0  0  0  0  0  0  0
    0.6533   -1.4855    1.4300 H   0  0  0  0  0  0  0  0  0  0  0  0
   -0.4654    0.6686   -0.0598 H   0  0  0  0  0  0  0  0  0  0  0  0
   -0.2577    1.0591    2.9707 H   0  0  0  0  0  0  0  0  0  0  0  0
   -0.3868    2.3864    1.8116 H   0  0  0  0  0  0  0  0  0  0  0  0
   -2.6233    2.0506    3.0378 H   0  0  0  0  0  0  0  0  0  0  0  0
    2.3062   -0.3051    1.1583 N   0  0  0  0  0  0  0  0  0  0  0  0
    3.7483   -0.2808    1.0849 C   0  0  2  0  0  0  0  0  0  0  0  0
    4.2634   -1.6542    1.4949 C   0  0  0  0  0  0  0  0  0  0  0  0
    3.6123   -2.4364    2.1843 O   0  0  0  0  0  0  0  0  0  0  0  0
    4.3294    0.8059    1.9761 C   0  0  0  0  0  0  0  0  0  0  0  0
    1.8670   -1.1152    1.5856 H   0  0  0  0  0  0  0  0  0  0  0  0
    4.0085   -0.0900    0.0381 H   0  0  0  0  0  0  0  0  0  0  0  0
    4.0791    0.6317    3.0289 H   0  0  0  0  0  0  0  0  0  0  0  0
    5.4210    0.8419    1.8975 H   0  0  0  0  0  0  0  0  0  0  0  0
    3.9350    1.7895    1.6990 H   0  0  0  0  0  0  0  0  0  0  0  0
    5.5526   -1.8862    1.0365 N   0  0  0  0  0  0  0  0  0  0  0  0
    6.2667   -3.1125    1.3053 C   0  0  0  0  0  0  0  0  0  0  0  0
    6.0094   -1.1894    0.4555 H   0  0  0  0  0  0  0  0  0  0  0  0
    6.8679   -2.9946    2.2189 H   0  0  0  0  0  0  0  0  0  0  0  0
    5.5472   -3.9330    1.4434 H   0  0  0  0  0  0  0  0  0  0  0  0
    6.9290   -3.3443    0.4581 H   0  0  0  0  0  0  0  0  0  0  0  0
  1  3  1  0  0  0  0
  1  7  1  0  0  0  0
  1  2  2  0  0  0  0
 29 30  1  0  0  0  0
 30 38  1  0  0  0  0
 30 31  2  0  0  0  0
  8  9  1  0  0  0  0
  9 17  1  0  0  0  0
  9 10  2  0  0  0  0
 18 19  1  0  0  0  0
 19 28  1  0  0  0  0
 19 20  2  0  0  0  0
 29 32  1  0  0  0  0
  8 11  1  0  0  0  0
 38 39  1  0  0  0  0
 18 21  1  0  0  0  0
 21 22  1  0  0  0  0
 28 29  1  0  0  0  0
  7  8  1  0  0  0  0
 17 18  1  0  0  0  0
  3  4  1  0  0  0  0
  3  5  1  0  0  0  0
  3  6  1  0  0  0  0
 32 35  1  0  0  0  0
 32 36  1  0  0  0  0
 32 37  1  0  0  0  0
 11 14  1  0  0  0  0
 11 15  1  0  0  0  0
 11 16  1  0  0  0  0
 39 41  1  0  0  0  0
 39 42  1  0  0  0  0
 39 43  1  0  0  0  0
 21 25  1  0  0  0  0
 21 26  1  0  0  0  0
 29 34  1  0  0  0  0
  8 13  1  0  0  0  0
 18 24  1  0  0  0  0
 38 40  1  0  0  0  0
  7 12  1  0  0  0  0
 28 33  1  0  0  0  0
 17 23  1  0  0  0  0
 22 27  1  0  0  0  0
M  END
$$$$

  -OEChem-05262214473D

 43 42  0     1  0  0  0  0  0999 V2000
   -2.8661   -4.7415    2.2943 C   0  0  0  0  0  0  0  0  0  0  0  0
   -2.0233   -5.5727    2.6109 O   0  0  0  0  0  0  0  0  0  0  0  0
   -4.3078   -5.0134    2.5698 C   0  0  0  0  0  0  0  0  0  0  0  0
   -4.8057   -5.5295    1.7332 H   0  0  0  0  0  0  0  0  0  0  0  0
   -4.4526   -5.6688    3.4436 H   0  0  0  0  0  0  0  0  0  0  0  0
   -4.9255   -4.1233    2.7700 H   0  0  0  0  0  0  0  0  0  0  0  0
   -2.6241   -3.5219    1.6838 N   0  0  0  0  0  0  0  0  0  0  0  0
   -1.3070   -3.0608    1.3315 C   0  0  2  0  0  0  0  0  0  0  0  0
   -1.3931   -1.5680    1.0422 C   0  0  0  0  0  0  0  0  0  0  0  0
   -2.4385   -1.0059    0.7226 O   0  0  0  0  0  0  0  0  0  0  0  0
   -0.7590   -3.8164    0.1309 C   0  0  0  0  0  0  0  0  0  0  0  0
   -3.4188   -2.9207    1.4735 H   0  0  0  0  0  0  0  0  0  0  0  0
   -0.6690   -3.2277    2.2062 H   0  0  0  0  0  0  0  0  0  0  0  0
   -1.3852   -3.6613   -0.7553 H   0  0  0  0  0  0  0  0  0  0  0  0
    0.2542   -3.4843   -0.1182 H   0  0  0  0  0  0  0  0  0  0  0  0
   -0.7257   -4.8930    0.3300 H   0  0  0  0  0  0  0  0  0  0  0  0
   -0.1563   -0.9420    1.1402 N   0  0  0  0  0  0  0  0  0  0  0  0
    0.0261    0.4671    0.9001 C   0  0  2  0  0  0  0  0  0  0  0  0
    1.5166    0.7496    0.7229 C   0  0  0  0  0  0  0  0  0  0  0  0
    1.9620    1.8705    0.4847 O   0  0  0  0  0  0  0  0  0  0  0  0
   -0.6315    1.3319    1.9784 C   0  0  0  0  0  0  0  0  0  0  0  0
   -2.4485    1.1940    2.0234 S   0  0  0  0  0  0  0  0  0  0  0  0
    0.6533   -1.4855    1.4300 H   0  0  0  0  0  0  0  0  0  0  0  0
   -0.4654    0.6686   -0.0598 H   0  0  0  0  0  0  0  0  0  0  0  0
   -0.2577    1.0591    2.9707 H   0  0  0  0  0  0  0  0  0  0  0  0
   -0.3868    2.3864    1.8116 H   0  0  0  0  0  0  0  0  0  0  0  0
   -2.6233    2.0506    3.0378 H   0  0  0  0  0  0  0  0  0  0  0  0
    2.2859   -0.3996    0.8372 N   0  0  0  0  0  0  0  0  0  0  0  0
    3.7234   -0.3919    0.6978 C   0  0  2  0  0  0  0  0  0  0  0  0
    4.2059   -1.8362    0.7214 C   0  0  0  0  0  0  0  0  0  0  0  0
    3.5579   -2.7518    1.2244 O   0  0  0  0  0  0  0  0  0  0  0  0
    4.3821    0.4194    1.8026 C   0  0  0  0  0  0  0  0  0  0  0  0
    1.8369   -1.2808    1.0689 H   0  0  0  0  0  0  0  0  0  0  0  0
    3.9440    0.0516   -0.2793 H   0  0  0  0  0  0  0  0  0  0  0  0
    4.1722   -0.0097    2.7892 H   0  0  0  0  0  0  0  0  0  0  0  0
    5.4697    0.4480    1.6793 H   0  0  0  0  0  0  0  0  0  0  0  0
    4.0117    1.4502    1.8030 H   0  0  0  0  0  0  0  0  0  0  0  0
    5.4645   -1.9753    0.1533 N   0  0  0  0  0  0  0  0  0  0  0  0
    6.1449   -3.2464    0.0673 C   0  0  0  0  0  0  0  0  0  0  0  0
    5.9202   -1.1651   -0.2563 H   0  0  0  0  0  0  0  0  0  0  0  0
    6.7896   -3.3781    0.9488 H   0  0  0  0  0  0  0  0  0  0  0  0
    5.4029   -4.0576    0.0314 H   0  0  0  0  0  0  0  0  0  0  0  0
    6.7604   -3.2717   -0.8440 H   0  0  0  0  0  0  0  0  0  0  0  0
  1  3  1  0  0  0  0
  1  7  1  0  0  0  0
  1  2  2  0  0  0  0
 29 30  1  0  0  0  0
 30 38  1  0  0  0  0
 30 31  2  0  0  0  0
  8  9  1  0  0  0  0
  9 17  1  0  0  0  0
  9 10  2  0  0  0  0
 18 19  1  0  0  0  0
 19 28  1  0  0  0  0
 19 20  2  0  0  0  0
 29 32  1  0  0  0  0
  8 11  1  0  0  0  0
 38 39  1  0  0  0  0
 18 21  1  0  0  0  0
 21 22  1  0  0  0  0
 28 29  1  0  0  0  0
  7  8  1  0  0  0  0
 17 18  1  0  0  0  0
  3  4  1  0  0  0  0
  3  5  1  0  0  0  0
  3  6  1  0  0  0  0
 32 35  1  0  0  0  0
 32 36  1  0  0  0  0
 32 37  1  0  0  0  0
 11 14  1  0  0  0  0
 11 15  1  0  0  0  0
 11 16  1  0  0  0  0
 39 41  1  0  0  0  0
 39 42  1  0  0  0  0
 39 43  1  0  0  0  0
 21 25  1  0  0  0  0
 21 26  1  0  0  0  0
 29 34  1  0  0  0  0
  8 13  1  0  0  0  0
 18 24  1  0  0  0  0
 38 40  1  0  0  0  0
  7 12  1  0  0  0  0
 28 33  1  0  0  0  0
 17 23  1  0  0  0  0
 22 27  1  0  0  0  0
M  END
$$$$

  -OEChem-05262214473D

 43 42  0     1  0  0  0  0  0999 V2000
   -2.8661   -4.7415    2.2943 C   0  0  0  0  0  0  0  0  0  0  0  0
   -2.0233   -5.5727    2.6109 O   0  0  0  0  0  0  0  0  0  0  0  0
   -4.3078   -5.0134    2.5698 C   0  0  0  0  0  0  0  0  0  0  0  0
   -4.8057   -5.5295    1.7332 H   0  0  0  0  0  0  0  0  0  0  0  0
   -4.4526   -5.6688    3.4436 H   0  0  0  0  0  0  0  0  0  0  0  0
   -4.9255   -4.1233    2.7700 H   0  0  0  0  0  0  0  0  0  0  0  0
   -2.6241   -3.5219    1.6838 N   0  0  0  0  0  0  0  0  0  0  0  0
   -1.3070   -3.0608    1.3315 C   0  0  2  0  0  0  0  0  0  0  0  0
   -1.3931   -1.5680    1.0422 C   0  0  0  0  0  0  0  0  0  0  0  0
   -2.4385   -1.0059    0.7226 O   0  0  0  0  0  0  0  0  0  0  0  0
   -0.7590   -3.8164    0.1309 C   0  0  0  0  0  0  0  0  0  0  0  0
   -3.4188   -2.9207    1.4735 H   0  0  0  0  0  0  0  0  0  0  0  0
   -0.6690   -3.2277    2.2062 H   0  0  0  0  0  0  0  0  0  0  0  0
   -1.3852   -3.6613   -0.7553 H   0  0  0  0  0  0  0  0  0  0  0  0
    0.2542   -3.4843   -0.1182 H   0  0  0  0  0  0  0  0  0  0  0  0
   -0.7257   -4.8930    0.3300 H   0  0  0  0  0  0  0  0  0  0  0  0
   -0.1563   -0.9420    1.1402 N   0  0  0  0  0  0  0  0  0  0  0  0
    0.0261    0.4671    0.9001 C   0  0  2  0  0  0  0  0  0  0  0  0
    1.5166    0.7496    0.7229 C   0  0  0  0  0  0  0  0  0  0  0  0
    1.9914    1.8833    0.7520 O   0  0  0  0  0  0  0  0  0  0  0  0
   -0.6315    1.3319    1.9784 C   0  0  0  0  0  0  0  0  0  0  0  0
   -2.4485    1.1940    2.0234 S   0  0  0  0  0  0  0  0  0  0  0  0
    0.6533   -1.4855    1.4300 H   0  0  0  0  0  0  0  0  0  0  0  0
   -0.4654    0.6686   -0.0598 H   0  0  0  0  0  0  0  0  0  0  0  0
   -0.2577    1.0591    2.9707 H   0  0  0  0  0  0  0  0  0  0  0  0
   -0.3868    2.3864    1.8116 H   0  0  0  0  0  0  0  0  0  0  0  0
   -2.6233    2.0506    3.0378 H   0  0  0  0  0  0  0  0  0  0  0  0
    2.2481   -0.4091    0.5041 N   0  0  0  0  0  0  0  0  0  0  0  0
    3.6774   -0.4007    0.2970 C   0  0  2  0  0  0  0  0  0  0  0  0
    4.1079   -1.8150   -0.0689 C   0  0  0  0  0  0  0  0  0  0  0  0
    3.4500   -2.8123    0.2201 O   0  0  0  0  0  0  0  0  0  0  0  0
    4.4130    0.0883    1.5349 C   0  0  0  0  0  0  0  0  0  0  0  0
    1.7782   -1.3092    0.5293 H   0  0  0  0  0  0  0  0  0  0  0  0
    3.8707    0.2704   -0.5470 H   0  0  0  0  0  0  0  0  0  0  0  0
    4.2313   -0.5716    2.3911 H   0  0  0  0  0  0  0  0  0  0  0  0
    5.4945    0.1213    1.3667 H   0  0  0  0  0  0  0  0  0  0  0  0
    4.0805    1.0940    1.8140 H   0  0  0  0  0  0  0  0  0  0  0  0
    5.3344   -1.8356   -0.7180 N   0  0  0  0  0  0  0  0  0  0  0  0
    5.9639   -3.0594   -1.1564 C   0  0  0  0  0  0  0  0  0  0  0  0
    5.8006   -0.9593   -0.9334 H   0  0  0  0  0  0  0  0  0  0  0  0
    6.6416   -3.4255   -0.3711 H   0  0  0  0  0  0  0  0  0  0  0  0
    5.1922   -3.8171   -1.3571 H   0  0  0  0  0  0  0  0  0  0  0  0
    6.5374   -2.8677   -2.0753 H   0  0  0  0  0  0  0  0  0  0  0  0
  1  3  1  0  0  0  0
  1  7  1  0  0  0  0
  1  2  2  0  0  0  0
 29 30  1  0  0  0  0
 30 38  1  0  0  0  0
 30 31  2  0  0  0  0
  8  9  1  0  0  0  0
  9 17  1  0  0  0  0
  9 10  2  0  0  0  0
 18 19  1  0  0  0  0
 19 28  1  0  0  0  0
 19 20  2  0  0  0  0
 29 32  1  0  0  0  0
  8 11  1  0  0  0  0
 38 39  1  0  0  0  0
 18 21  1  0  0  0  0
 21 22  1  0  0  0  0
 28 29  1  0  0  0  0
  7  8  1  0  0  0  0
 17 18  1  0  0  0  0
  3  4  1  0  0  0  0
  3  5  1  0  0  0  0
  3  6  1  0  0  0  0
 32 35  1  0  0  0  0
 32 36  1  0  0  0  0
 32 37  1  0  0  0  0
 11 14  1  0  0  0  0
 11 15  1  0  0  0  0
 11 16  1  0  0  0  0
 39 41  1  0  0  0  0
 39 42  1  0  0  0  0
 39 43  1  0  0  0  0
 21 25  1  0  0  0  0
 21 26  1  0  0  0  0
 29 34  1  0  0  0  0
  8 13  1  0  0  0  0
 18 24  1  0  0  0  0
 38 40  1  0  0  0  0
  7 12  1  0  0  0  0
 28 33  1  0  0  0  0
 17 23  1  0  0  0  0
 22 27  1  0  0  0  0
M  END
$$$$

  -OEChem-05262214473D

 43 42  0     1  0  0  0  0  0999 V2000
   -2.8661   -4.7415    2.2943 C   0  0  0  0  0  0  0  0  0  0  0  0
   -2.0233   -5.5727    2.6109 O   0  0  0  0  0  0  0  0  0  0  0  0
   -4.3078   -5.0134    2.5698 C   0  0  0  0  0  0  0  0  0  0  0  0
   -4.8057   -5.5295    1.7332 H   0  0  0  0  0  0  0  0  0  0  0  0
   -4.4526   -5.6688    3.4436 H   0  0  0  0  0  0  0  0  0  0  0  0
   -4.9255   -4.1233    2.7700 H   0  0  0  0  0  0  0  0  0  0  0  0
   -2.6241   -3.5219    1.6838 N   0  0  0  0  0  0  0  0  0  0  0  0
   -1.3070   -3.0608    1.3315 C   0  0  2  0  0  0  0  0  0  0  0  0
   -1.3931   -1.5680    1.0422 C   0  0  0  0  0  0  0  0  0  0  0  0
   -2.4385   -1.0059    0.7226 O   0  0  0  0  0  0  0  0  0  0  0  0
   -0.7590   -3.8164    0.1309 C   0  0  0  0  0  0  0  0  0  0  0  0
   -3.4188   -2.9207    1.4735 H   0  0  0  0  0  0  0  0  0  0  0  0
   -0.6690   -3.2277    2.2062 H   0  0  0  0  0  0  0  0  0  0  0  0
   -1.3852   -3.6613   -0.7553 H   0  0  0  0  0  0  0  0  0  0  0  0
    0.2542   -3.4843   -0.1182 H   0  0  0  0  0  0  0  0  0  0  0  0
   -0.7257   -4.8930    0.3300 H   0  0  0  0  0  0  0  0  0  0  0  0
   -0.1563   -0.9420    1.1402 N   0  0  0  0  0  0  0  0  0  0  0  0
    0.0261    0.4671    0.9001 C   0  0  2  0  0  0  0  0  0  0  0  0
    1.5166    0.7496    0.7229 C   0  0  0  0  0  0  0  0  0  0  0  0
    2.0329    1.8273    1.0119 O   0  0  0  0  0  0  0  0  0  0  0  0
   -0.6315    1.3319    1.9784 C   0  0  0  0  0  0  0  0  0  0  0  0
   -2.4485    1.1940    2.0234 S   0  0  0  0  0  0  0  0  0  0  0  0
    0.6533   -1.4855    1.4300 H   0  0  0  0  0  0  0  0  0  0  0  0
   -0.4654    0.6686   -0.0598 H   0  0  0  0  0  0  0  0  0  0  0  0
   -0.2577    1.0591    2.9707 H   0  0  0  0  0  0  0  0  0  0  0  0
   -0.3868    2.3864    1.8116 H   0  0  0  0  0  0  0  0  0  0  0  0
   -2.6233    2.0506    3.0378 H   0  0  0  0  0  0  0  0  0  0  0  0
    2.1953   -0.3330    0.1818 N   0  0  0  0  0  0  0  0  0  0  0  0
    3.6135   -0.3065   -0.0901 C   0  0  2  0  0  0  0  0  0  0  0  0
    3.9761   -1.5919   -0.8222 C   0  0  0  0  0  0  0  0  0  0  0  0
    3.2958   -2.6139   -0.7601 O   0  0  0  0  0  0  0  0  0  0  0  0
    4.4201   -0.1648    1.1913 C   0  0  0  0  0  0  0  0  0  0  0  0
    1.6947   -1.1987    0.0038 H   0  0  0  0  0  0  0  0  0  0  0  0
    3.7936    0.5516   -0.7467 H   0  0  0  0  0  0  0  0  0  0  0  0
    4.2525   -1.0155    1.8619 H   0  0  0  0  0  0  0  0  0  0  0  0
    5.4936   -0.1161    0.9810 H   0  0  0  0  0  0  0  0  0  0  0  0
    4.1368    0.7451    1.7315 H   0  0  0  0  0  0  0  0  0  0  0  0
    5.1712   -1.4768   -1.5182 N   0  0  0  0  0  0  0  0  0  0  0  0
    5.7362   -2.5642   -2.2826 C   0  0  0  0  0  0  0  0  0  0  0  0
    5.6589   -0.5858   -1.5297 H   0  0  0  0  0  0  0  0  0  0  0  0
    6.4341   -3.1334   -1.6509 H   0  0  0  0  0  0  0  0  0  0  0  0
    4.9294   -3.2277   -2.6274 H   0  0  0  0  0  0  0  0  0  0  0  0
    6.2752   -2.1598   -3.1520 H   0  0  0  0  0  0  0  0  0  0  0  0
  1  3  1  0  0  0  0
  1  7  1  0  0  0  0
  1  2  2  0  0  0  0
 29 30  1  0  0  0  0
 30 38  1  0  0  0  0
 30 31  2  0  0  0  0
  8  9  1  0  0  0  0
  9 17  1  0  0  0  0
  9 10  2  0  0  0  0
 18 19  1  0  0  0  0
 19 28  1  0  0  0  0
 19 20  2  0  0  0  0
 29 32  1  0  0  0  0
  8 11  1  0  0  0  0
 38 39  1  0  0  0  0
 18 21  1  0  0  0  0
 21 22  1  0  0  0  0
 28 29  1  0  0  0  0
  7  8  1  0  0  0  0
 17 18  1  0  0  0  0
  3  4  1  0  0  0  0
  3  5  1  0  0  0  0
  3  6  1  0  0  0  0
 32 35  1  0  0  0  0
 32 36  1  0  0  0  0
 32 37  1  0  0  0  0
 11 14  1  0  0  0  0
 11 15  1  0  0  0  0
 11 16  1  0  0  0  0
 39 41  1  0  0  0  0
 39 42  1  0  0  0  0
 39 43  1  0  0  0  0
 21 25  1  0  0  0  0
 21 26  1  0  0  0  0
 29 34  1  0  0  0  0
  8 13  1  0  0  0  0
 18 24  1  0  0  0  0
 38 40  1  0  0  0  0
  7 12  1  0  0  0  0
 28 33  1  0  0  0  0
 17 23  1  0  0  0  0
 22 27  1  0  0  0  0
M  END
$$$$

  -OEChem-05262214473D

 43 42  0     1  0  0  0  0  0999 V2000
   -2.8661   -4.7415    2.2943 C   0  0  0  0  0  0  0  0  0  0  0  0
   -2.0233   -5.5727    2.6109 O   0  0  0  0  0  0  0  0  0  0  0  0
   -4.3078   -5.0134    2.5698 C   0  0  0  0  0  0  0  0  0  0  0  0
   -4.8057   -5.5295    1.7332 H   0  0  0  0  0  0  0  0  0  0  0  0
   -4.4526   -5.6688    3.4436 H   0  0  0  0  0  0  0  0  0  0  0  0
   -4.9255   -4.1233    2.7700 H   0  0  0  0  0  0  0  0  0  0  0  0
   -2.6241   -3.5219    1.6838 N   0  0  0  0  0  0  0  0  0  0  0  0
   -1.3070   -3.0608    1.3315 C   0  0  2  0  0  0  0  0  0  0  0  0
   -1.3931   -1.5680    1.0422 C   0  0  0  0  0  0  0  0  0  0  0  0
   -2.4385   -1.0059    0.7226 O   0  0  0  0  0  0  0  0  0  0  0  0
   -0.7590   -3.8164    0.1309 C   0  0  0  0  0  0  0  0  0  0  0  0
   -3.4188   -2.9207    1.4735 H   0  0  0  0  0  0  0  0  0  0  0  0
   -0.6690   -3.2277    2.2062 H   0  0  0  0  0  0  0  0  0  0  0  0
   -1.3852   -3.6613   -0.7553 H   0  0  0  0  0  0  0  0  0  0  0  0
    0.2542   -3.4843   -0.1182 H   0  0  0  0  0  0  0  0  0  0  0  0
   -0.7257   -4.8930    0.3300 H   0  0  0  0  0  0  0  0  0  0  0  0
   -0.1563   -0.9420    1.1402 N   0  0  0  0  0  0  0  0  0  0  0  0
    0.0261    0.4671    0.9001 C   0  0  2  0  0  0  0  0  0  0  0  0
    1.5166    0.7496    0.7229 C   0  0  0  0  0  0  0  0  0  0  0  0
    2.0838    1.7062    1.2469 O   0  0  0  0  0  0  0  0  0  0  0  0
   -0.6315    1.3319    1.9784 C   0  0  0  0  0  0  0  0  0  0  0  0
   -2.4485    1.1940    2.0234 S   0  0  0  0  0  0  0  0  0  0  0  0
    0.6533   -1.4855    1.4300 H   0  0  0  0  0  0  0  0  0  0  0  0
   -0.4654    0.6686   -0.0598 H   0  0  0  0  0  0  0  0  0  0  0  0
   -0.2577    1.0591    2.9707 H   0  0  0  0  0  0  0  0  0  0  0  0
   -0.3868    2.3864    1.8116 H   0  0  0  0  0  0  0  0  0  0  0  0
   -2.6233    2.0506    3.0378 H   0  0  0  0  0  0  0  0  0  0  0  0
    2.1312   -0.1766   -0.1077 N   0  0  0  0  0  0  0  0  0  0  0  0
    3.5361   -0.1159   -0.4373 C   0  0  2  0  0  0  0  0  0  0  0  0
    3.8193   -1.1822   -1.4872 C   0  0  0  0  0  0  0  0  0  0  0  0
    3.1060   -2.1701   -1.6494 O   0  0  0  0  0  0  0  0  0  0  0  0
    4.4029   -0.3227    0.7950 C   0  0  0  0  0  0  0  0  0  0  0  0
    1.5923   -0.9567   -0.4719 H   0  0  0  0  0  0  0  0  0  0  0  0
    3.7181    0.8760   -0.8650 H   0  0  0  0  0  0  0  0  0  0  0  0
    4.2343   -1.3112    1.2375 H   0  0  0  0  0  0  0  0  0  0  0  0
    5.4672   -0.2480    0.5486 H   0  0  0  0  0  0  0  0  0  0  0  0
    4.1768    0.4272    1.5608 H   0  0  0  0  0  0  0  0  0  0  0  0
    4.9861   -0.9231   -2.1926 N   0  0  0  0  0  0  0  0  0  0  0  0
    5.4771   -1.7946   -3.2344 C   0  0  0  0  0  0  0  0  0  0  0  0
    5.5047   -0.0702   -2.0046 H   0  0  0  0  0  0  0  0  0  0  0  0
    6.1811   -2.5217   -2.8034 H   0  0  0  0  0  0  0  0  0  0  0  0
    4.6325   -2.3297   -3.6930 H   0  0  0  0  0  0  0  0  0  0  0  0
    5.9917   -1.1962   -4.0006 H   0  0  0  0  0  0  0  0  0  0  0  0
  1  3  1  0  0  0  0
  1  7  1  0  0  0  0
  1  2  2  0  0  0  0
 29 30  1  0  0  0  0
 30 38  1  0  0  0  0
 30 31  2  0  0  0  0
  8  9  1  0  0  0  0
  9 17  1  0  0  0  0
  9 10  2  0  0  0  0
 18 19  1  0  0  0  0
 19 28  1  0  0  0  0
 19 20  2  0  0  0  0
 29 32  1  0  0  0  0
  8 11  1  0  0  0  0
 38 39  1  0  0  0  0
 18 21  1  0  0  0  0
 21 22  1  0  0  0  0
 28 29  1  0  0  0  0
  7  8  1  0  0  0  0
 17 18  1  0  0  0  0
  3  4  1  0  0  0  0
  3  5  1  0  0  0  0
  3  6  1  0  0  0  0
 32 35  1  0  0  0  0
 32 36  1  0  0  0  0
 32 37  1  0  0  0  0
 11 14  1  0  0  0  0
 11 15  1  0  0  0  0
 11 16  1  0  0  0  0
 39 41  1  0  0  0  0
 39 42  1  0  0  0  0
 39 43  1  0  0  0  0
 21 25  1  0  0  0  0
 21 26  1  0  0  0  0
 29 34  1  0  0  0  0
  8 13  1  0  0  0  0
 18 24  1  0  0  0  0
 38 40  1  0  0  0  0
  7 12  1  0  0  0  0
 28 33  1  0  0  0  0
 17 23  1  0  0  0  0
 22 27  1  0  0  0  0
M  END
$$$$

  -OEChem-05262214473D

 43 42  0     1  0  0  0  0  0999 V2000
   -2.8661   -4.7415    2.2943 C   0  0  0  0  0  0  0  0  0  0  0  0
   -2.0233   -5.5727    2.6109 O   0  0  0  0  0  0  0  0  0  0  0  0
   -4.3078   -5.0134    2.5698 C   0  0  0  0  0  0  0  0  0  0  0  0
   -4.8057   -5.5295    1.7332 H   0  0  0  0  0  0  0  0  0  0  0  0
   -4.4526   -5.6688    3.4436 H   0  0  0  0  0  0  0  0  0  0  0  0
   -4.9255   -4.1233    2.7700 H   0  0  0  0  0  0  0  0  0  0  0  0
   -2.6241   -3.5219    1.6838 N   0  0  0  0  0  0  0  0  0  0  0  0
   -1.3070   -3.0608    1.3315 C   0  0  2  0  0  0  0  0  0  0  0  0
   -1.3931   -1.5680    1.0422 C   0  0  0  0  0  0  0  0  0  0  0  0
   -2.4385   -1.0059    0.7226 O   0  0  0  0  0  0  0  0  0  0  0  0
   -0.7590   -3.8164    0.1309 C   0  0  0  0  0  0  0  0  0  0  0  0
   -3.4188   -2.9207    1.4735 H   0  0  0  0  0  0  0  0  0  0  0  0
   -0.6690   -3.2277    2.2062 H   0  0  0  0  0  0  0  0  0  0  0  0
   -1.3852   -3.6613   -0.7553 H   0  0  0  0  0  0  0  0  0  0  0  0
    0.2542   -3.4843   -0.1182 H   0  0  0  0  0  0  0  0  0  0  0  0
   -0.7257   -4.8930    0.3300 H   0  0  0  0  0  0  0  0  0  0  0  0
   -0.1563   -0.9420    1.1402 N   0  0  0  0  0  0  0  0  0  0  0  0
    0.0261    0.4671    0.9001 C   0  0  2  0  0  0  0  0  0  0  0  0
    1.5166    0.7496    0.7229 C   0  0  0  0  0  0  0  0  0  0  0  0
    2.1405    1.5285    1.4409 O   0  0  0  0  0  0  0  0  0  0  0  0
   -0.6315    1.3319    1.9784 C   0  0  0  0  0  0  0  0  0  0  0  0
   -2.4485    1.1940    2.0234 S   0  0  0  0  0  0  0  0  0  0  0  0
    0.6533   -1.4855    1.4300 H   0  0  0  0  0  0  0  0  0  0  0  0
   -0.4654    0.6686   -0.0598 H   0  0  0  0  0  0  0  0  0  0  0  0
   -0.2577    1.0591    2.9707 H   0  0  0  0  0  0  0  0  0  0  0  0
   -0.3868    2.3864    1.8116 H   0  0  0  0  0  0  0  0  0  0  0  0
   -2.6233    2.0506    3.0378 H   0  0  0  0  0  0  0  0  0  0  0  0
    2.0602    0.0496   -0.3449 N   0  0  0  0  0  0  0  0  0  0  0  0
    3.4504    0.1582   -0.7207 C   0  0  2  0  0  0  0  0  0  0  0  0
    3.6484   -0.6138   -2.0185 C   0  0  0  0  0  0  0  0  0  0  0  0
    2.8933   -1.5111   -2.3871 O   0  0  0  0  0  0  0  0  0  0  0  0
    4.3626   -0.3746    0.3733 C   0  0  0  0  0  0  0  0  0  0  0  0
    1.4778   -0.5997   -0.8654 H   0  0  0  0  0  0  0  0  0  0  0  0
    3.6492    1.2215   -0.8937 H   0  0  0  0  0  0  0  0  0  0  0  0
    4.1780   -1.4387    0.5606 H   0  0  0  0  0  0  0  0  0  0  0  0
    5.4170   -0.2654    0.0988 H   0  0  0  0  0  0  0  0  0  0  0  0
    4.1977    0.1620    1.3139 H   0  0  0  0  0  0  0  0  0  0  0  0
    4.7916   -0.2124   -2.6953 N   0  0  0  0  0  0  0  0  0  0  0  0
    5.2045   -0.8031   -3.9470 C   0  0  0  0  0  0  0  0  0  0  0  0
    5.3485    0.5524   -2.3257 H   0  0  0  0  0  0  0  0  0  0  0  0
    5.8999   -1.6322   -3.7500 H   0  0  0  0  0  0  0  0  0  0  0  0
    4.3217   -1.1842   -4.4813 H   0  0  0  0  0  0  0  0  0  0  0  0
    5.7061   -0.0425   -4.5634 H   0  0  0  0  0  0  0  0  0  0  0  0
  1  3  1  0  0  0  0
  1  7  1  0  0  0  0
  1  2  2  0  0  0  0
 29 30  1  0  0  0  0
 30 38  1  0  0  0  0
 30 31  2  0  0  0  0
  8  9  1  0  0  0  0
  9 17  1  0  0  0  0
  9 10  2  0  0  0  0
 18 19  1  0  0  0  0
 19 28  1  0  0  0  0
 19 20  2  0  0  0  0
 29 32  1  0  0  0  0
  8 11  1  0  0  0  0
 38 39  1  0  0  0  0
 18 21  1  0  0  0  0
 21 22  1  0  0  0  0
 28 29  1  0  0  0  0
  7  8  1  0  0  0  0
 17 18  1  0  0  0  0
  3  4  1  0  0  0  0
  3  5  1  0  0  0  0
  3  6  1  0  0  0  0
 32 35  1  0  0  0  0
 32 36  1  0  0  0  0
 32 37  1  0  0  0  0
 11 14  1  0  0  0  0
 11 15  1  0  0  0  0
 11 16  1  0  0  0  0
 39 41  1  0  0  0  0
 39 42  1  0  0  0  0
 39 43  1  0  0  0  0
 21 25  1  0  0  0  0
 21 26  1  0  0  0  0
 29 34  1  0  0  0  0
  8 13  1  0  0  0  0
 18 24  1  0  0  0  0
 38 40  1  0  0  0  0
  7 12  1  0  0  0  0
 28 33  1  0  0  0  0
 17 23  1  0  0  0  0
 22 27  1  0  0  0  0
M  END
$$$$

  -OEChem-05262214473D

 43 42  0     1  0  0  0  0  0999 V2000
   -2.8661   -4.7415    2.2943 C   0  0  0  0  0  0  0  0  0  0  0  0
   -2.0233   -5.5727    2.6109 O   0  0  0  0  0  0  0  0  0  0  0  0
   -4.3078   -5.0134    2.5698 C   0  0  0  0  0  0  0  0  0  0  0  0
   -4.8057   -5.5295    1.7332 H   0  0  0  0  0  0  0  0  0  0  0  0
   -4.4526   -5.6688    3.4436 H   0  0  0  0  0  0  0  0  0  0  0  0
   -4.9255   -4.1233    2.7700 H   0  0  0  0  0  0  0  0  0  0  0  0
   -2.6241   -3.5219    1.6838 N   0  0  0  0  0  0  0  0  0  0  0  0
   -1.3070   -3.0608    1.3315 C   0  0  2  0  0  0  0  0  0  0  0  0
   -1.3931   -1.5680    1.0422 C   0  0  0  0  0  0  0  0  0  0  0  0
   -2.4385   -1.0059    0.7226 O   0  0  0  0  0  0  0  0  0  0  0  0
   -0.7590   -3.8164    0.1309 C   0  0  0  0  0  0  0  0  0  0  0  0
   -3.4188   -2.9207    1.4735 H   0  0  0  0  0  0  0  0  0  0  0  0
   -0.6690   -3.2277    2.2062 H   0  0  0  0  0  0  0  0  0  0  0  0
   -1.3852   -3.6613   -0.7553 H   0  0  0  0  0  0  0  0  0  0  0  0
    0.2542   -3.4843   -0.1182 H   0  0  0  0  0  0  0  0  0  0  0  0
   -0.7257   -4.8930    0.3300 H   0  0  0  0  0  0  0  0  0  0  0  0
   -0.1563   -0.9420    1.1402 N   0  0  0  0  0  0  0  0  0  0  0  0
    0.0261    0.4671    0.9001 C   0  0  2  0  0  0  0  0  0  0  0  0
    1.5166    0.7496    0.7229 C   0  0  0  0  0  0  0  0  0  0  0  0
    2.1993    1.3061    1.5806 O   0  0  0  0  0  0  0  0  0  0  0  0
   -0.6315    1.3319    1.9784 C   0  0  0  0  0  0  0  0  0  0  0  0
   -2.4485    1.1940    2.0234 S   0  0  0  0  0  0  0  0  0  0  0  0
    0.6533   -1.4855    1.4300 H   0  0  0  0  0  0  0  0  0  0  0  0
   -0.4654    0.6686   -0.0598 H   0  0  0  0  0  0  0  0  0  0  0  0
   -0.2577    1.0591    2.9707 H   0  0  0  0  0  0  0  0  0  0  0  0
   -0.3868    2.3864    1.8116 H   0  0  0  0  0  0  0  0  0  0  0  0
   -2.6233    2.0506    3.0378 H   0  0  0  0  0  0  0  0  0  0  0  0
    1.9870    0.3302   -0.5134 N   0  0  0  0  0  0  0  0  0  0  0  0
    3.3623    0.4972   -0.9212 C   0  0  2  0  0  0  0  0  0  0  0  0
    3.4750    0.0746   -2.3800 C   0  0  0  0  0  0  0  0  0  0  0  0
    2.6724   -0.6817   -2.9232 O   0  0  0  0  0  0  0  0  0  0  0  0
    4.3019   -0.3170   -0.0453 C   0  0  0  0  0  0  0  0  0  0  0  0
    1.3592   -0.1520   -1.1498 H   0  0  0  0  0  0  0  0  0  0  0  0
    3.5916    1.5645   -0.8308 H   0  0  0  0  0  0  0  0  0  0  0  0
    4.0874   -1.3891   -0.1227 H   0  0  0  0  0  0  0  0  0  0  0  0
    5.3465   -0.1670   -0.3376 H   0  0  0  0  0  0  0  0  0  0  0  0
    4.1981   -0.0324    1.0073 H   0  0  0  0  0  0  0  0  0  0  0  0
    4.6010    0.6069   -2.9921 N   0  0  0  0  0  0  0  0  0  0  0  0
    4.9368    0.3429   -4.3718 C   0  0  0  0  0  0  0  0  0  0  0  0
    5.2010    1.2396   -2.4711 H   0  0  0  0  0  0  0  0  0  0  0  0
    5.6098   -0.5255   -4.4263 H   0  0  0  0  0  0  0  0  0  0  0  0
    4.0181    0.1307   -4.9385 H   0  0  0  0  0  0  0  0  0  0  0  0
    5.4379    1.2225   -4.8019 H   0  0  0  0  0  0  0  0  0  0  0  0
  1  3  1  0  0  0  0
  1  7  1  0  0  0  0
  1  2  2  0  0  0  0
 29 30  1  0  0  0  0
 30 38  1  0  0  0  0
 30 31  2  0  0  0  0
  8  9  1  0  0  0  0
  9 17  1  0  0  0  0
  9 10  2  0  0  0  0
 18 19  1  0  0  0  0
 19 28  1  0  0  0  0
 19 20  2  0  0  0  0
 29 32  1  0  0  0  0
  8 11  1  0  0  0  0
 38 39  1  0  0  0  0
 18 21  1  0  0  0  0
 21 22  1  0  0  0  0
 28 29  1  0  0  0  0
  7  8  1  0  0  0  0
 17 18  1  0  0  0  0
  3  4  1  0  0  0  0
  3  5  1  0  0  0  0
  3  6  1  0  0  0  0
 32 35  1  0  0  0  0
 32 36  1  0  0  0  0
 32 37  1  0  0  0  0
 11 14  1  0  0  0  0
 11 15  1  0  0  0  0
 11 16  1  0  0  0  0
 39 41  1  0  0  0  0
 39 42  1  0  0  0  0
 39 43  1  0  0  0  0
 21 25  1  0  0  0  0
 21 26  1  0  0  0  0
 29 34  1  0  0  0  0
  8 13  1  0  0  0  0
 18 24  1  0  0  0  0
 38 40  1  0  0  0  0
  7 12  1  0  0  0  0
 28 33  1  0  0  0  0
 17 23  1  0  0  0  0
 22 27  1  0  0  0  0
M  END
$$$$

  -OEChem-05262214473D

 43 42  0     1  0  0  0  0  0999 V2000
   -2.8661   -4.7415    2.2943 C   0  0  0  0  0  0  0  0  0  0  0  0
   -2.0233   -5.5727    2.6109 O   0  0  0  0  0  0  0  0  0  0  0  0
   -4.3078   -5.0134    2.5698 C   0  0  0  0  0  0  0  0  0  0  0  0
   -4.8057   -5.5295    1.7332 H   0  0  0  0  0  0  0  0  0  0  0  0
   -4.4526   -5.6688    3.4436 H   0  0  0  0  0  0  0  0  0  0  0  0
   -4.9255   -4.1233    2.7700 H   0  0  0  0  0  0  0  0  0  0  0  0
   -2.6241   -3.5219    1.6838 N   0  0  0  0  0  0  0  0  0  0  0  0
   -1.3070   -3.0608    1.3315 C   0  0  2  0  0  0  0  0  0  0  0  0
   -1.3931   -1.5680    1.0422 C   0  0  0  0  0  0  0  0  0  0  0  0
   -2.4385   -1.0059    0.7226 O   0  0  0  0  0  0  0  0  0  0  0  0
   -0.7590   -3.8164    0.1309 C   0  0  0  0  0  0  0  0  0  0  0  0
   -3.4188   -2.9207    1.4735 H   0  0  0  0  0  0  0  0  0  0  0  0
   -0.6690   -3.2277    2.2062 H   0  0  0  0  0  0  0  0  0  0  0  0
   -1.3852   -3.6613   -0.7553 H   0  0  0  0  0  0  0  0  0  0  0  0
    0.2542   -3.4843   -0.1182 H   0  0  0  0  0  0  0  0  0  0  0  0
   -0.7257   -4.8930    0.3300 H   0  0  0  0  0  0  0  0  0  0  0  0
   -0.1563   -0.9420    1.1402 N   0  0  0  0  0  0  0  0  0  0  0  0
    0.0261    0.4671    0.9001 C   0  0  2  0  0  0  0  0  0  0  0  0
    1.5166    0.7496    0.7229 C   0  0  0  0  0  0  0  0  0  0  0  0
    2.2561    1.0542    1.6566 O   0  0  0  0  0  0  0  0  0  0  0  0
   -0.6315    1.3319    1.9784 C   0  0  0  0  0  0  0  0  0  0  0  0
   -2.4485    1.1940    2.0234 S   0  0  0  0  0  0  0  0  0  0  0  0
    0.6533   -1.4855    1.4300 H   0  0  0  0  0  0  0  0  0  0  0  0
   -0.4654    0.6686   -0.0598 H   0  0  0  0  0  0  0  0  0  0  0  0
   -0.2577    1.0591    2.9707 H   0  0  0  0  0  0  0  0  0  0  0  0
   -0.3868    2.3864    1.8116 H   0  0  0  0  0  0  0  0  0  0  0  0
   -2.6233    2.0506    3.0378 H   0  0  0  0  0  0  0  0  0  0  0  0
    1.9166    0.6459   -0.6018 N   0  0  0  0  0  0  0  0  0  0  0  0
    3.2778    0.8778   -1.0250 C   0  0  2  0  0  0  0  0  0  0  0  0
    3.3108    0.8360   -2.5470 C   0  0  0  0  0  0  0  0  0  0  0  0
    2.4583    0.2613   -3.2209 O   0  0  0  0  0  0  0  0  0  0  0  0
    4.2250   -0.1538   -0.4322 C   0  0  0  0  0  0  0  0  0  0  0  0
    1.2444    0.3558   -1.3058 H   0  0  0  0  0  0  0  0  0  0  0  0
    3.5494    1.8817   -0.6807 H   0  0  0  0  0  0  0  0  0  0  0  0
    3.9686   -1.1659   -0.7659 H   0  0  0  0  0  0  0  0  0  0  0  0
    5.2604    0.0403   -0.7309 H   0  0  0  0  0  0  0  0  0  0  0  0
    4.1779   -0.1428    0.6621 H   0  0  0  0  0  0  0  0  0  0  0  0
    4.4274    1.4790   -3.0628 N   0  0  0  0  0  0  0  0  0  0  0  0
    4.6922    1.5651   -4.4799 C   0  0  0  0  0  0  0  0  0  0  0  0
    5.0722    1.9445   -2.4309 H   0  0  0  0  0  0  0  0  0  0  0  0
    5.3303    0.7230   -4.7861 H   0  0  0  0  0  0  0  0  0  0  0  0
    3.7425    1.5254   -5.0334 H   0  0  0  0  0  0  0  0  0  0  0  0
    5.2055    2.5128   -4.7000 H   0  0  0  0  0  0  0  0  0  0  0  0
  1  3  1  0  0  0  0
  1  7  1  0  0  0  0
  1  2  2  0  0  0  0
 29 30  1  0  0  0  0
 30 38  1  0  0  0  0
 30 31  2  0  0  0  0
  8  9  1  0  0  0  0
  9 17  1  0  0  0  0
  9 10  2  0  0  0  0
 18 19  1  0  0  0  0
 19 28  1  0  0  0  0
 19 20  2  0  0  0  0
 29 32  1  0  0  0  0
  8 11  1  0  0  0  0
 38 39  1  0  0  0  0
 18 21  1  0  0  0  0
 21 22  1  0  0  0  0
 28 29  1  0  0  0  0
  7  8  1  0  0  0  0
 17 18  1  0  0  0  0
  3  4  1  0  0  0  0
  3  5  1  0  0  0  0
  3  6  1  0  0  0  0
 32 35  1  0  0  0  0
 32 36  1  0  0  0  0
 32 37  1  0  0  0  0
 11 14  1  0  0  0  0
 11 15  1  0  0  0  0
 11 16  1  0  0  0  0
 39 41  1  0  0  0  0
 39 42  1  0  0  0  0
 39 43  1  0  0  0  0
 21 25  1  0  0  0  0
 21 26  1  0  0  0  0
 29 34  1  0  0  0  0
  8 13  1  0  0  0  0
 18 24  1  0  0  0  0
 38 40  1  0  0  0  0
  7 12  1  0  0  0  0
 28 33  1  0  0  0  0
 17 23  1  0  0  0  0
 22 27  1  0  0  0  0
M  END
$$$$

  -OEChem-05262214473D

 43 42  0     1  0  0  0  0  0999 V2000
   -2.8661   -4.7415    2.2943 C   0  0  0  0  0  0  0  0  0  0  0  0
   -2.0233   -5.5727    2.6109 O   0  0  0  0  0  0  0  0  0  0  0  0
   -4.3078   -5.0134    2.5698 C   0  0  0  0  0  0  0  0  0  0  0  0
   -4.8057   -5.5295    1.7332 H   0  0  0  0  0  0  0  0  0  0  0  0
   -4.4526   -5.6688    3.4436 H   0  0  0  0  0  0  0  0  0  0  0  0
   -4.9255   -4.1233    2.7700 H   0  0  0  0  0  0  0  0  0  0  0  0
   -2.6241   -3.5219    1.6838 N   0  0  0  0  0  0  0  0  0  0  0  0
   -1.3070   -3.0608    1.3315 C   0  0  2  0  0  0  0  0  0  0  0  0
   -1.3931   -1.5680    1.0422 C   0  0  0  0  0  0  0  0  0  0  0  0
   -2.4385   -1.0059    0.7226 O   0  0  0  0  0  0  0  0  0  0  0  0
   -0.7590   -3.8164    0.1309 C   0  0  0  0  0  0  0  0  0  0  0  0
   -3.4188   -2.9207    1.4735 H   0  0  0  0  0  0  0  0  0  0  0  0
   -0.6690   -3.2277    2.2062 H   0  0  0  0  0  0  0  0  0  0  0  0
   -1.3852   -3.6613   -0.7553 H   0  0  0  0  0  0  0  0  0  0  0  0
    0.2542   -3.4843   -0.1182 H   0  0  0  0  0  0  0  0  0  0  0  0
   -0.7257   -4.8930    0.3300 H   0  0  0  0  0  0  0  0  0  0  0  0
   -0.1563   -0.9420    1.1402 N   0  0  0  0  0  0  0  0  0  0  0  0
    0.0261    0.4671    0.9001 C   0  0  2  0  0  0  0  0  0  0  0  0
    1.5166    0.7496    0.7229 C   0  0  0  0  0  0  0  0  0  0  0  0
    2.3070    0.7900    1.6637 O   0  0  0  0  0  0  0  0  0  0  0  0
   -0.6315    1.3319    1.9784 C   0  0  0  0  0  0  0  0  0  0  0  0
   -2.4485    1.1940    2.0234 S   0  0  0  0  0  0  0  0  0  0  0  0
    0.6533   -1.4855    1.4300 H   0  0  0  0  0  0  0  0  0  0  0  0
   -0.4654    0.6686   -0.0598 H   0  0  0  0  0  0  0  0  0  0  0  0
   -0.2577    1.0591    2.9707 H   0  0  0  0  0  0  0  0  0  0  0  0
   -0.3868    2.3864    1.8116 H   0  0  0  0  0  0  0  0  0  0  0  0
   -2.6233    2.0506    3.0378 H   0  0  0  0  0  0  0  0  0  0  0  0
    1.8539    0.9753   -0.6041 N   0  0  0  0  0  0  0  0  0  0  0  0
    3.2027    1.2743   -1.0250 C   0  0  2  0  0  0  0  0  0  0  0  0
    3.1671    1.6186   -2.5082 C   0  0  0  0  0  0  0  0  0  0  0  0
    2.2655    1.2539   -3.2600 O   0  0  0  0  0  0  0  0  0  0  0  0
    4.1370    0.1038   -0.7610 C   0  0  0  0  0  0  0  0  0  0  0  0
    1.1413    0.8891   -1.3227 H   0  0  0  0  0  0  0  0  0  0  0  0
    3.5252    2.1515   -0.4536 H   0  0  0  0  0  0  0  0  0  0  0  0
    3.8298   -0.7843   -1.3251 H   0  0  0  0  0  0  0  0  0  0  0  0
    5.1647    0.3425   -1.0544 H   0  0  0  0  0  0  0  0  0  0  0  0
    4.1386   -0.1615    0.3017 H   0  0  0  0  0  0  0  0  0  0  0  0
    4.2824    2.3444   -2.9024 N   0  0  0  0  0  0  0  0  0  0  0  0
    4.4876    2.7803   -4.2640 C   0  0  0  0  0  0  0  0  0  0  0  0
    4.9708    2.6192   -2.2079 H   0  0  0  0  0  0  0  0  0  0  0  0
    5.0807    2.0282   -4.8049 H   0  0  0  0  0  0  0  0  0  0  0  0
    3.5136    2.9048   -4.7597 H   0  0  0  0  0  0  0  0  0  0  0  0
    5.0246    3.7403   -4.2645 H   0  0  0  0  0  0  0  0  0  0  0  0
  1  3  1  0  0  0  0
  1  7  1  0  0  0  0
  1  2  2  0  0  0  0
 29 30  1  0  0  0  0
 30 38  1  0  0  0  0
 30 31  2  0  0  0  0
  8  9  1  0  0  0  0
  9 17  1  0  0  0  0
  9 10  2  0  0  0  0
 18 19  1  0  0  0  0
 19 28  1  0  0  0  0
 19 20  2  0  0  0  0
 29 32  1  0  0  0  0
  8 11  1  0  0  0  0
 38 39  1  0  0  0  0
 18 21  1  0  0  0  0
 21 22  1  0  0  0  0
 28 29  1  0  0  0  0
  7  8  1  0  0  0  0
 17 18  1  0  0  0  0
  3  4  1  0  0  0  0
  3  5  1  0  0  0  0
  3  6  1  0  0  0  0
 32 35  1  0  0  0  0
 32 36  1  0  0  0  0
 32 37  1  0  0  0  0
 11 14  1  0  0  0  0
 11 15  1  0  0  0  0
 11 16  1  0  0  0  0
 39 41  1  0  0  0  0
 39 42  1  0  0  0  0
 39 43  1  0  0  0  0
 21 25  1  0  0  0  0
 21 26  1  0  0  0  0
 29 34  1  0  0  0  0
  8 13  1  0  0  0  0
 18 24  1  0  0  0  0
 38 40  1  0  0  0  0
  7 12  1  0  0  0  0
 28 33  1  0  0  0  0
 17 23  1  0  0  0  0
 22 27  1  0  0  0  0
M  END
$$$$

  -OEChem-05262214473D

 43 42  0     1  0  0  0  0  0999 V2000
   -2.8661   -4.7415    2.2943 C   0  0  0  0  0  0  0  0  0  0  0  0
   -2.0233   -5.5727    2.6109 O   0  0  0  0  0  0  0  0  0  0  0  0
   -4.3078   -5.0134    2.5698 C   0  0  0  0  0  0  0  0  0  0  0  0
   -4.8057   -5.5295    1.7332 H   0  0  0  0  0  0  0  0  0  0  0  0
   -4.4526   -5.6688    3.4436 H   0  0  0  0  0  0  0  0  0  0  0  0
   -4.9255   -4.1233    2.7700 H   0  0  0  0  0  0  0  0  0  0  0  0
   -2.6241   -3.5219    1.6838 N   0  0  0  0  0  0  0  0  0  0  0  0
   -1.3070   -3.0608    1.3315 C   0  0  2  0  0  0  0  0  0  0  0  0
   -1.3931   -1.5680    1.0422 C   0  0  0  0  0  0  0  0  0  0  0  0
   -2.4385   -1.0059    0.7226 O   0  0  0  0  0  0  0  0  0  0  0  0
   -0.7590   -3.8164    0.1309 C   0  0  0  0  0  0  0  0  0  0  0  0
   -3.4188   -2.9207    1.4735 H   0  0  0  0  0  0  0  0  0  0  0  0
   -0.6690   -3.2277    2.2062 H   0  0  0  0  0  0  0  0  0  0  0  0
   -1.3852   -3.6613   -0.7553 H   0  0  0  0  0  0  0  0  0  0  0  0
    0.2542   -3.4843   -0.1182 H   0  0  0  0  0  0  0  0  0  0  0  0
   -0.7257   -4.8930    0.3300 H   0  0  0  0  0  0  0  0  0  0  0  0
   -0.1563   -0.9420    1.1402 N   0  0  0  0  0  0  0  0  0  0  0  0
    0.0261    0.4671    0.9001 C   0  0  2  0  0  0  0  0  0  0  0  0
    1.5166    0.7496    0.7229 C   0  0  0  0  0  0  0  0  0  0  0  0
    2.3486    0.5315    1.6013 O   0  0  0  0  0  0  0  0  0  0  0  0
   -0.6315    1.3319    1.9784 C   0  0  0  0  0  0  0  0  0  0  0  0
   -2.4485    1.1940    2.0234 S   0  0  0  0  0  0  0  0  0  0  0  0
    0.6533   -1.4855    1.4300 H   0  0  0  0  0  0  0  0  0  0  0  0
   -0.4654    0.6686   -0.0598 H   0  0  0  0  0  0  0  0  0  0  0  0
   -0.2577    1.0591    2.9707 H   0  0  0  0  0  0  0  0  0  0  0  0
   -0.3868    2.3864    1.8116 H   0  0  0  0  0  0  0  0  0  0  0  0
   -2.6233    2.0506    3.0378 H   0  0  0  0  0  0  0  0  0  0  0  0
    1.8031    1.2960   -0.5201 N   0  0  0  0  0  0  0  0  0  0  0  0
    3.1420    1.6595   -0.9214 C   0  0  2  0  0  0  0  0  0  0  0  0
    3.0536    2.3690   -2.2661 C   0  0  0  0  0  0  0  0  0  0  0  0
    2.1072    2.2283   -3.0379 O   0  0  0  0  0  0  0  0  0  0  0  0
    4.0441    0.4384   -1.0093 C   0  0  0  0  0  0  0  0  0  0  0  0
    1.0569    1.4116   -1.1994 H   0  0  0  0  0  0  0  0  0  0  0  0
    3.5209    2.3554   -0.1649 H   0  0  0  0  0  0  0  0  0  0  0  0
    3.6804   -0.2703   -1.7623 H   0  0  0  0  0  0  0  0  0  0  0  0
    5.0658    0.7190   -1.2859 H   0  0  0  0  0  0  0  0  0  0  0  0
    4.0829   -0.0875   -0.0493 H   0  0  0  0  0  0  0  0  0  0  0  0
    4.1760    3.1441   -2.5220 N   0  0  0  0  0  0  0  0  0  0  0  0
    4.3367    3.9057   -3.7386 C   0  0  0  0  0  0  0  0  0  0  0  0
    4.9038    3.2175   -1.8173 H   0  0  0  0  0  0  0  0  0  0  0  0
    4.8779    3.3013   -4.4814 H   0  0  0  0  0  0  0  0  0  0  0  0
    3.3470    4.1750   -4.1359 H   0  0  0  0  0  0  0  0  0  0  0  0
    4.9076    4.8214   -3.5251 H   0  0  0  0  0  0  0  0  0  0  0  0
  1  3  1  0  0  0  0
  1  7  1  0  0  0  0
  1  2  2  0  0  0  0
 29 30  1  0  0  0  0
 30 38  1  0  0  0  0
 30 31  2  0  0  0  0
  8  9  1  0  0  0  0
  9 17  1  0  0  0  0
  9 10  2  0  0  0  0
 18 19  1  0  0  0  0
 19 28  1  0  0  0  0
 19 20  2  0  0  0  0
 29 32  1  0  0  0  0
  8 11  1  0  0  0  0
 38 39  1  0  0  0  0
 18 21  1  0  0  0  0
 21 22  1  0  0  0  0
 28 29  1  0  0  0  0
  7  8  1  0  0  0  0
 17 18  1  0  0  0  0
  3  4  1  0  0  0  0
  3  5  1  0  0  0  0
  3  6  1  0  0  0  0
 32 35  1  0  0  0  0
 32 36  1  0  0  0  0
 32 37  1  0  0  0  0
 11 14  1  0  0  0  0
 11 15  1  0  0  0  0
 11 16  1  0  0  0  0
 39 41  1  0  0  0  0
 39 42  1  0  0  0  0
 39 43  1  0  0  0  0
 21 25  1  0  0  0  0
 21 26  1  0  0  0  0
 29 34  1  0  0  0  0
  8 13  1  0  0  0  0
 18 24  1  0  0  0  0
 38 40  1  0  0  0  0
  7 12  1  0  0  0  0
 28 33  1  0  0  0  0
 17 23  1  0  0  0  0
 22 27  1  0  0  0  0
M  END
$$$$

  -OEChem-05262214473D

 43 42  0     1  0  0  0  0  0999 V2000
   -2.8661   -4.7415    2.2943 C   0  0  0  0  0  0  0  0  0  0  0  0
   -2.0233   -5.5727    2.6109 O   0  0  0  0  0  0  0  0  0  0  0  0
   -4.3078   -5.0134    2.5698 C   0  0  0  0  0  0  0  0  0  0  0  0
   -4.8057   -5.5295    1.7332 H   0  0  0  0  0  0  0  0  0  0  0  0
   -4.4526   -5.6688    3.4436 H   0  0  0  0  0  0  0  0  0  0  0  0
   -4.9255   -4.1233    2.7700 H   0  0  0  0  0  0  0  0  0  0  0  0
   -2.6241   -3.5219    1.6838 N   0  0  0  0  0  0  0  0  0  0  0  0
   -1.3070   -3.0608    1.3315 C   0  0  2  0  0  0  0  0  0  0  0  0
   -1.3931   -1.5680    1.0422 C   0  0  0  0  0  0  0  0  0  0  0  0
   -2.4385   -1.0059    0.7226 O   0  0  0  0  0  0  0  0  0  0  0  0
   -0.7590   -3.8164    0.1309 C   0  0  0  0  0  0  0  0  0  0  0  0
   -3.4188   -2.9207    1.4735 H   0  0  0  0  0  0  0  0  0  0  0  0
   -0.6690   -3.2277    2.2062 H   0  0  0  0  0  0  0  0  0  0  0  0
   -1.3852   -3.6613   -0.7553 H   0  0  0  0  0  0  0  0  0  0  0  0
    0.2542   -3.4843   -0.1182 H   0  0  0  0  0  0  0  0  0  0  0  0
   -0.7257   -4.8930    0.3300 H   0  0  0  0  0  0  0  0  0  0  0  0
   -0.1563   -0.9420    1.1402 N   0  0  0  0  0  0  0  0  0  0  0  0
    0.0261    0.4671    0.9001 C   0  0  2  0  0  0  0  0  0  0  0  0
    1.5166    0.7496    0.7229 C   0  0  0  0  0  0  0  0  0  0  0  0
    2.3780    0.2963    1.4738 O   0  0  0  0  0  0  0  0  0  0  0  0
   -0.6315    1.3319    1.9784 C   0  0  0  0  0  0  0  0  0  0  0  0
   -2.4485    1.1940    2.0234 S   0  0  0  0  0  0  0  0  0  0  0  0
    0.6533   -1.4855    1.4300 H   0  0  0  0  0  0  0  0  0  0  0  0
   -0.4654    0.6686   -0.0598 H   0  0  0  0  0  0  0  0  0  0  0  0
   -0.2577    1.0591    2.9707 H   0  0  0  0  0  0  0  0  0  0  0  0
   -0.3868    2.3864    1.8116 H   0  0  0  0  0  0  0  0  0  0  0  0
   -2.6233    2.0506    3.0378 H   0  0  0  0  0  0  0  0  0  0  0  0
    1.7677    1.5860   -0.3555 N   0  0  0  0  0  0  0  0  0  0  0  0
    3.0999    2.0073   -0.7210 C   0  0  2  0  0  0  0  0  0  0  0  0
    2.9781    3.0361   -1.8373 C   0  0  0  0  0  0  0  0  0  0  0  0
    1.9942    3.1181   -2.5696 O   0  0  0  0  0  0  0  0  0  0  0  0
    3.9525    0.8271   -1.1602 C   0  0  0  0  0  0  0  0  0  0  0  0
    0.9970    1.8878   -0.9443 H   0  0  0  0  0  0  0  0  0  0  0  0
    3.5367    2.4795    0.1657 H   0  0  0  0  0  0  0  0  0  0  0  0
    3.5305    0.3411   -2.0475 H   0  0  0  0  0  0  0  0  0  0  0  0
    4.9705    1.1440   -1.4097 H   0  0  0  0  0  0  0  0  0  0  0  0
    4.0144    0.0744   -0.3669 H   0  0  0  0  0  0  0  0  0  0  0  0
    4.1155    3.8238   -1.9475 N   0  0  0  0  0  0  0  0  0  0  0  0
    4.2500    4.8646   -2.9397 C   0  0  0  0  0  0  0  0  0  0  0  0
    4.8758    3.6989   -1.2856 H   0  0  0  0  0  0  0  0  0  0  0  0
    4.7357    4.4553   -3.8378 H   0  0  0  0  0  0  0  0  0  0  0  0
    3.2541    5.2493   -3.2047 H   0  0  0  0  0  0  0  0  0  0  0  0
    4.8625    5.6825   -2.5323 H   0  0  0  0  0  0  0  0  0  0  0  0
  1  3  1  0  0  0  0
  1  7  1  0  0  0  0
  1  2  2  0  0  0  0
 29 30  1  0  0  0  0
 30 38  1  0  0  0  0
 30 31  2  0  0  0  0
  8  9  1  0  0  0  0
  9 17  1  0  0  0  0
  9 10  2  0  0  0  0
 18 19  1  0  0  0  0
 19 28  1  0  0  0  0
 19 20  2  0  0  0  0
 29 32  1  0  0  0  0
  8 11  1  0  0  0  0
 38 39  1  0  0  0  0
 18 21  1  0  0  0  0
 21 22  1  0  0  0  0
 28 29  1  0  0  0  0
  7  8  1  0  0  0  0
 17 18  1  0  0  0  0
  3  4  1  0  0  0  0
  3  5  1  0  0  0  0
  3  6  1  0  0  0  0
 32 35  1  0  0  0  0
 32 36  1  0  0  0  0
 32 37  1  0  0  0  0
 11 14  1  0  0  0  0
 11 15  1  0  0  0  0
 11 16  1  0  0  0  0
 39 41  1  0  0  0  0
 39 42  1  0  0  0  0
 39 43  1  0  0  0  0
 21 25  1  0  0  0  0
 21 26  1  0  0  0  0
 29 34  1  0  0  0  0
  8 13  1  0  0  0  0
 18 24  1  0  0  0  0
 38 40  1  0  0  0  0
  7 12  1  0  0  0  0
 28 33  1  0  0  0  0
 17 23  1  0  0  0  0
 22 27  1  0  0  0  0
M  END
$$$$

  -OEChem-05262214473D

 43 42  0     1  0  0  0  0  0999 V2000
   -2.8661   -4.7415    2.2943 C   0  0  0  0  0  0  0  0  0  0  0  0
   -2.0233   -5.5727    2.6109 O   0  0  0  0  0  0  0  0  0  0  0  0
   -4.3078   -5.0134    2.5698 C   0  0  0  0  0  0  0  0  0  0  0  0
   -4.8057   -5.5295    1.7332 H   0  0  0  0  0  0  0  0  0  0  0  0
   -4.4526   -5.6688    3.4436 H   0  0  0  0  0  0  0  0  0  0  0  0
   -4.9255   -4.1233    2.7700 H   0  0  0  0  0  0  0  0  0  0  0  0
   -2.6241   -3.5219    1.6838 N   0  0  0  0  0  0  0  0  0  0  0  0
   -1.3070   -3.0608    1.3315 C   0  0  2  0  0  0  0  0  0  0  0  0
   -1.3931   -1.5680    1.0422 C   0  0  0  0  0  0  0  0  0  0  0  0
   -2.4385   -1.0059    0.7226 O   0  0  0  0  0  0  0  0  0  0  0  0
   -0.7590   -3.8164    0.1309 C   0  0  0  0  0  0  0  0  0  0  0  0
   -3.4188   -2.9207    1.4735 H   0  0  0  0  0  0  0  0  0  0  0  0
   -0.6690   -3.2277    2.2062 H   0  0  0  0  0  0  0  0  0  0  0  0
   -1.3852   -3.6613   -0.7553 H   0  0  0  0  0  0  0  0  0  0  0  0
    0.2542   -3.4843   -0.1182 H   0  0  0  0  0  0  0  0  0  0  0  0
   -0.7257   -4.8930    0.3300 H   0  0  0  0  0  0  0  0  0  0  0  0
   -0.1563   -0.9420    1.1402 N   0  0  0  0  0  0  0  0  0  0  0  0
    0.0261    0.4671    0.9001 C   0  0  2  0  0  0  0  0  0  0  0  0
    1.5166    0.7496    0.7229 C   0  0  0  0  0  0  0  0  0  0  0  0
    2.3932    0.1004    1.2898 O   0  0  0  0  0  0  0  0  0  0  0  0
   -0.6315    1.3319    1.9784 C   0  0  0  0  0  0  0  0  0  0  0  0
   -2.4485    1.1940    2.0234 S   0  0  0  0  0  0  0  0  0  0  0  0
    0.6533   -1.4855    1.4300 H   0  0  0  0  0  0  0  0  0  0  0  0
   -0.4654    0.6686   -0.0598 H   0  0  0  0  0  0  0  0  0  0  0  0
   -0.2577    1.0591    2.9707 H   0  0  0  0  0  0  0  0  0  0  0  0
   -0.3868    2.3864    1.8116 H   0  0  0  0  0  0  0  0  0  0  0  0
   -2.6233    2.0506    3.0378 H   0  0  0  0  0  0  0  0  0  0  0  0
    1.7501    1.8256   -0.1217 N   0  0  0  0  0  0  0  0  0  0  0  0
    3.0793    2.2938   -0.4377 C   0  0  2  0  0  0  0  0  0  0  0  0
    2.9458    3.5745   -1.2510 C   0  0  0  0  0  0  0  0  0  0  0  0
    1.9342    3.8628   -1.8871 O   0  0  0  0  0  0  0  0  0  0  0  0
    3.8684    1.2433   -1.2035 C   0  0  0  0  0  0  0  0  0  0  0  0
    0.9656    2.2850   -0.5747 H   0  0  0  0  0  0  0  0  0  0  0  0
    3.5715    2.5155    0.5155 H   0  0  0  0  0  0  0  0  0  0  0  0
    3.3906    1.0082   -2.1615 H   0  0  0  0  0  0  0  0  0  0  0  0
    4.8853    1.5888   -1.4173 H   0  0  0  0  0  0  0  0  0  0  0  0
    3.9380    0.3130   -0.6295 H   0  0  0  0  0  0  0  0  0  0  0  0
    4.1050    4.3370   -1.2179 N   0  0  0  0  0  0  0  0  0  0  0  0
    4.2332    5.5917   -1.9216 C   0  0  0  0  0  0  0  0  0  0  0  0
    4.8887    4.0303   -0.6491 H   0  0  0  0  0  0  0  0  0  0  0  0
    4.6638    5.4117   -2.9177 H   0  0  0  0  0  0  0  0  0  0  0  0
    3.2412    6.0546   -2.0293 H   0  0  0  0  0  0  0  0  0  0  0  0
    4.8923    6.2648   -1.3536 H   0  0  0  0  0  0  0  0  0  0  0  0
  1  3  1  0  0  0  0
  1  7  1  0  0  0  0
  1  2  2  0  0  0  0
 29 30  1  0  0  0  0
 30 38  1  0  0  0  0
 30 31  2  0  0  0  0
  8  9  1  0  0  0  0
  9 17  1  0  0  0  0
  9 10  2  0  0  0  0
 18 19  1  0  0  0  0
 19 28  1  0  0  0  0
 19 20  2  0  0  0  0
 29 32  1  0  0  0  0
  8 11  1  0  0  0  0
 38 39  1  0  0  0  0
 18 21  1  0  0  0  0
 21 22  1  0  0  0  0
 28 29  1  0  0  0  0
  7  8  1  0  0  0  0
 17 18  1  0  0  0  0
  3  4  1  0  0  0  0
  3  5  1  0  0  0  0
  3  6  1  0  0  0  0
 32 35  1  0  0  0  0
 32 36  1  0  0  0  0
 32 37  1  0  0  0  0
 11 14  1  0  0  0  0
 11 15  1  0  0  0  0
 11 16  1  0  0  0  0
 39 41  1  0  0  0  0
 39 42  1  0  0  0  0
 39 43  1  0  0  0  0
 21 25  1  0  0  0  0
 21 26  1  0  0  0  0
 29 34  1  0  0  0  0
  8 13  1  0  0  0  0
 18 24  1  0  0  0  0
 38 40  1  0  0  0  0
  7 12  1  0  0  0  0
 28 33  1  0  0  0  0
 17 23  1  0  0  0  0
 22 27  1  0  0  0  0
M  END
$$$$

  -OEChem-05262214473D

 43 42  0     1  0  0  0  0  0999 V2000
   -2.8661   -4.7415    2.2943 C   0  0  0  0  0  0  0  0  0  0  0  0
   -2.0233   -5.5727    2.6109 O   0  0  0  0  0  0  0  0  0  0  0  0
   -4.3078   -5.0134    2.5698 C   0  0  0  0  0  0  0  0  0  0  0  0
   -4.8057   -5.5295    1.7332 H   0  0  0  0  0  0  0  0  0  0  0  0
   -4.4526   -5.6688    3.4436 H   0  0  0  0  0  0  0  0  0  0  0  0
   -4.9255   -4.1233    2.7700 H   0  0  0  0  0  0  0  0  0  0  0  0
   -2.6241   -3.5219    1.6838 N   0  0  0  0  0  0  0  0  0  0  0  0
   -1.3070   -3.0608    1.3315 C   0  0  2  0  0  0  0  0  0  0  0  0
   -1.3931   -1.5680    1.0422 C   0  0  0  0  0  0  0  0  0  0  0  0
   -2.4385   -1.0059    0.7226 O   0  0  0  0  0  0  0  0  0  0  0  0
   -0.7590   -3.8164    0.1309 C   0  0  0  0  0  0  0  0  0  0  0  0
   -3.4188   -2.9207    1.4735 H   0  0  0  0  0  0  0  0  0  0  0  0
   -0.6690   -3.2277    2.2062 H   0  0  0  0  0  0  0  0  0  0  0  0
   -1.3852   -3.6613   -0.7553 H   0  0  0  0  0  0  0  0  0  0  0  0
    0.2542   -3.4843   -0.1182 H   0  0  0  0  0  0  0  0  0  0  0  0
   -0.7257   -4.8930    0.3300 H   0  0  0  0  0  0  0  0  0  0  0  0
   -0.1563   -0.9420    1.1402 N   0  0  0  0  0  0  0  0  0  0  0  0
    0.0261    0.4671    0.9001 C   0  0  2  0  0  0  0  0  0  0  0  0
    1.5166    0.7496    0.7229 C   0  0  0  0  0  0  0  0  0  0  0  0
    2.3933   -0.0427    1.0619 O   0  0  0  0  0  0  0  0  0  0  0  0
   -0.6315    1.3319    1.9784 C   0  0  0  0  0  0  0  0  0  0  0  0
   -2.4485    1.1940    2.0234 S   0  0  0  0  0  0  0  0  0  0  0  0
    0.6533   -1.4855    1.4300 H   0  0  0  0  0  0  0  0  0  0  0  0
   -0.4654    0.6686   -0.0598 H   0  0  0  0  0  0  0  0  0  0  0  0
   -0.2577    1.0591    2.9707 H   0  0  0  0  0  0  0  0  0  0  0  0
   -0.3868    2.3864    1.8116 H   0  0  0  0  0  0  0  0  0  0  0  0
   -2.6233    2.0506    3.0378 H   0  0  0  0  0  0  0  0  0  0  0  0
    1.7515    1.9986    0.1656 N   0  0  0  0  0  0  0  0  0  0  0  0
    3.0815    2.4997   -0.0906 C   0  0  2  0  0  0  0  0  0  0  0  0
    2.9588    3.9474   -0.5472 C   0  0  0  0  0  0  0  0  0  0  0  0
    1.9313    4.4115   -1.0370 O   0  0  0  0  0  0  0  0  0  0  0  0
    3.7977    1.6589   -1.1360 C   0  0  0  0  0  0  0  0  0  0  0  0
    0.9650    2.5763   -0.1159 H   0  0  0  0  0  0  0  0  0  0  0  0
    3.6229    2.4608    0.8609 H   0  0  0  0  0  0  0  0  0  0  0  0
    3.2699    1.6856   -2.0963 H   0  0  0  0  0  0  0  0  0  0  0  0
    4.8160    2.0228   -1.3083 H   0  0  0  0  0  0  0  0  0  0  0  0
    3.8587    0.6121   -0.8193 H   0  0  0  0  0  0  0  0  0  0  0  0
    4.1452    4.6487   -0.3832 N   0  0  0  0  0  0  0  0  0  0  0  0
    4.2876    6.0373   -0.7538 C   0  0  0  0  0  0  0  0  0  0  0  0
    4.9415    4.1894    0.0488 H   0  0  0  0  0  0  0  0  0  0  0  0
    4.6671    6.1053   -1.7841 H   0  0  0  0  0  0  0  0  0  0  0  0
    3.3092    6.5360   -0.6900 H   0  0  0  0  0  0  0  0  0  0  0  0
    4.9949    6.5287   -0.0695 H   0  0  0  0  0  0  0  0  0  0  0  0
  1  3  1  0  0  0  0
  1  7  1  0  0  0  0
  1  2  2  0  0  0  0
 29 30  1  0  0  0  0
 30 38  1  0  0  0  0
 30 31  2  0  0  0  0
  8  9  1  0  0  0  0
  9 17  1  0  0  0  0
  9 10  2  0  0  0  0
 18 19  1  0  0  0  0
 19 28  1  0  0  0  0
 19 20  2  0  0  0  0
 29 32  1  0  0  0  0
  8 11  1  0  0  0  0
 38 39  1  0  0  0  0
 18 21  1  0  0  0  0
 21 22  1  0  0  0  0
 28 29  1  0  0  0  0
  7  8  1  0  0  0  0
 17 18  1  0  0  0  0
  3  4  1  0  0  0  0
  3  5  1  0  0  0  0
  3  6  1  0  0  0  0
 32 35  1  0  0  0  0
 32 36  1  0  0  0  0
 32 37  1  0  0  0  0
 11 14  1  0  0  0  0
 11 15  1  0  0  0  0
 11 16  1  0  0  0  0
 39 41  1  0  0  0  0
 39 42  1  0  0  0  0
 39 43  1  0  0  0  0
 21 25  1  0  0  0  0
 21 26  1  0  0  0  0
 29 34  1  0  0  0  0
  8 13  1  0  0  0  0
 18 24  1  0  0  0  0
 38 40  1  0  0  0  0
  7 12  1  0  0  0  0
 28 33  1  0  0  0  0
 17 23  1  0  0  0  0
 22 27  1  0  0  0  0
M  END
$$$$

  -OEChem-05262214473D

 43 42  0     1  0  0  0  0  0999 V2000
   -2.8661   -4.7415    2.2943 C   0  0  0  0  0  0  0  0  0  0  0  0
   -2.0233   -5.5727    2.6109 O   0  0  0  0  0  0  0  0  0  0  0  0
   -4.3078   -5.0134    2.5698 C   0  0  0  0  0  0  0  0  0  0  0  0
   -4.8057   -5.5295    1.7332 H   0  0  0  0  0  0  0  0  0  0  0  0
   -4.4526   -5.6688    3.4436 H   0  0  0  0  0  0  0  0  0  0  0  0
   -4.9255   -4.1233    2.7700 H   0  0  0  0  0  0  0  0  0  0  0  0
   -2.6241   -3.5219    1.6838 N   0  0  0  0  0  0  0  0  0  0  0  0
   -1.3070   -3.0608    1.3315 C   0  0  2  0  0  0  0  0  0  0  0  0
   -1.3931   -1.5680    1.0422 C   0  0  0  0  0  0  0  0  0  0  0  0
   -2.4385   -1.0059    0.7226 O   0  0  0  0  0  0  0  0  0  0  0  0
   -0.7590   -3.8164    0.1309 C   0  0  0  0  0  0  0  0  0  0  0  0
   -3.4188   -2.9207    1.4735 H   0  0  0  0  0  0  0  0  0  0  0  0
   -0.6690   -3.2277    2.2062 H   0  0  0  0  0  0  0  0  0  0  0  0
   -1.3852   -3.6613   -0.7553 H   0  0  0  0  0  0  0  0  0  0  0  0
    0.2542   -3.4843   -0.1182 H   0  0  0  0  0  0  0  0  0  0  0  0
   -0.7257   -4.8930    0.3300 H   0  0  0  0  0  0  0  0  0  0  0  0
   -0.1563   -0.9420    1.1402 N   0  0  0  0  0  0  0  0  0  0  0  0
    0.0261    0.4671    0.9001 C   0  0  2  0  0  0  0  0  0  0  0  0
    1.4353    0.6980    0.3582 C   0  0  0  0  0  0  0  0  0  0  0  0
    2.2474   -0.2105    0.1957 O   0  0  0  0  0  0  0  0  0  0  0  0
   -0.2964    1.3148    2.1332 C   0  0  0  0  0  0  0  0  0  0  0  0
   -2.0476    1.2461    2.6341 S   0  0  0  0  0  0  0  0  0  0  0  0
    0.6533   -1.4855    1.4300 H   0  0  0  0  0  0  0  0  0  0  0  0
   -0.6817    0.7242    0.1023 H   0  0  0  0  0  0  0  0  0  0  0  0
    0.3024    0.9899    2.9903 H   0  0  0  0  0  0  0  0  0  0  0  0
   -0.0521    2.3647    1.9385 H   0  0  0  0  0  0  0  0  0  0  0  0
   -1.9200    2.0694    3.6825 H   0  0  0  0  0  0  0  0  0  0  0  0
    1.6859    2.0385    0.1017 N   0  0  0  0  0  0  0  0  0  0  0  0
    2.9524    2.5109   -0.4070 C   0  0  2  0  0  0  0  0  0  0  0  0
    2.9194    4.0335   -0.4107 C   0  0  0  0  0  0  0  0  0  0  0  0
    1.8750    4.6817   -0.4261 O   0  0  0  0  0  0  0  0  0  0  0  0
    3.2250    1.9697   -1.8018 C   0  0  0  0  0  0  0  0  0  0  0  0
    0.9443    2.7199    0.2334 H   0  0  0  0  0  0  0  0  0  0  0  0
    3.7226    2.1634    0.2902 H   0  0  0  0  0  0  0  0  0  0  0  0
    2.4636    2.3073   -2.5143 H   0  0  0  0  0  0  0  0  0  0  0  0
    4.1984    2.3055   -2.1744 H   0  0  0  0  0  0  0  0  0  0  0  0
    3.2189    0.8744   -1.8029 H   0  0  0  0  0  0  0  0  0  0  0  0
    4.1935    4.5831   -0.4383 N   0  0  0  0  0  0  0  0  0  0  0  0
    4.4276    6.0081   -0.4593 C   0  0  0  0  0  0  0  0  0  0  0  0
    5.0028    3.9702   -0.4043 H   0  0  0  0  0  0  0  0  0  0  0  0
    4.5155    6.3504   -1.5010 H   0  0  0  0  0  0  0  0  0  0  0  0
    3.5869    6.5249    0.0266 H   0  0  0  0  0  0  0  0  0  0  0  0
    5.3587    6.2346    0.0807 H   0  0  0  0  0  0  0  0  0  0  0  0
  1  3  1  0  0  0  0
  1  7  1  0  0  0  0
  1  2  2  0  0  0  0
 29 30  1  0  0  0  0
 30 38  1  0  0  0  0
 30 31  2  0  0  0  0
  8  9  1  0  0  0  0
  9 17  1  0  0  0  0
  9 10  2  0  0  0  0
 18 19  1  0  0  0  0
 19 28  1  0  0  0  0
 19 20  2  0  0  0  0
 29 32  1  0  0  0  0
  8 11  1  0  0  0  0
 38 39  1  0  0  0  0
 18 21  1  0  0  0  0
 21 22  1  0  0  0  0
 28 29  1  0  0  0  0
  7  8  1  0  0  0  0
 17 18  1  0  0  0  0
  3  4  1  0  0  0  0
  3  5  1  0  0  0  0
  3  6  1  0  0  0  0
 32 35  1  0  0  0  0
 32 36  1  0  0  0  0
 32 37  1  0  0  0  0
 11 14  1  0  0  0  0
 11 15  1  0  0  0  0
 11 16  1  0  0  0  0
 39 41  1  0  0  0  0
 39 42  1  0  0  0  0
 39 43  1  0  0  0  0
 21 25  1  0  0  0  0
 21 26  1  0  0  0  0
 29 34  1  0  0  0  0
  8 13  1  0  0  0  0
 18 24  1  0  0  0  0
 38 40  1  0  0  0  0
  7 12  1  0  0  0  0
 28 33  1  0  0  0  0
 17 23  1  0  0  0  0
 22 27  1  0  0  0  0
M  END
$$$$

  -OEChem-05262214473D

 43 42  0     1  0  0  0  0  0999 V2000
   -2.8661   -4.7415    2.2943 C   0  0  0  0  0  0  0  0  0  0  0  0
   -2.0233   -5.5727    2.6109 O   0  0  0  0  0  0  0  0  0  0  0  0
   -4.3078   -5.0134    2.5698 C   0  0  0  0  0  0  0  0  0  0  0  0
   -4.8057   -5.5295    1.7332 H   0  0  0  0  0  0  0  0  0  0  0  0
   -4.4526   -5.6688    3.4436 H   0  0  0  0  0  0  0  0  0  0  0  0
   -4.9255   -4.1233    2.7700 H   0  0  0  0  0  0  0  0  0  0  0  0
   -2.6241   -3.5219    1.6838 N   0  0  0  0  0  0  0  0  0  0  0  0
   -1.3070   -3.0608    1.3315 C   0  0  2  0  0  0  0  0  0  0  0  0
   -1.3931   -1.5680    1.0422 C   0  0  0  0  0  0  0  0  0  0  0  0
   -2.4385   -1.0059    0.7226 O   0  0  0  0  0  0  0  0  0  0  0  0
   -0.7590   -3.8164    0.1309 C   0  0  0  0  0  0  0  0  0  0  0  0
   -3.4188   -2.9207    1.4735 H   0  0  0  0  0  0  0  0  0  0  0  0
   -0.6690   -3.2277    2.2062 H   0  0  0  0  0  0  0  0  0  0  0  0
   -1.3852   -3.6613   -0.7553 H   0  0  0  0  0  0  0  0  0  0  0  0
    0.2542   -3.4843   -0.1182 H   0  0  0  0  0  0  0  0  0  0  0  0
   -0.7257   -4.8930    0.3300 H   0  0  0  0  0  0  0  0  0  0  0  0
   -0.1563   -0.9420    1.1402 N   0  0  0  0  0  0  0  0  0  0  0  0
    0.0261    0.4671    0.9001 C   0  0  2  0  0  0  0  0  0  0  0  0
    1.4353    0.6980    0.3582 C   0  0  0  0  0  0  0  0  0  0  0  0
    2.1510   -0.2119   -0.0555 O   0  0  0  0  0  0  0  0  0  0  0  0
   -0.2964    1.3148    2.1332 C   0  0  0  0  0  0  0  0  0  0  0  0
   -2.0476    1.2461    2.6341 S   0  0  0  0  0  0  0  0  0  0  0  0
    0.6533   -1.4855    1.4300 H   0  0  0  0  0  0  0  0  0  0  0  0
   -0.6817    0.7242    0.1023 H   0  0  0  0  0  0  0  0  0  0  0  0
    0.3024    0.9899    2.9903 H   0  0  0  0  0  0  0  0  0  0  0  0
   -0.0521    2.3647    1.9385 H   0  0  0  0  0  0  0  0  0  0  0  0
   -1.9200    2.0694    3.6825 H   0  0  0  0  0  0  0  0  0  0  0  0
    1.8069    2.0338    0.4144 N   0  0  0  0  0  0  0  0  0  0  0  0
    3.0984    2.5025   -0.0309 C   0  0  2  0  0  0  0  0  0  0  0  0
    3.2125    3.9782    0.3280 C   0  0  0  0  0  0  0  0  0  0  0  0
    2.2357    4.6995    0.5192 O   0  0  0  0  0  0  0  0  0  0  0  0
    3.2784    2.2912   -1.5261 C   0  0  0  0  0  0  0  0  0  0  0  0
    1.1386    2.7254    0.7409 H   0  0  0  0  0  0  0  0  0  0  0  0
    3.8507    1.9317    0.5245 H   0  0  0  0  0  0  0  0  0  0  0  0
    2.5335    2.8553   -2.0991 H   0  0  0  0  0  0  0  0  0  0  0  0
    4.2688    2.6208   -1.8570 H   0  0  0  0  0  0  0  0  0  0  0  0
    3.1664    1.2332   -1.7865 H   0  0  0  0  0  0  0  0  0  0  0  0
    4.5325    4.4051    0.3674 N   0  0  0  0  0  0  0  0  0  0  0  0
    4.9025    5.7674    0.6729 C   0  0  0  0  0  0  0  0  0  0  0  0
    5.2795    3.7341    0.2144 H   0  0  0  0  0  0  0  0  0  0  0  0
    4.9938    6.3413   -0.2611 H   0  0  0  0  0  0  0  0  0  0  0  0
    4.1295    6.2233    1.3091 H   0  0  0  0  0  0  0  0  0  0  0  0
    5.8659    5.7753    1.2037 H   0  0  0  0  0  0  0  0  0  0  0  0
  1  3  1  0  0  0  0
  1  7  1  0  0  0  0
  1  2  2  0  0  0  0
 29 30  1  0  0  0  0
 30 38  1  0  0  0  0
 30 31  2  0  0  0  0
  8  9  1  0  0  0  0
  9 17  1  0  0  0  0
  9 10  2  0  0  0  0
 18 19  1  0  0  0  0
 19 28  1  0  0  0  0
 19 20  2  0  0  0  0
 29 32  1  0  0  0  0
  8 11  1  0  0  0  0
 38 39  1  0  0  0  0
 18 21  1  0  0  0  0
 21 22  1  0  0  0  0
 28 29  1  0  0  0  0
  7  8  1  0  0  0  0
 17 18  1  0  0  0  0
  3  4  1  0  0  0  0
  3  5  1  0  0  0  0
  3  6  1  0  0  0  0
 32 35  1  0  0  0  0
 32 36  1  0  0  0  0
 32 37  1  0  0  0  0
 11 14  1  0  0  0  0
 11 15  1  0  0  0  0
 11 16  1  0  0  0  0
 39 41  1  0  0  0  0
 39 42  1  0  0  0  0
 39 43  1  0  0  0  0
 21 25  1  0  0  0  0
 21 26  1  0  0  0  0
 29 34  1  0  0  0  0
  8 13  1  0  0  0  0
 18 24  1  0  0  0  0
 38 40  1  0  0  0  0
  7 12  1  0  0  0  0
 28 33  1  0  0  0  0
 17 23  1  0  0  0  0
 22 27  1  0  0  0  0
M  END
$$$$

  -OEChem-05262214473D

 43 42  0     1  0  0  0  0  0999 V2000
   -2.8661   -4.7415    2.2943 C   0  0  0  0  0  0  0  0  0  0  0  0
   -2.0233   -5.5727    2.6109 O   0  0  0  0  0  0  0  0  0  0  0  0
   -4.3078   -5.0134    2.5698 C   0  0  0  0  0  0  0  0  0  0  0  0
   -4.8057   -5.5295    1.7332 H   0  0  0  0  0  0  0  0  0  0  0  0
   -4.4526   -5.6688    3.4436 H   0  0  0  0  0  0  0  0  0  0  0  0
   -4.9255   -4.1233    2.7700 H   0  0  0  0  0  0  0  0  0  0  0  0
   -2.6241   -3.5219    1.6838 N   0  0  0  0  0  0  0  0  0  0  0  0
   -1.3070   -3.0608    1.3315 C   0  0  2  0  0  0  0  0  0  0  0  0
   -1.3931   -1.5680    1.0422 C   0  0  0  0  0  0  0  0  0  0  0  0
   -2.4385   -1.0059    0.7226 O   0  0  0  0  0  0  0  0  0  0  0  0
   -0.7590   -3.8164    0.1309 C   0  0  0  0  0  0  0  0  0  0  0  0
   -3.4188   -2.9207    1.4735 H   0  0  0  0  0  0  0  0  0  0  0  0
   -0.6690   -3.2277    2.2062 H   0  0  0  0  0  0  0  0  0  0  0  0
   -1.3852   -3.6613   -0.7553 H   0  0  0  0  0  0  0  0  0  0  0  0
    0.2542   -3.4843   -0.1182 H   0  0  0  0  0  0  0  0  0  0  0  0
   -0.7257   -4.8930    0.3300 H   0  0  0  0  0  0  0  0  0  0  0  0
   -0.1563   -0.9420    1.1402 N   0  0  0  0  0  0  0  0  0  0  0  0
    0.0261    0.4671    0.9001 C   0  0  2  0  0  0  0  0  0  0  0  0
    1.4353    0.6980    0.3582 C   0  0  0  0  0  0  0  0  0  0  0  0
    2.0479   -0.1444   -0.2948 O   0  0  0  0  0  0  0  0  0  0  0  0
   -0.2964    1.3148    2.1332 C   0  0  0  0  0  0  0  0  0  0  0  0
   -2.0476    1.2461    2.6341 S   0  0  0  0  0  0  0  0  0  0  0  0
    0.6533   -1.4855    1.4300 H   0  0  0  0  0  0  0  0  0  0  0  0
   -0.6817    0.7242    0.1023 H   0  0  0  0  0  0  0  0  0  0  0  0
    0.3024    0.9899    2.9903 H   0  0  0  0  0  0  0  0  0  0  0  0
   -0.0521    2.3647    1.9385 H   0  0  0  0  0  0  0  0  0  0  0  0
   -1.9200    2.0694    3.6825 H   0  0  0  0  0  0  0  0  0  0  0  0
    1.9356    1.9434    0.7105 N   0  0  0  0  0  0  0  0  0  0  0  0
    3.2534    2.3912    0.3247 C   0  0  2  0  0  0  0  0  0  0  0  0
    3.5195    3.7214    1.0168 C   0  0  0  0  0  0  0  0  0  0  0  0
    2.6226    4.4578    1.4223 O   0  0  0  0  0  0  0  0  0  0  0  0
    3.3702    2.5310   -1.1851 C   0  0  0  0  0  0  0  0  0  0  0  0
    1.3466    2.5916    1.2249 H   0  0  0  0  0  0  0  0  0  0  0  0
    3.9622    1.6403    0.6904 H   0  0  0  0  0  0  0  0  0  0  0  0
    2.6675    3.2791   -1.5699 H   0  0  0  0  0  0  0  0  0  0  0  0
    4.3782    2.8430   -1.4779 H   0  0  0  0  0  0  0  0  0  0  0  0
    3.1494    1.5806   -1.6828 H   0  0  0  0  0  0  0  0  0  0  0  0
    4.8751    4.0098    1.0898 N   0  0  0  0  0  0  0  0  0  0  0  0
    5.3833    5.2209    1.6904 C   0  0  0  0  0  0  0  0  0  0  0  0
    5.5492    3.3328    0.7448 H   0  0  0  0  0  0  0  0  0  0  0  0
    5.5036    5.9925    0.9157 H   0  0  0  0  0  0  0  0  0  0  0  0
    4.6762    5.5758    2.4546 H   0  0  0  0  0  0  0  0  0  0  0  0
    6.3575    5.0170    2.1589 H   0  0  0  0  0  0  0  0  0  0  0  0
  1  3  1  0  0  0  0
  1  7  1  0  0  0  0
  1  2  2  0  0  0  0
 29 30  1  0  0  0  0
 30 38  1  0  0  0  0
 30 31  2  0  0  0  0
  8  9  1  0  0  0  0
  9 17  1  0  0  0  0
  9 10  2  0  0  0  0
 18 19  1  0  0  0  0
 19 28  1  0  0  0  0
 19 20  2  0  0  0  0
 29 32  1  0  0  0  0
  8 11  1  0  0  0  0
 38 39  1  0  0  0  0
 18 21  1  0  0  0  0
 21 22  1  0  0  0  0
 28 29  1  0  0  0  0
  7  8  1  0  0  0  0
 17 18  1  0  0  0  0
  3  4  1  0  0  0  0
  3  5  1  0  0  0  0
  3  6  1  0  0  0  0
 32 35  1  0  0  0  0
 32 36  1  0  0  0  0
 32 37  1  0  0  0  0
 11 14  1  0  0  0  0
 11 15  1  0  0  0  0
 11 16  1  0  0  0  0
 39 41  1  0  0  0  0
 39 42  1  0  0  0  0
 39 43  1  0  0  0  0
 21 25  1  0  0  0  0
 21 26  1  0  0  0  0
 29 34  1  0  0  0  0
  8 13  1  0  0  0  0
 18 24  1  0  0  0  0
 38 40  1  0  0  0  0
  7 12  1  0  0  0  0
 28 33  1  0  0  0  0
 17 23  1  0  0  0  0
 22 27  1  0  0  0  0
M  END
$$$$

  -OEChem-05262214473D

 43 42  0     1  0  0  0  0  0999 V2000
   -2.8661   -4.7415    2.2943 C   0  0  0  0  0  0  0  0  0  0  0  0
   -2.0233   -5.5727    2.6109 O   0  0  0  0  0  0  0  0  0  0  0  0
   -4.3078   -5.0134    2.5698 C   0  0  0  0  0  0  0  0  0  0  0  0
   -4.8057   -5.5295    1.7332 H   0  0  0  0  0  0  0  0  0  0  0  0
   -4.4526   -5.6688    3.4436 H   0  0  0  0  0  0  0  0  0  0  0  0
   -4.9255   -4.1233    2.7700 H   0  0  0  0  0  0  0  0  0  0  0  0
   -2.6241   -3.5219    1.6838 N   0  0  0  0  0  0  0  0  0  0  0  0
   -1.3070   -3.0608    1.3315 C   0  0  2  0  0  0  0  0  0  0  0  0
   -1.3931   -1.5680    1.0422 C   0  0  0  0  0  0  0  0  0  0  0  0
   -2.4385   -1.0059    0.7226 O   0  0  0  0  0  0  0  0  0  0  0  0
   -0.7590   -3.8164    0.1309 C   0  0  0  0  0  0  0  0  0  0  0  0
   -3.4188   -2.9207    1.4735 H   0  0  0  0  0  0  0  0  0  0  0  0
   -0.6690   -3.2277    2.2062 H   0  0  0  0  0  0  0  0  0  0  0  0
   -1.3852   -3.6613   -0.7553 H   0  0  0  0  0  0  0  0  0  0  0  0
    0.2542   -3.4843   -0.1182 H   0  0  0  0  0  0  0  0  0  0  0  0
   -0.7257   -4.8930    0.3300 H   0  0  0  0  0  0  0  0  0  0  0  0
   -0.1563   -0.9420    1.1402 N   0  0  0  0  0  0  0  0  0  0  0  0
    0.0261    0.4671    0.9001 C   0  0  2  0  0  0  0  0  0  0  0  0
    1.4353    0.6980    0.3582 C   0  0  0  0  0  0  0  0  0  0  0  0
    1.9452   -0.0126   -0.5058 O   0  0  0  0  0  0  0  0  0  0  0  0
   -0.2964    1.3148    2.1332 C   0  0  0  0  0  0  0  0  0  0  0  0
   -2.0476    1.2461    2.6341 S   0  0  0  0  0  0  0  0  0  0  0  0
    0.6533   -1.4855    1.4300 H   0  0  0  0  0  0  0  0  0  0  0  0
   -0.6817    0.7242    0.1023 H   0  0  0  0  0  0  0  0  0  0  0  0
    0.3024    0.9899    2.9903 H   0  0  0  0  0  0  0  0  0  0  0  0
   -0.0521    2.3647    1.9385 H   0  0  0  0  0  0  0  0  0  0  0  0
   -1.9200    2.0694    3.6825 H   0  0  0  0  0  0  0  0  0  0  0  0
    2.0633    1.7736    0.9700 N   0  0  0  0  0  0  0  0  0  0  0  0
    3.4068    2.1845    0.6355 C   0  0  2  0  0  0  0  0  0  0  0  0
    3.8194    3.2808    1.6089 C   0  0  0  0  0  0  0  0  0  0  0  0
    3.0095    3.9732    2.2219 O   0  0  0  0  0  0  0  0  0  0  0  0
    3.4943    2.6729   -0.8021 C   0  0  0  0  0  0  0  0  0  0  0  0
    1.5542    2.3278    1.6522 H   0  0  0  0  0  0  0  0  0  0  0  0
    4.0497    1.3089    0.7768 H   0  0  0  0  0  0  0  0  0  0  0  0
    2.8567    3.5498   -0.9628 H   0  0  0  0  0  0  0  0  0  0  0  0
    4.5191    2.9571   -1.0629 H   0  0  0  0  0  0  0  0  0  0  0  0
    3.1688    1.8931   -1.4991 H   0  0  0  0  0  0  0  0  0  0  0  0
    5.1980    3.4239    1.6798 N   0  0  0  0  0  0  0  0  0  0  0  0
    5.8375    4.4060    2.5240 C   0  0  0  0  0  0  0  0  0  0  0  0
    5.7937    2.7938    1.1508 H   0  0  0  0  0  0  0  0  0  0  0  0
    6.0100    5.3278    1.9492 H   0  0  0  0  0  0  0  0  0  0  0  0
    5.1895    4.6268    3.3851 H   0  0  0  0  0  0  0  0  0  0  0  0
    6.8001    4.0112    2.8812 H   0  0  0  0  0  0  0  0  0  0  0  0
  1  3  1  0  0  0  0
  1  7  1  0  0  0  0
  1  2  2  0  0  0  0
 29 30  1  0  0  0  0
 30 38  1  0  0  0  0
 30 31  2  0  0  0  0
  8  9  1  0  0  0  0
  9 17  1  0  0  0  0
  9 10  2  0  0  0  0
 18 19  1  0  0  0  0
 19 28  1  0  0  0  0
 19 20  2  0  0  0  0
 29 32  1  0  0  0  0
  8 11  1  0  0  0  0
 38 39  1  0  0  0  0
 18 21  1  0  0  0  0
 21 22  1  0  0  0  0
 28 29  1  0  0  0  0
  7  8  1  0  0  0  0
 17 18  1  0  0  0  0
  3  4  1  0  0  0  0
  3  5  1  0  0  0  0
  3  6  1  0  0  0  0
 32 35  1  0  0  0  0
 32 36  1  0  0  0  0
 32 37  1  0  0  0  0
 11 14  1  0  0  0  0
 11 15  1  0  0  0  0
 11 16  1  0  0  0  0
 39 41  1  0  0  0  0
 39 42  1  0  0  0  0
 39 43  1  0  0  0  0
 21 25  1  0  0  0  0
 21 26  1  0  0  0  0
 29 34  1  0  0  0  0
  8 13  1  0  0  0  0
 18 24  1  0  0  0  0
 38 40  1  0  0  0  0
  7 12  1  0  0  0  0
 28 33  1  0  0  0  0
 17 23  1  0  0  0  0
 22 27  1  0  0  0  0
M  END
$$$$

  -OEChem-05262214473D

 43 42  0     1  0  0  0  0  0999 V2000
   -2.8661   -4.7415    2.2943 C   0  0  0  0  0  0  0  0  0  0  0  0
   -2.0233   -5.5727    2.6109 O   0  0  0  0  0  0  0  0  0  0  0  0
   -4.3078   -5.0134    2.5698 C   0  0  0  0  0  0  0  0  0  0  0  0
   -4.8057   -5.5295    1.7332 H   0  0  0  0  0  0  0  0  0  0  0  0
   -4.4526   -5.6688    3.4436 H   0  0  0  0  0  0  0  0  0  0  0  0
   -4.9255   -4.1233    2.7700 H   0  0  0  0  0  0  0  0  0  0  0  0
   -2.6241   -3.5219    1.6838 N   0  0  0  0  0  0  0  0  0  0  0  0
   -1.3070   -3.0608    1.3315 C   0  0  2  0  0  0  0  0  0  0  0  0
   -1.3931   -1.5680    1.0422 C   0  0  0  0  0  0  0  0  0  0  0  0
   -2.4385   -1.0059    0.7226 O   0  0  0  0  0  0  0  0  0  0  0  0
   -0.7590   -3.8164    0.1309 C   0  0  0  0  0  0  0  0  0  0  0  0
   -3.4188   -2.9207    1.4735 H   0  0  0  0  0  0  0  0  0  0  0  0
   -0.6690   -3.2277    2.2062 H   0  0  0  0  0  0  0  0  0  0  0  0
   -1.3852   -3.6613   -0.7553 H   0  0  0  0  0  0  0  0  0  0  0  0
    0.2542   -3.4843   -0.1182 H   0  0  0  0  0  0  0  0  0  0  0  0
   -0.7257   -4.8930    0.3300 H   0  0  0  0  0  0  0  0  0  0  0  0
   -0.1563   -0.9420    1.1402 N   0  0  0  0  0  0  0  0  0  0  0  0
    0.0261    0.4671    0.9001 C   0  0  2  0  0  0  0  0  0  0  0  0
    1.4353    0.6980    0.3582 C   0  0  0  0  0  0  0  0  0  0  0  0
    1.8498    0.1746   -0.6741 O   0  0  0  0  0  0  0  0  0  0  0  0
   -0.2964    1.3148    2.1332 C   0  0  0  0  0  0  0  0  0  0  0  0
   -2.0476    1.2461    2.6341 S   0  0  0  0  0  0  0  0  0  0  0  0
    0.6533   -1.4855    1.4300 H   0  0  0  0  0  0  0  0  0  0  0  0
   -0.6817    0.7242    0.1023 H   0  0  0  0  0  0  0  0  0  0  0  0
    0.3024    0.9899    2.9903 H   0  0  0  0  0  0  0  0  0  0  0  0
   -0.0521    2.3647    1.9385 H   0  0  0  0  0  0  0  0  0  0  0  0
   -1.9200    2.0694    3.6825 H   0  0  0  0  0  0  0  0  0  0  0  0
    2.1811    1.5359    1.1751 N   0  0  0  0  0  0  0  0  0  0  0  0
    3.5481    1.8966    0.8803 C   0  0  2  0  0  0  0  0  0  0  0  0
    4.0918    2.6862    2.0638 C   0  0  0  0  0  0  0  0  0  0  0  0
    3.3700    3.2786    2.8633 O   0  0  0  0  0  0  0  0  0  0  0  0
    3.6422    2.7070   -0.4031 C   0  0  0  0  0  0  0  0  0  0  0  0
    1.7472    1.9518    1.9939 H   0  0  0  0  0  0  0  0  0  0  0  0
    4.1072    0.9602    0.7776 H   0  0  0  0  0  0  0  0  0  0  0  0
    3.0880    3.6489   -0.3192 H   0  0  0  0  0  0  0  0  0  0  0  0
    4.6819    2.9552   -0.6403 H   0  0  0  0  0  0  0  0  0  0  0  0
    3.2235    2.1492   -1.2477 H   0  0  0  0  0  0  0  0  0  0  0  0
    5.4792    2.6874    2.0972 N   0  0  0  0  0  0  0  0  0  0  0  0
    6.2339    3.3780    3.1168 C   0  0  0  0  0  0  0  0  0  0  0  0
    5.9962    2.1537    1.4047 H   0  0  0  0  0  0  0  0  0  0  0  0
    6.4785    4.3924    2.7689 H   0  0  0  0  0  0  0  0  0  0  0  0
    5.6346    3.4407    4.0371 H   0  0  0  0  0  0  0  0  0  0  0  0
    7.1635    2.8266    3.3214 H   0  0  0  0  0  0  0  0  0  0  0  0
  1  3  1  0  0  0  0
  1  7  1  0  0  0  0
  1  2  2  0  0  0  0
 29 30  1  0  0  0  0
 30 38  1  0  0  0  0
 30 31  2  0  0  0  0
  8  9  1  0  0  0  0
  9 17  1  0  0  0  0
  9 10  2  0  0  0  0
 18 19  1  0  0  0  0
 19 28  1  0  0  0  0
 19 20  2  0  0  0  0
 29 32  1  0  0  0  0
  8 11  1  0  0  0  0
 38 39  1  0  0  0  0
 18 21  1  0  0  0  0
 21 22  1  0  0  0  0
 28 29  1  0  0  0  0
  7  8  1  0  0  0  0
 17 18  1  0  0  0  0
  3  4  1  0  0  0  0
  3  5  1  0  0  0  0
  3  6  1  0  0  0  0
 32 35  1  0  0  0  0
 32 36  1  0  0  0  0
 32 37  1  0  0  0  0
 11 14  1  0  0  0  0
 11 15  1  0  0  0  0
 11 16  1  0  0  0  0
 39 41  1  0  0  0  0
 39 42  1  0  0  0  0
 39 43  1  0  0  0  0
 21 25  1  0  0  0  0
 21 26  1  0  0  0  0
 29 34  1  0  0  0  0
  8 13  1  0  0  0  0
 18 24  1  0  0  0  0
 38 40  1  0  0  0  0
  7 12  1  0  0  0  0
 28 33  1  0  0  0  0
 17 23  1  0  0  0  0
 22 27  1  0  0  0  0
M  END
$$$$

  -OEChem-05262214473D

 43 42  0     1  0  0  0  0  0999 V2000
   -2.8661   -4.7415    2.2943 C   0  0  0  0  0  0  0  0  0  0  0  0
   -2.0233   -5.5727    2.6109 O   0  0  0  0  0  0  0  0  0  0  0  0
   -4.3078   -5.0134    2.5698 C   0  0  0  0  0  0  0  0  0  0  0  0
   -4.8057   -5.5295    1.7332 H   0  0  0  0  0  0  0  0  0  0  0  0
   -4.4526   -5.6688    3.4436 H   0  0  0  0  0  0  0  0  0  0  0  0
   -4.9255   -4.1233    2.7700 H   0  0  0  0  0  0  0  0  0  0  0  0
   -2.6241   -3.5219    1.6838 N   0  0  0  0  0  0  0  0  0  0  0  0
   -1.3070   -3.0608    1.3315 C   0  0  2  0  0  0  0  0  0  0  0  0
   -1.3931   -1.5680    1.0422 C   0  0  0  0  0  0  0  0  0  0  0  0
   -2.4385   -1.0059    0.7226 O   0  0  0  0  0  0  0  0  0  0  0  0
   -0.7590   -3.8164    0.1309 C   0  0  0  0  0  0  0  0  0  0  0  0
   -3.4188   -2.9207    1.4735 H   0  0  0  0  0  0  0  0  0  0  0  0
   -0.6690   -3.2277    2.2062 H   0  0  0  0  0  0  0  0  0  0  0  0
   -1.3852   -3.6613   -0.7553 H   0  0  0  0  0  0  0  0  0  0  0  0
    0.2542   -3.4843   -0.1182 H   0  0  0  0  0  0  0  0  0  0  0  0
   -0.7257   -4.8930    0.3300 H   0  0  0  0  0  0  0  0  0  0  0  0
   -0.1563   -0.9420    1.1402 N   0  0  0  0  0  0  0  0  0  0  0  0
    0.0261    0.4671    0.9001 C   0  0  2  0  0  0  0  0  0  0  0  0
    1.4353    0.6980    0.3582 C   0  0  0  0  0  0  0  0  0  0  0  0
    1.7683    0.4043   -0.7882 O   0  0  0  0  0  0  0  0  0  0  0  0
   -0.2964    1.3148    2.1332 C   0  0  0  0  0  0  0  0  0  0  0  0
   -2.0476    1.2461    2.6341 S   0  0  0  0  0  0  0  0  0  0  0  0
    0.6533   -1.4855    1.4300 H   0  0  0  0  0  0  0  0  0  0  0  0
   -0.6817    0.7242    0.1023 H   0  0  0  0  0  0  0  0  0  0  0  0
    0.3024    0.9899    2.9903 H   0  0  0  0  0  0  0  0  0  0  0  0
   -0.0521    2.3647    1.9385 H   0  0  0  0  0  0  0  0  0  0  0  0
   -1.9200    2.0694    3.6825 H   0  0  0  0  0  0  0  0  0  0  0  0
    2.2811    1.2465    1.3118 N   0  0  0  0  0  0  0  0  0  0  0  0
    3.6678    1.5470    1.0426 C   0  0  2  0  0  0  0  0  0  0  0  0
    4.3181    1.9783    2.3505 C   0  0  0  0  0  0  0  0  0  0  0  0
    3.6796    2.4214    3.3029 O   0  0  0  0  0  0  0  0  0  0  0  0
    3.8037    2.6310   -0.0153 C   0  0  0  0  0  0  0  0  0  0  0  0
    1.9125    1.4893    2.2266 H   0  0  0  0  0  0  0  0  0  0  0  0
    4.1307    0.6178    0.6929 H   0  0  0  0  0  0  0  0  0  0  0  0
    3.3457    3.5697    0.3172 H   0  0  0  0  0  0  0  0  0  0  0  0
    4.8556    2.8376   -0.2389 H   0  0  0  0  0  0  0  0  0  0  0  0
    3.3097    2.3316   -0.9459 H   0  0  0  0  0  0  0  0  0  0  0  0
    5.6995    1.8506    2.3135 N   0  0  0  0  0  0  0  0  0  0  0  0
    6.5456    2.2071    3.4284 C   0  0  0  0  0  0  0  0  0  0  0  0
    6.1430    1.4562    1.4891 H   0  0  0  0  0  0  0  0  0  0  0  0
    6.8772    3.2502    3.3189 H   0  0  0  0  0  0  0  0  0  0  0  0
    5.9812    2.0984    4.3663 H   0  0  0  0  0  0  0  0  0  0  0  0
    7.4229    1.5439    3.4495 H   0  0  0  0  0  0  0  0  0  0  0  0
  1  3  1  0  0  0  0
  1  7  1  0  0  0  0
  1  2  2  0  0  0  0
 29 30  1  0  0  0  0
 30 38  1  0  0  0  0
 30 31  2  0  0  0  0
  8  9  1  0  0  0  0
  9 17  1  0  0  0  0
  9 10  2  0  0  0  0
 18 19  1  0  0  0  0
 19 28  1  0  0  0  0
 19 20  2  0  0  0  0
 29 32  1  0  0  0  0
  8 11  1  0  0  0  0
 38 39  1  0  0  0  0
 18 21  1  0  0  0  0
 21 22  1  0  0  0  0
 28 29  1  0  0  0  0
  7  8  1  0  0  0  0
 17 18  1  0  0  0  0
  3  4  1  0  0  0  0
  3  5  1  0  0  0  0
  3  6  1  0  0  0  0
 32 35  1  0  0  0  0
 32 36  1  0  0  0  0
 32 37  1  0  0  0  0
 11 14  1  0  0  0  0
 11 15  1  0  0  0  0
 11 16  1  0  0  0  0
 39 41  1  0  0  0  0
 39 42  1  0  0  0  0
 39 43  1  0  0  0  0
 21 25  1  0  0  0  0
 21 26  1  0  0  0  0
 29 34  1  0  0  0  0
  8 13  1  0  0  0  0
 18 24  1  0  0  0  0
 38 40  1  0  0  0  0
  7 12  1  0  0  0  0
 28 33  1  0  0  0  0
 17 23  1  0  0  0  0
 22 27  1  0  0  0  0
M  END
$$$$

  -OEChem-05262214473D

 43 42  0     1  0  0  0  0  0999 V2000
   -2.8661   -4.7415    2.2943 C   0  0  0  0  0  0  0  0  0  0  0  0
   -2.0233   -5.5727    2.6109 O   0  0  0  0  0  0  0  0  0  0  0  0
   -4.3078   -5.0134    2.5698 C   0  0  0  0  0  0  0  0  0  0  0  0
   -4.8057   -5.5295    1.7332 H   0  0  0  0  0  0  0  0  0  0  0  0
   -4.4526   -5.6688    3.4436 H   0  0  0  0  0  0  0  0  0  0  0  0
   -4.9255   -4.1233    2.7700 H   0  0  0  0  0  0  0  0  0  0  0  0
   -2.6241   -3.5219    1.6838 N   0  0  0  0  0  0  0  0  0  0  0  0
   -1.3070   -3.0608    1.3315 C   0  0  2  0  0  0  0  0  0  0  0  0
   -1.3931   -1.5680    1.0422 C   0  0  0  0  0  0  0  0  0  0  0  0
   -2.4385   -1.0059    0.7226 O   0  0  0  0  0  0  0  0  0  0  0  0
   -0.7590   -3.8164    0.1309 C   0  0  0  0  0  0  0  0  0  0  0  0
   -3.4188   -2.9207    1.4735 H   0  0  0  0  0  0  0  0  0  0  0  0
   -0.6690   -3.2277    2.2062 H   0  0  0  0  0  0  0  0  0  0  0  0
   -1.3852   -3.6613   -0.7553 H   0  0  0  0  0  0  0  0  0  0  0  0
    0.2542   -3.4843   -0.1182 H   0  0  0  0  0  0  0  0  0  0  0  0
   -0.7257   -4.8930    0.3300 H   0  0  0  0  0  0  0  0  0  0  0  0
   -0.1563   -0.9420    1.1402 N   0  0  0  0  0  0  0  0  0  0  0  0
    0.0261    0.4671    0.9001 C   0  0  2  0  0  0  0  0  0  0  0  0
    1.4353    0.6980    0.3582 C   0  0  0  0  0  0  0  0  0  0  0  0
    1.7062    0.6609   -0.8404 O   0  0  0  0  0  0  0  0  0  0  0  0
   -0.2964    1.3148    2.1332 C   0  0  0  0  0  0  0  0  0  0  0  0
   -2.0476    1.2461    2.6341 S   0  0  0  0  0  0  0  0  0  0  0  0
    0.6533   -1.4855    1.4300 H   0  0  0  0  0  0  0  0  0  0  0  0
   -0.6817    0.7242    0.1023 H   0  0  0  0  0  0  0  0  0  0  0  0
    0.3024    0.9899    2.9903 H   0  0  0  0  0  0  0  0  0  0  0  0
   -0.0521    2.3647    1.9385 H   0  0  0  0  0  0  0  0  0  0  0  0
   -1.9200    2.0694    3.6825 H   0  0  0  0  0  0  0  0  0  0  0  0
    2.3564    0.9251    1.3708 N   0  0  0  0  0  0  0  0  0  0  0  0
    3.7576    1.1597    1.1111 C   0  0  2  0  0  0  0  0  0  0  0  0
    4.4828    1.2052    2.4496 C   0  0  0  0  0  0  0  0  0  0  0  0
    3.9170    1.4600    3.5107 O   0  0  0  0  0  0  0  0  0  0  0  0
    3.9680    2.4503    0.3348 C   0  0  0  0  0  0  0  0  0  0  0  0
    2.0387    0.9718    2.3344 H   0  0  0  0  0  0  0  0  0  0  0  0
    4.1187    0.3052    0.5284 H   0  0  0  0  0  0  0  0  0  0  0  0
    3.6123    3.3176    0.9028 H   0  0  0  0  0  0  0  0  0  0  0  0
    5.0282    2.6121    0.1139 H   0  0  0  0  0  0  0  0  0  0  0  0
    3.4215    2.4277   -0.6143 H   0  0  0  0  0  0  0  0  0  0  0  0
    5.8439    0.9703    2.3140 N   0  0  0  0  0  0  0  0  0  0  0  0
    6.7513    0.9730    3.4376 C   0  0  0  0  0  0  0  0  0  0  0  0
    6.2240    0.7489    1.3984 H   0  0  0  0  0  0  0  0  0  0  0  0
    7.1789    1.9788    3.5619 H   0  0  0  0  0  0  0  0  0  0  0  0
    6.2055    0.6914    4.3502 H   0  0  0  0  0  0  0  0  0  0  0  0
    7.5607    0.2504    3.2568 H   0  0  0  0  0  0  0  0  0  0  0  0
  1  3  1  0  0  0  0
  1  7  1  0  0  0  0
  1  2  2  0  0  0  0
 29 30  1  0  0  0  0
 30 38  1  0  0  0  0
 30 31  2  0  0  0  0
  8  9  1  0  0  0  0
  9 17  1  0  0  0  0
  9 10  2  0  0  0  0
 18 19  1  0  0  0  0
 19 28  1  0  0  0  0
 19 20  2  0  0  0  0
 29 32  1  0  0  0  0
  8 11  1  0  0  0  0
 38 39  1  0  0  0  0
 18 21  1  0  0  0  0
 21 22  1  0  0  0  0
 28 29  1  0  0  0  0
  7  8  1  0  0  0  0
 17 18  1  0  0  0  0
  3  4  1  0  0  0  0
  3  5  1  0  0  0  0
  3  6  1  0  0  0  0
 32 35  1  0  0  0  0
 32 36  1  0  0  0  0
 32 37  1  0  0  0  0
 11 14  1  0  0  0  0
 11 15  1  0  0  0  0
 11 16  1  0  0  0  0
 39 41  1  0  0  0  0
 39 42  1  0  0  0  0
 39 43  1  0  0  0  0
 21 25  1  0  0  0  0
 21 26  1  0  0  0  0
 29 34  1  0  0  0  0
  8 13  1  0  0  0  0
 18 24  1  0  0  0  0
 38 40  1  0  0  0  0
  7 12  1  0  0  0  0
 28 33  1  0  0  0  0
 17 23  1  0  0  0  0
 22 27  1  0  0  0  0
M  END
$$$$

  -OEChem-05262214473D

 43 42  0     1  0  0  0  0  0999 V2000
   -2.8661   -4.7415    2.2943 C   0  0  0  0  0  0  0  0  0  0  0  0
   -2.0233   -5.5727    2.6109 O   0  0  0  0  0  0  0  0  0  0  0  0
   -4.3078   -5.0134    2.5698 C   0  0  0  0  0  0  0  0  0  0  0  0
   -4.8057   -5.5295    1.7332 H   0  0  0  0  0  0  0  0  0  0  0  0
   -4.4526   -5.6688    3.4436 H   0  0  0  0  0  0  0  0  0  0  0  0
   -4.9255   -4.1233    2.7700 H   0  0  0  0  0  0  0  0  0  0  0  0
   -2.6241   -3.5219    1.6838 N   0  0  0  0  0  0  0  0  0  0  0  0
   -1.3070   -3.0608    1.3315 C   0  0  2  0  0  0  0  0  0  0  0  0
   -1.3931   -1.5680    1.0422 C   0  0  0  0  0  0  0  0  0  0  0  0
   -2.4385   -1.0059    0.7226 O   0  0  0  0  0  0  0  0  0  0  0  0
   -0.7590   -3.8164    0.1309 C   0  0  0  0  0  0  0  0  0  0  0  0
   -3.4188   -2.9207    1.4735 H   0  0  0  0  0  0  0  0  0  0  0  0
   -0.6690   -3.2277    2.2062 H   0  0  0  0  0  0  0  0  0  0  0  0
   -1.3852   -3.6613   -0.7553 H   0  0  0  0  0  0  0  0  0  0  0  0
    0.2542   -3.4843   -0.1182 H   0  0  0  0  0  0  0  0  0  0  0  0
   -0.7257   -4.8930    0.3300 H   0  0  0  0  0  0  0  0  0  0  0  0
   -0.1563   -0.9420    1.1402 N   0  0  0  0  0  0  0  0  0  0  0  0
    0.0261    0.4671    0.9001 C   0  0  2  0  0  0  0  0  0  0  0  0
    1.4353    0.6980    0.3582 C   0  0  0  0  0  0  0  0  0  0  0  0
    1.6677    0.9270   -0.8271 O   0  0  0  0  0  0  0  0  0  0  0  0
   -0.2964    1.3148    2.1332 C   0  0  0  0  0  0  0  0  0  0  0  0
   -2.0476    1.2461    2.6341 S   0  0  0  0  0  0  0  0  0  0  0  0
    0.6533   -1.4855    1.4300 H   0  0  0  0  0  0  0  0  0  0  0  0
   -0.6817    0.7242    0.1023 H   0  0  0  0  0  0  0  0  0  0  0  0
    0.3024    0.9899    2.9903 H   0  0  0  0  0  0  0  0  0  0  0  0
   -0.0521    2.3647    1.9385 H   0  0  0  0  0  0  0  0  0  0  0  0
   -1.9200    2.0694    3.6825 H   0  0  0  0  0  0  0  0  0  0  0  0
    2.4020    0.5936    1.3482 N   0  0  0  0  0  0  0  0  0  0  0  0
    3.8115    0.7609    1.0813 C   0  0  2  0  0  0  0  0  0  0  0  0
    4.5749    0.4196    2.3543 C   0  0  0  0  0  0  0  0  0  0  0  0
    4.0662    0.4599    3.4726 O   0  0  0  0  0  0  0  0  0  0  0  0
    4.1238    2.1770    0.6234 C   0  0  0  0  0  0  0  0  0  0  0  0
    2.1174    0.4346    2.3101 H   0  0  0  0  0  0  0  0  0  0  0  0
    4.0719    0.0436    0.2953 H   0  0  0  0  0  0  0  0  0  0  0  0
    3.8695    2.9097    1.3979 H   0  0  0  0  0  0  0  0  0  0  0  0
    5.1881    2.2943    0.3941 H   0  0  0  0  0  0  0  0  0  0  0  0
    3.5513    2.4311   -0.2753 H   0  0  0  0  0  0  0  0  0  0  0  0
    5.9026    0.1067    2.0986 N   0  0  0  0  0  0  0  0  0  0  0  0
    6.8371   -0.2401    3.1438 C   0  0  0  0  0  0  0  0  0  0  0  0
    6.2337    0.0798    1.1387 H   0  0  0  0  0  0  0  0  0  0  0  0
    7.3631    0.6651    3.4812 H   0  0  0  0  0  0  0  0  0  0  0  0
    6.2923   -0.6843    3.9899 H   0  0  0  0  0  0  0  0  0  0  0  0
    7.5675   -0.9656    2.7564 H   0  0  0  0  0  0  0  0  0  0  0  0
  1  3  1  0  0  0  0
  1  7  1  0  0  0  0
  1  2  2  0  0  0  0
 29 30  1  0  0  0  0
 30 38  1  0  0  0  0
 30 31  2  0  0  0  0
  8  9  1  0  0  0  0
  9 17  1  0  0  0  0
  9 10  2  0  0  0  0
 18 19  1  0  0  0  0
 19 28  1  0  0  0  0
 19 20  2  0  0  0  0
 29 32  1  0  0  0  0
  8 11  1  0  0  0  0
 38 39  1  0  0  0  0
 18 21  1  0  0  0  0
 21 22  1  0  0  0  0
 28 29  1  0  0  0  0
  7  8  1  0  0  0  0
 17 18  1  0  0  0  0
  3  4  1  0  0  0  0
  3  5  1  0  0  0  0
  3  6  1  0  0  0  0
 32 35  1  0  0  0  0
 32 36  1  0  0  0  0
 32 37  1  0  0  0  0
 11 14  1  0  0  0  0
 11 15  1  0  0  0  0
 11 16  1  0  0  0  0
 39 41  1  0  0  0  0
 39 42  1  0  0  0  0
 39 43  1  0  0  0  0
 21 25  1  0  0  0  0
 21 26  1  0  0  0  0
 29 34  1  0  0  0  0
  8 13  1  0  0  0  0
 18 24  1  0  0  0  0
 38 40  1  0  0  0  0
  7 12  1  0  0  0  0
 28 33  1  0  0  0  0
 17 23  1  0  0  0  0
 22 27  1  0  0  0  0
M  END
$$$$

  -OEChem-05262214473D

 43 42  0     1  0  0  0  0  0999 V2000
   -2.8661   -4.7415    2.2943 C   0  0  0  0  0  0  0  0  0  0  0  0
   -2.0233   -5.5727    2.6109 O   0  0  0  0  0  0  0  0  0  0  0  0
   -4.3078   -5.0134    2.5698 C   0  0  0  0  0  0  0  0  0  0  0  0
   -4.8057   -5.5295    1.7332 H   0  0  0  0  0  0  0  0  0  0  0  0
   -4.4526   -5.6688    3.4436 H   0  0  0  0  0  0  0  0  0  0  0  0
   -4.9255   -4.1233    2.7700 H   0  0  0  0  0  0  0  0  0  0  0  0
   -2.6241   -3.5219    1.6838 N   0  0  0  0  0  0  0  0  0  0  0  0
   -1.3070   -3.0608    1.3315 C   0  0  2  0  0  0  0  0  0  0  0  0
   -1.3931   -1.5680    1.0422 C   0  0  0  0  0  0  0  0  0  0  0  0
   -2.4385   -1.0059    0.7226 O   0  0  0  0  0  0  0  0  0  0  0  0
   -0.7590   -3.8164    0.1309 C   0  0  0  0  0  0  0  0  0  0  0  0
   -3.4188   -2.9207    1.4735 H   0  0  0  0  0  0  0  0  0  0  0  0
   -0.6690   -3.2277    2.2062 H   0  0  0  0  0  0  0  0  0  0  0  0
   -1.3852   -3.6613   -0.7553 H   0  0  0  0  0  0  0  0  0  0  0  0
    0.2542   -3.4843   -0.1182 H   0  0  0  0  0  0  0  0  0  0  0  0
   -0.7257   -4.8930    0.3300 H   0  0  0  0  0  0  0  0  0  0  0  0
   -0.1563   -0.9420    1.1402 N   0  0  0  0  0  0  0  0  0  0  0  0
    0.0261    0.4671    0.9001 C   0  0  2  0  0  0  0  0  0  0  0  0
    1.4353    0.6980    0.3582 C   0  0  0  0  0  0  0  0  0  0  0  0
    1.6555    1.1843   -0.7493 O   0  0  0  0  0  0  0  0  0  0  0  0
   -0.2964    1.3148    2.1332 C   0  0  0  0  0  0  0  0  0  0  0  0
   -2.0476    1.2461    2.6341 S   0  0  0  0  0  0  0  0  0  0  0  0
    0.6533   -1.4855    1.4300 H   0  0  0  0  0  0  0  0  0  0  0  0
   -0.6817    0.7242    0.1023 H   0  0  0  0  0  0  0  0  0  0  0  0
    0.3024    0.9899    2.9903 H   0  0  0  0  0  0  0  0  0  0  0  0
   -0.0521    2.3647    1.9385 H   0  0  0  0  0  0  0  0  0  0  0  0
   -1.9200    2.0694    3.6825 H   0  0  0  0  0  0  0  0  0  0  0  0
    2.4147    0.2747    1.2453 N   0  0  0  0  0  0  0  0  0  0  0  0
    3.8258    0.3778    0.9552 C   0  0  2  0  0  0  0  0  0  0  0  0
    4.5879   -0.3248    2.0710 C   0  0  0  0  0  0  0  0  0  0  0  0
    4.1170   -0.5107    3.1912 O   0  0  0  0  0  0  0  0  0  0  0  0
    4.2604    1.8298    0.8308 C   0  0  0  0  0  0  0  0  0  0  0  0
    2.1431   -0.0857    2.1552 H   0  0  0  0  0  0  0  0  0  0  0  0
    3.9935   -0.1491    0.0095 H   0  0  0  0  0  0  0  0  0  0  0  0
    4.0999    2.3739    1.7686 H   0  0  0  0  0  0  0  0  0  0  0  0
    5.3242    1.9057    0.5826 H   0  0  0  0  0  0  0  0  0  0  0  0
    3.6903    2.3416    0.0479 H   0  0  0  0  0  0  0  0  0  0  0  0
    5.8715   -0.6814    1.6820 N   0  0  0  0  0  0  0  0  0  0  0  0
    6.7970   -1.3496    2.5669 C   0  0  0  0  0  0  0  0  0  0  0  0
    6.1715   -0.5053    0.7277 H   0  0  0  0  0  0  0  0  0  0  0  0
    7.4173   -0.6015    3.0823 H   0  0  0  0  0  0  0  0  0  0  0  0
    6.2358   -1.9352    3.3100 H   0  0  0  0  0  0  0  0  0  0  0  0
    7.4428   -2.0214    1.9825 H   0  0  0  0  0  0  0  0  0  0  0  0
  1  3  1  0  0  0  0
  1  7  1  0  0  0  0
  1  2  2  0  0  0  0
 29 30  1  0  0  0  0
 30 38  1  0  0  0  0
 30 31  2  0  0  0  0
  8  9  1  0  0  0  0
  9 17  1  0  0  0  0
  9 10  2  0  0  0  0
 18 19  1  0  0  0  0
 19 28  1  0  0  0  0
 19 20  2  0  0  0  0
 29 32  1  0  0  0  0
  8 11  1  0  0  0  0
 38 39  1  0  0  0  0
 18 21  1  0  0  0  0
 21 22  1  0  0  0  0
 28 29  1  0  0  0  0
  7  8  1  0  0  0  0
 17 18  1  0  0  0  0
  3  4  1  0  0  0  0
  3  5  1  0  0  0  0
  3  6  1  0  0  0  0
 32 35  1  0  0  0  0
 32 36  1  0  0  0  0
 32 37  1  0  0  0  0
 11 14  1  0  0  0  0
 11 15  1  0  0  0  0
 11 16  1  0  0  0  0
 39 41  1  0  0  0  0
 39 42  1  0  0  0  0
 39 43  1  0  0  0  0
 21 25  1  0  0  0  0
 21 26  1  0  0  0  0
 29 34  1  0  0  0  0
  8 13  1  0  0  0  0
 18 24  1  0  0  0  0
 38 40  1  0  0  0  0
  7 12  1  0  0  0  0
 28 33  1  0  0  0  0
 17 23  1  0  0  0  0
 22 27  1  0  0  0  0
M  END
$$$$

  -OEChem-05262214473D

 43 42  0     1  0  0  0  0  0999 V2000
   -2.8661   -4.7415    2.2943 C   0  0  0  0  0  0  0  0  0  0  0  0
   -2.0233   -5.5727    2.6109 O   0  0  0  0  0  0  0  0  0  0  0  0
   -4.3078   -5.0134    2.5698 C   0  0  0  0  0  0  0  0  0  0  0  0
   -4.8057   -5.5295    1.7332 H   0  0  0  0  0  0  0  0  0  0  0  0
   -4.4526   -5.6688    3.4436 H   0  0  0  0  0  0  0  0  0  0  0  0
   -4.9255   -4.1233    2.7700 H   0  0  0  0  0  0  0  0  0  0  0  0
   -2.6241   -3.5219    1.6838 N   0  0  0  0  0  0  0  0  0  0  0  0
   -1.3070   -3.0608    1.3315 C   0  0  2  0  0  0  0  0  0  0  0  0
   -1.3931   -1.5680    1.0422 C   0  0  0  0  0  0  0  0  0  0  0  0
   -2.4385   -1.0059    0.7226 O   0  0  0  0  0  0  0  0  0  0  0  0
   -0.7590   -3.8164    0.1309 C   0  0  0  0  0  0  0  0  0  0  0  0
   -3.4188   -2.9207    1.4735 H   0  0  0  0  0  0  0  0  0  0  0  0
   -0.6690   -3.2277    2.2062 H   0  0  0  0  0  0  0  0  0  0  0  0
   -1.3852   -3.6613   -0.7553 H   0  0  0  0  0  0  0  0  0  0  0  0
    0.2542   -3.4843   -0.1182 H   0  0  0  0  0  0  0  0  0  0  0  0
   -0.7257   -4.8930    0.3300 H   0  0  0  0  0  0  0  0  0  0  0  0
   -0.1563   -0.9420    1.1402 N   0  0  0  0  0  0  0  0  0  0  0  0
    0.0261    0.4671    0.9001 C   0  0  2  0  0  0  0  0  0  0  0  0
    1.4353    0.6980    0.3582 C   0  0  0  0  0  0  0  0  0  0  0  0
    1.6703    1.4154   -0.6121 O   0  0  0  0  0  0  0  0  0  0  0  0
   -0.2964    1.3148    2.1332 C   0  0  0  0  0  0  0  0  0  0  0  0
   -2.0476    1.2461    2.6341 S   0  0  0  0  0  0  0  0  0  0  0  0
    0.6533   -1.4855    1.4300 H   0  0  0  0  0  0  0  0  0  0  0  0
   -0.6817    0.7242    0.1023 H   0  0  0  0  0  0  0  0  0  0  0  0
    0.3024    0.9899    2.9903 H   0  0  0  0  0  0  0  0  0  0  0  0
   -0.0521    2.3647    1.9385 H   0  0  0  0  0  0  0  0  0  0  0  0
   -1.9200    2.0694    3.6825 H   0  0  0  0  0  0  0  0  0  0  0  0
    2.3937   -0.0100    1.0693 N   0  0  0  0  0  0  0  0  0  0  0  0
    3.7994    0.0366    0.7414 C   0  0  2  0  0  0  0  0  0  0  0  0
    4.5210   -0.9774    1.6191 C   0  0  0  0  0  0  0  0  0  0  0  0
    4.0659   -1.3857    2.6855 O   0  0  0  0  0  0  0  0  0  0  0  0
    4.3686    1.4324    0.9428 C   0  0  0  0  0  0  0  0  0  0  0  0
    2.1141   -0.5537    1.8804 H   0  0  0  0  0  0  0  0  0  0  0  0
    3.8890   -0.2598   -0.3094 H   0  0  0  0  0  0  0  0  0  0  0  0
    4.2877    1.7467    1.9898 H   0  0  0  0  0  0  0  0  0  0  0  0
    5.4274    1.4728    0.6666 H   0  0  0  0  0  0  0  0  0  0  0  0
    3.8290    2.1651    0.3332 H   0  0  0  0  0  0  0  0  0  0  0  0
    5.7528   -1.3404    1.0926 N   0  0  0  0  0  0  0  0  0  0  0  0
    6.6338   -2.2798    1.7463 C   0  0  0  0  0  0  0  0  0  0  0  0
    6.0416   -0.9666    0.1934 H   0  0  0  0  0  0  0  0  0  0  0  0
    7.3376   -1.7347    2.3925 H   0  0  0  0  0  0  0  0  0  0  0  0
    6.0397   -2.9758    2.3567 H   0  0  0  0  0  0  0  0  0  0  0  0
    7.1951   -2.8448    0.9876 H   0  0  0  0  0  0  0  0  0  0  0  0
  1  3  1  0  0  0  0
  1  7  1  0  0  0  0
  1  2  2  0  0  0  0
 29 30  1  0  0  0  0
 30 38  1  0  0  0  0
 30 31  2  0  0  0  0
  8  9  1  0  0  0  0
  9 17  1  0  0  0  0
  9 10  2  0  0  0  0
 18 19  1  0  0  0  0
 19 28  1  0  0  0  0
 19 20  2  0  0  0  0
 29 32  1  0  0  0  0
  8 11  1  0  0  0  0
 38 39  1  0  0  0  0
 18 21  1  0  0  0  0
 21 22  1  0  0  0  0
 28 29  1  0  0  0  0
  7  8  1  0  0  0  0
 17 18  1  0  0  0  0
  3  4  1  0  0  0  0
  3  5  1  0  0  0  0
  3  6  1  0  0  0  0
 32 35  1  0  0  0  0
 32 36  1  0  0  0  0
 32 37  1  0  0  0  0
 11 14  1  0  0  0  0
 11 15  1  0  0  0  0
 11 16  1  0  0  0  0
 39 41  1  0  0  0  0
 39 42  1  0  0  0  0
 39 43  1  0  0  0  0
 21 25  1  0  0  0  0
 21 26  1  0  0  0  0
 29 34  1  0  0  0  0
  8 13  1  0  0  0  0
 18 24  1  0  0  0  0
 38 40  1  0  0  0  0
  7 12  1  0  0  0  0
 28 33  1  0  0  0  0
 17 23  1  0  0  0  0
 22 27  1  0  0  0  0
M  END
$$$$

  -OEChem-05262214473D

 43 42  0     1  0  0  0  0  0999 V2000
   -2.8661   -4.7415    2.2943 C   0  0  0  0  0  0  0  0  0  0  0  0
   -2.0233   -5.5727    2.6109 O   0  0  0  0  0  0  0  0  0  0  0  0
   -4.3078   -5.0134    2.5698 C   0  0  0  0  0  0  0  0  0  0  0  0
   -4.8057   -5.5295    1.7332 H   0  0  0  0  0  0  0  0  0  0  0  0
   -4.4526   -5.6688    3.4436 H   0  0  0  0  0  0  0  0  0  0  0  0
   -4.9255   -4.1233    2.7700 H   0  0  0  0  0  0  0  0  0  0  0  0
   -2.6241   -3.5219    1.6838 N   0  0  0  0  0  0  0  0  0  0  0  0
   -1.3070   -3.0608    1.3315 C   0  0  2  0  0  0  0  0  0  0  0  0
   -1.3931   -1.5680    1.0422 C   0  0  0  0  0  0  0  0  0  0  0  0
   -2.4385   -1.0059    0.7226 O   0  0  0  0  0  0  0  0  0  0  0  0
   -0.7590   -3.8164    0.1309 C   0  0  0  0  0  0  0  0  0  0  0  0
   -3.4188   -2.9207    1.4735 H   0  0  0  0  0  0  0  0  0  0  0  0
   -0.6690   -3.2277    2.2062 H   0  0  0  0  0  0  0  0  0  0  0  0
   -1.3852   -3.6613   -0.7553 H   0  0  0  0  0  0  0  0  0  0  0  0
    0.2542   -3.4843   -0.1182 H   0  0  0  0  0  0  0  0  0  0  0  0
   -0.7257   -4.8930    0.3300 H   0  0  0  0  0  0  0  0  0  0  0  0
   -0.1563   -0.9420    1.1402 N   0  0  0  0  0  0  0  0  0  0  0  0
    0.0261    0.4671    0.9001 C   0  0  2  0  0  0  0  0  0  0  0  0
    1.4353    0.6980    0.3582 C   0  0  0  0  0  0  0  0  0  0  0  0
    1.7113    1.6045   -0.4250 O   0  0  0  0  0  0  0  0  0  0  0  0
   -0.2964    1.3148    2.1332 C   0  0  0  0  0  0  0  0  0  0  0  0
   -2.0476    1.2461    2.6341 S   0  0  0  0  0  0  0  0  0  0  0  0
    0.6533   -1.4855    1.4300 H   0  0  0  0  0  0  0  0  0  0  0  0
   -0.6817    0.7242    0.1023 H   0  0  0  0  0  0  0  0  0  0  0  0
    0.3024    0.9899    2.9903 H   0  0  0  0  0  0  0  0  0  0  0  0
   -0.0521    2.3647    1.9385 H   0  0  0  0  0  0  0  0  0  0  0  0
   -1.9200    2.0694    3.6825 H   0  0  0  0  0  0  0  0  0  0  0  0
    2.3403   -0.2410    0.8322 N   0  0  0  0  0  0  0  0  0  0  0  0
    3.7343   -0.2394    0.4543 C   0  0  2  0  0  0  0  0  0  0  0  0
    4.3788   -1.4938    1.0294 C   0  0  0  0  0  0  0  0  0  0  0  0
    3.9164   -2.1054    1.9902 O   0  0  0  0  0  0  0  0  0  0  0  0
    4.4411    1.0118    0.9519 C   0  0  0  0  0  0  0  0  0  0  0  0
    2.0323   -0.9374    1.5043 H   0  0  0  0  0  0  0  0  0  0  0  0
    3.7654   -0.2809   -0.6399 H   0  0  0  0  0  0  0  0  0  0  0  0
    4.4202    1.0708    2.0463 H   0  0  0  0  0  0  0  0  0  0  0  0
    5.4907    1.0251    0.6402 H   0  0  0  0  0  0  0  0  0  0  0  0
    3.9578    1.9138    0.5612 H   0  0  0  0  0  0  0  0  0  0  0  0
    5.5546   -1.8252    0.3707 N   0  0  0  0  0  0  0  0  0  0  0  0
    6.3587   -2.9674    0.7380 C   0  0  0  0  0  0  0  0  0  0  0  0
    5.8529   -1.2727   -0.4278 H   0  0  0  0  0  0  0  0  0  0  0  0
    7.1296   -2.6572    1.4587 H   0  0  0  0  0  0  0  0  0  0  0  0
    5.7174   -3.7354    1.1951 H   0  0  0  0  0  0  0  0  0  0  0  0
    6.8413   -3.3799   -0.1603 H   0  0  0  0  0  0  0  0  0  0  0  0
  1  3  1  0  0  0  0
  1  7  1  0  0  0  0
  1  2  2  0  0  0  0
 29 30  1  0  0  0  0
 30 38  1  0  0  0  0
 30 31  2  0  0  0  0
  8  9  1  0  0  0  0
  9 17  1  0  0  0  0
  9 10  2  0  0  0  0
 18 19  1  0  0  0  0
 19 28  1  0  0  0  0
 19 20  2  0  0  0  0
 29 32  1  0  0  0  0
  8 11  1  0  0  0  0
 38 39  1  0  0  0  0
 18 21  1  0  0  0  0
 21 22  1  0  0  0  0
 28 29  1  0  0  0  0
  7  8  1  0  0  0  0
 17 18  1  0  0  0  0
  3  4  1  0  0  0  0
  3  5  1  0  0  0  0
  3  6  1  0  0  0  0
 32 35  1  0  0  0  0
 32 36  1  0  0  0  0
 32 37  1  0  0  0  0
 11 14  1  0  0  0  0
 11 15  1  0  0  0  0
 11 16  1  0  0  0  0
 39 41  1  0  0  0  0
 39 42  1  0  0  0  0
 39 43  1  0  0  0  0
 21 25  1  0  0  0  0
 21 26  1  0  0  0  0
 29 34  1  0  0  0  0
  8 13  1  0  0  0  0
 18 24  1  0  0  0  0
 38 40  1  0  0  0  0
  7 12  1  0  0  0  0
 28 33  1  0  0  0  0
 17 23  1  0  0  0  0
 22 27  1  0  0  0  0
M  END
$$$$

  -OEChem-05262214473D

 43 42  0     1  0  0  0  0  0999 V2000
   -2.8661   -4.7415    2.2943 C   0  0  0  0  0  0  0  0  0  0  0  0
   -2.0233   -5.5727    2.6109 O   0  0  0  0  0  0  0  0  0  0  0  0
   -4.3078   -5.0134    2.5698 C   0  0  0  0  0  0  0  0  0  0  0  0
   -4.8057   -5.5295    1.7332 H   0  0  0  0  0  0  0  0  0  0  0  0
   -4.4526   -5.6688    3.4436 H   0  0  0  0  0  0  0  0  0  0  0  0
   -4.9255   -4.1233    2.7700 H   0  0  0  0  0  0  0  0  0  0  0  0
   -2.6241   -3.5219    1.6838 N   0  0  0  0  0  0  0  0  0  0  0  0
   -1.3070   -3.0608    1.3315 C   0  0  2  0  0  0  0  0  0  0  0  0
   -1.3931   -1.5680    1.0422 C   0  0  0  0  0  0  0  0  0  0  0  0
   -2.4385   -1.0059    0.7226 O   0  0  0  0  0  0  0  0  0  0  0  0
   -0.7590   -3.8164    0.1309 C   0  0  0  0  0  0  0  0  0  0  0  0
   -3.4188   -2.9207    1.4735 H   0  0  0  0  0  0  0  0  0  0  0  0
   -0.6690   -3.2277    2.2062 H   0  0  0  0  0  0  0  0  0  0  0  0
   -1.3852   -3.6613   -0.7553 H   0  0  0  0  0  0  0  0  0  0  0  0
    0.2542   -3.4843   -0.1182 H   0  0  0  0  0  0  0  0  0  0  0  0
   -0.7257   -4.8930    0.3300 H   0  0  0  0  0  0  0  0  0  0  0  0
   -0.1563   -0.9420    1.1402 N   0  0  0  0  0  0  0  0  0  0  0  0
    0.0261    0.4671    0.9001 C   0  0  2  0  0  0  0  0  0  0  0  0
    1.4353    0.6980    0.3582 C   0  0  0  0  0  0  0  0  0  0  0  0
    1.7756    1.7388   -0.2008 O   0  0  0  0  0  0  0  0  0  0  0  0
   -0.2964    1.3148    2.1332 C   0  0  0  0  0  0  0  0  0  0  0  0
   -2.0476    1.2461    2.6341 S   0  0  0  0  0  0  0  0  0  0  0  0
    0.6533   -1.4855    1.4300 H   0  0  0  0  0  0  0  0  0  0  0  0
   -0.6817    0.7242    0.1023 H   0  0  0  0  0  0  0  0  0  0  0  0
    0.3024    0.9899    2.9903 H   0  0  0  0  0  0  0  0  0  0  0  0
   -0.0521    2.3647    1.9385 H   0  0  0  0  0  0  0  0  0  0  0  0
   -1.9200    2.0694    3.6825 H   0  0  0  0  0  0  0  0  0  0  0  0
    2.2583   -0.4026    0.5501 N   0  0  0  0  0  0  0  0  0  0  0  0
    3.6348   -0.4316    0.1137 C   0  0  2  0  0  0  0  0  0  0  0  0
    4.1710   -1.8387    0.3420 C   0  0  0  0  0  0  0  0  0  0  0  0
    3.6787   -2.6208    1.1525 O   0  0  0  0  0  0  0  0  0  0  0  0
    4.4727    0.5967    0.8575 C   0  0  0  0  0  0  0  0  0  0  0  0
    1.9034   -1.2108    1.0526 H   0  0  0  0  0  0  0  0  0  0  0  0
    3.6311   -0.2111   -0.9593 H   0  0  0  0  0  0  0  0  0  0  0  0
    4.4882    0.3922    1.9342 H   0  0  0  0  0  0  0  0  0  0  0  0
    5.5096    0.5932    0.5054 H   0  0  0  0  0  0  0  0  0  0  0  0
    4.0682    1.6048    0.7165 H   0  0  0  0  0  0  0  0  0  0  0  0
    5.2903   -2.1030   -0.4348 N   0  0  0  0  0  0  0  0  0  0  0  0
    5.9903   -3.3655   -0.3895 C   0  0  0  0  0  0  0  0  0  0  0  0
    5.6181   -1.4027   -1.0934 H   0  0  0  0  0  0  0  0  0  0  0  0
    6.8074   -3.3062    0.3445 H   0  0  0  0  0  0  0  0  0  0  0  0
    5.2908   -4.1620   -0.0957 H   0  0  0  0  0  0  0  0  0  0  0  0
    6.4055   -3.5902   -1.3830 H   0  0  0  0  0  0  0  0  0  0  0  0
  1  3  1  0  0  0  0
  1  7  1  0  0  0  0
  1  2  2  0  0  0  0
 29 30  1  0  0  0  0
 30 38  1  0  0  0  0
 30 31  2  0  0  0  0
  8  9  1  0  0  0  0
  9 17  1  0  0  0  0
  9 10  2  0  0  0  0
 18 19  1  0  0  0  0
 19 28  1  0  0  0  0
 19 20  2  0  0  0  0
 29 32  1  0  0  0  0
  8 11  1  0  0  0  0
 38 39  1  0  0  0  0
 18 21  1  0  0  0  0
 21 22  1  0  0  0  0
 28 29  1  0  0  0  0
  7  8  1  0  0  0  0
 17 18  1  0  0  0  0
  3  4  1  0  0  0  0
  3  5  1  0  0  0  0
  3  6  1  0  0  0  0
 32 35  1  0  0  0  0
 32 36  1  0  0  0  0
 32 37  1  0  0  0  0
 11 14  1  0  0  0  0
 11 15  1  0  0  0  0
 11 16  1  0  0  0  0
 39 41  1  0  0  0  0
 39 42  1  0  0  0  0
 39 43  1  0  0  0  0
 21 25  1  0  0  0  0
 21 26  1  0  0  0  0
 29 34  1  0  0  0  0
  8 13  1  0  0  0  0
 18 24  1  0  0  0  0
 38 40  1  0  0  0  0
  7 12  1  0  0  0  0
 28 33  1  0  0  0  0
 17 23  1  0  0  0  0
 22 27  1  0  0  0  0
M  END
$$$$

  -OEChem-05262214473D

 43 42  0     1  0  0  0  0  0999 V2000
   -2.8661   -4.7415    2.2943 C   0  0  0  0  0  0  0  0  0  0  0  0
   -2.0233   -5.5727    2.6109 O   0  0  0  0  0  0  0  0  0  0  0  0
   -4.3078   -5.0134    2.5698 C   0  0  0  0  0  0  0  0  0  0  0  0
   -4.8057   -5.5295    1.7332 H   0  0  0  0  0  0  0  0  0  0  0  0
   -4.4526   -5.6688    3.4436 H   0  0  0  0  0  0  0  0  0  0  0  0
   -4.9255   -4.1233    2.7700 H   0  0  0  0  0  0  0  0  0  0  0  0
   -2.6241   -3.5219    1.6838 N   0  0  0  0  0  0  0  0  0  0  0  0
   -1.3070   -3.0608    1.3315 C   0  0  2  0  0  0  0  0  0  0  0  0
   -1.3931   -1.5680    1.0422 C   0  0  0  0  0  0  0  0  0  0  0  0
   -2.4385   -1.0059    0.7226 O   0  0  0  0  0  0  0  0  0  0  0  0
   -0.7590   -3.8164    0.1309 C   0  0  0  0  0  0  0  0  0  0  0  0
   -3.4188   -2.9207    1.4735 H   0  0  0  0  0  0  0  0  0  0  0  0
   -0.6690   -3.2277    2.2062 H   0  0  0  0  0  0  0  0  0  0  0  0
   -1.3852   -3.6613   -0.7553 H   0  0  0  0  0  0  0  0  0  0  0  0
    0.2542   -3.4843   -0.1182 H   0  0  0  0  0  0  0  0  0  0  0  0
   -0.7257   -4.8930    0.3300 H   0  0  0  0  0  0  0  0  0  0  0  0
   -0.1563   -0.9420    1.1402 N   0  0  0  0  0  0  0  0  0  0  0  0
    0.0261    0.4671    0.9001 C   0  0  2  0  0  0  0  0  0  0  0  0
    1.4353    0.6980    0.3582 C   0  0  0  0  0  0  0  0  0  0  0  0
    1.8587    1.8090    0.0454 O   0  0  0  0  0  0  0  0  0  0  0  0
   -0.2964    1.3148    2.1332 C   0  0  0  0  0  0  0  0  0  0  0  0
   -2.0476    1.2461    2.6341 S   0  0  0  0  0  0  0  0  0  0  0  0
    0.6533   -1.4855    1.4300 H   0  0  0  0  0  0  0  0  0  0  0  0
   -0.6817    0.7242    0.1023 H   0  0  0  0  0  0  0  0  0  0  0  0
    0.3024    0.9899    2.9903 H   0  0  0  0  0  0  0  0  0  0  0  0
   -0.0521    2.3647    1.9385 H   0  0  0  0  0  0  0  0  0  0  0  0
   -1.9200    2.0694    3.6825 H   0  0  0  0  0  0  0  0  0  0  0  0
    2.1532   -0.4838    0.2422 N   0  0  0  0  0  0  0  0  0  0  0  0
    3.5077   -0.5267   -0.2572 C   0  0  2  0  0  0  0  0  0  0  0  0
    3.9116   -1.9885   -0.3962 C   0  0  0  0  0  0  0  0  0  0  0  0
    3.3689   -2.8968    0.2296 O   0  0  0  0  0  0  0  0  0  0  0  0
    4.4615    0.2154    0.6659 C   0  0  0  0  0  0  0  0  0  0  0  0
    1.7360   -1.3551    0.5561 H   0  0  0  0  0  0  0  0  0  0  0  0
    3.4953   -0.0550   -1.2459 H   0  0  0  0  0  0  0  0  0  0  0  0
    4.4873   -0.2427    1.6613 H   0  0  0  0  0  0  0  0  0  0  0  0
    5.4829    0.2064    0.2713 H   0  0  0  0  0  0  0  0  0  0  0  0
    4.1524    1.2591    0.7883 H   0  0  0  0  0  0  0  0  0  0  0  0
    4.9780   -2.1546   -1.2687 N   0  0  0  0  0  0  0  0  0  0  0  0
    5.5538   -3.4470   -1.5591 C   0  0  0  0  0  0  0  0  0  0  0  0
    5.3534   -1.3477   -1.7583 H   0  0  0  0  0  0  0  0  0  0  0  0
    6.3931   -3.6374   -0.8741 H   0  0  0  0  0  0  0  0  0  0  0  0
    4.7892   -4.2268   -1.4277 H   0  0  0  0  0  0  0  0  0  0  0  0
    5.9174   -3.4613   -2.5972 H   0  0  0  0  0  0  0  0  0  0  0  0
  1  3  1  0  0  0  0
  1  7  1  0  0  0  0
  1  2  2  0  0  0  0
 29 30  1  0  0  0  0
 30 38  1  0  0  0  0
 30 31  2  0  0  0  0
  8  9  1  0  0  0  0
  9 17  1  0  0  0  0
  9 10  2  0  0  0  0
 18 19  1  0  0  0  0
 19 28  1  0  0  0  0
 19 20  2  0  0  0  0
 29 32  1  0  0  0  0
  8 11  1  0  0  0  0
 38 39  1  0  0  0  0
 18 21  1  0  0  0  0
 21 22  1  0  0  0  0
 28 29  1  0  0  0  0
  7  8  1  0  0  0  0
 17 18  1  0  0  0  0
  3  4  1  0  0  0  0
  3  5  1  0  0  0  0
  3  6  1  0  0  0  0
 32 35  1  0  0  0  0
 32 36  1  0  0  0  0
 32 37  1  0  0  0  0
 11 14  1  0  0  0  0
 11 15  1  0  0  0  0
 11 16  1  0  0  0  0
 39 41  1  0  0  0  0
 39 42  1  0  0  0  0
 39 43  1  0  0  0  0
 21 25  1  0  0  0  0
 21 26  1  0  0  0  0
 29 34  1  0  0  0  0
  8 13  1  0  0  0  0
 18 24  1  0  0  0  0
 38 40  1  0  0  0  0
  7 12  1  0  0  0  0
 28 33  1  0  0  0  0
 17 23  1  0  0  0  0
 22 27  1  0  0  0  0
M  END
$$$$

  -OEChem-05262214473D

 43 42  0     1  0  0  0  0  0999 V2000
   -2.8661   -4.7415    2.2943 C   0  0  0  0  0  0  0  0  0  0  0  0
   -2.0233   -5.5727    2.6109 O   0  0  0  0  0  0  0  0  0  0  0  0
   -4.3078   -5.0134    2.5698 C   0  0  0  0  0  0  0  0  0  0  0  0
   -4.8057   -5.5295    1.7332 H   0  0  0  0  0  0  0  0  0  0  0  0
   -4.4526   -5.6688    3.4436 H   0  0  0  0  0  0  0  0  0  0  0  0
   -4.9255   -4.1233    2.7700 H   0  0  0  0  0  0  0  0  0  0  0  0
   -2.6241   -3.5219    1.6838 N   0  0  0  0  0  0  0  0  0  0  0  0
   -1.3070   -3.0608    1.3315 C   0  0  2  0  0  0  0  0  0  0  0  0
   -1.3931   -1.5680    1.0422 C   0  0  0  0  0  0  0  0  0  0  0  0
   -2.4385   -1.0059    0.7226 O   0  0  0  0  0  0  0  0  0  0  0  0
   -0.7590   -3.8164    0.1309 C   0  0  0  0  0  0  0  0  0  0  0  0
   -3.4188   -2.9207    1.4735 H   0  0  0  0  0  0  0  0  0  0  0  0
   -0.6690   -3.2277    2.2062 H   0  0  0  0  0  0  0  0  0  0  0  0
   -1.3852   -3.6613   -0.7553 H   0  0  0  0  0  0  0  0  0  0  0  0
    0.2542   -3.4843   -0.1182 H   0  0  0  0  0  0  0  0  0  0  0  0
   -0.7257   -4.8930    0.3300 H   0  0  0  0  0  0  0  0  0  0  0  0
   -0.1563   -0.9420    1.1402 N   0  0  0  0  0  0  0  0  0  0  0  0
    0.0261    0.4671    0.9001 C   0  0  2  0  0  0  0  0  0  0  0  0
    1.4353    0.6980    0.3582 C   0  0  0  0  0  0  0  0  0  0  0  0
    1.9551    1.8104    0.2967 O   0  0  0  0  0  0  0  0  0  0  0  0
   -0.2964    1.3148    2.1332 C   0  0  0  0  0  0  0  0  0  0  0  0
   -2.0476    1.2461    2.6341 S   0  0  0  0  0  0  0  0  0  0  0  0
    0.6533   -1.4855    1.4300 H   0  0  0  0  0  0  0  0  0  0  0  0
   -0.6817    0.7242    0.1023 H   0  0  0  0  0  0  0  0  0  0  0  0
    0.3024    0.9899    2.9903 H   0  0  0  0  0  0  0  0  0  0  0  0
   -0.0521    2.3647    1.9385 H   0  0  0  0  0  0  0  0  0  0  0  0
   -1.9200    2.0694    3.6825 H   0  0  0  0  0  0  0  0  0  0  0  0
    2.0322   -0.4791   -0.0705 N   0  0  0  0  0  0  0  0  0  0  0  0
    3.3617   -0.5183   -0.6333 C   0  0  2  0  0  0  0  0  0  0  0  0
    3.6185   -1.9332   -1.1349 C   0  0  0  0  0  0  0  0  0  0  0  0
    3.0083   -2.9146   -0.7157 O   0  0  0  0  0  0  0  0  0  0  0  0
    4.4082   -0.1061    0.3902 C   0  0  0  0  0  0  0  0  0  0  0  0
    1.5417   -1.3605    0.0486 H   0  0  0  0  0  0  0  0  0  0  0  0
    3.3673    0.1766   -1.4801 H   0  0  0  0  0  0  0  0  0  0  0  0
    4.4174   -0.7908    1.2461 H   0  0  0  0  0  0  0  0  0  0  0  0
    5.4125   -0.1088   -0.0461 H   0  0  0  0  0  0  0  0  0  0  0  0
    4.2049    0.9003    0.7718 H   0  0  0  0  0  0  0  0  0  0  0  0
    4.6390   -1.9767   -2.0744 N   0  0  0  0  0  0  0  0  0  0  0  0
    5.0789   -3.2063   -2.6913 C   0  0  0  0  0  0  0  0  0  0  0  0
    5.0768   -1.1115   -2.3771 H   0  0  0  0  0  0  0  0  0  0  0  0
    5.9147   -3.6283   -2.1140 H   0  0  0  0  0  0  0  0  0  0  0  0
    4.2465   -3.9252   -2.7102 H   0  0  0  0  0  0  0  0  0  0  0  0
    5.4103   -3.0021   -3.7202 H   0  0  0  0  0  0  0  0  0  0  0  0
  1  3  1  0  0  0  0
  1  7  1  0  0  0  0
  1  2  2  0  0  0  0
 29 30  1  0  0  0  0
 30 38  1  0  0  0  0
 30 31  2  0  0  0  0
  8  9  1  0  0  0  0
  9 17  1  0  0  0  0
  9 10  2  0  0  0  0
 18 19  1  0  0  0  0
 19 28  1  0  0  0  0
 19 20  2  0  0  0  0
 29 32  1  0  0  0  0
  8 11  1  0  0  0  0
 38 39  1  0  0  0  0
 18 21  1  0  0  0  0
 21 22  1  0  0  0  0
 28 29  1  0  0  0  0
  7  8  1  0  0  0  0
 17 18  1  0  0  0  0
  3  4  1  0  0  0  0
  3  5  1  0  0  0  0
  3  6  1  0  0  0  0
 32 35  1  0  0  0  0
 32 36  1  0  0  0  0
 32 37  1  0  0  0  0
 11 14  1  0  0  0  0
 11 15  1  0  0  0  0
 11 16  1  0  0  0  0
 39 41  1  0  0  0  0
 39 42  1  0  0  0  0
 39 43  1  0  0  0  0
 21 25  1  0  0  0  0
 21 26  1  0  0  0  0
 29 34  1  0  0  0  0
  8 13  1  0  0  0  0
 18 24  1  0  0  0  0
 38 40  1  0  0  0  0
  7 12  1  0  0  0  0
 28 33  1  0  0  0  0
 17 23  1  0  0  0  0
 22 27  1  0  0  0  0
M  END
$$$$

  -OEChem-05262214473D

 43 42  0     1  0  0  0  0  0999 V2000
   -2.8661   -4.7415    2.2943 C   0  0  0  0  0  0  0  0  0  0  0  0
   -2.0233   -5.5727    2.6109 O   0  0  0  0  0  0  0  0  0  0  0  0
   -4.3078   -5.0134    2.5698 C   0  0  0  0  0  0  0  0  0  0  0  0
   -4.8057   -5.5295    1.7332 H   0  0  0  0  0  0  0  0  0  0  0  0
   -4.4526   -5.6688    3.4436 H   0  0  0  0  0  0  0  0  0  0  0  0
   -4.9255   -4.1233    2.7700 H   0  0  0  0  0  0  0  0  0  0  0  0
   -2.6241   -3.5219    1.6838 N   0  0  0  0  0  0  0  0  0  0  0  0
   -1.3070   -3.0608    1.3315 C   0  0  2  0  0  0  0  0  0  0  0  0
   -1.3931   -1.5680    1.0422 C   0  0  0  0  0  0  0  0  0  0  0  0
   -2.4385   -1.0059    0.7226 O   0  0  0  0  0  0  0  0  0  0  0  0
   -0.7590   -3.8164    0.1309 C   0  0  0  0  0  0  0  0  0  0  0  0
   -3.4188   -2.9207    1.4735 H   0  0  0  0  0  0  0  0  0  0  0  0
   -0.6690   -3.2277    2.2062 H   0  0  0  0  0  0  0  0  0  0  0  0
   -1.3852   -3.6613   -0.7553 H   0  0  0  0  0  0  0  0  0  0  0  0
    0.2542   -3.4843   -0.1182 H   0  0  0  0  0  0  0  0  0  0  0  0
   -0.7257   -4.8930    0.3300 H   0  0  0  0  0  0  0  0  0  0  0  0
   -0.1563   -0.9420    1.1402 N   0  0  0  0  0  0  0  0  0  0  0  0
    0.0261    0.4671    0.9001 C   0  0  2  0  0  0  0  0  0  0  0  0
    1.4353    0.6980    0.3582 C   0  0  0  0  0  0  0  0  0  0  0  0
    2.0582    1.7429    0.5359 O   0  0  0  0  0  0  0  0  0  0  0  0
   -0.2964    1.3148    2.1332 C   0  0  0  0  0  0  0  0  0  0  0  0
   -2.0476    1.2461    2.6341 S   0  0  0  0  0  0  0  0  0  0  0  0
    0.6533   -1.4855    1.4300 H   0  0  0  0  0  0  0  0  0  0  0  0
   -0.6817    0.7242    0.1023 H   0  0  0  0  0  0  0  0  0  0  0  0
    0.3024    0.9899    2.9903 H   0  0  0  0  0  0  0  0  0  0  0  0
   -0.0521    2.3647    1.9385 H   0  0  0  0  0  0  0  0  0  0  0  0
   -1.9200    2.0694    3.6825 H   0  0  0  0  0  0  0  0  0  0  0  0
    1.9034   -0.3887   -0.3667 N   0  0  0  0  0  0  0  0  0  0  0  0
    3.2067   -0.4070   -0.9889 C   0  0  2  0  0  0  0  0  0  0  0  0
    3.3115   -1.6765   -1.8237 C   0  0  0  0  0  0  0  0  0  0  0  0
    2.6213   -2.6729   -1.6188 O   0  0  0  0  0  0  0  0  0  0  0  0
    4.3163   -0.3459    0.0492 C   0  0  0  0  0  0  0  0  0  0  0  0
    1.3337   -1.2268   -0.4354 H   0  0  0  0  0  0  0  0  0  0  0  0
    3.2557    0.4680   -1.6461 H   0  0  0  0  0  0  0  0  0  0  0  0
    4.2833   -1.2146    0.7170 H   0  0  0  0  0  0  0  0  0  0  0  0
    5.3031   -0.3311   -0.4252 H   0  0  0  0  0  0  0  0  0  0  0  0
    4.2219    0.5528    0.6682 H   0  0  0  0  0  0  0  0  0  0  0  0
    4.2964   -1.5814   -2.7968 N   0  0  0  0  0  0  0  0  0  0  0  0
    4.5980   -2.6598   -3.7089 C   0  0  0  0  0  0  0  0  0  0  0  0
    4.8070   -0.7103   -2.9075 H   0  0  0  0  0  0  0  0  0  0  0  0
    5.4050   -3.2795   -3.2908 H   0  0  0  0  0  0  0  0  0  0  0  0
    3.6999   -3.2778   -3.8557 H   0  0  0  0  0  0  0  0  0  0  0  0
    4.9187   -2.2437   -4.6753 H   0  0  0  0  0  0  0  0  0  0  0  0
  1  3  1  0  0  0  0
  1  7  1  0  0  0  0
  1  2  2  0  0  0  0
 29 30  1  0  0  0  0
 30 38  1  0  0  0  0
 30 31  2  0  0  0  0
  8  9  1  0  0  0  0
  9 17  1  0  0  0  0
  9 10  2  0  0  0  0
 18 19  1  0  0  0  0
 19 28  1  0  0  0  0
 19 20  2  0  0  0  0
 29 32  1  0  0  0  0
  8 11  1  0  0  0  0
 38 39  1  0  0  0  0
 18 21  1  0  0  0  0
 21 22  1  0  0  0  0
 28 29  1  0  0  0  0
  7  8  1  0  0  0  0
 17 18  1  0  0  0  0
  3  4  1  0  0  0  0
  3  5  1  0  0  0  0
  3  6  1  0  0  0  0
 32 35  1  0  0  0  0
 32 36  1  0  0  0  0
 32 37  1  0  0  0  0
 11 14  1  0  0  0  0
 11 15  1  0  0  0  0
 11 16  1  0  0  0  0
 39 41  1  0  0  0  0
 39 42  1  0  0  0  0
 39 43  1  0  0  0  0
 21 25  1  0  0  0  0
 21 26  1  0  0  0  0
 29 34  1  0  0  0  0
  8 13  1  0  0  0  0
 18 24  1  0  0  0  0
 38 40  1  0  0  0  0
  7 12  1  0  0  0  0
 28 33  1  0  0  0  0
 17 23  1  0  0  0  0
 22 27  1  0  0  0  0
M  END
$$$$

  -OEChem-05262214473D

 43 42  0     1  0  0  0  0  0999 V2000
   -2.8661   -4.7415    2.2943 C   0  0  0  0  0  0  0  0  0  0  0  0
   -2.0233   -5.5727    2.6109 O   0  0  0  0  0  0  0  0  0  0  0  0
   -4.3078   -5.0134    2.5698 C   0  0  0  0  0  0  0  0  0  0  0  0
   -4.8057   -5.5295    1.7332 H   0  0  0  0  0  0  0  0  0  0  0  0
   -4.4526   -5.6688    3.4436 H   0  0  0  0  0  0  0  0  0  0  0  0
   -4.9255   -4.1233    2.7700 H   0  0  0  0  0  0  0  0  0  0  0  0
   -2.6241   -3.5219    1.6838 N   0  0  0  0  0  0  0  0  0  0  0  0
   -1.3070   -3.0608    1.3315 C   0  0  2  0  0  0  0  0  0  0  0  0
   -1.3931   -1.5680    1.0422 C   0  0  0  0  0  0  0  0  0  0  0  0
   -2.4385   -1.0059    0.7226 O   0  0  0  0  0  0  0  0  0  0  0  0
   -0.7590   -3.8164    0.1309 C   0  0  0  0  0  0  0  0  0  0  0  0
   -3.4188   -2.9207    1.4735 H   0  0  0  0  0  0  0  0  0  0  0  0
   -0.6690   -3.2277    2.2062 H   0  0  0  0  0  0  0  0  0  0  0  0
   -1.3852   -3.6613   -0.7553 H   0  0  0  0  0  0  0  0  0  0  0  0
    0.2542   -3.4843   -0.1182 H   0  0  0  0  0  0  0  0  0  0  0  0
   -0.7257   -4.8930    0.3300 H   0  0  0  0  0  0  0  0  0  0  0  0
   -0.1563   -0.9420    1.1402 N   0  0  0  0  0  0  0  0  0  0  0  0
    0.0261    0.4671    0.9001 C   0  0  2  0  0  0  0  0  0  0  0  0
    1.4353    0.6980    0.3582 C   0  0  0  0  0  0  0  0  0  0  0  0
    2.1610    1.6110    0.7469 O   0  0  0  0  0  0  0  0  0  0  0  0
   -0.2964    1.3148    2.1332 C   0  0  0  0  0  0  0  0  0  0  0  0
   -2.0476    1.2461    2.6341 S   0  0  0  0  0  0  0  0  0  0  0  0
    0.6533   -1.4855    1.4300 H   0  0  0  0  0  0  0  0  0  0  0  0
   -0.6817    0.7242    0.1023 H   0  0  0  0  0  0  0  0  0  0  0  0
    0.3024    0.9899    2.9903 H   0  0  0  0  0  0  0  0  0  0  0  0
   -0.0521    2.3647    1.9385 H   0  0  0  0  0  0  0  0  0  0  0  0
   -1.9200    2.0694    3.6825 H   0  0  0  0  0  0  0  0  0  0  0  0
    1.7758   -0.2189   -0.6262 N   0  0  0  0  0  0  0  0  0  0  0  0
    3.0533   -0.2004   -1.2997 C   0  0  2  0  0  0  0  0  0  0  0  0
    3.0116   -1.2358   -2.4157 C   0  0  0  0  0  0  0  0  0  0  0  0
    2.2344   -2.1883   -2.4184 O   0  0  0  0  0  0  0  0  0  0  0  0
    4.1922   -0.4877   -0.3338 C   0  0  0  0  0  0  0  0  0  0  0  0
    1.1261   -0.9629   -0.8627 H   0  0  0  0  0  0  0  0  0  0  0  0
    3.1682    0.7994   -1.7324 H   0  0  0  0  0  0  0  0  0  0  0  0
    4.0942   -1.4852    0.1098 H   0  0  0  0  0  0  0  0  0  0  0  0
    5.1622   -0.4451   -0.8402 H   0  0  0  0  0  0  0  0  0  0  0  0
    4.2025    0.2404    0.4844 H   0  0  0  0  0  0  0  0  0  0  0  0
    3.9735   -0.9955   -3.3868 N   0  0  0  0  0  0  0  0  0  0  0  0
    4.1439   -1.8448   -4.5425 C   0  0  0  0  0  0  0  0  0  0  0  0
    4.5626   -0.1712   -3.3135 H   0  0  0  0  0  0  0  0  0  0  0  0
    4.8986   -2.6148   -4.3242 H   0  0  0  0  0  0  0  0  0  0  0  0
    3.1865   -2.3287   -4.7861 H   0  0  0  0  0  0  0  0  0  0  0  0
    4.4761   -1.2380   -5.3977 H   0  0  0  0  0  0  0  0  0  0  0  0
  1  3  1  0  0  0  0
  1  7  1  0  0  0  0
  1  2  2  0  0  0  0
 29 30  1  0  0  0  0
 30 38  1  0  0  0  0
 30 31  2  0  0  0  0
  8  9  1  0  0  0  0
  9 17  1  0  0  0  0
  9 10  2  0  0  0  0
 18 19  1  0  0  0  0
 19 28  1  0  0  0  0
 19 20  2  0  0  0  0
 29 32  1  0  0  0  0
  8 11  1  0  0  0  0
 38 39  1  0  0  0  0
 18 21  1  0  0  0  0
 21 22  1  0  0  0  0
 28 29  1  0  0  0  0
  7  8  1  0  0  0  0
 17 18  1  0  0  0  0
  3  4  1  0  0  0  0
  3  5  1  0  0  0  0
  3  6  1  0  0  0  0
 32 35  1  0  0  0  0
 32 36  1  0  0  0  0
 32 37  1  0  0  0  0
 11 14  1  0  0  0  0
 11 15  1  0  0  0  0
 11 16  1  0  0  0  0
 39 41  1  0  0  0  0
 39 42  1  0  0  0  0
 39 43  1  0  0  0  0
 21 25  1  0  0  0  0
 21 26  1  0  0  0  0
 29 34  1  0  0  0  0
  8 13  1  0  0  0  0
 18 24  1  0  0  0  0
 38 40  1  0  0  0  0
  7 12  1  0  0  0  0
 28 33  1  0  0  0  0
 17 23  1  0  0  0  0
 22 27  1  0  0  0  0
M  END
$$$$

  -OEChem-05262214473D

 43 42  0     1  0  0  0  0  0999 V2000
   -2.8661   -4.7415    2.2943 C   0  0  0  0  0  0  0  0  0  0  0  0
   -2.0233   -5.5727    2.6109 O   0  0  0  0  0  0  0  0  0  0  0  0
   -4.3078   -5.0134    2.5698 C   0  0  0  0  0  0  0  0  0  0  0  0
   -4.8057   -5.5295    1.7332 H   0  0  0  0  0  0  0  0  0  0  0  0
   -4.4526   -5.6688    3.4436 H   0  0  0  0  0  0  0  0  0  0  0  0
   -4.9255   -4.1233    2.7700 H   0  0  0  0  0  0  0  0  0  0  0  0
   -2.6241   -3.5219    1.6838 N   0  0  0  0  0  0  0  0  0  0  0  0
   -1.3070   -3.0608    1.3315 C   0  0  2  0  0  0  0  0  0  0  0  0
   -1.3931   -1.5680    1.0422 C   0  0  0  0  0  0  0  0  0  0  0  0
   -2.4385   -1.0059    0.7226 O   0  0  0  0  0  0  0  0  0  0  0  0
   -0.7590   -3.8164    0.1309 C   0  0  0  0  0  0  0  0  0  0  0  0
   -3.4188   -2.9207    1.4735 H   0  0  0  0  0  0  0  0  0  0  0  0
   -0.6690   -3.2277    2.2062 H   0  0  0  0  0  0  0  0  0  0  0  0
   -1.3852   -3.6613   -0.7553 H   0  0  0  0  0  0  0  0  0  0  0  0
    0.2542   -3.4843   -0.1182 H   0  0  0  0  0  0  0  0  0  0  0  0
   -0.7257   -4.8930    0.3300 H   0  0  0  0  0  0  0  0  0  0  0  0
   -0.1563   -0.9420    1.1402 N   0  0  0  0  0  0  0  0  0  0  0  0
    0.0261    0.4671    0.9001 C   0  0  2  0  0  0  0  0  0  0  0  0
    1.4353    0.6980    0.3582 C   0  0  0  0  0  0  0  0  0  0  0  0
    2.2564    1.4239    0.9152 O   0  0  0  0  0  0  0  0  0  0  0  0
   -0.2964    1.3148    2.1332 C   0  0  0  0  0  0  0  0  0  0  0  0
   -2.0476    1.2461    2.6341 S   0  0  0  0  0  0  0  0  0  0  0  0
    0.6533   -1.4855    1.4300 H   0  0  0  0  0  0  0  0  0  0  0  0
   -0.6817    0.7242    0.1023 H   0  0  0  0  0  0  0  0  0  0  0  0
    0.3024    0.9899    2.9903 H   0  0  0  0  0  0  0  0  0  0  0  0
   -0.0521    2.3647    1.9385 H   0  0  0  0  0  0  0  0  0  0  0  0
   -1.9200    2.0694    3.6825 H   0  0  0  0  0  0  0  0  0  0  0  0
    1.6580    0.0188   -0.8312 N   0  0  0  0  0  0  0  0  0  0  0  0
    2.9119    0.0876   -1.5445 C   0  0  2  0  0  0  0  0  0  0  0  0
    2.7392   -0.6413   -2.8706 C   0  0  0  0  0  0  0  0  0  0  0  0
    1.8739   -1.4937   -3.0598 O   0  0  0  0  0  0  0  0  0  0  0  0
    4.0444   -0.5218   -0.7328 C   0  0  0  0  0  0  0  0  0  0  0  0
    0.9331   -0.5869   -1.2044 H   0  0  0  0  0  0  0  0  0  0  0  0
    3.1107    1.1482   -1.7333 H   0  0  0  0  0  0  0  0  0  0  0  0
    3.8629   -1.5844   -0.5338 H   0  0  0  0  0  0  0  0  0  0  0  0
    4.9994   -0.4433   -1.2628 H   0  0  0  0  0  0  0  0  0  0  0  0
    4.1478   -0.0157    0.2331 H   0  0  0  0  0  0  0  0  0  0  0  0
    3.6923   -0.2590   -3.8042 N   0  0  0  0  0  0  0  0  0  0  0  0
    3.7475   -0.8169   -5.1353 C   0  0  0  0  0  0  0  0  0  0  0  0
    4.3600    0.4688   -3.5673 H   0  0  0  0  0  0  0  0  0  0  0  0
    4.4301   -1.6794   -5.1439 H   0  0  0  0  0  0  0  0  0  0  0  0
    2.7414   -1.1426   -5.4382 H   0  0  0  0  0  0  0  0  0  0  0  0
    4.1127   -0.0533   -5.8379 H   0  0  0  0  0  0  0  0  0  0  0  0
  1  3  1  0  0  0  0
  1  7  1  0  0  0  0
  1  2  2  0  0  0  0
 29 30  1  0  0  0  0
 30 38  1  0  0  0  0
 30 31  2  0  0  0  0
  8  9  1  0  0  0  0
  9 17  1  0  0  0  0
  9 10  2  0  0  0  0
 18 19  1  0  0  0  0
 19 28  1  0  0  0  0
 19 20  2  0  0  0  0
 29 32  1  0  0  0  0
  8 11  1  0  0  0  0
 38 39  1  0  0  0  0
 18 21  1  0  0  0  0
 21 22  1  0  0  0  0
 28 29  1  0  0  0  0
  7  8  1  0  0  0  0
 17 18  1  0  0  0  0
  3  4  1  0  0  0  0
  3  5  1  0  0  0  0
  3  6  1  0  0  0  0
 32 35  1  0  0  0  0
 32 36  1  0  0  0  0
 32 37  1  0  0  0  0
 11 14  1  0  0  0  0
 11 15  1  0  0  0  0
 11 16  1  0  0  0  0
 39 41  1  0  0  0  0
 39 42  1  0  0  0  0
 39 43  1  0  0  0  0
 21 25  1  0  0  0  0
 21 26  1  0  0  0  0
 29 34  1  0  0  0  0
  8 13  1  0  0  0  0
 18 24  1  0  0  0  0
 38 40  1  0  0  0  0
  7 12  1  0  0  0  0
 28 33  1  0  0  0  0
 17 23  1  0  0  0  0
 22 27  1  0  0  0  0
M  END
$$$$

  -OEChem-05262214473D

 43 42  0     1  0  0  0  0  0999 V2000
   -2.8661   -4.7415    2.2943 C   0  0  0  0  0  0  0  0  0  0  0  0
   -2.0233   -5.5727    2.6109 O   0  0  0  0  0  0  0  0  0  0  0  0
   -4.3078   -5.0134    2.5698 C   0  0  0  0  0  0  0  0  0  0  0  0
   -4.8057   -5.5295    1.7332 H   0  0  0  0  0  0  0  0  0  0  0  0
   -4.4526   -5.6688    3.4436 H   0  0  0  0  0  0  0  0  0  0  0  0
   -4.9255   -4.1233    2.7700 H   0  0  0  0  0  0  0  0  0  0  0  0
   -2.6241   -3.5219    1.6838 N   0  0  0  0  0  0  0  0  0  0  0  0
   -1.3070   -3.0608    1.3315 C   0  0  2  0  0  0  0  0  0  0  0  0
   -1.3931   -1.5680    1.0422 C   0  0  0  0  0  0  0  0  0  0  0  0
   -2.4385   -1.0059    0.7226 O   0  0  0  0  0  0  0  0  0  0  0  0
   -0.7590   -3.8164    0.1309 C   0  0  0  0  0  0  0  0  0  0  0  0
   -3.4188   -2.9207    1.4735 H   0  0  0  0  0  0  0  0  0  0  0  0
   -0.6690   -3.2277    2.2062 H   0  0  0  0  0  0  0  0  0  0  0  0
   -1.3852   -3.6613   -0.7553 H   0  0  0  0  0  0  0  0  0  0  0  0
    0.2542   -3.4843   -0.1182 H   0  0  0  0  0  0  0  0  0  0  0  0
   -0.7257   -4.8930    0.3300 H   0  0  0  0  0  0  0  0  0  0  0  0
   -0.1563   -0.9420    1.1402 N   0  0  0  0  0  0  0  0  0  0  0  0
    0.0261    0.4671    0.9001 C   0  0  2  0  0  0  0  0  0  0  0  0
    1.4353    0.6980    0.3582 C   0  0  0  0  0  0  0  0  0  0  0  0
    2.3379    1.1942    1.0293 O   0  0  0  0  0  0  0  0  0  0  0  0
   -0.2964    1.3148    2.1332 C   0  0  0  0  0  0  0  0  0  0  0  0
   -2.0476    1.2461    2.6341 S   0  0  0  0  0  0  0  0  0  0  0  0
    0.6533   -1.4855    1.4300 H   0  0  0  0  0  0  0  0  0  0  0  0
   -0.6817    0.7242    0.1023 H   0  0  0  0  0  0  0  0  0  0  0  0
    0.3024    0.9899    2.9903 H   0  0  0  0  0  0  0  0  0  0  0  0
   -0.0521    2.3647    1.9385 H   0  0  0  0  0  0  0  0  0  0  0  0
   -1.9200    2.0694    3.6825 H   0  0  0  0  0  0  0  0  0  0  0  0
    1.5580    0.3083   -0.9680 N   0  0  0  0  0  0  0  0  0  0  0  0
    2.7923    0.4371   -1.7068 C   0  0  2  0  0  0  0  0  0  0  0  0
    2.5129    0.0667   -3.1574 C   0  0  0  0  0  0  0  0  0  0  0  0
    1.5644   -0.6365   -3.4994 O   0  0  0  0  0  0  0  0  0  0  0  0
    3.8828   -0.4459   -1.1206 C   0  0  0  0  0  0  0  0  0  0  0  0
    0.7678   -0.1244   -1.4371 H   0  0  0  0  0  0  0  0  0  0  0  0
    3.0872    1.4905   -1.6485 H   0  0  0  0  0  0  0  0  0  0  0  0
    3.6052   -1.5051   -1.1701 H   0  0  0  0  0  0  0  0  0  0  0  0
    4.8257   -0.3256   -1.6642 H   0  0  0  0  0  0  0  0  0  0  0  0
    4.0616   -0.1981   -0.0687 H   0  0  0  0  0  0  0  0  0  0  0  0
    3.4720    0.5779   -4.0205 N   0  0  0  0  0  0  0  0  0  0  0  0
    3.4358    0.3540   -5.4469 C   0  0  0  0  0  0  0  0  0  0  0  0
    4.2133    1.1663   -3.6518 H   0  0  0  0  0  0  0  0  0  0  0  0
    4.0313   -0.5371   -5.6940 H   0  0  0  0  0  0  0  0  0  0  0  0
    2.3949    0.1997   -5.7674 H   0  0  0  0  0  0  0  0  0  0  0  0
    3.8532    1.2294   -5.9660 H   0  0  0  0  0  0  0  0  0  0  0  0
  1  3  1  0  0  0  0
  1  7  1  0  0  0  0
  1  2  2  0  0  0  0
 29 30  1  0  0  0  0
 30 38  1  0  0  0  0
 30 31  2  0  0  0  0
  8  9  1  0  0  0  0
  9 17  1  0  0  0  0
  9 10  2  0  0  0  0
 18 19  1  0  0  0  0
 19 28  1  0  0  0  0
 19 20  2  0  0  0  0
 29 32  1  0  0  0  0
  8 11  1  0  0  0  0
 38 39  1  0  0  0  0
 18 21  1  0  0  0  0
 21 22  1  0  0  0  0
 28 29  1  0  0  0  0
  7  8  1  0  0  0  0
 17 18  1  0  0  0  0
  3  4  1  0  0  0  0
  3  5  1  0  0  0  0
  3  6  1  0  0  0  0
 32 35  1  0  0  0  0
 32 36  1  0  0  0  0
 32 37  1  0  0  0  0
 11 14  1  0  0  0  0
 11 15  1  0  0  0  0
 11 16  1  0  0  0  0
 39 41  1  0  0  0  0
 39 42  1  0  0  0  0
 39 43  1  0  0  0  0
 21 25  1  0  0  0  0
 21 26  1  0  0  0  0
 29 34  1  0  0  0  0
  8 13  1  0  0  0  0
 18 24  1  0  0  0  0
 38 40  1  0  0  0  0
  7 12  1  0  0  0  0
 28 33  1  0  0  0  0
 17 23  1  0  0  0  0
 22 27  1  0  0  0  0
M  END
$$$$

  -OEChem-05262214473D

 43 42  0     1  0  0  0  0  0999 V2000
   -2.8661   -4.7415    2.2943 C   0  0  0  0  0  0  0  0  0  0  0  0
   -2.0233   -5.5727    2.6109 O   0  0  0  0  0  0  0  0  0  0  0  0
   -4.3078   -5.0134    2.5698 C   0  0  0  0  0  0  0  0  0  0  0  0
   -4.8057   -5.5295    1.7332 H   0  0  0  0  0  0  0  0  0  0  0  0
   -4.4526   -5.6688    3.4436 H   0  0  0  0  0  0  0  0  0  0  0  0
   -4.9255   -4.1233    2.7700 H   0  0  0  0  0  0  0  0  0  0  0  0
   -2.6241   -3.5219    1.6838 N   0  0  0  0  0  0  0  0  0  0  0  0
   -1.3070   -3.0608    1.3315 C   0  0  2  0  0  0  0  0  0  0  0  0
   -1.3931   -1.5680    1.0422 C   0  0  0  0  0  0  0  0  0  0  0  0
   -2.4385   -1.0059    0.7226 O   0  0  0  0  0  0  0  0  0  0  0  0
   -0.7590   -3.8164    0.1309 C   0  0  0  0  0  0  0  0  0  0  0  0
   -3.4188   -2.9207    1.4735 H   0  0  0  0  0  0  0  0  0  0  0  0
   -0.6690   -3.2277    2.2062 H   0  0  0  0  0  0  0  0  0  0  0  0
   -1.3852   -3.6613   -0.7553 H   0  0  0  0  0  0  0  0  0  0  0  0
    0.2542   -3.4843   -0.1182 H   0  0  0  0  0  0  0  0  0  0  0  0
   -0.7257   -4.8930    0.3300 H   0  0  0  0  0  0  0  0  0  0  0  0
   -0.1563   -0.9420    1.1402 N   0  0  0  0  0  0  0  0  0  0  0  0
    0.0261    0.4671    0.9001 C   0  0  2  0  0  0  0  0  0  0  0  0
    1.4353    0.6980    0.3582 C   0  0  0  0  0  0  0  0  0  0  0  0
    2.4000    0.9376    1.0815 O   0  0  0  0  0  0  0  0  0  0  0  0
   -0.2964    1.3148    2.1332 C   0  0  0  0  0  0  0  0  0  0  0  0
   -2.0476    1.2461    2.6341 S   0  0  0  0  0  0  0  0  0  0  0  0
    0.6533   -1.4855    1.4300 H   0  0  0  0  0  0  0  0  0  0  0  0
   -0.6817    0.7242    0.1023 H   0  0  0  0  0  0  0  0  0  0  0  0
    0.3024    0.9899    2.9903 H   0  0  0  0  0  0  0  0  0  0  0  0
   -0.0521    2.3647    1.9385 H   0  0  0  0  0  0  0  0  0  0  0  0
   -1.9200    2.0694    3.6825 H   0  0  0  0  0  0  0  0  0  0  0  0
    1.4827    0.6296   -1.0270 N   0  0  0  0  0  0  0  0  0  0  0  0
    2.7024    0.8245   -1.7753 C   0  0  2  0  0  0  0  0  0  0  0  0
    2.3482    0.8398   -3.2565 C   0  0  0  0  0  0  0  0  0  0  0  0
    1.3270    0.3249   -3.7072 O   0  0  0  0  0  0  0  0  0  0  0  0
    3.7185   -0.2652   -1.4707 C   0  0  0  0  0  0  0  0  0  0  0  0
    0.6415    0.3931   -1.5449 H   0  0  0  0  0  0  0  0  0  0  0  0
    3.0993    1.8031   -1.4840 H   0  0  0  0  0  0  0  0  0  0  0  0
    3.3386   -1.2530   -1.7558 H   0  0  0  0  0  0  0  0  0  0  0  0
    4.6531   -0.1002   -2.0170 H   0  0  0  0  0  0  0  0  0  0  0  0
    3.9498   -0.2943   -0.4004 H   0  0  0  0  0  0  0  0  0  0  0  0
    3.3276    1.4581   -4.0210 N   0  0  0  0  0  0  0  0  0  0  0  0
    3.2300    1.5881   -5.4561 C   0  0  0  0  0  0  0  0  0  0  0  0
    4.1323    1.8737   -3.5611 H   0  0  0  0  0  0  0  0  0  0  0  0
    3.7296    0.7342   -5.9370 H   0  0  0  0  0  0  0  0  0  0  0  0
    2.1705    1.6066   -5.7513 H   0  0  0  0  0  0  0  0  0  0  0  0
    3.7154    2.5229   -5.7733 H   0  0  0  0  0  0  0  0  0  0  0  0
  1  3  1  0  0  0  0
  1  7  1  0  0  0  0
  1  2  2  0  0  0  0
 29 30  1  0  0  0  0
 30 38  1  0  0  0  0
 30 31  2  0  0  0  0
  8  9  1  0  0  0  0
  9 17  1  0  0  0  0
  9 10  2  0  0  0  0
 18 19  1  0  0  0  0
 19 28  1  0  0  0  0
 19 20  2  0  0  0  0
 29 32  1  0  0  0  0
  8 11  1  0  0  0  0
 38 39  1  0  0  0  0
 18 21  1  0  0  0  0
 21 22  1  0  0  0  0
 28 29  1  0  0  0  0
  7  8  1  0  0  0  0
 17 18  1  0  0  0  0
  3  4  1  0  0  0  0
  3  5  1  0  0  0  0
  3  6  1  0  0  0  0
 32 35  1  0  0  0  0
 32 36  1  0  0  0  0
 32 37  1  0  0  0  0
 11 14  1  0  0  0  0
 11 15  1  0  0  0  0
 11 16  1  0  0  0  0
 39 41  1  0  0  0  0
 39 42  1  0  0  0  0
 39 43  1  0  0  0  0
 21 25  1  0  0  0  0
 21 26  1  0  0  0  0
 29 34  1  0  0  0  0
  8 13  1  0  0  0  0
 18 24  1  0  0  0  0
 38 40  1  0  0  0  0
  7 12  1  0  0  0  0
 28 33  1  0  0  0  0
 17 23  1  0  0  0  0
 22 27  1  0  0  0  0
M  END
$$$$

  -OEChem-05262214473D

 43 42  0     1  0  0  0  0  0999 V2000
   -2.8661   -4.7415    2.2943 C   0  0  0  0  0  0  0  0  0  0  0  0
   -2.0233   -5.5727    2.6109 O   0  0  0  0  0  0  0  0  0  0  0  0
   -4.3078   -5.0134    2.5698 C   0  0  0  0  0  0  0  0  0  0  0  0
   -4.8057   -5.5295    1.7332 H   0  0  0  0  0  0  0  0  0  0  0  0
   -4.4526   -5.6688    3.4436 H   0  0  0  0  0  0  0  0  0  0  0  0
   -4.9255   -4.1233    2.7700 H   0  0  0  0  0  0  0  0  0  0  0  0
   -2.6241   -3.5219    1.6838 N   0  0  0  0  0  0  0  0  0  0  0  0
   -1.3070   -3.0608    1.3315 C   0  0  2  0  0  0  0  0  0  0  0  0
   -1.3931   -1.5680    1.0422 C   0  0  0  0  0  0  0  0  0  0  0  0
   -2.4385   -1.0059    0.7226 O   0  0  0  0  0  0  0  0  0  0  0  0
   -0.7590   -3.8164    0.1309 C   0  0  0  0  0  0  0  0  0  0  0  0
   -3.4188   -2.9207    1.4735 H   0  0  0  0  0  0  0  0  0  0  0  0
   -0.6690   -3.2277    2.2062 H   0  0  0  0  0  0  0  0  0  0  0  0
   -1.3852   -3.6613   -0.7553 H   0  0  0  0  0  0  0  0  0  0  0  0
    0.2542   -3.4843   -0.1182 H   0  0  0  0  0  0  0  0  0  0  0  0
   -0.7257   -4.8930    0.3300 H   0  0  0  0  0  0  0  0  0  0  0  0
   -0.1563   -0.9420    1.1402 N   0  0  0  0  0  0  0  0  0  0  0  0
    0.0261    0.4671    0.9001 C   0  0  2  0  0  0  0  0  0  0  0  0
    1.4353    0.6980    0.3582 C   0  0  0  0  0  0  0  0  0  0  0  0
    2.4385    0.6715    1.0683 O   0  0  0  0  0  0  0  0  0  0  0  0
   -0.2964    1.3148    2.1332 C   0  0  0  0  0  0  0  0  0  0  0  0
   -2.0476    1.2461    2.6341 S   0  0  0  0  0  0  0  0  0  0  0  0
    0.6533   -1.4855    1.4300 H   0  0  0  0  0  0  0  0  0  0  0  0
   -0.6817    0.7242    0.1023 H   0  0  0  0  0  0  0  0  0  0  0  0
    0.3024    0.9899    2.9903 H   0  0  0  0  0  0  0  0  0  0  0  0
   -0.0521    2.3647    1.9385 H   0  0  0  0  0  0  0  0  0  0  0  0
   -1.9200    2.0694    3.6825 H   0  0  0  0  0  0  0  0  0  0  0  0
    1.4371    0.9611   -1.0043 N   0  0  0  0  0  0  0  0  0  0  0  0
    2.6485    1.2233   -1.7455 C   0  0  2  0  0  0  0  0  0  0  0  0
    2.2561    1.6253   -3.1611 C   0  0  0  0  0  0  0  0  0  0  0  0
    1.1778    1.3250   -3.6691 O   0  0  0  0  0  0  0  0  0  0  0  0
    3.5628    0.0081   -1.7593 C   0  0  0  0  0  0  0  0  0  0  0  0
    0.5629    0.9303   -1.5206 H   0  0  0  0  0  0  0  0  0  0  0  0
    3.1460    2.0647   -1.2510 H   0  0  0  0  0  0  0  0  0  0  0  0
    3.0814   -0.8452   -2.2509 H   0  0  0  0  0  0  0  0  0  0  0  0
    4.4932    0.2177   -2.2972 H   0  0  0  0  0  0  0  0  0  0  0  0
    3.8200   -0.2977   -0.7394 H   0  0  0  0  0  0  0  0  0  0  0  0
    3.2689    2.3217   -3.8056 N   0  0  0  0  0  0  0  0  0  0  0  0
    3.1443    2.8012   -5.1623 C   0  0  0  0  0  0  0  0  0  0  0  0
    4.1225    2.5427   -3.3014 H   0  0  0  0  0  0  0  0  0  0  0  0
    3.5454    2.0479   -5.8563 H   0  0  0  0  0  0  0  0  0  0  0  0
    2.0837    2.9824   -5.3910 H   0  0  0  0  0  0  0  0  0  0  0  0
    3.7086    3.7389   -5.2729 H   0  0  0  0  0  0  0  0  0  0  0  0
  1  3  1  0  0  0  0
  1  7  1  0  0  0  0
  1  2  2  0  0  0  0
 29 30  1  0  0  0  0
 30 38  1  0  0  0  0
 30 31  2  0  0  0  0
  8  9  1  0  0  0  0
  9 17  1  0  0  0  0
  9 10  2  0  0  0  0
 18 19  1  0  0  0  0
 19 28  1  0  0  0  0
 19 20  2  0  0  0  0
 29 32  1  0  0  0  0
  8 11  1  0  0  0  0
 38 39  1  0  0  0  0
 18 21  1  0  0  0  0
 21 22  1  0  0  0  0
 28 29  1  0  0  0  0
  7  8  1  0  0  0  0
 17 18  1  0  0  0  0
  3  4  1  0  0  0  0
  3  5  1  0  0  0  0
  3  6  1  0  0  0  0
 32 35  1  0  0  0  0
 32 36  1  0  0  0  0
 32 37  1  0  0  0  0
 11 14  1  0  0  0  0
 11 15  1  0  0  0  0
 11 16  1  0  0  0  0
 39 41  1  0  0  0  0
 39 42  1  0  0  0  0
 39 43  1  0  0  0  0
 21 25  1  0  0  0  0
 21 26  1  0  0  0  0
 29 34  1  0  0  0  0
  8 13  1  0  0  0  0
 18 24  1  0  0  0  0
 38 40  1  0  0  0  0
  7 12  1  0  0  0  0
 28 33  1  0  0  0  0
 17 23  1  0  0  0  0
 22 27  1  0  0  0  0
M  END
$$$$

  -OEChem-05262214473D

 43 42  0     1  0  0  0  0  0999 V2000
   -2.8661   -4.7415    2.2943 C   0  0  0  0  0  0  0  0  0  0  0  0
   -2.0233   -5.5727    2.6109 O   0  0  0  0  0  0  0  0  0  0  0  0
   -4.3078   -5.0134    2.5698 C   0  0  0  0  0  0  0  0  0  0  0  0
   -4.8057   -5.5295    1.7332 H   0  0  0  0  0  0  0  0  0  0  0  0
   -4.4526   -5.6688    3.4436 H   0  0  0  0  0  0  0  0  0  0  0  0
   -4.9255   -4.1233    2.7700 H   0  0  0  0  0  0  0  0  0  0  0  0
   -2.6241   -3.5219    1.6838 N   0  0  0  0  0  0  0  0  0  0  0  0
   -1.3070   -3.0608    1.3315 C   0  0  2  0  0  0  0  0  0  0  0  0
   -1.3931   -1.5680    1.0422 C   0  0  0  0  0  0  0  0  0  0  0  0
   -2.4385   -1.0059    0.7226 O   0  0  0  0  0  0  0  0  0  0  0  0
   -0.7590   -3.8164    0.1309 C   0  0  0  0  0  0  0  0  0  0  0  0
   -3.4188   -2.9207    1.4735 H   0  0  0  0  0  0  0  0  0  0  0  0
   -0.6690   -3.2277    2.2062 H   0  0  0  0  0  0  0  0  0  0  0  0
   -1.3852   -3.6613   -0.7553 H   0  0  0  0  0  0  0  0  0  0  0  0
    0.2542   -3.4843   -0.1182 H   0  0  0  0  0  0  0  0  0  0  0  0
   -0.7257   -4.8930    0.3300 H   0  0  0  0  0  0  0  0  0  0  0  0
   -0.1563   -0.9420    1.1402 N   0  0  0  0  0  0  0  0  0  0  0  0
    0.0261    0.4671    0.9001 C   0  0  2  0  0  0  0  0  0  0  0  0
    1.4353    0.6980    0.3582 C   0  0  0  0  0  0  0  0  0  0  0  0
    2.4507    0.4142    0.9904 O   0  0  0  0  0  0  0  0  0  0  0  0
   -0.2964    1.3148    2.1332 C   0  0  0  0  0  0  0  0  0  0  0  0
   -2.0476    1.2461    2.6341 S   0  0  0  0  0  0  0  0  0  0  0  0
    0.6533   -1.4855    1.4300 H   0  0  0  0  0  0  0  0  0  0  0  0
   -0.6817    0.7242    0.1023 H   0  0  0  0  0  0  0  0  0  0  0  0
    0.3024    0.9899    2.9903 H   0  0  0  0  0  0  0  0  0  0  0  0
   -0.0521    2.3647    1.9385 H   0  0  0  0  0  0  0  0  0  0  0  0
   -1.9200    2.0694    3.6825 H   0  0  0  0  0  0  0  0  0  0  0  0
    1.4244    1.2800   -0.9015 N   0  0  0  0  0  0  0  0  0  0  0  0
    2.6343    1.6063   -1.6194 C   0  0  2  0  0  0  0  0  0  0  0  0
    2.2431    2.3697   -2.8778 C   0  0  0  0  0  0  0  0  0  0  0  0
    1.1270    2.2956   -3.3876 O   0  0  0  0  0  0  0  0  0  0  0  0
    3.4261    0.3553   -1.9666 C   0  0  0  0  0  0  0  0  0  0  0  0
    0.5372    1.4506   -1.3657 H   0  0  0  0  0  0  0  0  0  0  0  0
    3.2244    2.2574   -0.9652 H   0  0  0  0  0  0  0  0  0  0  0  0
    2.8510   -0.3093   -2.6216 H   0  0  0  0  0  0  0  0  0  0  0  0
    4.3571    0.6063   -2.4857 H   0  0  0  0  0  0  0  0  0  0  0  0
    3.6810   -0.2081   -1.0625 H   0  0  0  0  0  0  0  0  0  0  0  0
    3.3000    3.1098   -3.3890 N   0  0  0  0  0  0  0  0  0  0  0  0
    3.1844    3.9107   -4.5854 C   0  0  0  0  0  0  0  0  0  0  0  0
    4.1848    3.1278   -2.8904 H   0  0  0  0  0  0  0  0  0  0  0  0
    3.4913    3.3145   -5.4574 H   0  0  0  0  0  0  0  0  0  0  0  0
    2.1402    4.2332   -4.7110 H   0  0  0  0  0  0  0  0  0  0  0  0
    3.8333    4.7946   -4.4989 H   0  0  0  0  0  0  0  0  0  0  0  0
  1  3  1  0  0  0  0
  1  7  1  0  0  0  0
  1  2  2  0  0  0  0
 29 30  1  0  0  0  0
 30 38  1  0  0  0  0
 30 31  2  0  0  0  0
  8  9  1  0  0  0  0
  9 17  1  0  0  0  0
  9 10  2  0  0  0  0
 18 19  1  0  0  0  0
 19 28  1  0  0  0  0
 19 20  2  0  0  0  0
 29 32  1  0  0  0  0
  8 11  1  0  0  0  0
 38 39  1  0  0  0  0
 18 21  1  0  0  0  0
 21 22  1  0  0  0  0
 28 29  1  0  0  0  0
  7  8  1  0  0  0  0
 17 18  1  0  0  0  0
  3  4  1  0  0  0  0
  3  5  1  0  0  0  0
  3  6  1  0  0  0  0
 32 35  1  0  0  0  0
 32 36  1  0  0  0  0
 32 37  1  0  0  0  0
 11 14  1  0  0  0  0
 11 15  1  0  0  0  0
 11 16  1  0  0  0  0
 39 41  1  0  0  0  0
 39 42  1  0  0  0  0
 39 43  1  0  0  0  0
 21 25  1  0  0  0  0
 21 26  1  0  0  0  0
 29 34  1  0  0  0  0
  8 13  1  0  0  0  0
 18 24  1  0  0  0  0
 38 40  1  0  0  0  0
  7 12  1  0  0  0  0
 28 33  1  0  0  0  0
 17 23  1  0  0  0  0
 22 27  1  0  0  0  0
M  END
$$$$

  -OEChem-05262214473D

 43 42  0     1  0  0  0  0  0999 V2000
   -2.8661   -4.7415    2.2943 C   0  0  0  0  0  0  0  0  0  0  0  0
   -2.0233   -5.5727    2.6109 O   0  0  0  0  0  0  0  0  0  0  0  0
   -4.3078   -5.0134    2.5698 C   0  0  0  0  0  0  0  0  0  0  0  0
   -4.8057   -5.5295    1.7332 H   0  0  0  0  0  0  0  0  0  0  0  0
   -4.4526   -5.6688    3.4436 H   0  0  0  0  0  0  0  0  0  0  0  0
   -4.9255   -4.1233    2.7700 H   0  0  0  0  0  0  0  0  0  0  0  0
   -2.6241   -3.5219    1.6838 N   0  0  0  0  0  0  0  0  0  0  0  0
   -1.3070   -3.0608    1.3315 C   0  0  2  0  0  0  0  0  0  0  0  0
   -1.3931   -1.5680    1.0422 C   0  0  0  0  0  0  0  0  0  0  0  0
   -2.4385   -1.0059    0.7226 O   0  0  0  0  0  0  0  0  0  0  0  0
   -0.7590   -3.8164    0.1309 C   0  0  0  0  0  0  0  0  0  0  0  0
   -3.4188   -2.9207    1.4735 H   0  0  0  0  0  0  0  0  0  0  0  0
   -0.6690   -3.2277    2.2062 H   0  0  0  0  0  0  0  0  0  0  0  0
   -1.3852   -3.6613   -0.7553 H   0  0  0  0  0  0  0  0  0  0  0  0
    0.2542   -3.4843   -0.1182 H   0  0  0  0  0  0  0  0  0  0  0  0
   -0.7257   -4.8930    0.3300 H   0  0  0  0  0  0  0  0  0  0  0  0
   -0.1563   -0.9420    1.1402 N   0  0  0  0  0  0  0  0  0  0  0  0
    0.0261    0.4671    0.9001 C   0  0  2  0  0  0  0  0  0  0  0  0
    1.4353    0.6980    0.3582 C   0  0  0  0  0  0  0  0  0  0  0  0
    2.4358    0.1831    0.8532 O   0  0  0  0  0  0  0  0  0  0  0  0
   -0.2964    1.3148    2.1332 C   0  0  0  0  0  0  0  0  0  0  0  0
   -2.0476    1.2461    2.6341 S   0  0  0  0  0  0  0  0  0  0  0  0
    0.6533   -1.4855    1.4300 H   0  0  0  0  0  0  0  0  0  0  0  0
   -0.6817    0.7242    0.1023 H   0  0  0  0  0  0  0  0  0  0  0  0
    0.3024    0.9899    2.9903 H   0  0  0  0  0  0  0  0  0  0  0  0
   -0.0521    2.3647    1.9385 H   0  0  0  0  0  0  0  0  0  0  0  0
   -1.9200    2.0694    3.6825 H   0  0  0  0  0  0  0  0  0  0  0  0
    1.4454    1.5647   -0.7255 N   0  0  0  0  0  0  0  0  0  0  0  0
    2.6606    1.9475   -1.4055 C   0  0  2  0  0  0  0  0  0  0  0  0
    2.3100    3.0224   -2.4259 C   0  0  0  0  0  0  0  0  0  0  0  0
    1.1781    3.1706   -2.8820 O   0  0  0  0  0  0  0  0  0  0  0  0
    3.3179    0.7527   -2.0787 C   0  0  0  0  0  0  0  0  0  0  0  0
    0.5662    1.9186   -1.0909 H   0  0  0  0  0  0  0  0  0  0  0  0
    3.3289    2.3681   -0.6462 H   0  0  0  0  0  0  0  0  0  0  0  0
    2.6632    0.3179   -2.8427 H   0  0  0  0  0  0  0  0  0  0  0  0
    4.2539    1.0392   -2.5696 H   0  0  0  0  0  0  0  0  0  0  0  0
    3.5424   -0.0317   -1.3479 H   0  0  0  0  0  0  0  0  0  0  0  0
    3.4187    3.7688   -2.7997 N   0  0  0  0  0  0  0  0  0  0  0  0
    3.3475    4.8409   -3.7648 C   0  0  0  0  0  0  0  0  0  0  0  0
    4.3147    3.5891   -2.3561 H   0  0  0  0  0  0  0  0  0  0  0  0
    3.5709    4.4477   -4.7675 H   0  0  0  0  0  0  0  0  0  0  0  0
    2.3364    5.2739   -3.7578 H   0  0  0  0  0  0  0  0  0  0  0  0
    4.0810    5.6181   -3.5041 H   0  0  0  0  0  0  0  0  0  0  0  0
  1  3  1  0  0  0  0
  1  7  1  0  0  0  0
  1  2  2  0  0  0  0
 29 30  1  0  0  0  0
 30 38  1  0  0  0  0
 30 31  2  0  0  0  0
  8  9  1  0  0  0  0
  9 17  1  0  0  0  0
  9 10  2  0  0  0  0
 18 19  1  0  0  0  0
 19 28  1  0  0  0  0
 19 20  2  0  0  0  0
 29 32  1  0  0  0  0
  8 11  1  0  0  0  0
 38 39  1  0  0  0  0
 18 21  1  0  0  0  0
 21 22  1  0  0  0  0
 28 29  1  0  0  0  0
  7  8  1  0  0  0  0
 17 18  1  0  0  0  0
  3  4  1  0  0  0  0
  3  5  1  0  0  0  0
  3  6  1  0  0  0  0
 32 35  1  0  0  0  0
 32 36  1  0  0  0  0
 32 37  1  0  0  0  0
 11 14  1  0  0  0  0
 11 15  1  0  0  0  0
 11 16  1  0  0  0  0
 39 41  1  0  0  0  0
 39 42  1  0  0  0  0
 39 43  1  0  0  0  0
 21 25  1  0  0  0  0
 21 26  1  0  0  0  0
 29 34  1  0  0  0  0
  8 13  1  0  0  0  0
 18 24  1  0  0  0  0
 38 40  1  0  0  0  0
  7 12  1  0  0  0  0
 28 33  1  0  0  0  0
 17 23  1  0  0  0  0
 22 27  1  0  0  0  0
M  END
$$$$

  -OEChem-05262214473D

 43 42  0     1  0  0  0  0  0999 V2000
   -2.8661   -4.7415    2.2943 C   0  0  0  0  0  0  0  0  0  0  0  0
   -2.0233   -5.5727    2.6109 O   0  0  0  0  0  0  0  0  0  0  0  0
   -4.3078   -5.0134    2.5698 C   0  0  0  0  0  0  0  0  0  0  0  0
   -4.8057   -5.5295    1.7332 H   0  0  0  0  0  0  0  0  0  0  0  0
   -4.4526   -5.6688    3.4436 H   0  0  0  0  0  0  0  0  0  0  0  0
   -4.9255   -4.1233    2.7700 H   0  0  0  0  0  0  0  0  0  0  0  0
   -2.6241   -3.5219    1.6838 N   0  0  0  0  0  0  0  0  0  0  0  0
   -1.3070   -3.0608    1.3315 C   0  0  2  0  0  0  0  0  0  0  0  0
   -1.3931   -1.5680    1.0422 C   0  0  0  0  0  0  0  0  0  0  0  0
   -2.4385   -1.0059    0.7226 O   0  0  0  0  0  0  0  0  0  0  0  0
   -0.7590   -3.8164    0.1309 C   0  0  0  0  0  0  0  0  0  0  0  0
   -3.4188   -2.9207    1.4735 H   0  0  0  0  0  0  0  0  0  0  0  0
   -0.6690   -3.2277    2.2062 H   0  0  0  0  0  0  0  0  0  0  0  0
   -1.3852   -3.6613   -0.7553 H   0  0  0  0  0  0  0  0  0  0  0  0
    0.2542   -3.4843   -0.1182 H   0  0  0  0  0  0  0  0  0  0  0  0
   -0.7257   -4.8930    0.3300 H   0  0  0  0  0  0  0  0  0  0  0  0
   -0.1563   -0.9420    1.1402 N   0  0  0  0  0  0  0  0  0  0  0  0
    0.0261    0.4671    0.9001 C   0  0  2  0  0  0  0  0  0  0  0  0
    1.4353    0.6980    0.3582 C   0  0  0  0  0  0  0  0  0  0  0  0
    2.3949   -0.0060    0.6662 O   0  0  0  0  0  0  0  0  0  0  0  0
   -0.2964    1.3148    2.1332 C   0  0  0  0  0  0  0  0  0  0  0  0
   -2.0476    1.2461    2.6341 S   0  0  0  0  0  0  0  0  0  0  0  0
    0.6533   -1.4855    1.4300 H   0  0  0  0  0  0  0  0  0  0  0  0
   -0.6817    0.7242    0.1023 H   0  0  0  0  0  0  0  0  0  0  0  0
    0.3024    0.9899    2.9903 H   0  0  0  0  0  0  0  0  0  0  0  0
   -0.0521    2.3647    1.9385 H   0  0  0  0  0  0  0  0  0  0  0  0
   -1.9200    2.0694    3.6825 H   0  0  0  0  0  0  0  0  0  0  0  0
    1.4987    1.7957   -0.4884 N   0  0  0  0  0  0  0  0  0  0  0  0
    2.7258    2.2236   -1.1185 C   0  0  2  0  0  0  0  0  0  0  0  0
    2.4522    3.5387   -1.8362 C   0  0  0  0  0  0  0  0  0  0  0  0
    1.3276    3.8903   -2.1867 O   0  0  0  0  0  0  0  0  0  0  0  0
    3.2455    1.1733   -2.0878 C   0  0  0  0  0  0  0  0  0  0  0  0
    0.6480    2.3023   -0.7148 H   0  0  0  0  0  0  0  0  0  0  0  0
    3.4525    2.3893   -0.3158 H   0  0  0  0  0  0  0  0  0  0  0  0
    2.5307    0.9938   -2.8992 H   0  0  0  0  0  0  0  0  0  0  0  0
    4.1906    1.4868   -2.5433 H   0  0  0  0  0  0  0  0  0  0  0  0
    3.4135    0.2196   -1.5759 H   0  0  0  0  0  0  0  0  0  0  0  0
    3.6170    4.2537   -2.0777 N   0  0  0  0  0  0  0  0  0  0  0  0
    3.6227    5.5285   -2.7564 C   0  0  0  0  0  0  0  0  0  0  0  0
    4.5034    3.8952   -1.7349 H   0  0  0  0  0  0  0  0  0  0  0  0
    3.7789    5.3702   -3.8337 H   0  0  0  0  0  0  0  0  0  0  0  0
    2.6587    6.0334   -2.5962 H   0  0  0  0  0  0  0  0  0  0  0  0
    4.4348    6.1532   -2.3562 H   0  0  0  0  0  0  0  0  0  0  0  0
  1  3  1  0  0  0  0
  1  7  1  0  0  0  0
  1  2  2  0  0  0  0
 29 30  1  0  0  0  0
 30 38  1  0  0  0  0
 30 31  2  0  0  0  0
  8  9  1  0  0  0  0
  9 17  1  0  0  0  0
  9 10  2  0  0  0  0
 18 19  1  0  0  0  0
 19 28  1  0  0  0  0
 19 20  2  0  0  0  0
 29 32  1  0  0  0  0
  8 11  1  0  0  0  0
 38 39  1  0  0  0  0
 18 21  1  0  0  0  0
 21 22  1  0  0  0  0
 28 29  1  0  0  0  0
  7  8  1  0  0  0  0
 17 18  1  0  0  0  0
  3  4  1  0  0  0  0
  3  5  1  0  0  0  0
  3  6  1  0  0  0  0
 32 35  1  0  0  0  0
 32 36  1  0  0  0  0
 32 37  1  0  0  0  0
 11 14  1  0  0  0  0
 11 15  1  0  0  0  0
 11 16  1  0  0  0  0
 39 41  1  0  0  0  0
 39 42  1  0  0  0  0
 39 43  1  0  0  0  0
 21 25  1  0  0  0  0
 21 26  1  0  0  0  0
 29 34  1  0  0  0  0
  8 13  1  0  0  0  0
 18 24  1  0  0  0  0
 38 40  1  0  0  0  0
  7 12  1  0  0  0  0
 28 33  1  0  0  0  0
 17 23  1  0  0  0  0
 22 27  1  0  0  0  0
M  END
$$$$

  -OEChem-05262214473D

 43 42  0     1  0  0  0  0  0999 V2000
   -2.8661   -4.7415    2.2943 C   0  0  0  0  0  0  0  0  0  0  0  0
   -2.0233   -5.5727    2.6109 O   0  0  0  0  0  0  0  0  0  0  0  0
   -4.3078   -5.0134    2.5698 C   0  0  0  0  0  0  0  0  0  0  0  0
   -4.8057   -5.5295    1.7332 H   0  0  0  0  0  0  0  0  0  0  0  0
   -4.4526   -5.6688    3.4436 H   0  0  0  0  0  0  0  0  0  0  0  0
   -4.9255   -4.1233    2.7700 H   0  0  0  0  0  0  0  0  0  0  0  0
   -2.6241   -3.5219    1.6838 N   0  0  0  0  0  0  0  0  0  0  0  0
   -1.3070   -3.0608    1.3315 C   0  0  2  0  0  0  0  0  0  0  0  0
   -1.3931   -1.5680    1.0422 C   0  0  0  0  0  0  0  0  0  0  0  0
   -2.4385   -1.0059    0.7226 O   0  0  0  0  0  0  0  0  0  0  0  0
   -0.7590   -3.8164    0.1309 C   0  0  0  0  0  0  0  0  0  0  0  0
   -3.4188   -2.9207    1.4735 H   0  0  0  0  0  0  0  0  0  0  0  0
   -0.6690   -3.2277    2.2062 H   0  0  0  0  0  0  0  0  0  0  0  0
   -1.3852   -3.6613   -0.7553 H   0  0  0  0  0  0  0  0  0  0  0  0
    0.2542   -3.4843   -0.1182 H   0  0  0  0  0  0  0  0  0  0  0  0
   -0.7257   -4.8930    0.3300 H   0  0  0  0  0  0  0  0  0  0  0  0
   -0.1563   -0.9420    1.1402 N   0  0  0  0  0  0  0  0  0  0  0  0
    0.0261    0.4671    0.9001 C   0  0  2  0  0  0  0  0  0  0  0  0
    1.4353    0.6980    0.3582 C   0  0  0  0  0  0  0  0  0  0  0  0
    2.3306   -0.1403    0.4419 O   0  0  0  0  0  0  0  0  0  0  0  0
   -0.2964    1.3148    2.1332 C   0  0  0  0  0  0  0  0  0  0  0  0
   -2.0476    1.2461    2.6341 S   0  0  0  0  0  0  0  0  0  0  0  0
    0.6533   -1.4855    1.4300 H   0  0  0  0  0  0  0  0  0  0  0  0
   -0.6817    0.7242    0.1023 H   0  0  0  0  0  0  0  0  0  0  0  0
    0.3024    0.9899    2.9903 H   0  0  0  0  0  0  0  0  0  0  0  0
   -0.0521    2.3647    1.9385 H   0  0  0  0  0  0  0  0  0  0  0  0
   -1.9200    2.0694    3.6825 H   0  0  0  0  0  0  0  0  0  0  0  0
    1.5808    1.9573   -0.2062 N   0  0  0  0  0  0  0  0  0  0  0  0
    2.8253    2.4157   -0.7779 C   0  0  2  0  0  0  0  0  0  0  0  0
    2.6600    3.8836   -1.1488 C   0  0  0  0  0  0  0  0  0  0  0  0
    1.5653    4.4057   -1.3490 O   0  0  0  0  0  0  0  0  0  0  0  0
    3.2138    1.5884   -1.9934 C   0  0  0  0  0  0  0  0  0  0  0  0
    0.7769    2.5756   -0.2631 H   0  0  0  0  0  0  0  0  0  0  0  0
    3.5868    2.3194    0.0036 H   0  0  0  0  0  0  0  0  0  0  0  0
    2.4626    1.6724   -2.7872 H   0  0  0  0  0  0  0  0  0  0  0  0
    4.1717    1.9188   -2.4085 H   0  0  0  0  0  0  0  0  0  0  0  0
    3.3031    0.5287   -1.7311 H   0  0  0  0  0  0  0  0  0  0  0  0
    3.8812    4.5314   -1.2723 N   0  0  0  0  0  0  0  0  0  0  0  0
    3.9911    5.9266   -1.6290 C   0  0  0  0  0  0  0  0  0  0  0  0
    4.7381    4.0252   -1.0692 H   0  0  0  0  0  0  0  0  0  0  0  0
    4.1011    6.0192   -2.7196 H   0  0  0  0  0  0  0  0  0  0  0  0
    3.0852    6.4601   -1.3054 H   0  0  0  0  0  0  0  0  0  0  0  0
    4.8706    6.3635   -1.1335 H   0  0  0  0  0  0  0  0  0  0  0  0
  1  3  1  0  0  0  0
  1  7  1  0  0  0  0
  1  2  2  0  0  0  0
 29 30  1  0  0  0  0
 30 38  1  0  0  0  0
 30 31  2  0  0  0  0
  8  9  1  0  0  0  0
  9 17  1  0  0  0  0
  9 10  2  0  0  0  0
 18 19  1  0  0  0  0
 19 28  1  0  0  0  0
 19 20  2  0  0  0  0
 29 32  1  0  0  0  0
  8 11  1  0  0  0  0
 38 39  1  0  0  0  0
 18 21  1  0  0  0  0
 21 22  1  0  0  0  0
 28 29  1  0  0  0  0
  7  8  1  0  0  0  0
 17 18  1  0  0  0  0
  3  4  1  0  0  0  0
  3  5  1  0  0  0  0
  3  6  1  0  0  0  0
 32 35  1  0  0  0  0
 32 36  1  0  0  0  0
 32 37  1  0  0  0  0
 11 14  1  0  0  0  0
 11 15  1  0  0  0  0
 11 16  1  0  0  0  0
 39 41  1  0  0  0  0
 39 42  1  0  0  0  0
 39 43  1  0  0  0  0
 21 25  1  0  0  0  0
 21 26  1  0  0  0  0
 29 34  1  0  0  0  0
  8 13  1  0  0  0  0
 18 24  1  0  0  0  0
 38 40  1  0  0  0  0
  7 12  1  0  0  0  0
 28 33  1  0  0  0  0
 17 23  1  0  0  0  0
 22 27  1  0  0  0  0
M  END
$$$$

  -OEChem-05262214473D

 43 42  0     1  0  0  0  0  0999 V2000
   -2.8661   -4.7415    2.2943 C   0  0  0  0  0  0  0  0  0  0  0  0
   -2.0233   -5.5727    2.6109 O   0  0  0  0  0  0  0  0  0  0  0  0
   -4.3078   -5.0134    2.5698 C   0  0  0  0  0  0  0  0  0  0  0  0
   -4.8057   -5.5295    1.7332 H   0  0  0  0  0  0  0  0  0  0  0  0
   -4.4526   -5.6688    3.4436 H   0  0  0  0  0  0  0  0  0  0  0  0
   -4.9255   -4.1233    2.7700 H   0  0  0  0  0  0  0  0  0  0  0  0
   -2.6241   -3.5219    1.6838 N   0  0  0  0  0  0  0  0  0  0  0  0
   -1.3070   -3.0608    1.3315 C   0  0  2  0  0  0  0  0  0  0  0  0
   -1.3931   -1.5680    1.0422 C   0  0  0  0  0  0  0  0  0  0  0  0
   -2.4385   -1.0059    0.7226 O   0  0  0  0  0  0  0  0  0  0  0  0
   -0.7590   -3.8164    0.1309 C   0  0  0  0  0  0  0  0  0  0  0  0
   -3.4188   -2.9207    1.4735 H   0  0  0  0  0  0  0  0  0  0  0  0
   -0.6690   -3.2277    2.2062 H   0  0  0  0  0  0  0  0  0  0  0  0
   -1.3852   -3.6613   -0.7553 H   0  0  0  0  0  0  0  0  0  0  0  0
    0.2542   -3.4843   -0.1182 H   0  0  0  0  0  0  0  0  0  0  0  0
   -0.7257   -4.8930    0.3300 H   0  0  0  0  0  0  0  0  0  0  0  0
   -0.1563   -0.9420    1.1402 N   0  0  0  0  0  0  0  0  0  0  0  0
    0.0261    0.4671    0.9001 C   0  0  2  0  0  0  0  0  0  0  0  0
    1.2622    0.6636    0.0248 C   0  0  0  0  0  0  0  0  0  0  0  0
    1.9631   -0.2689   -0.3632 O   0  0  0  0  0  0  0  0  0  0  0  0
    0.0657    1.2789    2.1972 C   0  0  0  0  0  0  0  0  0  0  0  0
   -1.5036    1.2592    3.1242 S   0  0  0  0  0  0  0  0  0  0  0  0
    0.6533   -1.4855    1.4300 H   0  0  0  0  0  0  0  0  0  0  0  0
   -0.8471    0.7819    0.3153 H   0  0  0  0  0  0  0  0  0  0  0  0
    0.8453    0.8982    2.8652 H   0  0  0  0  0  0  0  0  0  0  0  0
    0.3024    2.3251    1.9756 H   0  0  0  0  0  0  0  0  0  0  0  0
   -1.0767    2.0361    4.1279 H   0  0  0  0  0  0  0  0  0  0  0  0
    1.5031    2.0022   -0.2504 N   0  0  0  0  0  0  0  0  0  0  0  0
    2.6212    2.4440   -1.0507 C   0  0  2  0  0  0  0  0  0  0  0  0
    2.6604    3.9658   -1.0045 C   0  0  0  0  0  0  0  0  0  0  0  0
    1.6779    4.6543   -0.7367 O   0  0  0  0  0  0  0  0  0  0  0  0
    2.5071    1.9465   -2.4833 C   0  0  0  0  0  0  0  0  0  0  0  0
    0.8519    2.7064    0.0838 H   0  0  0  0  0  0  0  0  0  0  0  0
    3.5251    2.0404   -0.5816 H   0  0  0  0  0  0  0  0  0  0  0  0
    1.6073    2.3406   -2.9697 H   0  0  0  0  0  0  0  0  0  0  0  0
    3.3696    2.2583   -3.0815 H   0  0  0  0  0  0  0  0  0  0  0  0
    2.4490    0.8531   -2.5126 H   0  0  0  0  0  0  0  0  0  0  0  0
    3.9109    4.4661   -1.3396 N   0  0  0  0  0  0  0  0  0  0  0  0
    4.1993    5.8807   -1.3806 C   0  0  0  0  0  0  0  0  0  0  0  0
    4.6726    3.8214   -1.5289 H   0  0  0  0  0  0  0  0  0  0  0  0
    4.0375    6.2590   -2.4007 H   0  0  0  0  0  0  0  0  0  0  0  0
    3.5339    6.4108   -0.6833 H   0  0  0  0  0  0  0  0  0  0  0  0
    5.2462    6.0499   -1.0886 H   0  0  0  0  0  0  0  0  0  0  0  0
  1  3  1  0  0  0  0
  1  7  1  0  0  0  0
  1  2  2  0  0  0  0
 29 30  1  0  0  0  0
 30 38  1  0  0  0  0
 30 31  2  0  0  0  0
  8  9  1  0  0  0  0
  9 17  1  0  0  0  0
  9 10  2  0  0  0  0
 18 19  1  0  0  0  0
 19 28  1  0  0  0  0
 19 20  2  0  0  0  0
 29 32  1  0  0  0  0
  8 11  1  0  0  0  0
 38 39  1  0  0  0  0
 18 21  1  0  0  0  0
 21 22  1  0  0  0  0
 28 29  1  0  0  0  0
  7  8  1  0  0  0  0
 17 18  1  0  0  0  0
  3  4  1  0  0  0  0
  3  5  1  0  0  0  0
  3  6  1  0  0  0  0
 32 35  1  0  0  0  0
 32 36  1  0  0  0  0
 32 37  1  0  0  0  0
 11 14  1  0  0  0  0
 11 15  1  0  0  0  0
 11 16  1  0  0  0  0
 39 41  1  0  0  0  0
 39 42  1  0  0  0  0
 39 43  1  0  0  0  0
 21 25  1  0  0  0  0
 21 26  1  0  0  0  0
 29 34  1  0  0  0  0
  8 13  1  0  0  0  0
 18 24  1  0  0  0  0
 38 40  1  0  0  0  0
  7 12  1  0  0  0  0
 28 33  1  0  0  0  0
 17 23  1  0  0  0  0
 22 27  1  0  0  0  0
M  END
$$$$

  -OEChem-05262214473D

 43 42  0     1  0  0  0  0  0999 V2000
   -2.8661   -4.7415    2.2943 C   0  0  0  0  0  0  0  0  0  0  0  0
   -2.0233   -5.5727    2.6109 O   0  0  0  0  0  0  0  0  0  0  0  0
   -4.3078   -5.0134    2.5698 C   0  0  0  0  0  0  0  0  0  0  0  0
   -4.8057   -5.5295    1.7332 H   0  0  0  0  0  0  0  0  0  0  0  0
   -4.4526   -5.6688    3.4436 H   0  0  0  0  0  0  0  0  0  0  0  0
   -4.9255   -4.1233    2.7700 H   0  0  0  0  0  0  0  0  0  0  0  0
   -2.6241   -3.5219    1.6838 N   0  0  0  0  0  0  0  0  0  0  0  0
   -1.3070   -3.0608    1.3315 C   0  0  2  0  0  0  0  0  0  0  0  0
   -1.3931   -1.5680    1.0422 C   0  0  0  0  0  0  0  0  0  0  0  0
   -2.4385   -1.0059    0.7226 O   0  0  0  0  0  0  0  0  0  0  0  0
   -0.7590   -3.8164    0.1309 C   0  0  0  0  0  0  0  0  0  0  0  0
   -3.4188   -2.9207    1.4735 H   0  0  0  0  0  0  0  0  0  0  0  0
   -0.6690   -3.2277    2.2062 H   0  0  0  0  0  0  0  0  0  0  0  0
   -1.3852   -3.6613   -0.7553 H   0  0  0  0  0  0  0  0  0  0  0  0
    0.2542   -3.4843   -0.1182 H   0  0  0  0  0  0  0  0  0  0  0  0
   -0.7257   -4.8930    0.3300 H   0  0  0  0  0  0  0  0  0  0  0  0
   -0.1563   -0.9420    1.1402 N   0  0  0  0  0  0  0  0  0  0  0  0
    0.0261    0.4671    0.9001 C   0  0  2  0  0  0  0  0  0  0  0  0
    1.2622    0.6636    0.0248 C   0  0  0  0  0  0  0  0  0  0  0  0
    1.8065   -0.2569   -0.5817 O   0  0  0  0  0  0  0  0  0  0  0  0
    0.0657    1.2789    2.1972 C   0  0  0  0  0  0  0  0  0  0  0  0
   -1.5036    1.2592    3.1242 S   0  0  0  0  0  0  0  0  0  0  0  0
    0.6533   -1.4855    1.4300 H   0  0  0  0  0  0  0  0  0  0  0  0
   -0.8471    0.7819    0.3153 H   0  0  0  0  0  0  0  0  0  0  0  0
    0.8453    0.8982    2.8652 H   0  0  0  0  0  0  0  0  0  0  0  0
    0.3024    2.3251    1.9756 H   0  0  0  0  0  0  0  0  0  0  0  0
   -1.0767    2.0361    4.1279 H   0  0  0  0  0  0  0  0  0  0  0  0
    1.6988    1.9808    0.0211 N   0  0  0  0  0  0  0  0  0  0  0  0
    2.8568    2.4156   -0.7244 C   0  0  2  0  0  0  0  0  0  0  0  0
    3.1275    3.8709   -0.3662 C   0  0  0  0  0  0  0  0  0  0  0  0
    2.2658    4.6218    0.0862 O   0  0  0  0  0  0  0  0  0  0  0  0
    2.6434    2.2549   -2.2215 C   0  0  0  0  0  0  0  0  0  0  0  0
    1.1680    2.6848    0.5253 H   0  0  0  0  0  0  0  0  0  0  0  0
    3.6970    1.7951   -0.3939 H   0  0  0  0  0  0  0  0  0  0  0  0
    1.8056    2.8692   -2.5711 H   0  0  0  0  0  0  0  0  0  0  0  0
    3.5327    2.5582   -2.7838 H   0  0  0  0  0  0  0  0  0  0  0  0
    2.4194    1.2128   -2.4736 H   0  0  0  0  0  0  0  0  0  0  0  0
    4.4334    4.2444   -0.6515 N   0  0  0  0  0  0  0  0  0  0  0  0
    4.9326    5.5785   -0.4129 C   0  0  0  0  0  0  0  0  0  0  0  0
    5.0850    3.5511   -1.0073 H   0  0  0  0  0  0  0  0  0  0  0  0
    4.8124    6.1838   -1.3235 H   0  0  0  0  0  0  0  0  0  0  0  0
    4.3677    6.0393    0.4108 H   0  0  0  0  0  0  0  0  0  0  0  0
    5.9980    5.5285   -0.1440 H   0  0  0  0  0  0  0  0  0  0  0  0
  1  3  1  0  0  0  0
  1  7  1  0  0  0  0
  1  2  2  0  0  0  0
 29 30  1  0  0  0  0
 30 38  1  0  0  0  0
 30 31  2  0  0  0  0
  8  9  1  0  0  0  0
  9 17  1  0  0  0  0
  9 10  2  0  0  0  0
 18 19  1  0  0  0  0
 19 28  1  0  0  0  0
 19 20  2  0  0  0  0
 29 32  1  0  0  0  0
  8 11  1  0  0  0  0
 38 39  1  0  0  0  0
 18 21  1  0  0  0  0
 21 22  1  0  0  0  0
 28 29  1  0  0  0  0
  7  8  1  0  0  0  0
 17 18  1  0  0  0  0
  3  4  1  0  0  0  0
  3  5  1  0  0  0  0
  3  6  1  0  0  0  0
 32 35  1  0  0  0  0
 32 36  1  0  0  0  0
 32 37  1  0  0  0  0
 11 14  1  0  0  0  0
 11 15  1  0  0  0  0
 11 16  1  0  0  0  0
 39 41  1  0  0  0  0
 39 42  1  0  0  0  0
 39 43  1  0  0  0  0
 21 25  1  0  0  0  0
 21 26  1  0  0  0  0
 29 34  1  0  0  0  0
  8 13  1  0  0  0  0
 18 24  1  0  0  0  0
 38 40  1  0  0  0  0
  7 12  1  0  0  0  0
 28 33  1  0  0  0  0
 17 23  1  0  0  0  0
 22 27  1  0  0  0  0
M  END
$$$$

  -OEChem-05262214473D

 43 42  0     1  0  0  0  0  0999 V2000
   -2.8661   -4.7415    2.2943 C   0  0  0  0  0  0  0  0  0  0  0  0
   -2.0233   -5.5727    2.6109 O   0  0  0  0  0  0  0  0  0  0  0  0
   -4.3078   -5.0134    2.5698 C   0  0  0  0  0  0  0  0  0  0  0  0
   -4.8057   -5.5295    1.7332 H   0  0  0  0  0  0  0  0  0  0  0  0
   -4.4526   -5.6688    3.4436 H   0  0  0  0  0  0  0  0  0  0  0  0
   -4.9255   -4.1233    2.7700 H   0  0  0  0  0  0  0  0  0  0  0  0
   -2.6241   -3.5219    1.6838 N   0  0  0  0  0  0  0  0  0  0  0  0
   -1.3070   -3.0608    1.3315 C   0  0  2  0  0  0  0  0  0  0  0  0
   -1.3931   -1.5680    1.0422 C   0  0  0  0  0  0  0  0  0  0  0  0
   -2.4385   -1.0059    0.7226 O   0  0  0  0  0  0  0  0  0  0  0  0
   -0.7590   -3.8164    0.1309 C   0  0  0  0  0  0  0  0  0  0  0  0
   -3.4188   -2.9207    1.4735 H   0  0  0  0  0  0  0  0  0  0  0  0
   -0.6690   -3.2277    2.2062 H   0  0  0  0  0  0  0  0  0  0  0  0
   -1.3852   -3.6613   -0.7553 H   0  0  0  0  0  0  0  0  0  0  0  0
    0.2542   -3.4843   -0.1182 H   0  0  0  0  0  0  0  0  0  0  0  0
   -0.7257   -4.8930    0.3300 H   0  0  0  0  0  0  0  0  0  0  0  0
   -0.1563   -0.9420    1.1402 N   0  0  0  0  0  0  0  0  0  0  0  0
    0.0261    0.4671    0.9001 C   0  0  2  0  0  0  0  0  0  0  0  0
    1.2622    0.6636    0.0248 C   0  0  0  0  0  0  0  0  0  0  0  0
    1.6496   -0.1763   -0.7850 O   0  0  0  0  0  0  0  0  0  0  0  0
    0.0657    1.2789    2.1972 C   0  0  0  0  0  0  0  0  0  0  0  0
   -1.5036    1.2592    3.1242 S   0  0  0  0  0  0  0  0  0  0  0  0
    0.6533   -1.4855    1.4300 H   0  0  0  0  0  0  0  0  0  0  0  0
   -0.8471    0.7819    0.3153 H   0  0  0  0  0  0  0  0  0  0  0  0
    0.8453    0.8982    2.8652 H   0  0  0  0  0  0  0  0  0  0  0  0
    0.3024    2.3251    1.9756 H   0  0  0  0  0  0  0  0  0  0  0  0
   -1.0767    2.0361    4.1279 H   0  0  0  0  0  0  0  0  0  0  0  0
    1.8937    1.8742    0.2724 N   0  0  0  0  0  0  0  0  0  0  0  0
    3.0911    2.2848   -0.4230 C   0  0  2  0  0  0  0  0  0  0  0  0
    3.5859    3.5762    0.2149 C   0  0  0  0  0  0  0  0  0  0  0  0
    2.8563    4.3308    0.8547 O   0  0  0  0  0  0  0  0  0  0  0  0
    2.8296    2.4778   -1.9086 C   0  0  0  0  0  0  0  0  0  0  0  0
    1.4849    2.5246    0.9368 H   0  0  0  0  0  0  0  0  0  0  0  0
    3.8329    1.4934   -0.2697 H   0  0  0  0  0  0  0  0  0  0  0  0
    2.0888    3.2668   -2.0819 H   0  0  0  0  0  0  0  0  0  0  0  0
    3.7446    2.7613   -2.4390 H   0  0  0  0  0  0  0  0  0  0  0  0
    2.4455    1.5564   -2.3596 H   0  0  0  0  0  0  0  0  0  0  0  0
    4.9281    3.8086   -0.0507 N   0  0  0  0  0  0  0  0  0  0  0  0
    5.6283    4.9751    0.4340 C   0  0  0  0  0  0  0  0  0  0  0  0
    5.4606    3.1196   -0.5738 H   0  0  0  0  0  0  0  0  0  0  0  0
    5.5855    5.7706   -0.3246 H   0  0  0  0  0  0  0  0  0  0  0  0
    5.1544    5.3277    1.3620 H   0  0  0  0  0  0  0  0  0  0  0  0
    6.6783    4.7156    0.6341 H   0  0  0  0  0  0  0  0  0  0  0  0
  1  3  1  0  0  0  0
  1  7  1  0  0  0  0
  1  2  2  0  0  0  0
 29 30  1  0  0  0  0
 30 38  1  0  0  0  0
 30 31  2  0  0  0  0
  8  9  1  0  0  0  0
  9 17  1  0  0  0  0
  9 10  2  0  0  0  0
 18 19  1  0  0  0  0
 19 28  1  0  0  0  0
 19 20  2  0  0  0  0
 29 32  1  0  0  0  0
  8 11  1  0  0  0  0
 38 39  1  0  0  0  0
 18 21  1  0  0  0  0
 21 22  1  0  0  0  0
 28 29  1  0  0  0  0
  7  8  1  0  0  0  0
 17 18  1  0  0  0  0
  3  4  1  0  0  0  0
  3  5  1  0  0  0  0
  3  6  1  0  0  0  0
 32 35  1  0  0  0  0
 32 36  1  0  0  0  0
 32 37  1  0  0  0  0
 11 14  1  0  0  0  0
 11 15  1  0  0  0  0
 11 16  1  0  0  0  0
 39 41  1  0  0  0  0
 39 42  1  0  0  0  0
 39 43  1  0  0  0  0
 21 25  1  0  0  0  0
 21 26  1  0  0  0  0
 29 34  1  0  0  0  0
  8 13  1  0  0  0  0
 18 24  1  0  0  0  0
 38 40  1  0  0  0  0
  7 12  1  0  0  0  0
 28 33  1  0  0  0  0
 17 23  1  0  0  0  0
 22 27  1  0  0  0  0
M  END
$$$$

  -OEChem-05262214473D

 43 42  0     1  0  0  0  0  0999 V2000
   -2.8661   -4.7415    2.2943 C   0  0  0  0  0  0  0  0  0  0  0  0
   -2.0233   -5.5727    2.6109 O   0  0  0  0  0  0  0  0  0  0  0  0
   -4.3078   -5.0134    2.5698 C   0  0  0  0  0  0  0  0  0  0  0  0
   -4.8057   -5.5295    1.7332 H   0  0  0  0  0  0  0  0  0  0  0  0
   -4.4526   -5.6688    3.4436 H   0  0  0  0  0  0  0  0  0  0  0  0
   -4.9255   -4.1233    2.7700 H   0  0  0  0  0  0  0  0  0  0  0  0
   -2.6241   -3.5219    1.6838 N   0  0  0  0  0  0  0  0  0  0  0  0
   -1.3070   -3.0608    1.3315 C   0  0  2  0  0  0  0  0  0  0  0  0
   -1.3931   -1.5680    1.0422 C   0  0  0  0  0  0  0  0  0  0  0  0
   -2.4385   -1.0059    0.7226 O   0  0  0  0  0  0  0  0  0  0  0  0
   -0.7590   -3.8164    0.1309 C   0  0  0  0  0  0  0  0  0  0  0  0
   -3.4188   -2.9207    1.4735 H   0  0  0  0  0  0  0  0  0  0  0  0
   -0.6690   -3.2277    2.2062 H   0  0  0  0  0  0  0  0  0  0  0  0
   -1.3852   -3.6613   -0.7553 H   0  0  0  0  0  0  0  0  0  0  0  0
    0.2542   -3.4843   -0.1182 H   0  0  0  0  0  0  0  0  0  0  0  0
   -0.7257   -4.8930    0.3300 H   0  0  0  0  0  0  0  0  0  0  0  0
   -0.1563   -0.9420    1.1402 N   0  0  0  0  0  0  0  0  0  0  0  0
    0.0261    0.4671    0.9001 C   0  0  2  0  0  0  0  0  0  0  0  0
    1.2622    0.6636    0.0248 C   0  0  0  0  0  0  0  0  0  0  0  0
    1.5033   -0.0326   -0.9594 O   0  0  0  0  0  0  0  0  0  0  0  0
    0.0657    1.2789    2.1972 C   0  0  0  0  0  0  0  0  0  0  0  0
   -1.5036    1.2592    3.1242 S   0  0  0  0  0  0  0  0  0  0  0  0
    0.6533   -1.4855    1.4300 H   0  0  0  0  0  0  0  0  0  0  0  0
   -0.8471    0.7819    0.3153 H   0  0  0  0  0  0  0  0  0  0  0  0
    0.8453    0.8982    2.8652 H   0  0  0  0  0  0  0  0  0  0  0  0
    0.3024    2.3251    1.9756 H   0  0  0  0  0  0  0  0  0  0  0  0
   -1.0767    2.0361    4.1279 H   0  0  0  0  0  0  0  0  0  0  0  0
    2.0745    1.6897    0.4862 N   0  0  0  0  0  0  0  0  0  0  0  0
    3.3080    2.0606   -0.1670 C   0  0  2  0  0  0  0  0  0  0  0  0
    4.0043    3.1018    0.6992 C   0  0  0  0  0  0  0  0  0  0  0  0
    3.4091    3.8012    1.5163 O   0  0  0  0  0  0  0  0  0  0  0  0
    3.0529    2.5999   -1.5659 C   0  0  0  0  0  0  0  0  0  0  0  0
    1.7809    2.2367    1.2901 H   0  0  0  0  0  0  0  0  0  0  0  0
    3.9236    1.1558   -0.2174 H   0  0  0  0  0  0  0  0  0  0  0  0
    2.4376    3.5065   -1.5356 H   0  0  0  0  0  0  0  0  0  0  0  0
    3.9910    2.8538   -2.0704 H   0  0  0  0  0  0  0  0  0  0  0  0
    2.5255    1.8606   -2.1784 H   0  0  0  0  0  0  0  0  0  0  0  0
    5.3614    3.1884    0.4218 N   0  0  0  0  0  0  0  0  0  0  0  0
    6.2389    4.1117    1.1025 C   0  0  0  0  0  0  0  0  0  0  0  0
    5.7738    2.5563   -0.2580 H   0  0  0  0  0  0  0  0  0  0  0  0
    6.3042    5.0475    0.5280 H   0  0  0  0  0  0  0  0  0  0  0  0
    5.8405    4.3244    2.1055 H   0  0  0  0  0  0  0  0  0  0  0  0
    7.2407    3.6664    1.1928 H   0  0  0  0  0  0  0  0  0  0  0  0
  1  3  1  0  0  0  0
  1  7  1  0  0  0  0
  1  2  2  0  0  0  0
 29 30  1  0  0  0  0
 30 38  1  0  0  0  0
 30 31  2  0  0  0  0
  8  9  1  0  0  0  0
  9 17  1  0  0  0  0
  9 10  2  0  0  0  0
 18 19  1  0  0  0  0
 19 28  1  0  0  0  0
 19 20  2  0  0  0  0
 29 32  1  0  0  0  0
  8 11  1  0  0  0  0
 38 39  1  0  0  0  0
 18 21  1  0  0  0  0
 21 22  1  0  0  0  0
 28 29  1  0  0  0  0
  7  8  1  0  0  0  0
 17 18  1  0  0  0  0
  3  4  1  0  0  0  0
  3  5  1  0  0  0  0
  3  6  1  0  0  0  0
 32 35  1  0  0  0  0
 32 36  1  0  0  0  0
 32 37  1  0  0  0  0
 11 14  1  0  0  0  0
 11 15  1  0  0  0  0
 11 16  1  0  0  0  0
 39 41  1  0  0  0  0
 39 42  1  0  0  0  0
 39 43  1  0  0  0  0
 21 25  1  0  0  0  0
 21 26  1  0  0  0  0
 29 34  1  0  0  0  0
  8 13  1  0  0  0  0
 18 24  1  0  0  0  0
 38 40  1  0  0  0  0
  7 12  1  0  0  0  0
 28 33  1  0  0  0  0
 17 23  1  0  0  0  0
 22 27  1  0  0  0  0
M  END
$$$$

  -OEChem-05262214473D

 43 42  0     1  0  0  0  0  0999 V2000
   -2.8661   -4.7415    2.2943 C   0  0  0  0  0  0  0  0  0  0  0  0
   -2.0233   -5.5727    2.6109 O   0  0  0  0  0  0  0  0  0  0  0  0
   -4.3078   -5.0134    2.5698 C   0  0  0  0  0  0  0  0  0  0  0  0
   -4.8057   -5.5295    1.7332 H   0  0  0  0  0  0  0  0  0  0  0  0
   -4.4526   -5.6688    3.4436 H   0  0  0  0  0  0  0  0  0  0  0  0
   -4.9255   -4.1233    2.7700 H   0  0  0  0  0  0  0  0  0  0  0  0
   -2.6241   -3.5219    1.6838 N   0  0  0  0  0  0  0  0  0  0  0  0
   -1.3070   -3.0608    1.3315 C   0  0  2  0  0  0  0  0  0  0  0  0
   -1.3931   -1.5680    1.0422 C   0  0  0  0  0  0  0  0  0  0  0  0
   -2.4385   -1.0059    0.7226 O   0  0  0  0  0  0  0  0  0  0  0  0
   -0.7590   -3.8164    0.1309 C   0  0  0  0  0  0  0  0  0  0  0  0
   -3.4188   -2.9207    1.4735 H   0  0  0  0  0  0  0  0  0  0  0  0
   -0.6690   -3.2277    2.2062 H   0  0  0  0  0  0  0  0  0  0  0  0
   -1.3852   -3.6613   -0.7553 H   0  0  0  0  0  0  0  0  0  0  0  0
    0.2542   -3.4843   -0.1182 H   0  0  0  0  0  0  0  0  0  0  0  0
   -0.7257   -4.8930    0.3300 H   0  0  0  0  0  0  0  0  0  0  0  0
   -0.1563   -0.9420    1.1402 N   0  0  0  0  0  0  0  0  0  0  0  0
    0.0261    0.4671    0.9001 C   0  0  2  0  0  0  0  0  0  0  0  0
    1.2622    0.6636    0.0248 C   0  0  0  0  0  0  0  0  0  0  0  0
    1.3775    0.1644   -1.0928 O   0  0  0  0  0  0  0  0  0  0  0  0
    0.0657    1.2789    2.1972 C   0  0  0  0  0  0  0  0  0  0  0  0
   -1.5036    1.2592    3.1242 S   0  0  0  0  0  0  0  0  0  0  0  0
    0.6533   -1.4855    1.4300 H   0  0  0  0  0  0  0  0  0  0  0  0
   -0.8471    0.7819    0.3153 H   0  0  0  0  0  0  0  0  0  0  0  0
    0.8453    0.8982    2.8652 H   0  0  0  0  0  0  0  0  0  0  0  0
    0.3024    2.3251    1.9756 H   0  0  0  0  0  0  0  0  0  0  0  0
   -1.0767    2.0361    4.1279 H   0  0  0  0  0  0  0  0  0  0  0  0
    2.2288    1.4399    0.6481 N   0  0  0  0  0  0  0  0  0  0  0  0
    3.4927    1.7582    0.0260 C   0  0  2  0  0  0  0  0  0  0  0  0
    4.3542    2.4801    1.0537 C   0  0  0  0  0  0  0  0  0  0  0  0
    3.8865    3.0690    2.0261 O   0  0  0  0  0  0  0  0  0  0  0  0
    3.2981    2.6129   -1.2167 C   0  0  0  0  0  0  0  0  0  0  0  0
    2.0358    1.8407    1.5613 H   0  0  0  0  0  0  0  0  0  0  0  0
    3.9628    0.8053   -0.2407 H   0  0  0  0  0  0  0  0  0  0  0  0
    2.8283    3.5718   -0.9693 H   0  0  0  0  0  0  0  0  0  0  0  0
    4.2549    2.8294   -1.7032 H   0  0  0  0  0  0  0  0  0  0  0  0
    2.6539    2.1046   -1.9423 H   0  0  0  0  0  0  0  0  0  0  0  0
    5.7036    2.4261    0.7340 N   0  0  0  0  0  0  0  0  0  0  0  0
    6.7230    3.0471    1.5471 C   0  0  0  0  0  0  0  0  0  0  0  0
    6.0032    1.8996   -0.0814 H   0  0  0  0  0  0  0  0  0  0  0  0
    6.9196    4.0639    1.1762 H   0  0  0  0  0  0  0  0  0  0  0  0
    6.3791    3.0978    2.5907 H   0  0  0  0  0  0  0  0  0  0  0  0
    7.6470    2.4526    1.4939 H   0  0  0  0  0  0  0  0  0  0  0  0
  1  3  1  0  0  0  0
  1  7  1  0  0  0  0
  1  2  2  0  0  0  0
 29 30  1  0  0  0  0
 30 38  1  0  0  0  0
 30 31  2  0  0  0  0
  8  9  1  0  0  0  0
  9 17  1  0  0  0  0
  9 10  2  0  0  0  0
 18 19  1  0  0  0  0
 19 28  1  0  0  0  0
 19 20  2  0  0  0  0
 29 32  1  0  0  0  0
  8 11  1  0  0  0  0
 38 39  1  0  0  0  0
 18 21  1  0  0  0  0
 21 22  1  0  0  0  0
 28 29  1  0  0  0  0
  7  8  1  0  0  0  0
 17 18  1  0  0  0  0
  3  4  1  0  0  0  0
  3  5  1  0  0  0  0
  3  6  1  0  0  0  0
 32 35  1  0  0  0  0
 32 36  1  0  0  0  0
 32 37  1  0  0  0  0
 11 14  1  0  0  0  0
 11 15  1  0  0  0  0
 11 16  1  0  0  0  0
 39 41  1  0  0  0  0
 39 42  1  0  0  0  0
 39 43  1  0  0  0  0
 21 25  1  0  0  0  0
 21 26  1  0  0  0  0
 29 34  1  0  0  0  0
  8 13  1  0  0  0  0
 18 24  1  0  0  0  0
 38 40  1  0  0  0  0
  7 12  1  0  0  0  0
 28 33  1  0  0  0  0
 17 23  1  0  0  0  0
 22 27  1  0  0  0  0
M  END
$$$$

  -OEChem-05262214473D

 43 42  0     1  0  0  0  0  0999 V2000
   -2.8661   -4.7415    2.2943 C   0  0  0  0  0  0  0  0  0  0  0  0
   -2.0233   -5.5727    2.6109 O   0  0  0  0  0  0  0  0  0  0  0  0
   -4.3078   -5.0134    2.5698 C   0  0  0  0  0  0  0  0  0  0  0  0
   -4.8057   -5.5295    1.7332 H   0  0  0  0  0  0  0  0  0  0  0  0
   -4.4526   -5.6688    3.4436 H   0  0  0  0  0  0  0  0  0  0  0  0
   -4.9255   -4.1233    2.7700 H   0  0  0  0  0  0  0  0  0  0  0  0
   -2.6241   -3.5219    1.6838 N   0  0  0  0  0  0  0  0  0  0  0  0
   -1.3070   -3.0608    1.3315 C   0  0  2  0  0  0  0  0  0  0  0  0
   -1.3931   -1.5680    1.0422 C   0  0  0  0  0  0  0  0  0  0  0  0
   -2.4385   -1.0059    0.7226 O   0  0  0  0  0  0  0  0  0  0  0  0
   -0.7590   -3.8164    0.1309 C   0  0  0  0  0  0  0  0  0  0  0  0
   -3.4188   -2.9207    1.4735 H   0  0  0  0  0  0  0  0  0  0  0  0
   -0.6690   -3.2277    2.2062 H   0  0  0  0  0  0  0  0  0  0  0  0
   -1.3852   -3.6613   -0.7553 H   0  0  0  0  0  0  0  0  0  0  0  0
    0.2542   -3.4843   -0.1182 H   0  0  0  0  0  0  0  0  0  0  0  0
   -0.7257   -4.8930    0.3300 H   0  0  0  0  0  0  0  0  0  0  0  0
   -0.1563   -0.9420    1.1402 N   0  0  0  0  0  0  0  0  0  0  0  0
    0.0261    0.4671    0.9001 C   0  0  2  0  0  0  0  0  0  0  0  0
    1.2622    0.6636    0.0248 C   0  0  0  0  0  0  0  0  0  0  0  0
    1.2808    0.4013   -1.1762 O   0  0  0  0  0  0  0  0  0  0  0  0
    0.0657    1.2789    2.1972 C   0  0  0  0  0  0  0  0  0  0  0  0
   -1.5036    1.2592    3.1242 S   0  0  0  0  0  0  0  0  0  0  0  0
    0.6533   -1.4855    1.4300 H   0  0  0  0  0  0  0  0  0  0  0  0
   -0.8471    0.7819    0.3153 H   0  0  0  0  0  0  0  0  0  0  0  0
    0.8453    0.8982    2.8652 H   0  0  0  0  0  0  0  0  0  0  0  0
    0.3024    2.3251    1.9756 H   0  0  0  0  0  0  0  0  0  0  0  0
   -1.0767    2.0361    4.1279 H   0  0  0  0  0  0  0  0  0  0  0  0
    2.3463    1.1418    0.7471 N   0  0  0  0  0  0  0  0  0  0  0  0
    3.6328    1.3983    0.1430 C   0  0  2  0  0  0  0  0  0  0  0  0
    4.6117    1.7534    1.2543 C   0  0  0  0  0  0  0  0  0  0  0  0
    4.2560    2.1842    2.3493 O   0  0  0  0  0  0  0  0  0  0  0  0
    3.5485    2.5159   -0.8849 C   0  0  0  0  0  0  0  0  0  0  0  0
    2.2324    1.3635    1.7317 H   0  0  0  0  0  0  0  0  0  0  0  0
    3.9479    0.4658   -0.3379 H   0  0  0  0  0  0  0  0  0  0  0  0
    3.2342    3.4583   -0.4216 H   0  0  0  0  0  0  0  0  0  0  0  0
    4.5185    2.6898   -1.3624 H   0  0  0  0  0  0  0  0  0  0  0  0
    2.8220    2.2718   -1.6674 H   0  0  0  0  0  0  0  0  0  0  0  0
    5.9315    1.5736    0.8644 N   0  0  0  0  0  0  0  0  0  0  0  0
    7.0475    1.8539    1.7374 C   0  0  0  0  0  0  0  0  0  0  0  0
    6.1334    1.1942   -0.0560 H   0  0  0  0  0  0  0  0  0  0  0  0
    7.3897    2.8867    1.5757 H   0  0  0  0  0  0  0  0  0  0  0  0
    6.7335    1.7314    2.7845 H   0  0  0  0  0  0  0  0  0  0  0  0
    7.8693    1.1567    1.5170 H   0  0  0  0  0  0  0  0  0  0  0  0
  1  3  1  0  0  0  0
  1  7  1  0  0  0  0
  1  2  2  0  0  0  0
 29 30  1  0  0  0  0
 30 38  1  0  0  0  0
 30 31  2  0  0  0  0
  8  9  1  0  0  0  0
  9 17  1  0  0  0  0
  9 10  2  0  0  0  0
 18 19  1  0  0  0  0
 19 28  1  0  0  0  0
 19 20  2  0  0  0  0
 29 32  1  0  0  0  0
  8 11  1  0  0  0  0
 38 39  1  0  0  0  0
 18 21  1  0  0  0  0
 21 22  1  0  0  0  0
 28 29  1  0  0  0  0
  7  8  1  0  0  0  0
 17 18  1  0  0  0  0
  3  4  1  0  0  0  0
  3  5  1  0  0  0  0
  3  6  1  0  0  0  0
 32 35  1  0  0  0  0
 32 36  1  0  0  0  0
 32 37  1  0  0  0  0
 11 14  1  0  0  0  0
 11 15  1  0  0  0  0
 11 16  1  0  0  0  0
 39 41  1  0  0  0  0
 39 42  1  0  0  0  0
 39 43  1  0  0  0  0
 21 25  1  0  0  0  0
 21 26  1  0  0  0  0
 29 34  1  0  0  0  0
  8 13  1  0  0  0  0
 18 24  1  0  0  0  0
 38 40  1  0  0  0  0
  7 12  1  0  0  0  0
 28 33  1  0  0  0  0
 17 23  1  0  0  0  0
 22 27  1  0  0  0  0
M  END
$$$$

  -OEChem-05262214473D

 43 42  0     1  0  0  0  0  0999 V2000
   -2.8661   -4.7415    2.2943 C   0  0  0  0  0  0  0  0  0  0  0  0
   -2.0233   -5.5727    2.6109 O   0  0  0  0  0  0  0  0  0  0  0  0
   -4.3078   -5.0134    2.5698 C   0  0  0  0  0  0  0  0  0  0  0  0
   -4.8057   -5.5295    1.7332 H   0  0  0  0  0  0  0  0  0  0  0  0
   -4.4526   -5.6688    3.4436 H   0  0  0  0  0  0  0  0  0  0  0  0
   -4.9255   -4.1233    2.7700 H   0  0  0  0  0  0  0  0  0  0  0  0
   -2.6241   -3.5219    1.6838 N   0  0  0  0  0  0  0  0  0  0  0  0
   -1.3070   -3.0608    1.3315 C   0  0  2  0  0  0  0  0  0  0  0  0
   -1.3931   -1.5680    1.0422 C   0  0  0  0  0  0  0  0  0  0  0  0
   -2.4385   -1.0059    0.7226 O   0  0  0  0  0  0  0  0  0  0  0  0
   -0.7590   -3.8164    0.1309 C   0  0  0  0  0  0  0  0  0  0  0  0
   -3.4188   -2.9207    1.4735 H   0  0  0  0  0  0  0  0  0  0  0  0
   -0.6690   -3.2277    2.2062 H   0  0  0  0  0  0  0  0  0  0  0  0
   -1.3852   -3.6613   -0.7553 H   0  0  0  0  0  0  0  0  0  0  0  0
    0.2542   -3.4843   -0.1182 H   0  0  0  0  0  0  0  0  0  0  0  0
   -0.7257   -4.8930    0.3300 H   0  0  0  0  0  0  0  0  0  0  0  0
   -0.1563   -0.9420    1.1402 N   0  0  0  0  0  0  0  0  0  0  0  0
    0.0261    0.4671    0.9001 C   0  0  2  0  0  0  0  0  0  0  0  0
    1.2622    0.6636    0.0248 C   0  0  0  0  0  0  0  0  0  0  0  0
    1.2197    0.6620   -1.2039 O   0  0  0  0  0  0  0  0  0  0  0  0
    0.0657    1.2789    2.1972 C   0  0  0  0  0  0  0  0  0  0  0  0
   -1.5036    1.2592    3.1242 S   0  0  0  0  0  0  0  0  0  0  0  0
    0.6533   -1.4855    1.4300 H   0  0  0  0  0  0  0  0  0  0  0  0
   -0.8471    0.7819    0.3153 H   0  0  0  0  0  0  0  0  0  0  0  0
    0.8453    0.8982    2.8652 H   0  0  0  0  0  0  0  0  0  0  0  0
    0.3024    2.3251    1.9756 H   0  0  0  0  0  0  0  0  0  0  0  0
   -1.0767    2.0361    4.1279 H   0  0  0  0  0  0  0  0  0  0  0  0
    2.4188    0.8157    0.7763 N   0  0  0  0  0  0  0  0  0  0  0  0
    3.7186    1.0054    0.1759 C   0  0  2  0  0  0  0  0  0  0  0  0
    4.7594    0.9713    1.2872 C   0  0  0  0  0  0  0  0  0  0  0  0
    4.4924    1.2070    2.4638 O   0  0  0  0  0  0  0  0  0  0  0  0
    3.7871    2.3156   -0.5930 C   0  0  0  0  0  0  0  0  0  0  0  0
    2.3571    0.8377    1.7899 H   0  0  0  0  0  0  0  0  0  0  0  0
    3.8800    0.1605   -0.5024 H   0  0  0  0  0  0  0  0  0  0  0  0
    3.6277    3.1737    0.0702 H   0  0  0  0  0  0  0  0  0  0  0  0
    4.7637    2.4445   -1.0712 H   0  0  0  0  0  0  0  0  0  0  0  0
    3.0183    2.3507   -1.3725 H   0  0  0  0  0  0  0  0  0  0  0  0
    6.0295    0.6890    0.8042 N   0  0  0  0  0  0  0  0  0  0  0  0
    7.1902    0.6133    1.6604 C   0  0  0  0  0  0  0  0  0  0  0  0
    6.1553    0.4882   -0.1835 H   0  0  0  0  0  0  0  0  0  0  0  0
    7.6824    1.5963    1.6995 H   0  0  0  0  0  0  0  0  0  0  0  0
    6.8796    0.3185    2.6737 H   0  0  0  0  0  0  0  0  0  0  0  0
    7.8926   -0.1328    1.2605 H   0  0  0  0  0  0  0  0  0  0  0  0
  1  3  1  0  0  0  0
  1  7  1  0  0  0  0
  1  2  2  0  0  0  0
 29 30  1  0  0  0  0
 30 38  1  0  0  0  0
 30 31  2  0  0  0  0
  8  9  1  0  0  0  0
  9 17  1  0  0  0  0
  9 10  2  0  0  0  0
 18 19  1  0  0  0  0
 19 28  1  0  0  0  0
 19 20  2  0  0  0  0
 29 32  1  0  0  0  0
  8 11  1  0  0  0  0
 38 39  1  0  0  0  0
 18 21  1  0  0  0  0
 21 22  1  0  0  0  0
 28 29  1  0  0  0  0
  7  8  1  0  0  0  0
 17 18  1  0  0  0  0
  3  4  1  0  0  0  0
  3  5  1  0  0  0  0
  3  6  1  0  0  0  0
 32 35  1  0  0  0  0
 32 36  1  0  0  0  0
 32 37  1  0  0  0  0
 11 14  1  0  0  0  0
 11 15  1  0  0  0  0
 11 16  1  0  0  0  0
 39 41  1  0  0  0  0
 39 42  1  0  0  0  0
 39 43  1  0  0  0  0
 21 25  1  0  0  0  0
 21 26  1  0  0  0  0
 29 34  1  0  0  0  0
  8 13  1  0  0  0  0
 18 24  1  0  0  0  0
 38 40  1  0  0  0  0
  7 12  1  0  0  0  0
 28 33  1  0  0  0  0
 17 23  1  0  0  0  0
 22 27  1  0  0  0  0
M  END
$$$$

  -OEChem-05262214473D

 43 42  0     1  0  0  0  0  0999 V2000
   -2.8661   -4.7415    2.2943 C   0  0  0  0  0  0  0  0  0  0  0  0
   -2.0233   -5.5727    2.6109 O   0  0  0  0  0  0  0  0  0  0  0  0
   -4.3078   -5.0134    2.5698 C   0  0  0  0  0  0  0  0  0  0  0  0
   -4.8057   -5.5295    1.7332 H   0  0  0  0  0  0  0  0  0  0  0  0
   -4.4526   -5.6688    3.4436 H   0  0  0  0  0  0  0  0  0  0  0  0
   -4.9255   -4.1233    2.7700 H   0  0  0  0  0  0  0  0  0  0  0  0
   -2.6241   -3.5219    1.6838 N   0  0  0  0  0  0  0  0  0  0  0  0
   -1.3070   -3.0608    1.3315 C   0  0  2  0  0  0  0  0  0  0  0  0
   -1.3931   -1.5680    1.0422 C   0  0  0  0  0  0  0  0  0  0  0  0
   -2.4385   -1.0059    0.7226 O   0  0  0  0  0  0  0  0  0  0  0  0
   -0.7590   -3.8164    0.1309 C   0  0  0  0  0  0  0  0  0  0  0  0
   -3.4188   -2.9207    1.4735 H   0  0  0  0  0  0  0  0  0  0  0  0
   -0.6690   -3.2277    2.2062 H   0  0  0  0  0  0  0  0  0  0  0  0
   -1.3852   -3.6613   -0.7553 H   0  0  0  0  0  0  0  0  0  0  0  0
    0.2542   -3.4843   -0.1182 H   0  0  0  0  0  0  0  0  0  0  0  0
   -0.7257   -4.8930    0.3300 H   0  0  0  0  0  0  0  0  0  0  0  0
   -0.1563   -0.9420    1.1402 N   0  0  0  0  0  0  0  0  0  0  0  0
    0.0261    0.4671    0.9001 C   0  0  2  0  0  0  0  0  0  0  0  0
    1.2622    0.6636    0.0248 C   0  0  0  0  0  0  0  0  0  0  0  0
    1.1985    0.9286   -1.1740 O   0  0  0  0  0  0  0  0  0  0  0  0
    0.0657    1.2789    2.1972 C   0  0  0  0  0  0  0  0  0  0  0  0
   -1.5036    1.2592    3.1242 S   0  0  0  0  0  0  0  0  0  0  0  0
    0.6533   -1.4855    1.4300 H   0  0  0  0  0  0  0  0  0  0  0  0
   -0.8471    0.7819    0.3153 H   0  0  0  0  0  0  0  0  0  0  0  0
    0.8453    0.8982    2.8652 H   0  0  0  0  0  0  0  0  0  0  0  0
    0.3024    2.3251    1.9756 H   0  0  0  0  0  0  0  0  0  0  0  0
   -1.0767    2.0361    4.1279 H   0  0  0  0  0  0  0  0  0  0  0  0
    2.4414    0.4838    0.7337 N   0  0  0  0  0  0  0  0  0  0  0  0
    3.7442    0.6062    0.1226 C   0  0  2  0  0  0  0  0  0  0  0  0
    4.7871    0.1870    1.1503 C   0  0  0  0  0  0  0  0  0  0  0  0
    4.5796    0.2041    2.3618 O   0  0  0  0  0  0  0  0  0  0  0  0
    3.9975    2.0256   -0.3609 C   0  0  0  0  0  0  0  0  0  0  0  0
    2.4016    0.2992    1.7317 H   0  0  0  0  0  0  0  0  0  0  0  0
    3.7635   -0.0900   -0.7230 H   0  0  0  0  0  0  0  0  0  0  0  0
    3.9819    2.7375    0.4724 H   0  0  0  0  0  0  0  0  0  0  0  0
    4.9738    2.1101   -0.8495 H   0  0  0  0  0  0  0  0  0  0  0  0
    3.2295    2.3361   -1.0776 H   0  0  0  0  0  0  0  0  0  0  0  0
    5.9910   -0.1673    0.5576 N   0  0  0  0  0  0  0  0  0  0  0  0
    7.1415   -0.5900    1.3215 C   0  0  0  0  0  0  0  0  0  0  0  0
    6.0675   -0.1703   -0.4553 H   0  0  0  0  0  0  0  0  0  0  0  0
    7.7779    0.2804    1.5389 H   0  0  0  0  0  0  0  0  0  0  0  0
    6.8075   -1.0448    2.2658 H   0  0  0  0  0  0  0  0  0  0  0  0
    7.7153   -1.3281    0.7419 H   0  0  0  0  0  0  0  0  0  0  0  0
  1  3  1  0  0  0  0
  1  7  1  0  0  0  0
  1  2  2  0  0  0  0
 29 30  1  0  0  0  0
 30 38  1  0  0  0  0
 30 31  2  0  0  0  0
  8  9  1  0  0  0  0
  9 17  1  0  0  0  0
  9 10  2  0  0  0  0
 18 19  1  0  0  0  0
 19 28  1  0  0  0  0
 19 20  2  0  0  0  0
 29 32  1  0  0  0  0
  8 11  1  0  0  0  0
 38 39  1  0  0  0  0
 18 21  1  0  0  0  0
 21 22  1  0  0  0  0
 28 29  1  0  0  0  0
  7  8  1  0  0  0  0
 17 18  1  0  0  0  0
  3  4  1  0  0  0  0
  3  5  1  0  0  0  0
  3  6  1  0  0  0  0
 32 35  1  0  0  0  0
 32 36  1  0  0  0  0
 32 37  1  0  0  0  0
 11 14  1  0  0  0  0
 11 15  1  0  0  0  0
 11 16  1  0  0  0  0
 39 41  1  0  0  0  0
 39 42  1  0  0  0  0
 39 43  1  0  0  0  0
 21 25  1  0  0  0  0
 21 26  1  0  0  0  0
 29 34  1  0  0  0  0
  8 13  1  0  0  0  0
 18 24  1  0  0  0  0
 38 40  1  0  0  0  0
  7 12  1  0  0  0  0
 28 33  1  0  0  0  0
 17 23  1  0  0  0  0
 22 27  1  0  0  0  0
M  END
$$$$

  -OEChem-05262214473D

 43 42  0     1  0  0  0  0  0999 V2000
   -2.8661   -4.7415    2.2943 C   0  0  0  0  0  0  0  0  0  0  0  0
   -2.0233   -5.5727    2.6109 O   0  0  0  0  0  0  0  0  0  0  0  0
   -4.3078   -5.0134    2.5698 C   0  0  0  0  0  0  0  0  0  0  0  0
   -4.8057   -5.5295    1.7332 H   0  0  0  0  0  0  0  0  0  0  0  0
   -4.4526   -5.6688    3.4436 H   0  0  0  0  0  0  0  0  0  0  0  0
   -4.9255   -4.1233    2.7700 H   0  0  0  0  0  0  0  0  0  0  0  0
   -2.6241   -3.5219    1.6838 N   0  0  0  0  0  0  0  0  0  0  0  0
   -1.3070   -3.0608    1.3315 C   0  0  2  0  0  0  0  0  0  0  0  0
   -1.3931   -1.5680    1.0422 C   0  0  0  0  0  0  0  0  0  0  0  0
   -2.4385   -1.0059    0.7226 O   0  0  0  0  0  0  0  0  0  0  0  0
   -0.7590   -3.8164    0.1309 C   0  0  0  0  0  0  0  0  0  0  0  0
   -3.4188   -2.9207    1.4735 H   0  0  0  0  0  0  0  0  0  0  0  0
   -0.6690   -3.2277    2.2062 H   0  0  0  0  0  0  0  0  0  0  0  0
   -1.3852   -3.6613   -0.7553 H   0  0  0  0  0  0  0  0  0  0  0  0
    0.2542   -3.4843   -0.1182 H   0  0  0  0  0  0  0  0  0  0  0  0
   -0.7257   -4.8930    0.3300 H   0  0  0  0  0  0  0  0  0  0  0  0
   -0.1563   -0.9420    1.1402 N   0  0  0  0  0  0  0  0  0  0  0  0
    0.0261    0.4671    0.9001 C   0  0  2  0  0  0  0  0  0  0  0  0
    1.2622    0.6636    0.0248 C   0  0  0  0  0  0  0  0  0  0  0  0
    1.2185    1.1831   -1.0886 O   0  0  0  0  0  0  0  0  0  0  0  0
    0.0657    1.2789    2.1972 C   0  0  0  0  0  0  0  0  0  0  0  0
   -1.5036    1.2592    3.1242 S   0  0  0  0  0  0  0  0  0  0  0  0
    0.6533   -1.4855    1.4300 H   0  0  0  0  0  0  0  0  0  0  0  0
   -0.8471    0.7819    0.3153 H   0  0  0  0  0  0  0  0  0  0  0  0
    0.8453    0.8982    2.8652 H   0  0  0  0  0  0  0  0  0  0  0  0
    0.3024    2.3251    1.9756 H   0  0  0  0  0  0  0  0  0  0  0  0
   -1.0767    2.0361    4.1279 H   0  0  0  0  0  0  0  0  0  0  0  0
    2.4127    0.1688    0.6224 N   0  0  0  0  0  0  0  0  0  0  0  0
    3.7080    0.2280   -0.0134 C   0  0  2  0  0  0  0  0  0  0  0  0
    4.6929   -0.5460    0.8528 C   0  0  0  0  0  0  0  0  0  0  0  0
    4.5117   -0.7562    2.0504 O   0  0  0  0  0  0  0  0  0  0  0  0
    4.1655    1.6657   -0.2045 C   0  0  0  0  0  0  0  0  0  0  0  0
    2.3627   -0.2154    1.5613 H   0  0  0  0  0  0  0  0  0  0  0  0
    3.6066   -0.2684   -0.9847 H   0  0  0  0  0  0  0  0  0  0  0  0
    4.2727    2.1793    0.7578 H   0  0  0  0  0  0  0  0  0  0  0  0
    5.1346    1.7096   -0.7124 H   0  0  0  0  0  0  0  0  0  0  0  0
    3.4411    2.2289   -0.8029 H   0  0  0  0  0  0  0  0  0  0  0  0
    5.8185   -0.9371    0.1412 N   0  0  0  0  0  0  0  0  0  0  0  0
    6.9046   -1.6742    0.7438 C   0  0  0  0  0  0  0  0  0  0  0  0
    5.8759   -0.7363   -0.8528 H   0  0  0  0  0  0  0  0  0  0  0  0
    7.6696   -0.9711    1.1050 H   0  0  0  0  0  0  0  0  0  0  0  0
    6.5220   -2.2655    1.5887 H   0  0  0  0  0  0  0  0  0  0  0  0
    7.3495   -2.3477   -0.0035 H   0  0  0  0  0  0  0  0  0  0  0  0
  1  3  1  0  0  0  0
  1  7  1  0  0  0  0
  1  2  2  0  0  0  0
 29 30  1  0  0  0  0
 30 38  1  0  0  0  0
 30 31  2  0  0  0  0
  8  9  1  0  0  0  0
  9 17  1  0  0  0  0
  9 10  2  0  0  0  0
 18 19  1  0  0  0  0
 19 28  1  0  0  0  0
 19 20  2  0  0  0  0
 29 32  1  0  0  0  0
  8 11  1  0  0  0  0
 38 39  1  0  0  0  0
 18 21  1  0  0  0  0
 21 22  1  0  0  0  0
 28 29  1  0  0  0  0
  7  8  1  0  0  0  0
 17 18  1  0  0  0  0
  3  4  1  0  0  0  0
  3  5  1  0  0  0  0
  3  6  1  0  0  0  0
 32 35  1  0  0  0  0
 32 36  1  0  0  0  0
 32 37  1  0  0  0  0
 11 14  1  0  0  0  0
 11 15  1  0  0  0  0
 11 16  1  0  0  0  0
 39 41  1  0  0  0  0
 39 42  1  0  0  0  0
 39 43  1  0  0  0  0
 21 25  1  0  0  0  0
 21 26  1  0  0  0  0
 29 34  1  0  0  0  0
  8 13  1  0  0  0  0
 18 24  1  0  0  0  0
 38 40  1  0  0  0  0
  7 12  1  0  0  0  0
 28 33  1  0  0  0  0
 17 23  1  0  0  0  0
 22 27  1  0  0  0  0
M  END
$$$$

  -OEChem-05262214473D

 43 42  0     1  0  0  0  0  0999 V2000
   -2.8661   -4.7415    2.2943 C   0  0  0  0  0  0  0  0  0  0  0  0
   -2.0233   -5.5727    2.6109 O   0  0  0  0  0  0  0  0  0  0  0  0
   -4.3078   -5.0134    2.5698 C   0  0  0  0  0  0  0  0  0  0  0  0
   -4.8057   -5.5295    1.7332 H   0  0  0  0  0  0  0  0  0  0  0  0
   -4.4526   -5.6688    3.4436 H   0  0  0  0  0  0  0  0  0  0  0  0
   -4.9255   -4.1233    2.7700 H   0  0  0  0  0  0  0  0  0  0  0  0
   -2.6241   -3.5219    1.6838 N   0  0  0  0  0  0  0  0  0  0  0  0
   -1.3070   -3.0608    1.3315 C   0  0  2  0  0  0  0  0  0  0  0  0
   -1.3931   -1.5680    1.0422 C   0  0  0  0  0  0  0  0  0  0  0  0
   -2.4385   -1.0059    0.7226 O   0  0  0  0  0  0  0  0  0  0  0  0
   -0.7590   -3.8164    0.1309 C   0  0  0  0  0  0  0  0  0  0  0  0
   -3.4188   -2.9207    1.4735 H   0  0  0  0  0  0  0  0  0  0  0  0
   -0.6690   -3.2277    2.2062 H   0  0  0  0  0  0  0  0  0  0  0  0
   -1.3852   -3.6613   -0.7553 H   0  0  0  0  0  0  0  0  0  0  0  0
    0.2542   -3.4843   -0.1182 H   0  0  0  0  0  0  0  0  0  0  0  0
   -0.7257   -4.8930    0.3300 H   0  0  0  0  0  0  0  0  0  0  0  0
   -0.1563   -0.9420    1.1402 N   0  0  0  0  0  0  0  0  0  0  0  0
    0.0261    0.4671    0.9001 C   0  0  2  0  0  0  0  0  0  0  0  0
    1.2622    0.6636    0.0248 C   0  0  0  0  0  0  0  0  0  0  0  0
    1.2785    1.4080   -0.9535 O   0  0  0  0  0  0  0  0  0  0  0  0
    0.0657    1.2789    2.1972 C   0  0  0  0  0  0  0  0  0  0  0  0
   -1.5036    1.2592    3.1242 S   0  0  0  0  0  0  0  0  0  0  0  0
    0.6533   -1.4855    1.4300 H   0  0  0  0  0  0  0  0  0  0  0  0
   -0.8471    0.7819    0.3153 H   0  0  0  0  0  0  0  0  0  0  0  0
    0.8453    0.8982    2.8652 H   0  0  0  0  0  0  0  0  0  0  0  0
    0.3024    2.3251    1.9756 H   0  0  0  0  0  0  0  0  0  0  0  0
   -1.0767    2.0361    4.1279 H   0  0  0  0  0  0  0  0  0  0  0  0
    2.3344   -0.1079    0.4498 N   0  0  0  0  0  0  0  0  0  0  0  0
    3.6125   -0.1034   -0.2228 C   0  0  2  0  0  0  0  0  0  0  0  0
    4.4834   -1.1777    0.4151 C   0  0  0  0  0  0  0  0  0  0  0  0
    4.2933   -1.6085    1.5506 O   0  0  0  0  0  0  0  0  0  0  0  0
    4.2795    1.2604   -0.1345 C   0  0  0  0  0  0  0  0  0  0  0  0
    2.2431   -0.6710    1.2902 H   0  0  0  0  0  0  0  0  0  0  0  0
    3.4198   -0.3626   -1.2696 H   0  0  0  0  0  0  0  0  0  0  0  0
    4.4804    1.5372    0.9069 H   0  0  0  0  0  0  0  0  0  0  0  0
    5.2350    1.2701   -0.6692 H   0  0  0  0  0  0  0  0  0  0  0  0
    3.6388    2.0364   -0.5670 H   0  0  0  0  0  0  0  0  0  0  0  0
    5.5238   -1.5679   -0.4164 N   0  0  0  0  0  0  0  0  0  0  0  0
    6.4958   -2.5652   -0.0336 C   0  0  0  0  0  0  0  0  0  0  0  0
    5.5937   -1.1714   -1.3490 H   0  0  0  0  0  0  0  0  0  0  0  0
    7.3648   -2.0731    0.4274 H   0  0  0  0  0  0  0  0  0  0  0  0
    6.0426   -3.2605    0.6884 H   0  0  0  0  0  0  0  0  0  0  0  0
    6.8201   -3.1222   -0.9250 H   0  0  0  0  0  0  0  0  0  0  0  0
  1  3  1  0  0  0  0
  1  7  1  0  0  0  0
  1  2  2  0  0  0  0
 29 30  1  0  0  0  0
 30 38  1  0  0  0  0
 30 31  2  0  0  0  0
  8  9  1  0  0  0  0
  9 17  1  0  0  0  0
  9 10  2  0  0  0  0
 18 19  1  0  0  0  0
 19 28  1  0  0  0  0
 19 20  2  0  0  0  0
 29 32  1  0  0  0  0
  8 11  1  0  0  0  0
 38 39  1  0  0  0  0
 18 21  1  0  0  0  0
 21 22  1  0  0  0  0
 28 29  1  0  0  0  0
  7  8  1  0  0  0  0
 17 18  1  0  0  0  0
  3  4  1  0  0  0  0
  3  5  1  0  0  0  0
  3  6  1  0  0  0  0
 32 35  1  0  0  0  0
 32 36  1  0  0  0  0
 32 37  1  0  0  0  0
 11 14  1  0  0  0  0
 11 15  1  0  0  0  0
 11 16  1  0  0  0  0
 39 41  1  0  0  0  0
 39 42  1  0  0  0  0
 39 43  1  0  0  0  0
 21 25  1  0  0  0  0
 21 26  1  0  0  0  0
 29 34  1  0  0  0  0
  8 13  1  0  0  0  0
 18 24  1  0  0  0  0
 38 40  1  0  0  0  0
  7 12  1  0  0  0  0
 28 33  1  0  0  0  0
 17 23  1  0  0  0  0
 22 27  1  0  0  0  0
M  END
$$$$

  -OEChem-05262214473D

 43 42  0     1  0  0  0  0  0999 V2000
   -2.8661   -4.7415    2.2943 C   0  0  0  0  0  0  0  0  0  0  0  0
   -2.0233   -5.5727    2.6109 O   0  0  0  0  0  0  0  0  0  0  0  0
   -4.3078   -5.0134    2.5698 C   0  0  0  0  0  0  0  0  0  0  0  0
   -4.8057   -5.5295    1.7332 H   0  0  0  0  0  0  0  0  0  0  0  0
   -4.4526   -5.6688    3.4436 H   0  0  0  0  0  0  0  0  0  0  0  0
   -4.9255   -4.1233    2.7700 H   0  0  0  0  0  0  0  0  0  0  0  0
   -2.6241   -3.5219    1.6838 N   0  0  0  0  0  0  0  0  0  0  0  0
   -1.3070   -3.0608    1.3315 C   0  0  2  0  0  0  0  0  0  0  0  0
   -1.3931   -1.5680    1.0422 C   0  0  0  0  0  0  0  0  0  0  0  0
   -2.4385   -1.0059    0.7226 O   0  0  0  0  0  0  0  0  0  0  0  0
   -0.7590   -3.8164    0.1309 C   0  0  0  0  0  0  0  0  0  0  0  0
   -3.4188   -2.9207    1.4735 H   0  0  0  0  0  0  0  0  0  0  0  0
   -0.6690   -3.2277    2.2062 H   0  0  0  0  0  0  0  0  0  0  0  0
   -1.3852   -3.6613   -0.7553 H   0  0  0  0  0  0  0  0  0  0  0  0
    0.2542   -3.4843   -0.1182 H   0  0  0  0  0  0  0  0  0  0  0  0
   -0.7257   -4.8930    0.3300 H   0  0  0  0  0  0  0  0  0  0  0  0
   -0.1563   -0.9420    1.1402 N   0  0  0  0  0  0  0  0  0  0  0  0
    0.0261    0.4671    0.9001 C   0  0  2  0  0  0  0  0  0  0  0  0
    1.2622    0.6636    0.0248 C   0  0  0  0  0  0  0  0  0  0  0  0
    1.3742    1.5881   -0.7779 O   0  0  0  0  0  0  0  0  0  0  0  0
    0.0657    1.2789    2.1972 C   0  0  0  0  0  0  0  0  0  0  0  0
   -1.5036    1.2592    3.1242 S   0  0  0  0  0  0  0  0  0  0  0  0
    0.6533   -1.4855    1.4300 H   0  0  0  0  0  0  0  0  0  0  0  0
   -0.8471    0.7819    0.3153 H   0  0  0  0  0  0  0  0  0  0  0  0
    0.8453    0.8982    2.8652 H   0  0  0  0  0  0  0  0  0  0  0  0
    0.3024    2.3251    1.9756 H   0  0  0  0  0  0  0  0  0  0  0  0
   -1.0767    2.0361    4.1279 H   0  0  0  0  0  0  0  0  0  0  0  0
    2.2121   -0.3274    0.2278 N   0  0  0  0  0  0  0  0  0  0  0  0
    3.4640   -0.3656   -0.4913 C   0  0  2  0  0  0  0  0  0  0  0  0
    4.1727   -1.6652   -0.1330 C   0  0  0  0  0  0  0  0  0  0  0  0
    3.9392   -2.2947    0.8967 O   0  0  0  0  0  0  0  0  0  0  0  0
    4.3319    0.8372   -0.1555 C   0  0  0  0  0  0  0  0  0  0  0  0
    2.0510   -1.0365    0.9369 H   0  0  0  0  0  0  0  0  0  0  0  0
    3.2159   -0.3663   -1.5583 H   0  0  0  0  0  0  0  0  0  0  0  0
    4.5907    0.8550    0.9095 H   0  0  0  0  0  0  0  0  0  0  0  0
    5.2683    0.8216   -0.7229 H   0  0  0  0  0  0  0  0  0  0  0  0
    3.8090    1.7717   -0.3860 H   0  0  0  0  0  0  0  0  0  0  0  0
    5.1271   -2.0166   -1.0774 N   0  0  0  0  0  0  0  0  0  0  0  0
    5.9428   -3.2024   -0.9574 C   0  0  0  0  0  0  0  0  0  0  0  0
    5.2400   -1.4459   -1.9100 H   0  0  0  0  0  0  0  0  0  0  0  0
    6.8845   -2.9503   -0.4478 H   0  0  0  0  0  0  0  0  0  0  0  0
    5.4020   -3.9618   -0.3736 H   0  0  0  0  0  0  0  0  0  0  0  0
    6.1631   -3.5987   -1.9596 H   0  0  0  0  0  0  0  0  0  0  0  0
  1  3  1  0  0  0  0
  1  7  1  0  0  0  0
  1  2  2  0  0  0  0
 29 30  1  0  0  0  0
 30 38  1  0  0  0  0
 30 31  2  0  0  0  0
  8  9  1  0  0  0  0
  9 17  1  0  0  0  0
  9 10  2  0  0  0  0
 18 19  1  0  0  0  0
 19 28  1  0  0  0  0
 19 20  2  0  0  0  0
 29 32  1  0  0  0  0
  8 11  1  0  0  0  0
 38 39  1  0  0  0  0
 18 21  1  0  0  0  0
 21 22  1  0  0  0  0
 28 29  1  0  0  0  0
  7  8  1  0  0  0  0
 17 18  1  0  0  0  0
  3  4  1  0  0  0  0
  3  5  1  0  0  0  0
  3  6  1  0  0  0  0
 32 35  1  0  0  0  0
 32 36  1  0  0  0  0
 32 37  1  0  0  0  0
 11 14  1  0  0  0  0
 11 15  1  0  0  0  0
 11 16  1  0  0  0  0
 39 41  1  0  0  0  0
 39 42  1  0  0  0  0
 39 43  1  0  0  0  0
 21 25  1  0  0  0  0
 21 26  1  0  0  0  0
 29 34  1  0  0  0  0
  8 13  1  0  0  0  0
 18 24  1  0  0  0  0
 38 40  1  0  0  0  0
  7 12  1  0  0  0  0
 28 33  1  0  0  0  0
 17 23  1  0  0  0  0
 22 27  1  0  0  0  0
M  END
$$$$

  -OEChem-05262214473D

 43 42  0     1  0  0  0  0  0999 V2000
   -2.8661   -4.7415    2.2943 C   0  0  0  0  0  0  0  0  0  0  0  0
   -2.0233   -5.5727    2.6109 O   0  0  0  0  0  0  0  0  0  0  0  0
   -4.3078   -5.0134    2.5698 C   0  0  0  0  0  0  0  0  0  0  0  0
   -4.8057   -5.5295    1.7332 H   0  0  0  0  0  0  0  0  0  0  0  0
   -4.4526   -5.6688    3.4436 H   0  0  0  0  0  0  0  0  0  0  0  0
   -4.9255   -4.1233    2.7700 H   0  0  0  0  0  0  0  0  0  0  0  0
   -2.6241   -3.5219    1.6838 N   0  0  0  0  0  0  0  0  0  0  0  0
   -1.3070   -3.0608    1.3315 C   0  0  2  0  0  0  0  0  0  0  0  0
   -1.3931   -1.5680    1.0422 C   0  0  0  0  0  0  0  0  0  0  0  0
   -2.4385   -1.0059    0.7226 O   0  0  0  0  0  0  0  0  0  0  0  0
   -0.7590   -3.8164    0.1309 C   0  0  0  0  0  0  0  0  0  0  0  0
   -3.4188   -2.9207    1.4735 H   0  0  0  0  0  0  0  0  0  0  0  0
   -0.6690   -3.2277    2.2062 H   0  0  0  0  0  0  0  0  0  0  0  0
   -1.3852   -3.6613   -0.7553 H   0  0  0  0  0  0  0  0  0  0  0  0
    0.2542   -3.4843   -0.1182 H   0  0  0  0  0  0  0  0  0  0  0  0
   -0.7257   -4.8930    0.3300 H   0  0  0  0  0  0  0  0  0  0  0  0
   -0.1563   -0.9420    1.1402 N   0  0  0  0  0  0  0  0  0  0  0  0
    0.0261    0.4671    0.9001 C   0  0  2  0  0  0  0  0  0  0  0  0
    1.2622    0.6636    0.0248 C   0  0  0  0  0  0  0  0  0  0  0  0
    1.4993    1.7110   -0.5737 O   0  0  0  0  0  0  0  0  0  0  0  0
    0.0657    1.2789    2.1972 C   0  0  0  0  0  0  0  0  0  0  0  0
   -1.5036    1.2592    3.1242 S   0  0  0  0  0  0  0  0  0  0  0  0
    0.6533   -1.4855    1.4300 H   0  0  0  0  0  0  0  0  0  0  0  0
   -0.8471    0.7819    0.3153 H   0  0  0  0  0  0  0  0  0  0  0  0
    0.8453    0.8982    2.8652 H   0  0  0  0  0  0  0  0  0  0  0  0
    0.3024    2.3251    1.9756 H   0  0  0  0  0  0  0  0  0  0  0  0
   -1.0767    2.0361    4.1279 H   0  0  0  0  0  0  0  0  0  0  0  0
    2.0540   -0.4747   -0.0286 N   0  0  0  0  0  0  0  0  0  0  0  0
    3.2728   -0.5405   -0.8006 C   0  0  2  0  0  0  0  0  0  0  0  0
    3.7820   -1.9751   -0.7543 C   0  0  0  0  0  0  0  0  0  0  0  0
    3.4737   -2.7680    0.1330 O   0  0  0  0  0  0  0  0  0  0  0  0
    4.3190    0.4251   -0.2662 C   0  0  0  0  0  0  0  0  0  0  0  0
    1.7995   -1.2871    0.5255 H   0  0  0  0  0  0  0  0  0  0  0  0
    3.0089   -0.2791   -1.8311 H   0  0  0  0  0  0  0  0  0  0  0  0
    4.5961    0.1791    0.7654 H   0  0  0  0  0  0  0  0  0  0  0  0
    5.2321    0.3948   -0.8698 H   0  0  0  0  0  0  0  0  0  0  0  0
    3.9402    1.4529   -0.2724 H   0  0  0  0  0  0  0  0  0  0  0  0
    4.6553   -2.2528   -1.7966 N   0  0  0  0  0  0  0  0  0  0  0  0
    5.2834   -3.5424   -1.9648 C   0  0  0  0  0  0  0  0  0  0  0  0
    4.8390   -1.5410   -2.4976 H   0  0  0  0  0  0  0  0  0  0  0  0
    6.2612   -3.5431   -1.4610 H   0  0  0  0  0  0  0  0  0  0  0  0
    4.6438   -4.3218   -1.5249 H   0  0  0  0  0  0  0  0  0  0  0  0
    5.4234   -3.7449   -3.0369 H   0  0  0  0  0  0  0  0  0  0  0  0
  1  3  1  0  0  0  0
  1  7  1  0  0  0  0
  1  2  2  0  0  0  0
 29 30  1  0  0  0  0
 30 38  1  0  0  0  0
 30 31  2  0  0  0  0
  8  9  1  0  0  0  0
  9 17  1  0  0  0  0
  9 10  2  0  0  0  0
 18 19  1  0  0  0  0
 19 28  1  0  0  0  0
 19 20  2  0  0  0  0
 29 32  1  0  0  0  0
  8 11  1  0  0  0  0
 38 39  1  0  0  0  0
 18 21  1  0  0  0  0
 21 22  1  0  0  0  0
 28 29  1  0  0  0  0
  7  8  1  0  0  0  0
 17 18  1  0  0  0  0
  3  4  1  0  0  0  0
  3  5  1  0  0  0  0
  3  6  1  0  0  0  0
 32 35  1  0  0  0  0
 32 36  1  0  0  0  0
 32 37  1  0  0  0  0
 11 14  1  0  0  0  0
 11 15  1  0  0  0  0
 11 16  1  0  0  0  0
 39 41  1  0  0  0  0
 39 42  1  0  0  0  0
 39 43  1  0  0  0  0
 21 25  1  0  0  0  0
 21 26  1  0  0  0  0
 29 34  1  0  0  0  0
  8 13  1  0  0  0  0
 18 24  1  0  0  0  0
 38 40  1  0  0  0  0
  7 12  1  0  0  0  0
 28 33  1  0  0  0  0
 17 23  1  0  0  0  0
 22 27  1  0  0  0  0
M  END
$$$$

  -OEChem-05262214473D

 43 42  0     1  0  0  0  0  0999 V2000
   -2.8661   -4.7415    2.2943 C   0  0  0  0  0  0  0  0  0  0  0  0
   -2.0233   -5.5727    2.6109 O   0  0  0  0  0  0  0  0  0  0  0  0
   -4.3078   -5.0134    2.5698 C   0  0  0  0  0  0  0  0  0  0  0  0
   -4.8057   -5.5295    1.7332 H   0  0  0  0  0  0  0  0  0  0  0  0
   -4.4526   -5.6688    3.4436 H   0  0  0  0  0  0  0  0  0  0  0  0
   -4.9255   -4.1233    2.7700 H   0  0  0  0  0  0  0  0  0  0  0  0
   -2.6241   -3.5219    1.6838 N   0  0  0  0  0  0  0  0  0  0  0  0
   -1.3070   -3.0608    1.3315 C   0  0  2  0  0  0  0  0  0  0  0  0
   -1.3931   -1.5680    1.0422 C   0  0  0  0  0  0  0  0  0  0  0  0
   -2.4385   -1.0059    0.7226 O   0  0  0  0  0  0  0  0  0  0  0  0
   -0.7590   -3.8164    0.1309 C   0  0  0  0  0  0  0  0  0  0  0  0
   -3.4188   -2.9207    1.4735 H   0  0  0  0  0  0  0  0  0  0  0  0
   -0.6690   -3.2277    2.2062 H   0  0  0  0  0  0  0  0  0  0  0  0
   -1.3852   -3.6613   -0.7553 H   0  0  0  0  0  0  0  0  0  0  0  0
    0.2542   -3.4843   -0.1182 H   0  0  0  0  0  0  0  0  0  0  0  0
   -0.7257   -4.8930    0.3300 H   0  0  0  0  0  0  0  0  0  0  0  0
   -0.1563   -0.9420    1.1402 N   0  0  0  0  0  0  0  0  0  0  0  0
    0.0261    0.4671    0.9001 C   0  0  2  0  0  0  0  0  0  0  0  0
    1.2622    0.6636    0.0248 C   0  0  0  0  0  0  0  0  0  0  0  0
    1.6451    1.7684   -0.3549 O   0  0  0  0  0  0  0  0  0  0  0  0
    0.0657    1.2789    2.1972 C   0  0  0  0  0  0  0  0  0  0  0  0
   -1.5036    1.2592    3.1242 S   0  0  0  0  0  0  0  0  0  0  0  0
    0.6533   -1.4855    1.4300 H   0  0  0  0  0  0  0  0  0  0  0  0
   -0.8471    0.7819    0.3153 H   0  0  0  0  0  0  0  0  0  0  0  0
    0.8453    0.8982    2.8652 H   0  0  0  0  0  0  0  0  0  0  0  0
    0.3024    2.3251    1.9756 H   0  0  0  0  0  0  0  0  0  0  0  0
   -1.0767    2.0361    4.1279 H   0  0  0  0  0  0  0  0  0  0  0  0
    1.8708   -0.5399   -0.3018 N   0  0  0  0  0  0  0  0  0  0  0  0
    3.0518   -0.6163   -1.1296 C   0  0  2  0  0  0  0  0  0  0  0  0
    3.3379   -2.0864   -1.4063 C   0  0  0  0  0  0  0  0  0  0  0  0
    2.9284   -2.9962   -0.6882 O   0  0  0  0  0  0  0  0  0  0  0  0
    4.2418    0.0522   -0.4589 C   0  0  0  0  0  0  0  0  0  0  0  0
    1.5056   -1.4057    0.0839 H   0  0  0  0  0  0  0  0  0  0  0  0
    2.8127   -0.1070   -2.0695 H   0  0  0  0  0  0  0  0  0  0  0  0
    4.4962   -0.4444    0.4845 H   0  0  0  0  0  0  0  0  0  0  0  0
    5.1290    0.0186   -1.0999 H   0  0  0  0  0  0  0  0  0  0  0  0
    4.0234    1.1017   -0.2337 H   0  0  0  0  0  0  0  0  0  0  0  0
    4.1405   -2.2603   -2.5251 N   0  0  0  0  0  0  0  0  0  0  0  0
    4.5625   -3.5620   -2.9872 C   0  0  0  0  0  0  0  0  0  0  0  0
    4.4180   -1.4504   -3.0718 H   0  0  0  0  0  0  0  0  0  0  0  0
    5.5375   -3.8110   -2.5430 H   0  0  0  0  0  0  0  0  0  0  0  0
    3.8197   -4.3159   -2.6873 H   0  0  0  0  0  0  0  0  0  0  0  0
    4.6513   -3.5506   -4.0835 H   0  0  0  0  0  0  0  0  0  0  0  0
  1  3  1  0  0  0  0
  1  7  1  0  0  0  0
  1  2  2  0  0  0  0
 29 30  1  0  0  0  0
 30 38  1  0  0  0  0
 30 31  2  0  0  0  0
  8  9  1  0  0  0  0
  9 17  1  0  0  0  0
  9 10  2  0  0  0  0
 18 19  1  0  0  0  0
 19 28  1  0  0  0  0
 19 20  2  0  0  0  0
 29 32  1  0  0  0  0
  8 11  1  0  0  0  0
 38 39  1  0  0  0  0
 18 21  1  0  0  0  0
 21 22  1  0  0  0  0
 28 29  1  0  0  0  0
  7  8  1  0  0  0  0
 17 18  1  0  0  0  0
  3  4  1  0  0  0  0
  3  5  1  0  0  0  0
  3  6  1  0  0  0  0
 32 35  1  0  0  0  0
 32 36  1  0  0  0  0
 32 37  1  0  0  0  0
 11 14  1  0  0  0  0
 11 15  1  0  0  0  0
 11 16  1  0  0  0  0
 39 41  1  0  0  0  0
 39 42  1  0  0  0  0
 39 43  1  0  0  0  0
 21 25  1  0  0  0  0
 21 26  1  0  0  0  0
 29 34  1  0  0  0  0
  8 13  1  0  0  0  0
 18 24  1  0  0  0  0
 38 40  1  0  0  0  0
  7 12  1  0  0  0  0
 28 33  1  0  0  0  0
 17 23  1  0  0  0  0
 22 27  1  0  0  0  0
M  END
$$$$

  -OEChem-05262214473D

 43 42  0     1  0  0  0  0  0999 V2000
   -2.8661   -4.7415    2.2943 C   0  0  0  0  0  0  0  0  0  0  0  0
   -2.0233   -5.5727    2.6109 O   0  0  0  0  0  0  0  0  0  0  0  0
   -4.3078   -5.0134    2.5698 C   0  0  0  0  0  0  0  0  0  0  0  0
   -4.8057   -5.5295    1.7332 H   0  0  0  0  0  0  0  0  0  0  0  0
   -4.4526   -5.6688    3.4436 H   0  0  0  0  0  0  0  0  0  0  0  0
   -4.9255   -4.1233    2.7700 H   0  0  0  0  0  0  0  0  0  0  0  0
   -2.6241   -3.5219    1.6838 N   0  0  0  0  0  0  0  0  0  0  0  0
   -1.3070   -3.0608    1.3315 C   0  0  2  0  0  0  0  0  0  0  0  0
   -1.3931   -1.5680    1.0422 C   0  0  0  0  0  0  0  0  0  0  0  0
   -2.4385   -1.0059    0.7226 O   0  0  0  0  0  0  0  0  0  0  0  0
   -0.7590   -3.8164    0.1309 C   0  0  0  0  0  0  0  0  0  0  0  0
   -3.4188   -2.9207    1.4735 H   0  0  0  0  0  0  0  0  0  0  0  0
   -0.6690   -3.2277    2.2062 H   0  0  0  0  0  0  0  0  0  0  0  0
   -1.3852   -3.6613   -0.7553 H   0  0  0  0  0  0  0  0  0  0  0  0
    0.2542   -3.4843   -0.1182 H   0  0  0  0  0  0  0  0  0  0  0  0
   -0.7257   -4.8930    0.3300 H   0  0  0  0  0  0  0  0  0  0  0  0
   -0.1563   -0.9420    1.1402 N   0  0  0  0  0  0  0  0  0  0  0  0
    0.0261    0.4671    0.9001 C   0  0  2  0  0  0  0  0  0  0  0  0
    1.2622    0.6636    0.0248 C   0  0  0  0  0  0  0  0  0  0  0  0
    1.8018    1.7564   -0.1364 O   0  0  0  0  0  0  0  0  0  0  0  0
    0.0657    1.2789    2.1972 C   0  0  0  0  0  0  0  0  0  0  0  0
   -1.5036    1.2592    3.1242 S   0  0  0  0  0  0  0  0  0  0  0  0
    0.6533   -1.4855    1.4300 H   0  0  0  0  0  0  0  0  0  0  0  0
   -0.8471    0.7819    0.3153 H   0  0  0  0  0  0  0  0  0  0  0  0
    0.8453    0.8982    2.8652 H   0  0  0  0  0  0  0  0  0  0  0  0
    0.3024    2.3251    1.9756 H   0  0  0  0  0  0  0  0  0  0  0  0
   -1.0767    2.0361    4.1279 H   0  0  0  0  0  0  0  0  0  0  0  0
    1.6751   -0.5185   -0.5733 N   0  0  0  0  0  0  0  0  0  0  0  0
    2.8162   -0.5878   -1.4559 C   0  0  2  0  0  0  0  0  0  0  0  0
    2.8708   -1.9914   -2.0445 C   0  0  0  0  0  0  0  0  0  0  0  0
    2.3404   -2.9636   -1.5111 O   0  0  0  0  0  0  0  0  0  0  0  0
    4.1054   -0.2562   -0.7207 C   0  0  0  0  0  0  0  0  0  0  0  0
    1.1895   -1.3841   -0.3576 H   0  0  0  0  0  0  0  0  0  0  0  0
    2.6408    0.1383   -2.2572 H   0  0  0  0  0  0  0  0  0  0  0  0
    4.2980   -0.9730    0.0859 H   0  0  0  0  0  0  0  0  0  0  0  0
    4.9659   -0.2813   -1.3975 H   0  0  0  0  0  0  0  0  0  0  0  0
    4.0529    0.7420   -0.2727 H   0  0  0  0  0  0  0  0  0  0  0  0
    3.6180   -2.0385   -3.2131 N   0  0  0  0  0  0  0  0  0  0  0  0
    3.8292   -3.2598   -3.9548 C   0  0  0  0  0  0  0  0  0  0  0  0
    4.0056   -1.1801   -3.5933 H   0  0  0  0  0  0  0  0  0  0  0  0
    4.7627   -3.7358   -3.6202 H   0  0  0  0  0  0  0  0  0  0  0  0
    2.9859   -3.9444   -3.7813 H   0  0  0  0  0  0  0  0  0  0  0  0
    3.8995   -3.0293   -5.0281 H   0  0  0  0  0  0  0  0  0  0  0  0
  1  3  1  0  0  0  0
  1  7  1  0  0  0  0
  1  2  2  0  0  0  0
 29 30  1  0  0  0  0
 30 38  1  0  0  0  0
 30 31  2  0  0  0  0
  8  9  1  0  0  0  0
  9 17  1  0  0  0  0
  9 10  2  0  0  0  0
 18 19  1  0  0  0  0
 19 28  1  0  0  0  0
 19 20  2  0  0  0  0
 29 32  1  0  0  0  0
  8 11  1  0  0  0  0
 38 39  1  0  0  0  0
 18 21  1  0  0  0  0
 21 22  1  0  0  0  0
 28 29  1  0  0  0  0
  7  8  1  0  0  0  0
 17 18  1  0  0  0  0
  3  4  1  0  0  0  0
  3  5  1  0  0  0  0
  3  6  1  0  0  0  0
 32 35  1  0  0  0  0
 32 36  1  0  0  0  0
 32 37  1  0  0  0  0
 11 14  1  0  0  0  0
 11 15  1  0  0  0  0
 11 16  1  0  0  0  0
 39 41  1  0  0  0  0
 39 42  1  0  0  0  0
 39 43  1  0  0  0  0
 21 25  1  0  0  0  0
 21 26  1  0  0  0  0
 29 34  1  0  0  0  0
  8 13  1  0  0  0  0
 18 24  1  0  0  0  0
 38 40  1  0  0  0  0
  7 12  1  0  0  0  0
 28 33  1  0  0  0  0
 17 23  1  0  0  0  0
 22 27  1  0  0  0  0
M  END
$$$$

  -OEChem-05262214473D

 43 42  0     1  0  0  0  0  0999 V2000
   -2.8661   -4.7415    2.2943 C   0  0  0  0  0  0  0  0  0  0  0  0
   -2.0233   -5.5727    2.6109 O   0  0  0  0  0  0  0  0  0  0  0  0
   -4.3078   -5.0134    2.5698 C   0  0  0  0  0  0  0  0  0  0  0  0
   -4.8057   -5.5295    1.7332 H   0  0  0  0  0  0  0  0  0  0  0  0
   -4.4526   -5.6688    3.4436 H   0  0  0  0  0  0  0  0  0  0  0  0
   -4.9255   -4.1233    2.7700 H   0  0  0  0  0  0  0  0  0  0  0  0
   -2.6241   -3.5219    1.6838 N   0  0  0  0  0  0  0  0  0  0  0  0
   -1.3070   -3.0608    1.3315 C   0  0  2  0  0  0  0  0  0  0  0  0
   -1.3931   -1.5680    1.0422 C   0  0  0  0  0  0  0  0  0  0  0  0
   -2.4385   -1.0059    0.7226 O   0  0  0  0  0  0  0  0  0  0  0  0
   -0.7590   -3.8164    0.1309 C   0  0  0  0  0  0  0  0  0  0  0  0
   -3.4188   -2.9207    1.4735 H   0  0  0  0  0  0  0  0  0  0  0  0
   -0.6690   -3.2277    2.2062 H   0  0  0  0  0  0  0  0  0  0  0  0
   -1.3852   -3.6613   -0.7553 H   0  0  0  0  0  0  0  0  0  0  0  0
    0.2542   -3.4843   -0.1182 H   0  0  0  0  0  0  0  0  0  0  0  0
   -0.7257   -4.8930    0.3300 H   0  0  0  0  0  0  0  0  0  0  0  0
   -0.1563   -0.9420    1.1402 N   0  0  0  0  0  0  0  0  0  0  0  0
    0.0261    0.4671    0.9001 C   0  0  2  0  0  0  0  0  0  0  0  0
    1.2622    0.6636    0.0248 C   0  0  0  0  0  0  0  0  0  0  0  0
    1.9586    1.6759    0.0670 O   0  0  0  0  0  0  0  0  0  0  0  0
    0.0657    1.2789    2.1972 C   0  0  0  0  0  0  0  0  0  0  0  0
   -1.5036    1.2592    3.1242 S   0  0  0  0  0  0  0  0  0  0  0  0
    0.6533   -1.4855    1.4300 H   0  0  0  0  0  0  0  0  0  0  0  0
   -0.8471    0.7819    0.3153 H   0  0  0  0  0  0  0  0  0  0  0  0
    0.8453    0.8982    2.8652 H   0  0  0  0  0  0  0  0  0  0  0  0
    0.3024    2.3251    1.9756 H   0  0  0  0  0  0  0  0  0  0  0  0
   -1.0767    2.0361    4.1279 H   0  0  0  0  0  0  0  0  0  0  0  0
    1.4803   -0.4119   -0.8245 N   0  0  0  0  0  0  0  0  0  0  0  0
    2.5819   -0.4570   -1.7573 C   0  0  2  0  0  0  0  0  0  0  0  0
    2.4124   -1.6967   -2.6256 C   0  0  0  0  0  0  0  0  0  0  0  0
    1.7500   -2.6727   -2.2795 O   0  0  0  0  0  0  0  0  0  0  0  0
    3.9192   -0.4790   -1.0336 C   0  0  0  0  0  0  0  0  0  0  0  0
    0.8726   -1.2239   -0.7691 H   0  0  0  0  0  0  0  0  0  0  0  0
    2.5049    0.4400   -2.3814 H   0  0  0  0  0  0  0  0  0  0  0  0
    4.0148   -1.3707   -0.4033 H   0  0  0  0  0  0  0  0  0  0  0  0
    4.7539   -0.4844   -1.7424 H   0  0  0  0  0  0  0  0  0  0  0  0
    4.0268    0.3984   -0.3867 H   0  0  0  0  0  0  0  0  0  0  0  0
    3.1233   -1.6027   -3.8139 N   0  0  0  0  0  0  0  0  0  0  0  0
    3.1335   -2.6564   -4.8017 C   0  0  0  0  0  0  0  0  0  0  0  0
    3.6301   -0.7486   -4.0268 H   0  0  0  0  0  0  0  0  0  0  0  0
    3.9896   -3.3226   -4.6191 H   0  0  0  0  0  0  0  0  0  0  0  0
    2.1992   -3.2328   -4.7325 H   0  0  0  0  0  0  0  0  0  0  0  0
    3.2192   -2.2163   -5.8062 H   0  0  0  0  0  0  0  0  0  0  0  0
  1  3  1  0  0  0  0
  1  7  1  0  0  0  0
  1  2  2  0  0  0  0
 29 30  1  0  0  0  0
 30 38  1  0  0  0  0
 30 31  2  0  0  0  0
  8  9  1  0  0  0  0
  9 17  1  0  0  0  0
  9 10  2  0  0  0  0
 18 19  1  0  0  0  0
 19 28  1  0  0  0  0
 19 20  2  0  0  0  0
 29 32  1  0  0  0  0
  8 11  1  0  0  0  0
 38 39  1  0  0  0  0
 18 21  1  0  0  0  0
 21 22  1  0  0  0  0
 28 29  1  0  0  0  0
  7  8  1  0  0  0  0
 17 18  1  0  0  0  0
  3  4  1  0  0  0  0
  3  5  1  0  0  0  0
  3  6  1  0  0  0  0
 32 35  1  0  0  0  0
 32 36  1  0  0  0  0
 32 37  1  0  0  0  0
 11 14  1  0  0  0  0
 11 15  1  0  0  0  0
 11 16  1  0  0  0  0
 39 41  1  0  0  0  0
 39 42  1  0  0  0  0
 39 43  1  0  0  0  0
 21 25  1  0  0  0  0
 21 26  1  0  0  0  0
 29 34  1  0  0  0  0
  8 13  1  0  0  0  0
 18 24  1  0  0  0  0
 38 40  1  0  0  0  0
  7 12  1  0  0  0  0
 28 33  1  0  0  0  0
 17 23  1  0  0  0  0
 22 27  1  0  0  0  0
M  END
$$$$

  -OEChem-05262214473D

 43 42  0     1  0  0  0  0  0999 V2000
   -2.8661   -4.7415    2.2943 C   0  0  0  0  0  0  0  0  0  0  0  0
   -2.0233   -5.5727    2.6109 O   0  0  0  0  0  0  0  0  0  0  0  0
   -4.3078   -5.0134    2.5698 C   0  0  0  0  0  0  0  0  0  0  0  0
   -4.8057   -5.5295    1.7332 H   0  0  0  0  0  0  0  0  0  0  0  0
   -4.4526   -5.6688    3.4436 H   0  0  0  0  0  0  0  0  0  0  0  0
   -4.9255   -4.1233    2.7700 H   0  0  0  0  0  0  0  0  0  0  0  0
   -2.6241   -3.5219    1.6838 N   0  0  0  0  0  0  0  0  0  0  0  0
   -1.3070   -3.0608    1.3315 C   0  0  2  0  0  0  0  0  0  0  0  0
   -1.3931   -1.5680    1.0422 C   0  0  0  0  0  0  0  0  0  0  0  0
   -2.4385   -1.0059    0.7226 O   0  0  0  0  0  0  0  0  0  0  0  0
   -0.7590   -3.8164    0.1309 C   0  0  0  0  0  0  0  0  0  0  0  0
   -3.4188   -2.9207    1.4735 H   0  0  0  0  0  0  0  0  0  0  0  0
   -0.6690   -3.2277    2.2062 H   0  0  0  0  0  0  0  0  0  0  0  0
   -1.3852   -3.6613   -0.7553 H   0  0  0  0  0  0  0  0  0  0  0  0
    0.2542   -3.4843   -0.1182 H   0  0  0  0  0  0  0  0  0  0  0  0
   -0.7257   -4.8930    0.3300 H   0  0  0  0  0  0  0  0  0  0  0  0
   -0.1563   -0.9420    1.1402 N   0  0  0  0  0  0  0  0  0  0  0  0
    0.0261    0.4671    0.9001 C   0  0  2  0  0  0  0  0  0  0  0  0
    1.2622    0.6636    0.0248 C   0  0  0  0  0  0  0  0  0  0  0  0
    2.1049    1.5322    0.2413 O   0  0  0  0  0  0  0  0  0  0  0  0
    0.0657    1.2789    2.1972 C   0  0  0  0  0  0  0  0  0  0  0  0
   -1.5036    1.2592    3.1242 S   0  0  0  0  0  0  0  0  0  0  0  0
    0.6533   -1.4855    1.4300 H   0  0  0  0  0  0  0  0  0  0  0  0
   -0.8471    0.7819    0.3153 H   0  0  0  0  0  0  0  0  0  0  0  0
    0.8453    0.8982    2.8652 H   0  0  0  0  0  0  0  0  0  0  0  0
    0.3024    2.3251    1.9756 H   0  0  0  0  0  0  0  0  0  0  0  0
   -1.0767    2.0361    4.1279 H   0  0  0  0  0  0  0  0  0  0  0  0
    1.2995   -0.2274   -1.0384 N   0  0  0  0  0  0  0  0  0  0  0  0
    2.3650   -0.2328   -2.0133 C   0  0  2  0  0  0  0  0  0  0  0  0
    1.9941   -1.2224   -3.1099 C   0  0  0  0  0  0  0  0  0  0  0  0
    1.1972   -2.1430   -2.9412 O   0  0  0  0  0  0  0  0  0  0  0  0
    3.6959   -0.6011   -1.3763 C   0  0  0  0  0  0  0  0  0  0  0  0
    0.5766   -0.9360   -1.1224 H   0  0  0  0  0  0  0  0  0  0  0  0
    2.4142    0.7776   -2.4336 H   0  0  0  0  0  0  0  0  0  0  0  0
    3.6659   -1.6103   -0.9496 H   0  0  0  0  0  0  0  0  0  0  0  0
    4.5076   -0.5769   -2.1110 H   0  0  0  0  0  0  0  0  0  0  0  0
    3.9468    0.0942   -0.5680 H   0  0  0  0  0  0  0  0  0  0  0  0
    2.6900   -0.9826   -4.2865 N   0  0  0  0  0  0  0  0  0  0  0  0
    2.5228   -1.7930   -5.4702 C   0  0  0  0  0  0  0  0  0  0  0  0
    3.3169   -0.1853   -4.3426 H   0  0  0  0  0  0  0  0  0  0  0  0
    3.2708   -2.5995   -5.4717 H   0  0  0  0  0  0  0  0  0  0  0  0
    1.5131   -2.2295   -5.4760 H   0  0  0  0  0  0  0  0  0  0  0  0
    2.6568   -1.1672   -6.3649 H   0  0  0  0  0  0  0  0  0  0  0  0
  1  3  1  0  0  0  0
  1  7  1  0  0  0  0
  1  2  2  0  0  0  0
 29 30  1  0  0  0  0
 30 38  1  0  0  0  0
 30 31  2  0  0  0  0
  8  9  1  0  0  0  0
  9 17  1  0  0  0  0
  9 10  2  0  0  0  0
 18 19  1  0  0  0  0
 19 28  1  0  0  0  0
 19 20  2  0  0  0  0
 29 32  1  0  0  0  0
  8 11  1  0  0  0  0
 38 39  1  0  0  0  0
 18 21  1  0  0  0  0
 21 22  1  0  0  0  0
 28 29  1  0  0  0  0
  7  8  1  0  0  0  0
 17 18  1  0  0  0  0
  3  4  1  0  0  0  0
  3  5  1  0  0  0  0
  3  6  1  0  0  0  0
 32 35  1  0  0  0  0
 32 36  1  0  0  0  0
 32 37  1  0  0  0  0
 11 14  1  0  0  0  0
 11 15  1  0  0  0  0
 11 16  1  0  0  0  0
 39 41  1  0  0  0  0
 39 42  1  0  0  0  0
 39 43  1  0  0  0  0
 21 25  1  0  0  0  0
 21 26  1  0  0  0  0
 29 34  1  0  0  0  0
  8 13  1  0  0  0  0
 18 24  1  0  0  0  0
 38 40  1  0  0  0  0
  7 12  1  0  0  0  0
 28 33  1  0  0  0  0
 17 23  1  0  0  0  0
 22 27  1  0  0  0  0
M  END
$$$$

  -OEChem-05262214473D

 43 42  0     1  0  0  0  0  0999 V2000
   -2.8661   -4.7415    2.2943 C   0  0  0  0  0  0  0  0  0  0  0  0
   -2.0233   -5.5727    2.6109 O   0  0  0  0  0  0  0  0  0  0  0  0
   -4.3078   -5.0134    2.5698 C   0  0  0  0  0  0  0  0  0  0  0  0
   -4.8057   -5.5295    1.7332 H   0  0  0  0  0  0  0  0  0  0  0  0
   -4.4526   -5.6688    3.4436 H   0  0  0  0  0  0  0  0  0  0  0  0
   -4.9255   -4.1233    2.7700 H   0  0  0  0  0  0  0  0  0  0  0  0
   -2.6241   -3.5219    1.6838 N   0  0  0  0  0  0  0  0  0  0  0  0
   -1.3070   -3.0608    1.3315 C   0  0  2  0  0  0  0  0  0  0  0  0
   -1.3931   -1.5680    1.0422 C   0  0  0  0  0  0  0  0  0  0  0  0
   -2.4385   -1.0059    0.7226 O   0  0  0  0  0  0  0  0  0  0  0  0
   -0.7590   -3.8164    0.1309 C   0  0  0  0  0  0  0  0  0  0  0  0
   -3.4188   -2.9207    1.4735 H   0  0  0  0  0  0  0  0  0  0  0  0
   -0.6690   -3.2277    2.2062 H   0  0  0  0  0  0  0  0  0  0  0  0
   -1.3852   -3.6613   -0.7553 H   0  0  0  0  0  0  0  0  0  0  0  0
    0.2542   -3.4843   -0.1182 H   0  0  0  0  0  0  0  0  0  0  0  0
   -0.7257   -4.8930    0.3300 H   0  0  0  0  0  0  0  0  0  0  0  0
   -0.1563   -0.9420    1.1402 N   0  0  0  0  0  0  0  0  0  0  0  0
    0.0261    0.4671    0.9001 C   0  0  2  0  0  0  0  0  0  0  0  0
    1.2622    0.6636    0.0248 C   0  0  0  0  0  0  0  0  0  0  0  0
    2.2307    1.3351    0.3747 O   0  0  0  0  0  0  0  0  0  0  0  0
    0.0657    1.2789    2.1972 C   0  0  0  0  0  0  0  0  0  0  0  0
   -1.5036    1.2592    3.1242 S   0  0  0  0  0  0  0  0  0  0  0  0
    0.6533   -1.4855    1.4300 H   0  0  0  0  0  0  0  0  0  0  0  0
   -0.8471    0.7819    0.3153 H   0  0  0  0  0  0  0  0  0  0  0  0
    0.8453    0.8982    2.8652 H   0  0  0  0  0  0  0  0  0  0  0  0
    0.3024    2.3251    1.9756 H   0  0  0  0  0  0  0  0  0  0  0  0
   -1.0767    2.0361    4.1279 H   0  0  0  0  0  0  0  0  0  0  0  0
    1.1451    0.0224   -1.2003 N   0  0  0  0  0  0  0  0  0  0  0  0
    2.1803    0.0695   -2.2063 C   0  0  2  0  0  0  0  0  0  0  0  0
    1.6442   -0.6007   -3.4645 C   0  0  0  0  0  0  0  0  0  0  0  0
    0.7198   -1.4109   -3.4510 O   0  0  0  0  0  0  0  0  0  0  0  0
    3.4507   -0.6141   -1.7255 C   0  0  0  0  0  0  0  0  0  0  0  0
    0.3217   -0.5400   -1.3936 H   0  0  0  0  0  0  0  0  0  0  0  0
    2.3750    1.1281   -2.4104 H   0  0  0  0  0  0  0  0  0  0  0  0
    3.2752   -1.6756   -1.5159 H   0  0  0  0  0  0  0  0  0  0  0  0
    4.2437   -0.5525   -2.4782 H   0  0  0  0  0  0  0  0  0  0  0  0
    3.8184   -0.1498   -0.8041 H   0  0  0  0  0  0  0  0  0  0  0  0
    2.3478   -0.2203   -4.5986 N   0  0  0  0  0  0  0  0  0  0  0  0
    2.0387   -0.7284   -5.9148 C   0  0  0  0  0  0  0  0  0  0  0  0
    3.0874    0.4714   -4.5193 H   0  0  0  0  0  0  0  0  0  0  0  0
    2.6554   -1.6159   -6.1199 H   0  0  0  0  0  0  0  0  0  0  0  0
    0.9745   -1.0029   -5.9612 H   0  0  0  0  0  0  0  0  0  0  0  0
    2.2506    0.0467   -6.6660 H   0  0  0  0  0  0  0  0  0  0  0  0
  1  3  1  0  0  0  0
  1  7  1  0  0  0  0
  1  2  2  0  0  0  0
 29 30  1  0  0  0  0
 30 38  1  0  0  0  0
 30 31  2  0  0  0  0
  8  9  1  0  0  0  0
  9 17  1  0  0  0  0
  9 10  2  0  0  0  0
 18 19  1  0  0  0  0
 19 28  1  0  0  0  0
 19 20  2  0  0  0  0
 29 32  1  0  0  0  0
  8 11  1  0  0  0  0
 38 39  1  0  0  0  0
 18 21  1  0  0  0  0
 21 22  1  0  0  0  0
 28 29  1  0  0  0  0
  7  8  1  0  0  0  0
 17 18  1  0  0  0  0
  3  4  1  0  0  0  0
  3  5  1  0  0  0  0
  3  6  1  0  0  0  0
 32 35  1  0  0  0  0
 32 36  1  0  0  0  0
 32 37  1  0  0  0  0
 11 14  1  0  0  0  0
 11 15  1  0  0  0  0
 11 16  1  0  0  0  0
 39 41  1  0  0  0  0
 39 42  1  0  0  0  0
 39 43  1  0  0  0  0
 21 25  1  0  0  0  0
 21 26  1  0  0  0  0
 29 34  1  0  0  0  0
  8 13  1  0  0  0  0
 18 24  1  0  0  0  0
 38 40  1  0  0  0  0
  7 12  1  0  0  0  0
 28 33  1  0  0  0  0
 17 23  1  0  0  0  0
 22 27  1  0  0  0  0
M  END
$$$$

  -OEChem-05262214473D

 43 42  0     1  0  0  0  0  0999 V2000
   -2.8661   -4.7415    2.2943 C   0  0  0  0  0  0  0  0  0  0  0  0
   -2.0233   -5.5727    2.6109 O   0  0  0  0  0  0  0  0  0  0  0  0
   -4.3078   -5.0134    2.5698 C   0  0  0  0  0  0  0  0  0  0  0  0
   -4.8057   -5.5295    1.7332 H   0  0  0  0  0  0  0  0  0  0  0  0
   -4.4526   -5.6688    3.4436 H   0  0  0  0  0  0  0  0  0  0  0  0
   -4.9255   -4.1233    2.7700 H   0  0  0  0  0  0  0  0  0  0  0  0
   -2.6241   -3.5219    1.6838 N   0  0  0  0  0  0  0  0  0  0  0  0
   -1.3070   -3.0608    1.3315 C   0  0  2  0  0  0  0  0  0  0  0  0
   -1.3931   -1.5680    1.0422 C   0  0  0  0  0  0  0  0  0  0  0  0
   -2.4385   -1.0059    0.7226 O   0  0  0  0  0  0  0  0  0  0  0  0
   -0.7590   -3.8164    0.1309 C   0  0  0  0  0  0  0  0  0  0  0  0
   -3.4188   -2.9207    1.4735 H   0  0  0  0  0  0  0  0  0  0  0  0
   -0.6690   -3.2277    2.2062 H   0  0  0  0  0  0  0  0  0  0  0  0
   -1.3852   -3.6613   -0.7553 H   0  0  0  0  0  0  0  0  0  0  0  0
    0.2542   -3.4843   -0.1182 H   0  0  0  0  0  0  0  0  0  0  0  0
   -0.7257   -4.8930    0.3300 H   0  0  0  0  0  0  0  0  0  0  0  0
   -0.1563   -0.9420    1.1402 N   0  0  0  0  0  0  0  0  0  0  0  0
    0.0261    0.4671    0.9001 C   0  0  2  0  0  0  0  0  0  0  0  0
    1.2622    0.6636    0.0248 C   0  0  0  0  0  0  0  0  0  0  0  0
    2.3274    1.0982    0.4581 O   0  0  0  0  0  0  0  0  0  0  0  0
    0.0657    1.2789    2.1972 C   0  0  0  0  0  0  0  0  0  0  0  0
   -1.5036    1.2592    3.1242 S   0  0  0  0  0  0  0  0  0  0  0  0
    0.6533   -1.4855    1.4300 H   0  0  0  0  0  0  0  0  0  0  0  0
   -0.8471    0.7819    0.3153 H   0  0  0  0  0  0  0  0  0  0  0  0
    0.8453    0.8982    2.8652 H   0  0  0  0  0  0  0  0  0  0  0  0
    0.3024    2.3251    1.9756 H   0  0  0  0  0  0  0  0  0  0  0  0
   -1.0767    2.0361    4.1279 H   0  0  0  0  0  0  0  0  0  0  0  0
    1.0277    0.3205   -1.2992 N   0  0  0  0  0  0  0  0  0  0  0  0
    2.0402    0.4295   -2.3233 C   0  0  2  0  0  0  0  0  0  0  0  0
    1.3866    0.1260   -3.6650 C   0  0  0  0  0  0  0  0  0  0  0  0
    0.3503   -0.5260   -3.7741 O   0  0  0  0  0  0  0  0  0  0  0  0
    3.2003   -0.5172   -2.0573 C   0  0  0  0  0  0  0  0  0  0  0  0
    0.1251   -0.0628   -1.5640 H   0  0  0  0  0  0  0  0  0  0  0  0
    2.3898    1.4676   -2.3132 H   0  0  0  0  0  0  0  0  0  0  0  0
    2.8693   -1.5621   -2.0636 H   0  0  0  0  0  0  0  0  0  0  0  0
    3.9801   -0.4129   -2.8190 H   0  0  0  0  0  0  0  0  0  0  0  0
    3.6503   -0.3170   -1.0790 H   0  0  0  0  0  0  0  0  0  0  0  0
    2.1199    0.6322   -4.7291 N   0  0  0  0  0  0  0  0  0  0  0  0
    1.7143    0.4648   -6.1051 C   0  0  0  0  0  0  0  0  0  0  0  0
    2.9572    1.1768   -4.5447 H   0  0  0  0  0  0  0  0  0  0  0  0
    2.1854   -0.4387   -6.5194 H   0  0  0  0  0  0  0  0  0  0  0  0
    0.6201    0.3635   -6.1550 H   0  0  0  0  0  0  0  0  0  0  0  0
    2.0282    1.3425   -6.6891 H   0  0  0  0  0  0  0  0  0  0  0  0
  1  3  1  0  0  0  0
  1  7  1  0  0  0  0
  1  2  2  0  0  0  0
 29 30  1  0  0  0  0
 30 38  1  0  0  0  0
 30 31  2  0  0  0  0
  8  9  1  0  0  0  0
  9 17  1  0  0  0  0
  9 10  2  0  0  0  0
 18 19  1  0  0  0  0
 19 28  1  0  0  0  0
 19 20  2  0  0  0  0
 29 32  1  0  0  0  0
  8 11  1  0  0  0  0
 38 39  1  0  0  0  0
 18 21  1  0  0  0  0
 21 22  1  0  0  0  0
 28 29  1  0  0  0  0
  7  8  1  0  0  0  0
 17 18  1  0  0  0  0
  3  4  1  0  0  0  0
  3  5  1  0  0  0  0
  3  6  1  0  0  0  0
 32 35  1  0  0  0  0
 32 36  1  0  0  0  0
 32 37  1  0  0  0  0
 11 14  1  0  0  0  0
 11 15  1  0  0  0  0
 11 16  1  0  0  0  0
 39 41  1  0  0  0  0
 39 42  1  0  0  0  0
 39 43  1  0  0  0  0
 21 25  1  0  0  0  0
 21 26  1  0  0  0  0
 29 34  1  0  0  0  0
  8 13  1  0  0  0  0
 18 24  1  0  0  0  0
 38 40  1  0  0  0  0
  7 12  1  0  0  0  0
 28 33  1  0  0  0  0
 17 23  1  0  0  0  0
 22 27  1  0  0  0  0
M  END
$$$$

  -OEChem-05262214473D

 43 42  0     1  0  0  0  0  0999 V2000
   -2.8661   -4.7415    2.2943 C   0  0  0  0  0  0  0  0  0  0  0  0
   -2.0233   -5.5727    2.6109 O   0  0  0  0  0  0  0  0  0  0  0  0
   -4.3078   -5.0134    2.5698 C   0  0  0  0  0  0  0  0  0  0  0  0
   -4.8057   -5.5295    1.7332 H   0  0  0  0  0  0  0  0  0  0  0  0
   -4.4526   -5.6688    3.4436 H   0  0  0  0  0  0  0  0  0  0  0  0
   -4.9255   -4.1233    2.7700 H   0  0  0  0  0  0  0  0  0  0  0  0
   -2.6241   -3.5219    1.6838 N   0  0  0  0  0  0  0  0  0  0  0  0
   -1.3070   -3.0608    1.3315 C   0  0  2  0  0  0  0  0  0  0  0  0
   -1.3931   -1.5680    1.0422 C   0  0  0  0  0  0  0  0  0  0  0  0
   -2.4385   -1.0059    0.7226 O   0  0  0  0  0  0  0  0  0  0  0  0
   -0.7590   -3.8164    0.1309 C   0  0  0  0  0  0  0  0  0  0  0  0
   -3.4188   -2.9207    1.4735 H   0  0  0  0  0  0  0  0  0  0  0  0
   -0.6690   -3.2277    2.2062 H   0  0  0  0  0  0  0  0  0  0  0  0
   -1.3852   -3.6613   -0.7553 H   0  0  0  0  0  0  0  0  0  0  0  0
    0.2542   -3.4843   -0.1182 H   0  0  0  0  0  0  0  0  0  0  0  0
   -0.7257   -4.8930    0.3300 H   0  0  0  0  0  0  0  0  0  0  0  0
   -0.1563   -0.9420    1.1402 N   0  0  0  0  0  0  0  0  0  0  0  0
    0.0261    0.4671    0.9001 C   0  0  2  0  0  0  0  0  0  0  0  0
    1.2622    0.6636    0.0248 C   0  0  0  0  0  0  0  0  0  0  0  0
    2.3885    0.8376    0.4858 O   0  0  0  0  0  0  0  0  0  0  0  0
    0.0657    1.2789    2.1972 C   0  0  0  0  0  0  0  0  0  0  0  0
   -1.5036    1.2592    3.1242 S   0  0  0  0  0  0  0  0  0  0  0  0
    0.6533   -1.4855    1.4300 H   0  0  0  0  0  0  0  0  0  0  0  0
   -0.8471    0.7819    0.3153 H   0  0  0  0  0  0  0  0  0  0  0  0
    0.8453    0.8982    2.8652 H   0  0  0  0  0  0  0  0  0  0  0  0
    0.3024    2.3251    1.9756 H   0  0  0  0  0  0  0  0  0  0  0  0
   -1.0767    2.0361    4.1279 H   0  0  0  0  0  0  0  0  0  0  0  0
    0.9552    0.6466   -1.3284 N   0  0  0  0  0  0  0  0  0  0  0  0
    1.9544    0.8224   -2.3562 C   0  0  2  0  0  0  0  0  0  0  0  0
    1.2390    0.9082   -3.6980 C   0  0  0  0  0  0  0  0  0  0  0  0
    0.1139    0.4511   -3.8886 O   0  0  0  0  0  0  0  0  0  0  0  0
    2.9618   -0.3169   -2.3492 C   0  0  0  0  0  0  0  0  0  0  0  0
    0.0004    0.4630   -1.6221 H   0  0  0  0  0  0  0  0  0  0  0  0
    2.4578    1.7729   -2.1487 H   0  0  0  0  0  0  0  0  0  0  0  0
    2.4758   -1.2775   -2.5554 H   0  0  0  0  0  0  0  0  0  0  0  0
    3.7349   -0.1676   -3.1101 H   0  0  0  0  0  0  0  0  0  0  0  0
    3.4540   -0.3959   -1.3739 H   0  0  0  0  0  0  0  0  0  0  0  0
    2.0219    1.5168   -4.6689 N   0  0  0  0  0  0  0  0  0  0  0  0
    1.5716    1.7054   -6.0282 C   0  0  0  0  0  0  0  0  0  0  0  0
    2.9353    1.8828   -4.4172 H   0  0  0  0  0  0  0  0  0  0  0  0
    1.8926    0.8517   -6.6432 H   0  0  0  0  0  0  0  0  0  0  0  0
    0.4740    1.7764   -6.0442 H   0  0  0  0  0  0  0  0  0  0  0  0
    2.0049    2.6320   -6.4326 H   0  0  0  0  0  0  0  0  0  0  0  0
  1  3  1  0  0  0  0
  1  7  1  0  0  0  0
  1  2  2  0  0  0  0
 29 30  1  0  0  0  0
 30 38  1  0  0  0  0
 30 31  2  0  0  0  0
  8  9  1  0  0  0  0
  9 17  1  0  0  0  0
  9 10  2  0  0  0  0
 18 19  1  0  0  0  0
 19 28  1  0  0  0  0
 19 20  2  0  0  0  0
 29 32  1  0  0  0  0
  8 11  1  0  0  0  0
 38 39  1  0  0  0  0
 18 21  1  0  0  0  0
 21 22  1  0  0  0  0
 28 29  1  0  0  0  0
  7  8  1  0  0  0  0
 17 18  1  0  0  0  0
  3  4  1  0  0  0  0
  3  5  1  0  0  0  0
  3  6  1  0  0  0  0
 32 35  1  0  0  0  0
 32 36  1  0  0  0  0
 32 37  1  0  0  0  0
 11 14  1  0  0  0  0
 11 15  1  0  0  0  0
 11 16  1  0  0  0  0
 39 41  1  0  0  0  0
 39 42  1  0  0  0  0
 39 43  1  0  0  0  0
 21 25  1  0  0  0  0
 21 26  1  0  0  0  0
 29 34  1  0  0  0  0
  8 13  1  0  0  0  0
 18 24  1  0  0  0  0
 38 40  1  0  0  0  0
  7 12  1  0  0  0  0
 28 33  1  0  0  0  0
 17 23  1  0  0  0  0
 22 27  1  0  0  0  0
M  END
$$$$

  -OEChem-05262214473D

 43 42  0     1  0  0  0  0  0999 V2000
   -2.8661   -4.7415    2.2943 C   0  0  0  0  0  0  0  0  0  0  0  0
   -2.0233   -5.5727    2.6109 O   0  0  0  0  0  0  0  0  0  0  0  0
   -4.3078   -5.0134    2.5698 C   0  0  0  0  0  0  0  0  0  0  0  0
   -4.8057   -5.5295    1.7332 H   0  0  0  0  0  0  0  0  0  0  0  0
   -4.4526   -5.6688    3.4436 H   0  0  0  0  0  0  0  0  0  0  0  0
   -4.9255   -4.1233    2.7700 H   0  0  0  0  0  0  0  0  0  0  0  0
   -2.6241   -3.5219    1.6838 N   0  0  0  0  0  0  0  0  0  0  0  0
   -1.3070   -3.0608    1.3315 C   0  0  2  0  0  0  0  0  0  0  0  0
   -1.3931   -1.5680    1.0422 C   0  0  0  0  0  0  0  0  0  0  0  0
   -2.4385   -1.0059    0.7226 O   0  0  0  0  0  0  0  0  0  0  0  0
   -0.7590   -3.8164    0.1309 C   0  0  0  0  0  0  0  0  0  0  0  0
   -3.4188   -2.9207    1.4735 H   0  0  0  0  0  0  0  0  0  0  0  0
   -0.6690   -3.2277    2.2062 H   0  0  0  0  0  0  0  0  0  0  0  0
   -1.3852   -3.6613   -0.7553 H   0  0  0  0  0  0  0  0  0  0  0  0
    0.2542   -3.4843   -0.1182 H   0  0  0  0  0  0  0  0  0  0  0  0
   -0.7257   -4.8930    0.3300 H   0  0  0  0  0  0  0  0  0  0  0  0
   -0.1563   -0.9420    1.1402 N   0  0  0  0  0  0  0  0  0  0  0  0
    0.0261    0.4671    0.9001 C   0  0  2  0  0  0  0  0  0  0  0  0
    1.2622    0.6636    0.0248 C   0  0  0  0  0  0  0  0  0  0  0  0
    2.4097    0.5709    0.4560 O   0  0  0  0  0  0  0  0  0  0  0  0
    0.0657    1.2789    2.1972 C   0  0  0  0  0  0  0  0  0  0  0  0
   -1.5036    1.2592    3.1242 S   0  0  0  0  0  0  0  0  0  0  0  0
    0.6533   -1.4855    1.4300 H   0  0  0  0  0  0  0  0  0  0  0  0
   -0.8471    0.7819    0.3153 H   0  0  0  0  0  0  0  0  0  0  0  0
    0.8453    0.8982    2.8652 H   0  0  0  0  0  0  0  0  0  0  0  0
    0.3024    2.3251    1.9756 H   0  0  0  0  0  0  0  0  0  0  0  0
   -1.0767    2.0361    4.1279 H   0  0  0  0  0  0  0  0  0  0  0  0
    0.9325    0.9784   -1.2859 N   0  0  0  0  0  0  0  0  0  0  0  0
    1.9288    1.2215   -2.3029 C   0  0  2  0  0  0  0  0  0  0  0  0
    1.2113    1.6924   -3.5610 C   0  0  0  0  0  0  0  0  0  0  0  0
    0.0266    1.4541   -3.7867 O   0  0  0  0  0  0  0  0  0  0  0  0
    2.7513   -0.0269   -2.5813 C   0  0  0  0  0  0  0  0  0  0  0  0
   -0.0441    1.0015   -1.5640 H   0  0  0  0  0  0  0  0  0  0  0  0
    2.5742    2.0234   -1.9281 H   0  0  0  0  0  0  0  0  0  0  0  0
    2.1216   -0.8413   -2.9576 H   0  0  0  0  0  0  0  0  0  0  0  0
    3.5248    0.1668   -3.3318 H   0  0  0  0  0  0  0  0  0  0  0  0
    3.2428   -0.3813   -1.6688 H   0  0  0  0  0  0  0  0  0  0  0  0
    2.0604    2.3731   -4.4223 N   0  0  0  0  0  0  0  0  0  0  0  0
    1.6203    2.9088   -5.6893 C   0  0  0  0  0  0  0  0  0  0  0  0
    3.0232    2.5413   -4.1454 H   0  0  0  0  0  0  0  0  0  0  0  0
    1.7971    2.1676   -6.4826 H   0  0  0  0  0  0  0  0  0  0  0  0
    0.5461    3.1397   -5.6363 H   0  0  0  0  0  0  0  0  0  0  0  0
    2.1822    3.8273   -5.9140 H   0  0  0  0  0  0  0  0  0  0  0  0
  1  3  1  0  0  0  0
  1  7  1  0  0  0  0
  1  2  2  0  0  0  0
 29 30  1  0  0  0  0
 30 38  1  0  0  0  0
 30 31  2  0  0  0  0
  8  9  1  0  0  0  0
  9 17  1  0  0  0  0
  9 10  2  0  0  0  0
 18 19  1  0  0  0  0
 19 28  1  0  0  0  0
 19 20  2  0  0  0  0
 29 32  1  0  0  0  0
  8 11  1  0  0  0  0
 38 39  1  0  0  0  0
 18 21  1  0  0  0  0
 21 22  1  0  0  0  0
 28 29  1  0  0  0  0
  7  8  1  0  0  0  0
 17 18  1  0  0  0  0
  3  4  1  0  0  0  0
  3  5  1  0  0  0  0
  3  6  1  0  0  0  0
 32 35  1  0  0  0  0
 32 36  1  0  0  0  0
 32 37  1  0  0  0  0
 11 14  1  0  0  0  0
 11 15  1  0  0  0  0
 11 16  1  0  0  0  0
 39 41  1  0  0  0  0
 39 42  1  0  0  0  0
 39 43  1  0  0  0  0
 21 25  1  0  0  0  0
 21 26  1  0  0  0  0
 29 34  1  0  0  0  0
  8 13  1  0  0  0  0
 18 24  1  0  0  0  0
 38 40  1  0  0  0  0
  7 12  1  0  0  0  0
 28 33  1  0  0  0  0
 17 23  1  0  0  0  0
 22 27  1  0  0  0  0
M  END
$$$$

  -OEChem-05262214473D

 43 42  0     1  0  0  0  0  0999 V2000
   -2.8661   -4.7415    2.2943 C   0  0  0  0  0  0  0  0  0  0  0  0
   -2.0233   -5.5727    2.6109 O   0  0  0  0  0  0  0  0  0  0  0  0
   -4.3078   -5.0134    2.5698 C   0  0  0  0  0  0  0  0  0  0  0  0
   -4.8057   -5.5295    1.7332 H   0  0  0  0  0  0  0  0  0  0  0  0
   -4.4526   -5.6688    3.4436 H   0  0  0  0  0  0  0  0  0  0  0  0
   -4.9255   -4.1233    2.7700 H   0  0  0  0  0  0  0  0  0  0  0  0
   -2.6241   -3.5219    1.6838 N   0  0  0  0  0  0  0  0  0  0  0  0
   -1.3070   -3.0608    1.3315 C   0  0  2  0  0  0  0  0  0  0  0  0
   -1.3931   -1.5680    1.0422 C   0  0  0  0  0  0  0  0  0  0  0  0
   -2.4385   -1.0059    0.7226 O   0  0  0  0  0  0  0  0  0  0  0  0
   -0.7590   -3.8164    0.1309 C   0  0  0  0  0  0  0  0  0  0  0  0
   -3.4188   -2.9207    1.4735 H   0  0  0  0  0  0  0  0  0  0  0  0
   -0.6690   -3.2277    2.2062 H   0  0  0  0  0  0  0  0  0  0  0  0
   -1.3852   -3.6613   -0.7553 H   0  0  0  0  0  0  0  0  0  0  0  0
    0.2542   -3.4843   -0.1182 H   0  0  0  0  0  0  0  0  0  0  0  0
   -0.7257   -4.8930    0.3300 H   0  0  0  0  0  0  0  0  0  0  0  0
   -0.1563   -0.9420    1.1402 N   0  0  0  0  0  0  0  0  0  0  0  0
    0.0261    0.4671    0.9001 C   0  0  2  0  0  0  0  0  0  0  0  0
    1.2622    0.6636    0.0248 C   0  0  0  0  0  0  0  0  0  0  0  0
    2.3897    0.3165    0.3706 O   0  0  0  0  0  0  0  0  0  0  0  0
    0.0657    1.2789    2.1972 C   0  0  0  0  0  0  0  0  0  0  0  0
   -1.5036    1.2592    3.1242 S   0  0  0  0  0  0  0  0  0  0  0  0
    0.6533   -1.4855    1.4300 H   0  0  0  0  0  0  0  0  0  0  0  0
   -0.8471    0.7819    0.3153 H   0  0  0  0  0  0  0  0  0  0  0  0
    0.8453    0.8982    2.8652 H   0  0  0  0  0  0  0  0  0  0  0  0
    0.3024    2.3251    1.9756 H   0  0  0  0  0  0  0  0  0  0  0  0
   -1.0767    2.0361    4.1279 H   0  0  0  0  0  0  0  0  0  0  0  0
    0.9613    1.2935   -1.1746 N   0  0  0  0  0  0  0  0  0  0  0  0
    1.9649    1.5997   -2.1669 C   0  0  2  0  0  0  0  0  0  0  0  0
    1.3054    2.4254   -3.2636 C   0  0  0  0  0  0  0  0  0  0  0  0
    0.0946    2.4144   -3.4752 O   0  0  0  0  0  0  0  0  0  0  0  0
    2.5834    0.3330   -2.7377 C   0  0  0  0  0  0  0  0  0  0  0  0
   -0.0052    1.5161   -1.3936 H   0  0  0  0  0  0  0  0  0  0  0  0
    2.7312    2.2018   -1.6664 H   0  0  0  0  0  0  0  0  0  0  0  0
    1.8308   -0.2831   -3.2430 H   0  0  0  0  0  0  0  0  0  0  0  0
    3.3640    0.5673   -3.4690 H   0  0  0  0  0  0  0  0  0  0  0  0
    3.0312   -0.2741   -1.9435 H   0  0  0  0  0  0  0  0  0  0  0  0
    2.2329    3.1429   -4.0059 N   0  0  0  0  0  0  0  0  0  0  0  0
    1.8571    3.9929   -5.1115 C   0  0  0  0  0  0  0  0  0  0  0  0
    3.2147    3.1073   -3.7478 H   0  0  0  0  0  0  0  0  0  0  0  0
    1.9055    3.4191   -6.0487 H   0  0  0  0  0  0  0  0  0  0  0  0
    0.8316    4.3604   -4.9592 H   0  0  0  0  0  0  0  0  0  0  0  0
    2.5480    4.8470   -5.1685 H   0  0  0  0  0  0  0  0  0  0  0  0
  1  3  1  0  0  0  0
  1  7  1  0  0  0  0
  1  2  2  0  0  0  0
 29 30  1  0  0  0  0
 30 38  1  0  0  0  0
 30 31  2  0  0  0  0
  8  9  1  0  0  0  0
  9 17  1  0  0  0  0
  9 10  2  0  0  0  0
 18 19  1  0  0  0  0
 19 28  1  0  0  0  0
 19 20  2  0  0  0  0
 29 32  1  0  0  0  0
  8 11  1  0  0  0  0
 38 39  1  0  0  0  0
 18 21  1  0  0  0  0
 21 22  1  0  0  0  0
 28 29  1  0  0  0  0
  7  8  1  0  0  0  0
 17 18  1  0  0  0  0
  3  4  1  0  0  0  0
  3  5  1  0  0  0  0
  3  6  1  0  0  0  0
 32 35  1  0  0  0  0
 32 36  1  0  0  0  0
 32 37  1  0  0  0  0
 11 14  1  0  0  0  0
 11 15  1  0  0  0  0
 11 16  1  0  0  0  0
 39 41  1  0  0  0  0
 39 42  1  0  0  0  0
 39 43  1  0  0  0  0
 21 25  1  0  0  0  0
 21 26  1  0  0  0  0
 29 34  1  0  0  0  0
  8 13  1  0  0  0  0
 18 24  1  0  0  0  0
 38 40  1  0  0  0  0
  7 12  1  0  0  0  0
 28 33  1  0  0  0  0
 17 23  1  0  0  0  0
 22 27  1  0  0  0  0
M  END
$$$$

  -OEChem-05262214473D

 43 42  0     1  0  0  0  0  0999 V2000
   -2.8661   -4.7415    2.2943 C   0  0  0  0  0  0  0  0  0  0  0  0
   -2.0233   -5.5727    2.6109 O   0  0  0  0  0  0  0  0  0  0  0  0
   -4.3078   -5.0134    2.5698 C   0  0  0  0  0  0  0  0  0  0  0  0
   -4.8057   -5.5295    1.7332 H   0  0  0  0  0  0  0  0  0  0  0  0
   -4.4526   -5.6688    3.4436 H   0  0  0  0  0  0  0  0  0  0  0  0
   -4.9255   -4.1233    2.7700 H   0  0  0  0  0  0  0  0  0  0  0  0
   -2.6241   -3.5219    1.6838 N   0  0  0  0  0  0  0  0  0  0  0  0
   -1.3070   -3.0608    1.3315 C   0  0  2  0  0  0  0  0  0  0  0  0
   -1.3931   -1.5680    1.0422 C   0  0  0  0  0  0  0  0  0  0  0  0
   -2.4385   -1.0059    0.7226 O   0  0  0  0  0  0  0  0  0  0  0  0
   -0.7590   -3.8164    0.1309 C   0  0  0  0  0  0  0  0  0  0  0  0
   -3.4188   -2.9207    1.4735 H   0  0  0  0  0  0  0  0  0  0  0  0
   -0.6690   -3.2277    2.2062 H   0  0  0  0  0  0  0  0  0  0  0  0
   -1.3852   -3.6613   -0.7553 H   0  0  0  0  0  0  0  0  0  0  0  0
    0.2542   -3.4843   -0.1182 H   0  0  0  0  0  0  0  0  0  0  0  0
   -0.7257   -4.8930    0.3300 H   0  0  0  0  0  0  0  0  0  0  0  0
   -0.1563   -0.9420    1.1402 N   0  0  0  0  0  0  0  0  0  0  0  0
    0.0261    0.4671    0.9001 C   0  0  2  0  0  0  0  0  0  0  0  0
    1.2622    0.6636    0.0248 C   0  0  0  0  0  0  0  0  0  0  0  0
    2.3298    0.0915    0.2355 O   0  0  0  0  0  0  0  0  0  0  0  0
    0.0657    1.2789    2.1972 C   0  0  0  0  0  0  0  0  0  0  0  0
   -1.5036    1.2592    3.1242 S   0  0  0  0  0  0  0  0  0  0  0  0
    0.6533   -1.4855    1.4300 H   0  0  0  0  0  0  0  0  0  0  0  0
   -0.8471    0.7819    0.3153 H   0  0  0  0  0  0  0  0  0  0  0  0
    0.8453    0.8982    2.8652 H   0  0  0  0  0  0  0  0  0  0  0  0
    0.3024    2.3251    1.9756 H   0  0  0  0  0  0  0  0  0  0  0  0
   -1.0767    2.0361    4.1279 H   0  0  0  0  0  0  0  0  0  0  0  0
    1.0395    1.5701   -1.0020 N   0  0  0  0  0  0  0  0  0  0  0  0
    2.0605    1.9312   -1.9575 C   0  0  2  0  0  0  0  0  0  0  0  0
    1.5150    3.0572   -2.8258 C   0  0  0  0  0  0  0  0  0  0  0  0
    0.3130    3.2667   -2.9755 O   0  0  0  0  0  0  0  0  0  0  0  0
    2.4693    0.7384   -2.8077 C   0  0  0  0  0  0  0  0  0  0  0  0
    0.1144    1.9717   -1.1225 H   0  0  0  0  0  0  0  0  0  0  0  0
    2.9179    2.2960   -1.3815 H   0  0  0  0  0  0  0  0  0  0  0  0
    1.6231    0.3590   -3.3921 H   0  0  0  0  0  0  0  0  0  0  0  0
    3.2635    1.0068   -3.5121 H   0  0  0  0  0  0  0  0  0  0  0  0
    2.8335   -0.0816   -2.1794 H   0  0  0  0  0  0  0  0  0  0  0  0
    2.5276    3.7737   -3.4483 N   0  0  0  0  0  0  0  0  0  0  0  0
    2.2660    4.8839   -4.3342 C   0  0  0  0  0  0  0  0  0  0  0  0
    3.4969    3.5424   -3.2517 H   0  0  0  0  0  0  0  0  0  0  0  0
    2.2102    4.5211   -5.3711 H   0  0  0  0  0  0  0  0  0  0  0  0
    1.3110    5.3554   -4.0589 H   0  0  0  0  0  0  0  0  0  0  0  0
    3.0775    5.6214   -4.2471 H   0  0  0  0  0  0  0  0  0  0  0  0
  1  3  1  0  0  0  0
  1  7  1  0  0  0  0
  1  2  2  0  0  0  0
 29 30  1  0  0  0  0
 30 38  1  0  0  0  0
 30 31  2  0  0  0  0
  8  9  1  0  0  0  0
  9 17  1  0  0  0  0
  9 10  2  0  0  0  0
 18 19  1  0  0  0  0
 19 28  1  0  0  0  0
 19 20  2  0  0  0  0
 29 32  1  0  0  0  0
  8 11  1  0  0  0  0
 38 39  1  0  0  0  0
 18 21  1  0  0  0  0
 21 22  1  0  0  0  0
 28 29  1  0  0  0  0
  7  8  1  0  0  0  0
 17 18  1  0  0  0  0
  3  4  1  0  0  0  0
  3  5  1  0  0  0  0
  3  6  1  0  0  0  0
 32 35  1  0  0  0  0
 32 36  1  0  0  0  0
 32 37  1  0  0  0  0
 11 14  1  0  0  0  0
 11 15  1  0  0  0  0
 11 16  1  0  0  0  0
 39 41  1  0  0  0  0
 39 42  1  0  0  0  0
 39 43  1  0  0  0  0
 21 25  1  0  0  0  0
 21 26  1  0  0  0  0
 29 34  1  0  0  0  0
  8 13  1  0  0  0  0
 18 24  1  0  0  0  0
 38 40  1  0  0  0  0
  7 12  1  0  0  0  0
 28 33  1  0  0  0  0
 17 23  1  0  0  0  0
 22 27  1  0  0  0  0
M  END
$$$$

  -OEChem-05262214473D

 43 42  0     1  0  0  0  0  0999 V2000
   -2.8661   -4.7415    2.2943 C   0  0  0  0  0  0  0  0  0  0  0  0
   -2.0233   -5.5727    2.6109 O   0  0  0  0  0  0  0  0  0  0  0  0
   -4.3078   -5.0134    2.5698 C   0  0  0  0  0  0  0  0  0  0  0  0
   -4.8057   -5.5295    1.7332 H   0  0  0  0  0  0  0  0  0  0  0  0
   -4.4526   -5.6688    3.4436 H   0  0  0  0  0  0  0  0  0  0  0  0
   -4.9255   -4.1233    2.7700 H   0  0  0  0  0  0  0  0  0  0  0  0
   -2.6241   -3.5219    1.6838 N   0  0  0  0  0  0  0  0  0  0  0  0
   -1.3070   -3.0608    1.3315 C   0  0  2  0  0  0  0  0  0  0  0  0
   -1.3931   -1.5680    1.0422 C   0  0  0  0  0  0  0  0  0  0  0  0
   -2.4385   -1.0059    0.7226 O   0  0  0  0  0  0  0  0  0  0  0  0
   -0.7590   -3.8164    0.1309 C   0  0  0  0  0  0  0  0  0  0  0  0
   -3.4188   -2.9207    1.4735 H   0  0  0  0  0  0  0  0  0  0  0  0
   -0.6690   -3.2277    2.2062 H   0  0  0  0  0  0  0  0  0  0  0  0
   -1.3852   -3.6613   -0.7553 H   0  0  0  0  0  0  0  0  0  0  0  0
    0.2542   -3.4843   -0.1182 H   0  0  0  0  0  0  0  0  0  0  0  0
   -0.7257   -4.8930    0.3300 H   0  0  0  0  0  0  0  0  0  0  0  0
   -0.1563   -0.9420    1.1402 N   0  0  0  0  0  0  0  0  0  0  0  0
    0.0261    0.4671    0.9001 C   0  0  2  0  0  0  0  0  0  0  0  0
    1.2622    0.6636    0.0248 C   0  0  0  0  0  0  0  0  0  0  0  0
    2.2340   -0.0885    0.0598 O   0  0  0  0  0  0  0  0  0  0  0  0
    0.0657    1.2789    2.1972 C   0  0  0  0  0  0  0  0  0  0  0  0
   -1.5036    1.2592    3.1242 S   0  0  0  0  0  0  0  0  0  0  0  0
    0.6533   -1.4855    1.4300 H   0  0  0  0  0  0  0  0  0  0  0  0
   -0.8471    0.7819    0.3153 H   0  0  0  0  0  0  0  0  0  0  0  0
    0.8453    0.8982    2.8652 H   0  0  0  0  0  0  0  0  0  0  0  0
    0.3024    2.3251    1.9756 H   0  0  0  0  0  0  0  0  0  0  0  0
   -1.0767    2.0361    4.1279 H   0  0  0  0  0  0  0  0  0  0  0  0
    1.1619    1.7896   -0.7800 N   0  0  0  0  0  0  0  0  0  0  0  0
    2.2090    2.1933   -1.6890 C   0  0  2  0  0  0  0  0  0  0  0  0
    1.8257    3.5446   -2.2777 C   0  0  0  0  0  0  0  0  0  0  0  0
    0.6670    3.9529   -2.3215 O   0  0  0  0  0  0  0  0  0  0  0  0
    2.4169    1.1615   -2.7867 C   0  0  0  0  0  0  0  0  0  0  0  0
    0.3065    2.3372   -0.7692 H   0  0  0  0  0  0  0  0  0  0  0  0
    3.1218    2.2997   -1.0928 H   0  0  0  0  0  0  0  0  0  0  0  0
    1.5129    1.0412   -3.3947 H   0  0  0  0  0  0  0  0  0  0  0  0
    3.2303    1.4553   -3.4585 H   0  0  0  0  0  0  0  0  0  0  0  0
    2.6633    0.1831   -2.3603 H   0  0  0  0  0  0  0  0  0  0  0  0
    2.9243    4.2224   -2.7873 N   0  0  0  0  0  0  0  0  0  0  0  0
    2.8190    5.5212   -3.4103 C   0  0  0  0  0  0  0  0  0  0  0  0
    3.8506    3.8169   -2.6907 H   0  0  0  0  0  0  0  0  0  0  0  0
    2.6906    5.3983   -4.4959 H   0  0  0  0  0  0  0  0  0  0  0  0
    1.9516    6.0567   -2.9969 H   0  0  0  0  0  0  0  0  0  0  0  0
    3.7344    6.0980   -3.2125 H   0  0  0  0  0  0  0  0  0  0  0  0
  1  3  1  0  0  0  0
  1  7  1  0  0  0  0
  1  2  2  0  0  0  0
 29 30  1  0  0  0  0
 30 38  1  0  0  0  0
 30 31  2  0  0  0  0
  8  9  1  0  0  0  0
  9 17  1  0  0  0  0
  9 10  2  0  0  0  0
 18 19  1  0  0  0  0
 19 28  1  0  0  0  0
 19 20  2  0  0  0  0
 29 32  1  0  0  0  0
  8 11  1  0  0  0  0
 38 39  1  0  0  0  0
 18 21  1  0  0  0  0
 21 22  1  0  0  0  0
 28 29  1  0  0  0  0
  7  8  1  0  0  0  0
 17 18  1  0  0  0  0
  3  4  1  0  0  0  0
  3  5  1  0  0  0  0
  3  6  1  0  0  0  0
 32 35  1  0  0  0  0
 32 36  1  0  0  0  0
 32 37  1  0  0  0  0
 11 14  1  0  0  0  0
 11 15  1  0  0  0  0
 11 16  1  0  0  0  0
 39 41  1  0  0  0  0
 39 42  1  0  0  0  0
 39 43  1  0  0  0  0
 21 25  1  0  0  0  0
 21 26  1  0  0  0  0
 29 34  1  0  0  0  0
  8 13  1  0  0  0  0
 18 24  1  0  0  0  0
 38 40  1  0  0  0  0
  7 12  1  0  0  0  0
 28 33  1  0  0  0  0
 17 23  1  0  0  0  0
 22 27  1  0  0  0  0
M  END
$$$$

  -OEChem-05262214473D

 43 42  0     1  0  0  0  0  0999 V2000
   -2.8661   -4.7415    2.2943 C   0  0  0  0  0  0  0  0  0  0  0  0
   -2.0233   -5.5727    2.6109 O   0  0  0  0  0  0  0  0  0  0  0  0
   -4.3078   -5.0134    2.5698 C   0  0  0  0  0  0  0  0  0  0  0  0
   -4.8057   -5.5295    1.7332 H   0  0  0  0  0  0  0  0  0  0  0  0
   -4.4526   -5.6688    3.4436 H   0  0  0  0  0  0  0  0  0  0  0  0
   -4.9255   -4.1233    2.7700 H   0  0  0  0  0  0  0  0  0  0  0  0
   -2.6241   -3.5219    1.6838 N   0  0  0  0  0  0  0  0  0  0  0  0
   -1.3070   -3.0608    1.3315 C   0  0  2  0  0  0  0  0  0  0  0  0
   -1.3931   -1.5680    1.0422 C   0  0  0  0  0  0  0  0  0  0  0  0
   -2.4385   -1.0059    0.7226 O   0  0  0  0  0  0  0  0  0  0  0  0
   -0.7590   -3.8164    0.1309 C   0  0  0  0  0  0  0  0  0  0  0  0
   -3.4188   -2.9207    1.4735 H   0  0  0  0  0  0  0  0  0  0  0  0
   -0.6690   -3.2277    2.2062 H   0  0  0  0  0  0  0  0  0  0  0  0
   -1.3852   -3.6613   -0.7553 H   0  0  0  0  0  0  0  0  0  0  0  0
    0.2542   -3.4843   -0.1182 H   0  0  0  0  0  0  0  0  0  0  0  0
   -0.7257   -4.8930    0.3300 H   0  0  0  0  0  0  0  0  0  0  0  0
   -0.1563   -0.9420    1.1402 N   0  0  0  0  0  0  0  0  0  0  0  0
    0.0261    0.4671    0.9001 C   0  0  2  0  0  0  0  0  0  0  0  0
    1.2622    0.6636    0.0248 C   0  0  0  0  0  0  0  0  0  0  0  0
    2.1090   -0.2115   -0.1443 O   0  0  0  0  0  0  0  0  0  0  0  0
    0.0657    1.2789    2.1972 C   0  0  0  0  0  0  0  0  0  0  0  0
   -1.5036    1.2592    3.1242 S   0  0  0  0  0  0  0  0  0  0  0  0
    0.6533   -1.4855    1.4300 H   0  0  0  0  0  0  0  0  0  0  0  0
   -0.8471    0.7819    0.3153 H   0  0  0  0  0  0  0  0  0  0  0  0
    0.8453    0.8982    2.8652 H   0  0  0  0  0  0  0  0  0  0  0  0
    0.3024    2.3251    1.9756 H   0  0  0  0  0  0  0  0  0  0  0  0
   -1.0767    2.0361    4.1279 H   0  0  0  0  0  0  0  0  0  0  0  0
    1.3200    1.9370   -0.5236 N   0  0  0  0  0  0  0  0  0  0  0  0
    2.4002    2.3682   -1.3797 C   0  0  2  0  0  0  0  0  0  0  0  0
    2.2164    3.8545   -1.6564 C   0  0  0  0  0  0  0  0  0  0  0  0
    1.1326    4.4262   -1.5579 O   0  0  0  0  0  0  0  0  0  0  0  0
    2.4298    1.5736   -2.6760 C   0  0  0  0  0  0  0  0  0  0  0  0
    0.5580    2.5878   -0.3577 H   0  0  0  0  0  0  0  0  0  0  0  0
    3.3289    2.2125   -0.8200 H   0  0  0  0  0  0  0  0  0  0  0  0
    1.5074    1.7171   -3.2506 H   0  0  0  0  0  0  0  0  0  0  0  0
    3.2664    1.8821   -3.3116 H   0  0  0  0  0  0  0  0  0  0  0  0
    2.5322    0.5019   -2.4740 H   0  0  0  0  0  0  0  0  0  0  0  0
    3.3961    4.4586   -2.0681 N   0  0  0  0  0  0  0  0  0  0  0  0
    3.4784    5.8611   -2.4029 C   0  0  0  0  0  0  0  0  0  0  0  0
    4.2516    3.9120   -2.1030 H   0  0  0  0  0  0  0  0  0  0  0  0
    3.3138    5.9911   -3.4827 H   0  0  0  0  0  0  0  0  0  0  0  0
    2.7098    6.4167   -1.8456 H   0  0  0  0  0  0  0  0  0  0  0  0
    4.4742    6.2441   -2.1352 H   0  0  0  0  0  0  0  0  0  0  0  0
  1  3  1  0  0  0  0
  1  7  1  0  0  0  0
  1  2  2  0  0  0  0
 29 30  1  0  0  0  0
 30 38  1  0  0  0  0
 30 31  2  0  0  0  0
  8  9  1  0  0  0  0
  9 17  1  0  0  0  0
  9 10  2  0  0  0  0
 18 19  1  0  0  0  0
 19 28  1  0  0  0  0
 19 20  2  0  0  0  0
 29 32  1  0  0  0  0
  8 11  1  0  0  0  0
 38 39  1  0  0  0  0
 18 21  1  0  0  0  0
 21 22  1  0  0  0  0
 28 29  1  0  0  0  0
  7  8  1  0  0  0  0
 17 18  1  0  0  0  0
  3  4  1  0  0  0  0
  3  5  1  0  0  0  0
  3  6  1  0  0  0  0
 32 35  1  0  0  0  0
 32 36  1  0  0  0  0
 32 37  1  0  0  0  0
 11 14  1  0  0  0  0
 11 15  1  0  0  0  0
 11 16  1  0  0  0  0
 39 41  1  0  0  0  0
 39 42  1  0  0  0  0
 39 43  1  0  0  0  0
 21 25  1  0  0  0  0
 21 26  1  0  0  0  0
 29 34  1  0  0  0  0
  8 13  1  0  0  0  0
 18 24  1  0  0  0  0
 38 40  1  0  0  0  0
  7 12  1  0  0  0  0
 28 33  1  0  0  0  0
 17 23  1  0  0  0  0
 22 27  1  0  0  0  0
M  END
$$$$

  -OEChem-05262214473D

 43 42  0     1  0  0  0  0  0999 V2000
   -2.8661   -4.7415    2.2943 C   0  0  0  0  0  0  0  0  0  0  0  0
   -2.0233   -5.5727    2.6109 O   0  0  0  0  0  0  0  0  0  0  0  0
   -4.3078   -5.0134    2.5698 C   0  0  0  0  0  0  0  0  0  0  0  0
   -4.8057   -5.5295    1.7332 H   0  0  0  0  0  0  0  0  0  0  0  0
   -4.4526   -5.6688    3.4436 H   0  0  0  0  0  0  0  0  0  0  0  0
   -4.9255   -4.1233    2.7700 H   0  0  0  0  0  0  0  0  0  0  0  0
   -2.6241   -3.5219    1.6838 N   0  0  0  0  0  0  0  0  0  0  0  0
   -1.3070   -3.0608    1.3315 C   0  0  2  0  0  0  0  0  0  0  0  0
   -1.3931   -1.5680    1.0422 C   0  0  0  0  0  0  0  0  0  0  0  0
   -2.4385   -1.0059    0.7226 O   0  0  0  0  0  0  0  0  0  0  0  0
   -0.7590   -3.8164    0.1309 C   0  0  0  0  0  0  0  0  0  0  0  0
   -3.4188   -2.9207    1.4735 H   0  0  0  0  0  0  0  0  0  0  0  0
   -0.6690   -3.2277    2.2062 H   0  0  0  0  0  0  0  0  0  0  0  0
   -1.3852   -3.6613   -0.7553 H   0  0  0  0  0  0  0  0  0  0  0  0
    0.2542   -3.4843   -0.1182 H   0  0  0  0  0  0  0  0  0  0  0  0
   -0.7257   -4.8930    0.3300 H   0  0  0  0  0  0  0  0  0  0  0  0
   -0.1563   -0.9420    1.1402 N   0  0  0  0  0  0  0  0  0  0  0  0
    0.0261    0.4671    0.9001 C   0  0  2  0  0  0  0  0  0  0  0  0
    1.0091    0.6488   -0.2546 C   0  0  0  0  0  0  0  0  0  0  0  0
    1.5445   -0.2948   -0.8330 O   0  0  0  0  0  0  0  0  0  0  0  0
    0.4302    1.2264    2.1663 C   0  0  0  0  0  0  0  0  0  0  0  0
   -0.8535    1.2323    3.4603 S   0  0  0  0  0  0  0  0  0  0  0  0
    0.6533   -1.4855    1.4300 H   0  0  0  0  0  0  0  0  0  0  0  0
   -0.9505    0.8378    0.5649 H   0  0  0  0  0  0  0  0  0  0  0  0
    1.3342    0.7904    2.6039 H   0  0  0  0  0  0  0  0  0  0  0  0
    0.6526    2.2704    1.9204 H   0  0  0  0  0  0  0  0  0  0  0  0
   -0.1508    1.9529    4.3436 H   0  0  0  0  0  0  0  0  0  0  0  0
    1.2360    1.9865   -0.5453 N   0  0  0  0  0  0  0  0  0  0  0  0
    2.1355    2.4149   -1.5909 C   0  0  2  0  0  0  0  0  0  0  0  0
    2.2571    3.9311   -1.5147 C   0  0  0  0  0  0  0  0  0  0  0  0
    1.4077    4.6465   -0.9877 O   0  0  0  0  0  0  0  0  0  0  0  0
    1.6401    1.9775   -2.9606 C   0  0  0  0  0  0  0  0  0  0  0  0
    0.7242    2.7022   -0.0378 H   0  0  0  0  0  0  0  0  0  0  0  0
    3.1083    1.9587   -1.3777 H   0  0  0  0  0  0  0  0  0  0  0  0
    0.6664    2.4246   -3.1918 H   0  0  0  0  0  0  0  0  0  0  0  0
    2.3375    2.2782   -3.7494 H   0  0  0  0  0  0  0  0  0  0  0  0
    1.5247    0.8891   -3.0040 H   0  0  0  0  0  0  0  0  0  0  0  0
    3.4047    4.3948   -2.1425 N   0  0  0  0  0  0  0  0  0  0  0  0
    3.7401    5.7976   -2.2168 C   0  0  0  0  0  0  0  0  0  0  0  0
    4.0627    3.7287   -2.5364 H   0  0  0  0  0  0  0  0  0  0  0  0
    3.3442    6.2208   -3.1518 H   0  0  0  0  0  0  0  0  0  0  0  0
    3.2981    6.3261   -1.3593 H   0  0  0  0  0  0  0  0  0  0  0  0
    4.8337    5.9147   -2.1956 H   0  0  0  0  0  0  0  0  0  0  0  0
  1  3  1  0  0  0  0
  1  7  1  0  0  0  0
  1  2  2  0  0  0  0
 29 30  1  0  0  0  0
 30 38  1  0  0  0  0
 30 31  2  0  0  0  0
  8  9  1  0  0  0  0
  9 17  1  0  0  0  0
  9 10  2  0  0  0  0
 18 19  1  0  0  0  0
 19 28  1  0  0  0  0
 19 20  2  0  0  0  0
 29 32  1  0  0  0  0
  8 11  1  0  0  0  0
 38 39  1  0  0  0  0
 18 21  1  0  0  0  0
 21 22  1  0  0  0  0
 28 29  1  0  0  0  0
  7  8  1  0  0  0  0
 17 18  1  0  0  0  0
  3  4  1  0  0  0  0
  3  5  1  0  0  0  0
  3  6  1  0  0  0  0
 32 35  1  0  0  0  0
 32 36  1  0  0  0  0
 32 37  1  0  0  0  0
 11 14  1  0  0  0  0
 11 15  1  0  0  0  0
 11 16  1  0  0  0  0
 39 41  1  0  0  0  0
 39 42  1  0  0  0  0
 39 43  1  0  0  0  0
 21 25  1  0  0  0  0
 21 26  1  0  0  0  0
 29 34  1  0  0  0  0
  8 13  1  0  0  0  0
 18 24  1  0  0  0  0
 38 40  1  0  0  0  0
  7 12  1  0  0  0  0
 28 33  1  0  0  0  0
 17 23  1  0  0  0  0
 22 27  1  0  0  0  0
M  END
$$$$

  -OEChem-05262214473D

 43 42  0     1  0  0  0  0  0999 V2000
   -2.8661   -4.7415    2.2943 C   0  0  0  0  0  0  0  0  0  0  0  0
   -2.0233   -5.5727    2.6109 O   0  0  0  0  0  0  0  0  0  0  0  0
   -4.3078   -5.0134    2.5698 C   0  0  0  0  0  0  0  0  0  0  0  0
   -4.8057   -5.5295    1.7332 H   0  0  0  0  0  0  0  0  0  0  0  0
   -4.4526   -5.6688    3.4436 H   0  0  0  0  0  0  0  0  0  0  0  0
   -4.9255   -4.1233    2.7700 H   0  0  0  0  0  0  0  0  0  0  0  0
   -2.6241   -3.5219    1.6838 N   0  0  0  0  0  0  0  0  0  0  0  0
   -1.3070   -3.0608    1.3315 C   0  0  2  0  0  0  0  0  0  0  0  0
   -1.3931   -1.5680    1.0422 C   0  0  0  0  0  0  0  0  0  0  0  0
   -2.4385   -1.0059    0.7226 O   0  0  0  0  0  0  0  0  0  0  0  0
   -0.7590   -3.8164    0.1309 C   0  0  0  0  0  0  0  0  0  0  0  0
   -3.4188   -2.9207    1.4735 H   0  0  0  0  0  0  0  0  0  0  0  0
   -0.6690   -3.2277    2.2062 H   0  0  0  0  0  0  0  0  0  0  0  0
   -1.3852   -3.6613   -0.7553 H   0  0  0  0  0  0  0  0  0  0  0  0
    0.2542   -3.4843   -0.1182 H   0  0  0  0  0  0  0  0  0  0  0  0
   -0.7257   -4.8930    0.3300 H   0  0  0  0  0  0  0  0  0  0  0  0
   -0.1563   -0.9420    1.1402 N   0  0  0  0  0  0  0  0  0  0  0  0
    0.0261    0.4671    0.9001 C   0  0  2  0  0  0  0  0  0  0  0  0
    1.0091    0.6488   -0.2546 C   0  0  0  0  0  0  0  0  0  0  0  0
    1.3385   -0.2683   -1.0042 O   0  0  0  0  0  0  0  0  0  0  0  0
    0.4302    1.2264    2.1663 C   0  0  0  0  0  0  0  0  0  0  0  0
   -0.8535    1.2323    3.4603 S   0  0  0  0  0  0  0  0  0  0  0  0
    0.6533   -1.4855    1.4300 H   0  0  0  0  0  0  0  0  0  0  0  0
   -0.9505    0.8378    0.5649 H   0  0  0  0  0  0  0  0  0  0  0  0
    1.3342    0.7904    2.6039 H   0  0  0  0  0  0  0  0  0  0  0  0
    0.6526    2.2704    1.9204 H   0  0  0  0  0  0  0  0  0  0  0  0
   -0.1508    1.9529    4.3436 H   0  0  0  0  0  0  0  0  0  0  0  0
    1.4926    1.9471   -0.3331 N   0  0  0  0  0  0  0  0  0  0  0  0
    2.4442    2.3648   -1.3360 C   0  0  2  0  0  0  0  0  0  0  0  0
    2.8651    3.7937   -1.0187 C   0  0  0  0  0  0  0  0  0  0  0  0
    2.1821    4.5597   -0.3422 O   0  0  0  0  0  0  0  0  0  0  0  0
    1.8525    2.2701   -2.7337 C   0  0  0  0  0  0  0  0  0  0  0  0
    1.1401    2.6515    0.3083 H   0  0  0  0  0  0  0  0  0  0  0  0
    3.3102    1.6999   -1.2466 H   0  0  0  0  0  0  0  0  0  0  0  0
    0.9836    2.9294   -2.8423 H   0  0  0  0  0  0  0  0  0  0  0  0
    2.5844    2.5598   -3.4949 H   0  0  0  0  0  0  0  0  0  0  0  0
    1.5230    1.2479   -2.9490 H   0  0  0  0  0  0  0  0  0  0  0  0
    4.0729    4.1267   -1.6159 N   0  0  0  0  0  0  0  0  0  0  0  0
    4.6787    5.4303   -1.4756 C   0  0  0  0  0  0  0  0  0  0  0  0
    4.5800    3.4228   -2.1441 H   0  0  0  0  0  0  0  0  0  0  0  0
    4.3614    6.0743   -2.3090 H   0  0  0  0  0  0  0  0  0  0  0  0
    4.3625    5.8809   -0.5232 H   0  0  0  0  0  0  0  0  0  0  0  0
    5.7739    5.3287   -1.4873 H   0  0  0  0  0  0  0  0  0  0  0  0
  1  3  1  0  0  0  0
  1  7  1  0  0  0  0
  1  2  2  0  0  0  0
 29 30  1  0  0  0  0
 30 38  1  0  0  0  0
 30 31  2  0  0  0  0
  8  9  1  0  0  0  0
  9 17  1  0  0  0  0
  9 10  2  0  0  0  0
 18 19  1  0  0  0  0
 19 28  1  0  0  0  0
 19 20  2  0  0  0  0
 29 32  1  0  0  0  0
  8 11  1  0  0  0  0
 38 39  1  0  0  0  0
 18 21  1  0  0  0  0
 21 22  1  0  0  0  0
 28 29  1  0  0  0  0
  7  8  1  0  0  0  0
 17 18  1  0  0  0  0
  3  4  1  0  0  0  0
  3  5  1  0  0  0  0
  3  6  1  0  0  0  0
 32 35  1  0  0  0  0
 32 36  1  0  0  0  0
 32 37  1  0  0  0  0
 11 14  1  0  0  0  0
 11 15  1  0  0  0  0
 11 16  1  0  0  0  0
 39 41  1  0  0  0  0
 39 42  1  0  0  0  0
 39 43  1  0  0  0  0
 21 25  1  0  0  0  0
 21 26  1  0  0  0  0
 29 34  1  0  0  0  0
  8 13  1  0  0  0  0
 18 24  1  0  0  0  0
 38 40  1  0  0  0  0
  7 12  1  0  0  0  0
 28 33  1  0  0  0  0
 17 23  1  0  0  0  0
 22 27  1  0  0  0  0
M  END
$$$$

  -OEChem-05262214473D

 43 42  0     1  0  0  0  0  0999 V2000
   -2.8661   -4.7415    2.2943 C   0  0  0  0  0  0  0  0  0  0  0  0
   -2.0233   -5.5727    2.6109 O   0  0  0  0  0  0  0  0  0  0  0  0
   -4.3078   -5.0134    2.5698 C   0  0  0  0  0  0  0  0  0  0  0  0
   -4.8057   -5.5295    1.7332 H   0  0  0  0  0  0  0  0  0  0  0  0
   -4.4526   -5.6688    3.4436 H   0  0  0  0  0  0  0  0  0  0  0  0
   -4.9255   -4.1233    2.7700 H   0  0  0  0  0  0  0  0  0  0  0  0
   -2.6241   -3.5219    1.6838 N   0  0  0  0  0  0  0  0  0  0  0  0
   -1.3070   -3.0608    1.3315 C   0  0  2  0  0  0  0  0  0  0  0  0
   -1.3931   -1.5680    1.0422 C   0  0  0  0  0  0  0  0  0  0  0  0
   -2.4385   -1.0059    0.7226 O   0  0  0  0  0  0  0  0  0  0  0  0
   -0.7590   -3.8164    0.1309 C   0  0  0  0  0  0  0  0  0  0  0  0
   -3.4188   -2.9207    1.4735 H   0  0  0  0  0  0  0  0  0  0  0  0
   -0.6690   -3.2277    2.2062 H   0  0  0  0  0  0  0  0  0  0  0  0
   -1.3852   -3.6613   -0.7553 H   0  0  0  0  0  0  0  0  0  0  0  0
    0.2542   -3.4843   -0.1182 H   0  0  0  0  0  0  0  0  0  0  0  0
   -0.7257   -4.8930    0.3300 H   0  0  0  0  0  0  0  0  0  0  0  0
   -0.1563   -0.9420    1.1402 N   0  0  0  0  0  0  0  0  0  0  0  0
    0.0261    0.4671    0.9001 C   0  0  2  0  0  0  0  0  0  0  0  0
    1.0091    0.6488   -0.2546 C   0  0  0  0  0  0  0  0  0  0  0  0
    1.1395   -0.1740   -1.1588 O   0  0  0  0  0  0  0  0  0  0  0  0
    0.4302    1.2264    2.1663 C   0  0  0  0  0  0  0  0  0  0  0  0
   -0.8535    1.2323    3.4603 S   0  0  0  0  0  0  0  0  0  0  0  0
    0.6533   -1.4855    1.4300 H   0  0  0  0  0  0  0  0  0  0  0  0
   -0.9505    0.8378    0.5649 H   0  0  0  0  0  0  0  0  0  0  0  0
    1.3342    0.7904    2.6039 H   0  0  0  0  0  0  0  0  0  0  0  0
    0.6526    2.2704    1.9204 H   0  0  0  0  0  0  0  0  0  0  0  0
   -0.1508    1.9529    4.3436 H   0  0  0  0  0  0  0  0  0  0  0  0
    1.7393    1.8235   -0.1425 N   0  0  0  0  0  0  0  0  0  0  0  0
    2.7405    2.2135   -1.1076 C   0  0  2  0  0  0  0  0  0  0  0  0
    3.4408    3.4593   -0.5812 C   0  0  0  0  0  0  0  0  0  0  0  0
    2.9329    4.2167    0.2430 O   0  0  0  0  0  0  0  0  0  0  0  0
    2.1220    2.4734   -2.4723 C   0  0  0  0  0  0  0  0  0  0  0  0
    1.5426    2.4634    0.6214 H   0  0  0  0  0  0  0  0  0  0  0  0
    3.4586    1.3886   -1.1692 H   0  0  0  0  0  0  0  0  0  0  0  0
    1.3996    3.2967   -2.4304 H   0  0  0  0  0  0  0  0  0  0  0  0
    2.8859    2.7412   -3.2097 H   0  0  0  0  0  0  0  0  0  0  0  0
    1.5933    1.5856   -2.8360 H   0  0  0  0  0  0  0  0  0  0  0  0
    4.6820    3.6493   -1.1724 N   0  0  0  0  0  0  0  0  0  0  0  0
    5.5362    4.7683   -0.8497 C   0  0  0  0  0  0  0  0  0  0  0  0
    5.0320    2.9607   -1.8321 H   0  0  0  0  0  0  0  0  0  0  0  0
    5.3411    5.5933   -1.5506 H   0  0  0  0  0  0  0  0  0  0  0  0
    5.3292    5.1032    0.1774 H   0  0  0  0  0  0  0  0  0  0  0  0
    6.5893    4.4606   -0.9298 H   0  0  0  0  0  0  0  0  0  0  0  0
  1  3  1  0  0  0  0
  1  7  1  0  0  0  0
  1  2  2  0  0  0  0
 29 30  1  0  0  0  0
 30 38  1  0  0  0  0
 30 31  2  0  0  0  0
  8  9  1  0  0  0  0
  9 17  1  0  0  0  0
  9 10  2  0  0  0  0
 18 19  1  0  0  0  0
 19 28  1  0  0  0  0
 19 20  2  0  0  0  0
 29 32  1  0  0  0  0
  8 11  1  0  0  0  0
 38 39  1  0  0  0  0
 18 21  1  0  0  0  0
 21 22  1  0  0  0  0
 28 29  1  0  0  0  0
  7  8  1  0  0  0  0
 17 18  1  0  0  0  0
  3  4  1  0  0  0  0
  3  5  1  0  0  0  0
  3  6  1  0  0  0  0
 32 35  1  0  0  0  0
 32 36  1  0  0  0  0
 32 37  1  0  0  0  0
 11 14  1  0  0  0  0
 11 15  1  0  0  0  0
 11 16  1  0  0  0  0
 39 41  1  0  0  0  0
 39 42  1  0  0  0  0
 39 43  1  0  0  0  0
 21 25  1  0  0  0  0
 21 26  1  0  0  0  0
 29 34  1  0  0  0  0
  8 13  1  0  0  0  0
 18 24  1  0  0  0  0
 38 40  1  0  0  0  0
  7 12  1  0  0  0  0
 28 33  1  0  0  0  0
 17 23  1  0  0  0  0
 22 27  1  0  0  0  0
M  END
$$$$

  -OEChem-05262214473D

 43 42  0     1  0  0  0  0  0999 V2000
   -2.8661   -4.7415    2.2943 C   0  0  0  0  0  0  0  0  0  0  0  0
   -2.0233   -5.5727    2.6109 O   0  0  0  0  0  0  0  0  0  0  0  0
   -4.3078   -5.0134    2.5698 C   0  0  0  0  0  0  0  0  0  0  0  0
   -4.8057   -5.5295    1.7332 H   0  0  0  0  0  0  0  0  0  0  0  0
   -4.4526   -5.6688    3.4436 H   0  0  0  0  0  0  0  0  0  0  0  0
   -4.9255   -4.1233    2.7700 H   0  0  0  0  0  0  0  0  0  0  0  0
   -2.6241   -3.5219    1.6838 N   0  0  0  0  0  0  0  0  0  0  0  0
   -1.3070   -3.0608    1.3315 C   0  0  2  0  0  0  0  0  0  0  0  0
   -1.3931   -1.5680    1.0422 C   0  0  0  0  0  0  0  0  0  0  0  0
   -2.4385   -1.0059    0.7226 O   0  0  0  0  0  0  0  0  0  0  0  0
   -0.7590   -3.8164    0.1309 C   0  0  0  0  0  0  0  0  0  0  0  0
   -3.4188   -2.9207    1.4735 H   0  0  0  0  0  0  0  0  0  0  0  0
   -0.6690   -3.2277    2.2062 H   0  0  0  0  0  0  0  0  0  0  0  0
   -1.3852   -3.6613   -0.7553 H   0  0  0  0  0  0  0  0  0  0  0  0
    0.2542   -3.4843   -0.1182 H   0  0  0  0  0  0  0  0  0  0  0  0
   -0.7257   -4.8930    0.3300 H   0  0  0  0  0  0  0  0  0  0  0  0
   -0.1563   -0.9420    1.1402 N   0  0  0  0  0  0  0  0  0  0  0  0
    0.0261    0.4671    0.9001 C   0  0  2  0  0  0  0  0  0  0  0  0
    1.0091    0.6488   -0.2546 C   0  0  0  0  0  0  0  0  0  0  0  0
    0.9609   -0.0181   -1.2863 O   0  0  0  0  0  0  0  0  0  0  0  0
    0.4302    1.2264    2.1663 C   0  0  0  0  0  0  0  0  0  0  0  0
   -0.8535    1.2323    3.4603 S   0  0  0  0  0  0  0  0  0  0  0  0
    0.6533   -1.4855    1.4300 H   0  0  0  0  0  0  0  0  0  0  0  0
   -0.9505    0.8378    0.5649 H   0  0  0  0  0  0  0  0  0  0  0  0
    1.3342    0.7904    2.6039 H   0  0  0  0  0  0  0  0  0  0  0  0
    0.6526    2.2704    1.9204 H   0  0  0  0  0  0  0  0  0  0  0  0
   -0.1508    1.9529    4.3436 H   0  0  0  0  0  0  0  0  0  0  0  0
    1.9592    1.6241    0.0133 N   0  0  0  0  0  0  0  0  0  0  0  0
    3.0041    1.9714   -0.9212 C   0  0  2  0  0  0  0  0  0  0  0  0
    3.9450    2.9508   -0.2321 C   0  0  0  0  0  0  0  0  0  0  0  0
    3.6090    3.6410    0.7281 O   0  0  0  0  0  0  0  0  0  0  0  0
    2.4300    2.5734   -2.1943 C   0  0  0  0  0  0  0  0  0  0  0  0
    1.9042    2.1508    0.8800 H   0  0  0  0  0  0  0  0  0  0  0  0
    3.5435    1.0460   -1.1509 H   0  0  0  0  0  0  0  0  0  0  0  0
    1.8860    3.5015   -1.9842 H   0  0  0  0  0  0  0  0  0  0  0  0
    3.2214    2.8098   -2.9133 H   0  0  0  0  0  0  0  0  0  0  0  0
    1.7308    1.8793   -2.6728 H   0  0  0  0  0  0  0  0  0  0  0  0
    5.1907    2.9951   -0.8424 N   0  0  0  0  0  0  0  0  0  0  0  0
    6.2543    3.8568   -0.3818 C   0  0  0  0  0  0  0  0  0  0  0  0
    5.3877    2.3739   -1.6215 H   0  0  0  0  0  0  0  0  0  0  0  0
    6.2167    4.8107   -0.9284 H   0  0  0  0  0  0  0  0  0  0  0  0
    6.1324    4.0462    0.6948 H   0  0  0  0  0  0  0  0  0  0  0  0
    7.2242    3.3697   -0.5609 H   0  0  0  0  0  0  0  0  0  0  0  0
  1  3  1  0  0  0  0
  1  7  1  0  0  0  0
  1  2  2  0  0  0  0
 29 30  1  0  0  0  0
 30 38  1  0  0  0  0
 30 31  2  0  0  0  0
  8  9  1  0  0  0  0
  9 17  1  0  0  0  0
  9 10  2  0  0  0  0
 18 19  1  0  0  0  0
 19 28  1  0  0  0  0
 19 20  2  0  0  0  0
 29 32  1  0  0  0  0
  8 11  1  0  0  0  0
 38 39  1  0  0  0  0
 18 21  1  0  0  0  0
 21 22  1  0  0  0  0
 28 29  1  0  0  0  0
  7  8  1  0  0  0  0
 17 18  1  0  0  0  0
  3  4  1  0  0  0  0
  3  5  1  0  0  0  0
  3  6  1  0  0  0  0
 32 35  1  0  0  0  0
 32 36  1  0  0  0  0
 32 37  1  0  0  0  0
 11 14  1  0  0  0  0
 11 15  1  0  0  0  0
 11 16  1  0  0  0  0
 39 41  1  0  0  0  0
 39 42  1  0  0  0  0
 39 43  1  0  0  0  0
 21 25  1  0  0  0  0
 21 26  1  0  0  0  0
 29 34  1  0  0  0  0
  8 13  1  0  0  0  0
 18 24  1  0  0  0  0
 38 40  1  0  0  0  0
  7 12  1  0  0  0  0
 28 33  1  0  0  0  0
 17 23  1  0  0  0  0
 22 27  1  0  0  0  0
M  END
$$$$

  -OEChem-05262214473D

 43 42  0     1  0  0  0  0  0999 V2000
   -2.8661   -4.7415    2.2943 C   0  0  0  0  0  0  0  0  0  0  0  0
   -2.0233   -5.5727    2.6109 O   0  0  0  0  0  0  0  0  0  0  0  0
   -4.3078   -5.0134    2.5698 C   0  0  0  0  0  0  0  0  0  0  0  0
   -4.8057   -5.5295    1.7332 H   0  0  0  0  0  0  0  0  0  0  0  0
   -4.4526   -5.6688    3.4436 H   0  0  0  0  0  0  0  0  0  0  0  0
   -4.9255   -4.1233    2.7700 H   0  0  0  0  0  0  0  0  0  0  0  0
   -2.6241   -3.5219    1.6838 N   0  0  0  0  0  0  0  0  0  0  0  0
   -1.3070   -3.0608    1.3315 C   0  0  2  0  0  0  0  0  0  0  0  0
   -1.3931   -1.5680    1.0422 C   0  0  0  0  0  0  0  0  0  0  0  0
   -2.4385   -1.0059    0.7226 O   0  0  0  0  0  0  0  0  0  0  0  0
   -0.7590   -3.8164    0.1309 C   0  0  0  0  0  0  0  0  0  0  0  0
   -3.4188   -2.9207    1.4735 H   0  0  0  0  0  0  0  0  0  0  0  0
   -0.6690   -3.2277    2.2062 H   0  0  0  0  0  0  0  0  0  0  0  0
   -1.3852   -3.6613   -0.7553 H   0  0  0  0  0  0  0  0  0  0  0  0
    0.2542   -3.4843   -0.1182 H   0  0  0  0  0  0  0  0  0  0  0  0
   -0.7257   -4.8930    0.3300 H   0  0  0  0  0  0  0  0  0  0  0  0
   -0.1563   -0.9420    1.1402 N   0  0  0  0  0  0  0  0  0  0  0  0
    0.0261    0.4671    0.9001 C   0  0  2  0  0  0  0  0  0  0  0  0
    1.0091    0.6488   -0.2546 C   0  0  0  0  0  0  0  0  0  0  0  0
    0.8150    0.1886   -1.3780 O   0  0  0  0  0  0  0  0  0  0  0  0
    0.4302    1.2264    2.1663 C   0  0  0  0  0  0  0  0  0  0  0  0
   -0.8535    1.2323    3.4603 S   0  0  0  0  0  0  0  0  0  0  0  0
    0.6533   -1.4855    1.4300 H   0  0  0  0  0  0  0  0  0  0  0  0
   -0.9505    0.8378    0.5649 H   0  0  0  0  0  0  0  0  0  0  0  0
    1.3342    0.7904    2.6039 H   0  0  0  0  0  0  0  0  0  0  0  0
    0.6526    2.2704    1.9204 H   0  0  0  0  0  0  0  0  0  0  0  0
   -0.1508    1.9529    4.3436 H   0  0  0  0  0  0  0  0  0  0  0  0
    2.1374    1.3624    0.1239 N   0  0  0  0  0  0  0  0  0  0  0  0
    3.2170    1.6549   -0.7897 C   0  0  2  0  0  0  0  0  0  0  0  0
    4.3432    2.3028    0.0050 C   0  0  0  0  0  0  0  0  0  0  0  0
    4.1644    2.8718    1.0799 O   0  0  0  0  0  0  0  0  0  0  0  0
    2.7558    2.5635   -1.9186 C   0  0  0  0  0  0  0  0  0  0  0  0
    2.2003    1.7351    1.0667 H   0  0  0  0  0  0  0  0  0  0  0  0
    3.5589    0.6954   -1.1929 H   0  0  0  0  0  0  0  0  0  0  0  0
    2.4095    3.5298   -1.5340 H   0  0  0  0  0  0  0  0  0  0  0  0
    3.5680    2.7611   -2.6259 H   0  0  0  0  0  0  0  0  0  0  0  0
    1.9260    2.1089   -2.4705 H   0  0  0  0  0  0  0  0  0  0  0  0
    5.5641    2.2086   -0.6482 N   0  0  0  0  0  0  0  0  0  0  0  0
    6.7839    2.7579   -0.1038 C   0  0  0  0  0  0  0  0  0  0  0  0
    5.6230    1.7025   -1.5269 H   0  0  0  0  0  0  0  0  0  0  0  0
    6.9284    3.7797   -0.4847 H   0  0  0  0  0  0  0  0  0  0  0  0
    6.7173    2.7819    0.9939 H   0  0  0  0  0  0  0  0  0  0  0  0
    7.6353    2.1303   -0.4059 H   0  0  0  0  0  0  0  0  0  0  0  0
  1  3  1  0  0  0  0
  1  7  1  0  0  0  0
  1  2  2  0  0  0  0
 29 30  1  0  0  0  0
 30 38  1  0  0  0  0
 30 31  2  0  0  0  0
  8  9  1  0  0  0  0
  9 17  1  0  0  0  0
  9 10  2  0  0  0  0
 18 19  1  0  0  0  0
 19 28  1  0  0  0  0
 19 20  2  0  0  0  0
 29 32  1  0  0  0  0
  8 11  1  0  0  0  0
 38 39  1  0  0  0  0
 18 21  1  0  0  0  0
 21 22  1  0  0  0  0
 28 29  1  0  0  0  0
  7  8  1  0  0  0  0
 17 18  1  0  0  0  0
  3  4  1  0  0  0  0
  3  5  1  0  0  0  0
  3  6  1  0  0  0  0
 32 35  1  0  0  0  0
 32 36  1  0  0  0  0
 32 37  1  0  0  0  0
 11 14  1  0  0  0  0
 11 15  1  0  0  0  0
 11 16  1  0  0  0  0
 39 41  1  0  0  0  0
 39 42  1  0  0  0  0
 39 43  1  0  0  0  0
 21 25  1  0  0  0  0
 21 26  1  0  0  0  0
 29 34  1  0  0  0  0
  8 13  1  0  0  0  0
 18 24  1  0  0  0  0
 38 40  1  0  0  0  0
  7 12  1  0  0  0  0
 28 33  1  0  0  0  0
 17 23  1  0  0  0  0
 22 27  1  0  0  0  0
M  END
$$$$

  -OEChem-05262214473D

 43 42  0     1  0  0  0  0  0999 V2000
   -2.8661   -4.7415    2.2943 C   0  0  0  0  0  0  0  0  0  0  0  0
   -2.0233   -5.5727    2.6109 O   0  0  0  0  0  0  0  0  0  0  0  0
   -4.3078   -5.0134    2.5698 C   0  0  0  0  0  0  0  0  0  0  0  0
   -4.8057   -5.5295    1.7332 H   0  0  0  0  0  0  0  0  0  0  0  0
   -4.4526   -5.6688    3.4436 H   0  0  0  0  0  0  0  0  0  0  0  0
   -4.9255   -4.1233    2.7700 H   0  0  0  0  0  0  0  0  0  0  0  0
   -2.6241   -3.5219    1.6838 N   0  0  0  0  0  0  0  0  0  0  0  0
   -1.3070   -3.0608    1.3315 C   0  0  2  0  0  0  0  0  0  0  0  0
   -1.3931   -1.5680    1.0422 C   0  0  0  0  0  0  0  0  0  0  0  0
   -2.4385   -1.0059    0.7226 O   0  0  0  0  0  0  0  0  0  0  0  0
   -0.7590   -3.8164    0.1309 C   0  0  0  0  0  0  0  0  0  0  0  0
   -3.4188   -2.9207    1.4735 H   0  0  0  0  0  0  0  0  0  0  0  0
   -0.6690   -3.2277    2.2062 H   0  0  0  0  0  0  0  0  0  0  0  0
   -1.3852   -3.6613   -0.7553 H   0  0  0  0  0  0  0  0  0  0  0  0
    0.2542   -3.4843   -0.1182 H   0  0  0  0  0  0  0  0  0  0  0  0
   -0.7257   -4.8930    0.3300 H   0  0  0  0  0  0  0  0  0  0  0  0
   -0.1563   -0.9420    1.1402 N   0  0  0  0  0  0  0  0  0  0  0  0
    0.0261    0.4671    0.9001 C   0  0  2  0  0  0  0  0  0  0  0  0
    1.0091    0.6488   -0.2546 C   0  0  0  0  0  0  0  0  0  0  0  0
    0.7116    0.4322   -1.4276 O   0  0  0  0  0  0  0  0  0  0  0  0
    0.4302    1.2264    2.1663 C   0  0  0  0  0  0  0  0  0  0  0  0
   -0.8535    1.2323    3.4603 S   0  0  0  0  0  0  0  0  0  0  0  0
    0.6533   -1.4855    1.4300 H   0  0  0  0  0  0  0  0  0  0  0  0
   -0.9505    0.8378    0.5649 H   0  0  0  0  0  0  0  0  0  0  0  0
    1.3342    0.7904    2.6039 H   0  0  0  0  0  0  0  0  0  0  0  0
    0.6526    2.2704    1.9204 H   0  0  0  0  0  0  0  0  0  0  0  0
   -0.1508    1.9529    4.3436 H   0  0  0  0  0  0  0  0  0  0  0  0
    2.2618    1.0564    0.1816 N   0  0  0  0  0  0  0  0  0  0  0  0
    3.3649    1.2856   -0.7220 C   0  0  2  0  0  0  0  0  0  0  0  0
    4.6083    1.5595    0.1137 C   0  0  0  0  0  0  0  0  0  0  0  0
    4.5612    1.9615    1.2744 O   0  0  0  0  0  0  0  0  0  0  0  0
    3.0769    2.4442   -1.6640 C   0  0  0  0  0  0  0  0  0  0  0  0
    2.4107    1.2444    1.1686 H   0  0  0  0  0  0  0  0  0  0  0  0
    3.5039    0.3607   -1.2923 H   0  0  0  0  0  0  0  0  0  0  0  0
    2.9347    3.3797   -1.1106 H   0  0  0  0  0  0  0  0  0  0  0  0
    3.9021    2.5984   -2.3671 H   0  0  0  0  0  0  0  0  0  0  0  0
    2.1658    2.2587   -2.2428 H   0  0  0  0  0  0  0  0  0  0  0  0
    5.7769    1.3435   -0.6031 N   0  0  0  0  0  0  0  0  0  0  0  0
    7.0890    1.5466   -0.0347 C   0  0  0  0  0  0  0  0  0  0  0  0
    5.7218    0.9921   -1.5545 H   0  0  0  0  0  0  0  0  0  0  0  0
    7.4279    2.5707   -0.2497 H   0  0  0  0  0  0  0  0  0  0  0  0
    7.0440    1.3963    1.0541 H   0  0  0  0  0  0  0  0  0  0  0  0
    7.7947    0.8269   -0.4753 H   0  0  0  0  0  0  0  0  0  0  0  0
  1  3  1  0  0  0  0
  1  7  1  0  0  0  0
  1  2  2  0  0  0  0
 29 30  1  0  0  0  0
 30 38  1  0  0  0  0
 30 31  2  0  0  0  0
  8  9  1  0  0  0  0
  9 17  1  0  0  0  0
  9 10  2  0  0  0  0
 18 19  1  0  0  0  0
 19 28  1  0  0  0  0
 19 20  2  0  0  0  0
 29 32  1  0  0  0  0
  8 11  1  0  0  0  0
 38 39  1  0  0  0  0
 18 21  1  0  0  0  0
 21 22  1  0  0  0  0
 28 29  1  0  0  0  0
  7  8  1  0  0  0  0
 17 18  1  0  0  0  0
  3  4  1  0  0  0  0
  3  5  1  0  0  0  0
  3  6  1  0  0  0  0
 32 35  1  0  0  0  0
 32 36  1  0  0  0  0
 32 37  1  0  0  0  0
 11 14  1  0  0  0  0
 11 15  1  0  0  0  0
 11 16  1  0  0  0  0
 39 41  1  0  0  0  0
 39 42  1  0  0  0  0
 39 43  1  0  0  0  0
 21 25  1  0  0  0  0
 21 26  1  0  0  0  0
 29 34  1  0  0  0  0
  8 13  1  0  0  0  0
 18 24  1  0  0  0  0
 38 40  1  0  0  0  0
  7 12  1  0  0  0  0
 28 33  1  0  0  0  0
 17 23  1  0  0  0  0
 22 27  1  0  0  0  0
M  END
$$$$

  -OEChem-05262214473D

 43 42  0     1  0  0  0  0  0999 V2000
   -2.8661   -4.7415    2.2943 C   0  0  0  0  0  0  0  0  0  0  0  0
   -2.0233   -5.5727    2.6109 O   0  0  0  0  0  0  0  0  0  0  0  0
   -4.3078   -5.0134    2.5698 C   0  0  0  0  0  0  0  0  0  0  0  0
   -4.8057   -5.5295    1.7332 H   0  0  0  0  0  0  0  0  0  0  0  0
   -4.4526   -5.6688    3.4436 H   0  0  0  0  0  0  0  0  0  0  0  0
   -4.9255   -4.1233    2.7700 H   0  0  0  0  0  0  0  0  0  0  0  0
   -2.6241   -3.5219    1.6838 N   0  0  0  0  0  0  0  0  0  0  0  0
   -1.3070   -3.0608    1.3315 C   0  0  2  0  0  0  0  0  0  0  0  0
   -1.3931   -1.5680    1.0422 C   0  0  0  0  0  0  0  0  0  0  0  0
   -2.4385   -1.0059    0.7226 O   0  0  0  0  0  0  0  0  0  0  0  0
   -0.7590   -3.8164    0.1309 C   0  0  0  0  0  0  0  0  0  0  0  0
   -3.4188   -2.9207    1.4735 H   0  0  0  0  0  0  0  0  0  0  0  0
   -0.6690   -3.2277    2.2062 H   0  0  0  0  0  0  0  0  0  0  0  0
   -1.3852   -3.6613   -0.7553 H   0  0  0  0  0  0  0  0  0  0  0  0
    0.2542   -3.4843   -0.1182 H   0  0  0  0  0  0  0  0  0  0  0  0
   -0.7257   -4.8930    0.3300 H   0  0  0  0  0  0  0  0  0  0  0  0
   -0.1563   -0.9420    1.1402 N   0  0  0  0  0  0  0  0  0  0  0  0
    0.0261    0.4671    0.9001 C   0  0  2  0  0  0  0  0  0  0  0  0
    1.0091    0.6488   -0.2546 C   0  0  0  0  0  0  0  0  0  0  0  0
    0.6580    0.6959   -1.4318 O   0  0  0  0  0  0  0  0  0  0  0  0
    0.4302    1.2264    2.1663 C   0  0  0  0  0  0  0  0  0  0  0  0
   -0.8535    1.2323    3.4603 S   0  0  0  0  0  0  0  0  0  0  0  0
    0.6533   -1.4855    1.4300 H   0  0  0  0  0  0  0  0  0  0  0  0
   -0.9505    0.8378    0.5649 H   0  0  0  0  0  0  0  0  0  0  0  0
    1.3342    0.7904    2.6039 H   0  0  0  0  0  0  0  0  0  0  0  0
    0.6526    2.2704    1.9204 H   0  0  0  0  0  0  0  0  0  0  0  0
   -0.1508    1.9529    4.3436 H   0  0  0  0  0  0  0  0  0  0  0  0
    2.3238    0.7268    0.1826 N   0  0  0  0  0  0  0  0  0  0  0  0
    3.4375    0.8886   -0.7226 C   0  0  2  0  0  0  0  0  0  0  0  0
    4.7223    0.7715    0.0868 C   0  0  0  0  0  0  0  0  0  0  0  0
    4.7723    0.9722    1.2985 O   0  0  0  0  0  0  0  0  0  0  0  0
    3.3717    2.2238   -1.4477 C   0  0  0  0  0  0  0  0  0  0  0  0
    2.5211    0.7124    1.1788 H   0  0  0  0  0  0  0  0  0  0  0  0
    3.3823    0.0647   -1.4424 H   0  0  0  0  0  0  0  0  0  0  0  0
    3.4256    3.0614   -0.7427 H   0  0  0  0  0  0  0  0  0  0  0  0
    4.2009    2.3327   -2.1545 H   0  0  0  0  0  0  0  0  0  0  0  0
    2.4337    2.3186   -2.0054 H   0  0  0  0  0  0  0  0  0  0  0  0
    5.8145    0.4588   -0.7102 N   0  0  0  0  0  0  0  0  0  0  0  0
    7.1488    0.3052   -0.1790 C   0  0  0  0  0  0  0  0  0  0  0  0
    5.6773    0.2912   -1.7026 H   0  0  0  0  0  0  0  0  0  0  0  0
    7.6809    1.2661   -0.2395 H   0  0  0  0  0  0  0  0  0  0  0  0
    7.0904   -0.0160    0.8714 H   0  0  0  0  0  0  0  0  0  0  0  0
    7.6914   -0.4517   -0.7643 H   0  0  0  0  0  0  0  0  0  0  0  0
  1  3  1  0  0  0  0
  1  7  1  0  0  0  0
  1  2  2  0  0  0  0
 29 30  1  0  0  0  0
 30 38  1  0  0  0  0
 30 31  2  0  0  0  0
  8  9  1  0  0  0  0
  9 17  1  0  0  0  0
  9 10  2  0  0  0  0
 18 19  1  0  0  0  0
 19 28  1  0  0  0  0
 19 20  2  0  0  0  0
 29 32  1  0  0  0  0
  8 11  1  0  0  0  0
 38 39  1  0  0  0  0
 18 21  1  0  0  0  0
 21 22  1  0  0  0  0
 28 29  1  0  0  0  0
  7  8  1  0  0  0  0
 17 18  1  0  0  0  0
  3  4  1  0  0  0  0
  3  5  1  0  0  0  0
  3  6  1  0  0  0  0
 32 35  1  0  0  0  0
 32 36  1  0  0  0  0
 32 37  1  0  0  0  0
 11 14  1  0  0  0  0
 11 15  1  0  0  0  0
 11 16  1  0  0  0  0
 39 41  1  0  0  0  0
 39 42  1  0  0  0  0
 39 43  1  0  0  0  0
 21 25  1  0  0  0  0
 21 26  1  0  0  0  0
 29 34  1  0  0  0  0
  8 13  1  0  0  0  0
 18 24  1  0  0  0  0
 38 40  1  0  0  0  0
  7 12  1  0  0  0  0
 28 33  1  0  0  0  0
 17 23  1  0  0  0  0
 22 27  1  0  0  0  0
M  END
$$$$

  -OEChem-05262214473D

 43 42  0     1  0  0  0  0  0999 V2000
   -2.8661   -4.7415    2.2943 C   0  0  0  0  0  0  0  0  0  0  0  0
   -2.0233   -5.5727    2.6109 O   0  0  0  0  0  0  0  0  0  0  0  0
   -4.3078   -5.0134    2.5698 C   0  0  0  0  0  0  0  0  0  0  0  0
   -4.8057   -5.5295    1.7332 H   0  0  0  0  0  0  0  0  0  0  0  0
   -4.4526   -5.6688    3.4436 H   0  0  0  0  0  0  0  0  0  0  0  0
   -4.9255   -4.1233    2.7700 H   0  0  0  0  0  0  0  0  0  0  0  0
   -2.6241   -3.5219    1.6838 N   0  0  0  0  0  0  0  0  0  0  0  0
   -1.3070   -3.0608    1.3315 C   0  0  2  0  0  0  0  0  0  0  0  0
   -1.3931   -1.5680    1.0422 C   0  0  0  0  0  0  0  0  0  0  0  0
   -2.4385   -1.0059    0.7226 O   0  0  0  0  0  0  0  0  0  0  0  0
   -0.7590   -3.8164    0.1309 C   0  0  0  0  0  0  0  0  0  0  0  0
   -3.4188   -2.9207    1.4735 H   0  0  0  0  0  0  0  0  0  0  0  0
   -0.6690   -3.2277    2.2062 H   0  0  0  0  0  0  0  0  0  0  0  0
   -1.3852   -3.6613   -0.7553 H   0  0  0  0  0  0  0  0  0  0  0  0
    0.2542   -3.4843   -0.1182 H   0  0  0  0  0  0  0  0  0  0  0  0
   -0.7257   -4.8930    0.3300 H   0  0  0  0  0  0  0  0  0  0  0  0
   -0.1563   -0.9420    1.1402 N   0  0  0  0  0  0  0  0  0  0  0  0
    0.0261    0.4671    0.9001 C   0  0  2  0  0  0  0  0  0  0  0  0
    1.0091    0.6488   -0.2546 C   0  0  0  0  0  0  0  0  0  0  0  0
    0.6576    0.9618   -1.3903 O   0  0  0  0  0  0  0  0  0  0  0  0
    0.4302    1.2264    2.1663 C   0  0  0  0  0  0  0  0  0  0  0  0
   -0.8535    1.2323    3.4603 S   0  0  0  0  0  0  0  0  0  0  0  0
    0.6533   -1.4855    1.4300 H   0  0  0  0  0  0  0  0  0  0  0  0
   -0.9505    0.8378    0.5649 H   0  0  0  0  0  0  0  0  0  0  0  0
    1.3342    0.7904    2.6039 H   0  0  0  0  0  0  0  0  0  0  0  0
    0.6526    2.2704    1.9204 H   0  0  0  0  0  0  0  0  0  0  0  0
   -0.1508    1.9529    4.3436 H   0  0  0  0  0  0  0  0  0  0  0  0
    2.3193    0.3962    0.1267 N   0  0  0  0  0  0  0  0  0  0  0  0
    3.4299    0.4911   -0.7916 C   0  0  2  0  0  0  0  0  0  0  0  0
    4.6773   -0.0074   -0.0740 C   0  0  0  0  0  0  0  0  0  0  0  0
    4.7834   -0.0287    1.1505 O   0  0  0  0  0  0  0  0  0  0  0  0
    3.6199    1.9171   -1.2847 C   0  0  0  0  0  0  0  0  0  0  0  0
    2.5239    0.1752    1.0967 H   0  0  0  0  0  0  0  0  0  0  0  0
    3.2022   -0.1723   -1.6330 H   0  0  0  0  0  0  0  0  0  0  0  0
    3.8488    2.5966   -0.4556 H   0  0  0  0  0  0  0  0  0  0  0  0
    4.4442    1.9822   -2.0026 H   0  0  0  0  0  0  0  0  0  0  0  0
    2.7115    2.2845   -1.7742 H   0  0  0  0  0  0  0  0  0  0  0  0
    5.6745   -0.3853   -0.9622 N   0  0  0  0  0  0  0  0  0  0  0  0
    6.9592   -0.8814   -0.5271 C   0  0  0  0  0  0  0  0  0  0  0  0
    5.4927   -0.3524   -1.9611 H   0  0  0  0  0  0  0  0  0  0  0  0
    7.6704   -0.0454   -0.4548 H   0  0  0  0  0  0  0  0  0  0  0  0
    6.8532   -1.3588    0.4582 H   0  0  0  0  0  0  0  0  0  0  0  0
    7.3326   -1.6185   -1.2533 H   0  0  0  0  0  0  0  0  0  0  0  0
  1  3  1  0  0  0  0
  1  7  1  0  0  0  0
  1  2  2  0  0  0  0
 29 30  1  0  0  0  0
 30 38  1  0  0  0  0
 30 31  2  0  0  0  0
  8  9  1  0  0  0  0
  9 17  1  0  0  0  0
  9 10  2  0  0  0  0
 18 19  1  0  0  0  0
 19 28  1  0  0  0  0
 19 20  2  0  0  0  0
 29 32  1  0  0  0  0
  8 11  1  0  0  0  0
 38 39  1  0  0  0  0
 18 21  1  0  0  0  0
 21 22  1  0  0  0  0
 28 29  1  0  0  0  0
  7  8  1  0  0  0  0
 17 18  1  0  0  0  0
  3  4  1  0  0  0  0
  3  5  1  0  0  0  0
  3  6  1  0  0  0  0
 32 35  1  0  0  0  0
 32 36  1  0  0  0  0
 32 37  1  0  0  0  0
 11 14  1  0  0  0  0
 11 15  1  0  0  0  0
 11 16  1  0  0  0  0
 39 41  1  0  0  0  0
 39 42  1  0  0  0  0
 39 43  1  0  0  0  0
 21 25  1  0  0  0  0
 21 26  1  0  0  0  0
 29 34  1  0  0  0  0
  8 13  1  0  0  0  0
 18 24  1  0  0  0  0
 38 40  1  0  0  0  0
  7 12  1  0  0  0  0
 28 33  1  0  0  0  0
 17 23  1  0  0  0  0
 22 27  1  0  0  0  0
M  END
$$$$

  -OEChem-05262214473D

 43 42  0     1  0  0  0  0  0999 V2000
   -2.8661   -4.7415    2.2943 C   0  0  0  0  0  0  0  0  0  0  0  0
   -2.0233   -5.5727    2.6109 O   0  0  0  0  0  0  0  0  0  0  0  0
   -4.3078   -5.0134    2.5698 C   0  0  0  0  0  0  0  0  0  0  0  0
   -4.8057   -5.5295    1.7332 H   0  0  0  0  0  0  0  0  0  0  0  0
   -4.4526   -5.6688    3.4436 H   0  0  0  0  0  0  0  0  0  0  0  0
   -4.9255   -4.1233    2.7700 H   0  0  0  0  0  0  0  0  0  0  0  0
   -2.6241   -3.5219    1.6838 N   0  0  0  0  0  0  0  0  0  0  0  0
   -1.3070   -3.0608    1.3315 C   0  0  2  0  0  0  0  0  0  0  0  0
   -1.3931   -1.5680    1.0422 C   0  0  0  0  0  0  0  0  0  0  0  0
   -2.4385   -1.0059    0.7226 O   0  0  0  0  0  0  0  0  0  0  0  0
   -0.7590   -3.8164    0.1309 C   0  0  0  0  0  0  0  0  0  0  0  0
   -3.4188   -2.9207    1.4735 H   0  0  0  0  0  0  0  0  0  0  0  0
   -0.6690   -3.2277    2.2062 H   0  0  0  0  0  0  0  0  0  0  0  0
   -1.3852   -3.6613   -0.7553 H   0  0  0  0  0  0  0  0  0  0  0  0
    0.2542   -3.4843   -0.1182 H   0  0  0  0  0  0  0  0  0  0  0  0
   -0.7257   -4.8930    0.3300 H   0  0  0  0  0  0  0  0  0  0  0  0
   -0.1563   -0.9420    1.1402 N   0  0  0  0  0  0  0  0  0  0  0  0
    0.0261    0.4671    0.9001 C   0  0  2  0  0  0  0  0  0  0  0  0
    1.0091    0.6488   -0.2546 C   0  0  0  0  0  0  0  0  0  0  0  0
    0.7106    1.2118   -1.3059 O   0  0  0  0  0  0  0  0  0  0  0  0
    0.4302    1.2264    2.1663 C   0  0  0  0  0  0  0  0  0  0  0  0
   -0.8535    1.2323    3.4603 S   0  0  0  0  0  0  0  0  0  0  0  0
    0.6533   -1.4855    1.4300 H   0  0  0  0  0  0  0  0  0  0  0  0
   -0.9505    0.8378    0.5649 H   0  0  0  0  0  0  0  0  0  0  0  0
    1.3342    0.7904    2.6039 H   0  0  0  0  0  0  0  0  0  0  0  0
    0.6526    2.2704    1.9204 H   0  0  0  0  0  0  0  0  0  0  0  0
   -0.1508    1.9529    4.3436 H   0  0  0  0  0  0  0  0  0  0  0  0
    2.2484    0.0871    0.0178 N   0  0  0  0  0  0  0  0  0  0  0  0
    3.3427    0.1201   -0.9242 C   0  0  2  0  0  0  0  0  0  0  0  0
    4.4766   -0.7242   -0.3576 C   0  0  0  0  0  0  0  0  0  0  0  0
    4.5937   -0.9730    0.8405 O   0  0  0  0  0  0  0  0  0  0  0  0
    3.8046    1.5452   -1.1859 C   0  0  0  0  0  0  0  0  0  0  0  0
    2.4189   -0.3306    0.9278 H   0  0  0  0  0  0  0  0  0  0  0  0
    2.9761   -0.3343   -1.8510 H   0  0  0  0  0  0  0  0  0  0  0  0
    4.1755    2.0170   -0.2686 H   0  0  0  0  0  0  0  0  0  0  0  0
    4.6152    1.5707   -1.9217 H   0  0  0  0  0  0  0  0  0  0  0  0
    2.9803    2.1586   -1.5652 H   0  0  0  0  0  0  0  0  0  0  0  0
    5.3663   -1.1313   -1.3420 N   0  0  0  0  0  0  0  0  0  0  0  0
    6.5331   -1.9326   -1.0552 C   0  0  0  0  0  0  0  0  0  0  0  0
    5.1804   -0.8949   -2.3122 H   0  0  0  0  0  0  0  0  0  0  0  0
    7.3969   -1.2742   -0.8809 H   0  0  0  0  0  0  0  0  0  0  0  0
    6.3486   -2.5406   -0.1572 H   0  0  0  0  0  0  0  0  0  0  0  0
    6.7426   -2.5938   -1.9090 H   0  0  0  0  0  0  0  0  0  0  0  0
  1  3  1  0  0  0  0
  1  7  1  0  0  0  0
  1  2  2  0  0  0  0
 29 30  1  0  0  0  0
 30 38  1  0  0  0  0
 30 31  2  0  0  0  0
  8  9  1  0  0  0  0
  9 17  1  0  0  0  0
  9 10  2  0  0  0  0
 18 19  1  0  0  0  0
 19 28  1  0  0  0  0
 19 20  2  0  0  0  0
 29 32  1  0  0  0  0
  8 11  1  0  0  0  0
 38 39  1  0  0  0  0
 18 21  1  0  0  0  0
 21 22  1  0  0  0  0
 28 29  1  0  0  0  0
  7  8  1  0  0  0  0
 17 18  1  0  0  0  0
  3  4  1  0  0  0  0
  3  5  1  0  0  0  0
  3  6  1  0  0  0  0
 32 35  1  0  0  0  0
 32 36  1  0  0  0  0
 32 37  1  0  0  0  0
 11 14  1  0  0  0  0
 11 15  1  0  0  0  0
 11 16  1  0  0  0  0
 39 41  1  0  0  0  0
 39 42  1  0  0  0  0
 39 43  1  0  0  0  0
 21 25  1  0  0  0  0
 21 26  1  0  0  0  0
 29 34  1  0  0  0  0
  8 13  1  0  0  0  0
 18 24  1  0  0  0  0
 38 40  1  0  0  0  0
  7 12  1  0  0  0  0
 28 33  1  0  0  0  0
 17 23  1  0  0  0  0
 22 27  1  0  0  0  0
M  END
$$$$

  -OEChem-05262214473D

 43 42  0     1  0  0  0  0  0999 V2000
   -2.8661   -4.7415    2.2943 C   0  0  0  0  0  0  0  0  0  0  0  0
   -2.0233   -5.5727    2.6109 O   0  0  0  0  0  0  0  0  0  0  0  0
   -4.3078   -5.0134    2.5698 C   0  0  0  0  0  0  0  0  0  0  0  0
   -4.8057   -5.5295    1.7332 H   0  0  0  0  0  0  0  0  0  0  0  0
   -4.4526   -5.6688    3.4436 H   0  0  0  0  0  0  0  0  0  0  0  0
   -4.9255   -4.1233    2.7700 H   0  0  0  0  0  0  0  0  0  0  0  0
   -2.6241   -3.5219    1.6838 N   0  0  0  0  0  0  0  0  0  0  0  0
   -1.3070   -3.0608    1.3315 C   0  0  2  0  0  0  0  0  0  0  0  0
   -1.3931   -1.5680    1.0422 C   0  0  0  0  0  0  0  0  0  0  0  0
   -2.4385   -1.0059    0.7226 O   0  0  0  0  0  0  0  0  0  0  0  0
   -0.7590   -3.8164    0.1309 C   0  0  0  0  0  0  0  0  0  0  0  0
   -3.4188   -2.9207    1.4735 H   0  0  0  0  0  0  0  0  0  0  0  0
   -0.6690   -3.2277    2.2062 H   0  0  0  0  0  0  0  0  0  0  0  0
   -1.3852   -3.6613   -0.7553 H   0  0  0  0  0  0  0  0  0  0  0  0
    0.2542   -3.4843   -0.1182 H   0  0  0  0  0  0  0  0  0  0  0  0
   -0.7257   -4.8930    0.3300 H   0  0  0  0  0  0  0  0  0  0  0  0
   -0.1563   -0.9420    1.1402 N   0  0  0  0  0  0  0  0  0  0  0  0
    0.0261    0.4671    0.9001 C   0  0  2  0  0  0  0  0  0  0  0  0
    1.0091    0.6488   -0.2546 C   0  0  0  0  0  0  0  0  0  0  0  0
    0.8132    1.4289   -1.1844 O   0  0  0  0  0  0  0  0  0  0  0  0
    0.4302    1.2264    2.1663 C   0  0  0  0  0  0  0  0  0  0  0  0
   -0.8535    1.2323    3.4603 S   0  0  0  0  0  0  0  0  0  0  0  0
    0.6533   -1.4855    1.4300 H   0  0  0  0  0  0  0  0  0  0  0  0
   -0.9505    0.8378    0.5649 H   0  0  0  0  0  0  0  0  0  0  0  0
    1.3342    0.7904    2.6039 H   0  0  0  0  0  0  0  0  0  0  0  0
    0.6526    2.2704    1.9204 H   0  0  0  0  0  0  0  0  0  0  0  0
   -0.1508    1.9529    4.3436 H   0  0  0  0  0  0  0  0  0  0  0  0
    2.1162   -0.1796   -0.1367 N   0  0  0  0  0  0  0  0  0  0  0  0
    3.1818   -0.1991   -1.1114 C   0  0  2  0  0  0  0  0  0  0  0  0
    4.1336   -1.3301   -0.7449 C   0  0  0  0  0  0  0  0  0  0  0  0
    4.2161   -1.7964    0.3895 O   0  0  0  0  0  0  0  0  0  0  0  0
    3.9134    1.1333   -1.1581 C   0  0  0  0  0  0  0  0  0  0  0  0
    2.2134   -0.7705    0.6836 H   0  0  0  0  0  0  0  0  0  0  0  0
    2.7192   -0.4103   -2.0816 H   0  0  0  0  0  0  0  0  0  0  0  0
    4.3834    1.3620   -0.1947 H   0  0  0  0  0  0  0  0  0  0  0  0
    4.7024    1.1264   -1.9174 H   0  0  0  0  0  0  0  0  0  0  0  0
    3.2217    1.9497   -1.3926 H   0  0  0  0  0  0  0  0  0  0  0  0
    4.9109   -1.7283   -1.8235 N   0  0  0  0  0  0  0  0  0  0  0  0
    5.8997   -2.7766   -1.7272 C   0  0  0  0  0  0  0  0  0  0  0  0
    4.7618   -1.2994   -2.7322 H   0  0  0  0  0  0  0  0  0  0  0  0
    6.8792   -2.3367   -1.4887 H   0  0  0  0  0  0  0  0  0  0  0  0
    5.6110   -3.4809   -0.9330 H   0  0  0  0  0  0  0  0  0  0  0  0
    5.9617   -3.3112   -2.6866 H   0  0  0  0  0  0  0  0  0  0  0  0
  1  3  1  0  0  0  0
  1  7  1  0  0  0  0
  1  2  2  0  0  0  0
 29 30  1  0  0  0  0
 30 38  1  0  0  0  0
 30 31  2  0  0  0  0
  8  9  1  0  0  0  0
  9 17  1  0  0  0  0
  9 10  2  0  0  0  0
 18 19  1  0  0  0  0
 19 28  1  0  0  0  0
 19 20  2  0  0  0  0
 29 32  1  0  0  0  0
  8 11  1  0  0  0  0
 38 39  1  0  0  0  0
 18 21  1  0  0  0  0
 21 22  1  0  0  0  0
 28 29  1  0  0  0  0
  7  8  1  0  0  0  0
 17 18  1  0  0  0  0
  3  4  1  0  0  0  0
  3  5  1  0  0  0  0
  3  6  1  0  0  0  0
 32 35  1  0  0  0  0
 32 36  1  0  0  0  0
 32 37  1  0  0  0  0
 11 14  1  0  0  0  0
 11 15  1  0  0  0  0
 11 16  1  0  0  0  0
 39 41  1  0  0  0  0
 39 42  1  0  0  0  0
 39 43  1  0  0  0  0
 21 25  1  0  0  0  0
 21 26  1  0  0  0  0
 29 34  1  0  0  0  0
  8 13  1  0  0  0  0
 18 24  1  0  0  0  0
 38 40  1  0  0  0  0
  7 12  1  0  0  0  0
 28 33  1  0  0  0  0
 17 23  1  0  0  0  0
 22 27  1  0  0  0  0
M  END
$$$$

  -OEChem-05262214473D

 43 42  0     1  0  0  0  0  0999 V2000
   -2.8661   -4.7415    2.2943 C   0  0  0  0  0  0  0  0  0  0  0  0
   -2.0233   -5.5727    2.6109 O   0  0  0  0  0  0  0  0  0  0  0  0
   -4.3078   -5.0134    2.5698 C   0  0  0  0  0  0  0  0  0  0  0  0
   -4.8057   -5.5295    1.7332 H   0  0  0  0  0  0  0  0  0  0  0  0
   -4.4526   -5.6688    3.4436 H   0  0  0  0  0  0  0  0  0  0  0  0
   -4.9255   -4.1233    2.7700 H   0  0  0  0  0  0  0  0  0  0  0  0
   -2.6241   -3.5219    1.6838 N   0  0  0  0  0  0  0  0  0  0  0  0
   -1.3070   -3.0608    1.3315 C   0  0  2  0  0  0  0  0  0  0  0  0
   -1.3931   -1.5680    1.0422 C   0  0  0  0  0  0  0  0  0  0  0  0
   -2.4385   -1.0059    0.7226 O   0  0  0  0  0  0  0  0  0  0  0  0
   -0.7590   -3.8164    0.1309 C   0  0  0  0  0  0  0  0  0  0  0  0
   -3.4188   -2.9207    1.4735 H   0  0  0  0  0  0  0  0  0  0  0  0
   -0.6690   -3.2277    2.2062 H   0  0  0  0  0  0  0  0  0  0  0  0
   -1.3852   -3.6613   -0.7553 H   0  0  0  0  0  0  0  0  0  0  0  0
    0.2542   -3.4843   -0.1182 H   0  0  0  0  0  0  0  0  0  0  0  0
   -0.7257   -4.8930    0.3300 H   0  0  0  0  0  0  0  0  0  0  0  0
   -0.1563   -0.9420    1.1402 N   0  0  0  0  0  0  0  0  0  0  0  0
    0.0261    0.4671    0.9001 C   0  0  2  0  0  0  0  0  0  0  0  0
    1.0091    0.6488   -0.2546 C   0  0  0  0  0  0  0  0  0  0  0  0
    0.9586    1.5982   -1.0339 O   0  0  0  0  0  0  0  0  0  0  0  0
    0.4302    1.2264    2.1663 C   0  0  0  0  0  0  0  0  0  0  0  0
   -0.8535    1.2323    3.4603 S   0  0  0  0  0  0  0  0  0  0  0  0
    0.6533   -1.4855    1.4300 H   0  0  0  0  0  0  0  0  0  0  0  0
   -0.9505    0.8378    0.5649 H   0  0  0  0  0  0  0  0  0  0  0  0
    1.3342    0.7904    2.6039 H   0  0  0  0  0  0  0  0  0  0  0  0
    0.6526    2.2704    1.9204 H   0  0  0  0  0  0  0  0  0  0  0  0
   -0.1508    1.9529    4.3436 H   0  0  0  0  0  0  0  0  0  0  0  0
    1.9315   -0.3855   -0.3263 N   0  0  0  0  0  0  0  0  0  0  0  0
    2.9582   -0.4447   -1.3404 C   0  0  2  0  0  0  0  0  0  0  0  0
    3.6719   -1.7837   -1.2093 C   0  0  0  0  0  0  0  0  0  0  0  0
    3.6764   -2.4427   -0.1716 O   0  0  0  0  0  0  0  0  0  0  0  0
    3.9387    0.7096   -1.2033 C   0  0  0  0  0  0  0  0  0  0  0  0
    1.9212   -1.1145    0.3808 H   0  0  0  0  0  0  0  0  0  0  0  0
    2.4491   -0.3949   -2.3091 H   0  0  0  0  0  0  0  0  0  0  0  0
    4.4584    0.6764   -0.2388 H   0  0  0  0  0  0  0  0  0  0  0  0
    4.6997    0.6793   -1.9900 H   0  0  0  0  0  0  0  0  0  0  0  0
    3.4193    1.6718   -1.2680 H   0  0  0  0  0  0  0  0  0  0  0  0
    4.3394   -2.1356   -2.3741 N   0  0  0  0  0  0  0  0  0  0  0  0
    5.1019   -3.3560   -2.4974 C   0  0  0  0  0  0  0  0  0  0  0  0
    4.2655   -1.5382   -3.1923 H   0  0  0  0  0  0  0  0  0  0  0  0
    6.1526   -3.1604   -2.2369 H   0  0  0  0  0  0  0  0  0  0  0  0
    4.6906   -4.1156   -1.8164 H   0  0  0  0  0  0  0  0  0  0  0  0
    5.0431   -3.7218   -3.5332 H   0  0  0  0  0  0  0  0  0  0  0  0
  1  3  1  0  0  0  0
  1  7  1  0  0  0  0
  1  2  2  0  0  0  0
 29 30  1  0  0  0  0
 30 38  1  0  0  0  0
 30 31  2  0  0  0  0
  8  9  1  0  0  0  0
  9 17  1  0  0  0  0
  9 10  2  0  0  0  0
 18 19  1  0  0  0  0
 19 28  1  0  0  0  0
 19 20  2  0  0  0  0
 29 32  1  0  0  0  0
  8 11  1  0  0  0  0
 38 39  1  0  0  0  0
 18 21  1  0  0  0  0
 21 22  1  0  0  0  0
 28 29  1  0  0  0  0
  7  8  1  0  0  0  0
 17 18  1  0  0  0  0
  3  4  1  0  0  0  0
  3  5  1  0  0  0  0
  3  6  1  0  0  0  0
 32 35  1  0  0  0  0
 32 36  1  0  0  0  0
 32 37  1  0  0  0  0
 11 14  1  0  0  0  0
 11 15  1  0  0  0  0
 11 16  1  0  0  0  0
 39 41  1  0  0  0  0
 39 42  1  0  0  0  0
 39 43  1  0  0  0  0
 21 25  1  0  0  0  0
 21 26  1  0  0  0  0
 29 34  1  0  0  0  0
  8 13  1  0  0  0  0
 18 24  1  0  0  0  0
 38 40  1  0  0  0  0
  7 12  1  0  0  0  0
 28 33  1  0  0  0  0
 17 23  1  0  0  0  0
 22 27  1  0  0  0  0
M  END
$$$$

  -OEChem-05262214473D

 43 42  0     1  0  0  0  0  0999 V2000
   -2.8661   -4.7415    2.2943 C   0  0  0  0  0  0  0  0  0  0  0  0
   -2.0233   -5.5727    2.6109 O   0  0  0  0  0  0  0  0  0  0  0  0
   -4.3078   -5.0134    2.5698 C   0  0  0  0  0  0  0  0  0  0  0  0
   -4.8057   -5.5295    1.7332 H   0  0  0  0  0  0  0  0  0  0  0  0
   -4.4526   -5.6688    3.4436 H   0  0  0  0  0  0  0  0  0  0  0  0
   -4.9255   -4.1233    2.7700 H   0  0  0  0  0  0  0  0  0  0  0  0
   -2.6241   -3.5219    1.6838 N   0  0  0  0  0  0  0  0  0  0  0  0
   -1.3070   -3.0608    1.3315 C   0  0  2  0  0  0  0  0  0  0  0  0
   -1.3931   -1.5680    1.0422 C   0  0  0  0  0  0  0  0  0  0  0  0
   -2.4385   -1.0059    0.7226 O   0  0  0  0  0  0  0  0  0  0  0  0
   -0.7590   -3.8164    0.1309 C   0  0  0  0  0  0  0  0  0  0  0  0
   -3.4188   -2.9207    1.4735 H   0  0  0  0  0  0  0  0  0  0  0  0
   -0.6690   -3.2277    2.2062 H   0  0  0  0  0  0  0  0  0  0  0  0
   -1.3852   -3.6613   -0.7553 H   0  0  0  0  0  0  0  0  0  0  0  0
    0.2542   -3.4843   -0.1182 H   0  0  0  0  0  0  0  0  0  0  0  0
   -0.7257   -4.8930    0.3300 H   0  0  0  0  0  0  0  0  0  0  0  0
   -0.1563   -0.9420    1.1402 N   0  0  0  0  0  0  0  0  0  0  0  0
    0.0261    0.4671    0.9001 C   0  0  2  0  0  0  0  0  0  0  0  0
    1.0091    0.6488   -0.2546 C   0  0  0  0  0  0  0  0  0  0  0  0
    1.1368    1.7083   -0.8649 O   0  0  0  0  0  0  0  0  0  0  0  0
    0.4302    1.2264    2.1663 C   0  0  0  0  0  0  0  0  0  0  0  0
   -0.8535    1.2323    3.4603 S   0  0  0  0  0  0  0  0  0  0  0  0
    0.6533   -1.4855    1.4300 H   0  0  0  0  0  0  0  0  0  0  0  0
   -0.9505    0.8378    0.5649 H   0  0  0  0  0  0  0  0  0  0  0  0
    1.3342    0.7904    2.6039 H   0  0  0  0  0  0  0  0  0  0  0  0
    0.6526    2.2704    1.9204 H   0  0  0  0  0  0  0  0  0  0  0  0
   -0.1508    1.9529    4.3436 H   0  0  0  0  0  0  0  0  0  0  0  0
    1.7070   -0.5166   -0.5381 N   0  0  0  0  0  0  0  0  0  0  0  0
    2.6870   -0.6001   -1.5957 C   0  0  2  0  0  0  0  0  0  0  0  0
    3.1229   -2.0542   -1.7192 C   0  0  0  0  0  0  0  0  0  0  0  0
    3.0113   -2.8679   -0.8046 O   0  0  0  0  0  0  0  0  0  0  0  0
    3.8788    0.3029   -1.3182 C   0  0  0  0  0  0  0  0  0  0  0  0
    1.5624   -1.3391    0.0400 H   0  0  0  0  0  0  0  0  0  0  0  0
    2.1843   -0.2893   -2.5180 H   0  0  0  0  0  0  0  0  0  0  0  0
    4.3952    0.0069   -0.3978 H   0  0  0  0  0  0  0  0  0  0  0  0
    4.6075    0.2601   -2.1344 H   0  0  0  0  0  0  0  0  0  0  0  0
    3.5597    1.3441   -1.2001 H   0  0  0  0  0  0  0  0  0  0  0  0
    3.6907   -2.3255   -2.9562 N   0  0  0  0  0  0  0  0  0  0  0  0
    4.1943   -3.6312   -3.3134 C   0  0  0  0  0  0  0  0  0  0  0  0
    3.7251   -1.5951   -3.6612 H   0  0  0  0  0  0  0  0  0  0  0  0
    5.2664   -3.6892   -3.0744 H   0  0  0  0  0  0  0  0  0  0  0  0
    3.6503   -4.4014   -2.7470 H   0  0  0  0  0  0  0  0  0  0  0  0
    4.0494   -3.7977   -4.3910 H   0  0  0  0  0  0  0  0  0  0  0  0
  1  3  1  0  0  0  0
  1  7  1  0  0  0  0
  1  2  2  0  0  0  0
 29 30  1  0  0  0  0
 30 38  1  0  0  0  0
 30 31  2  0  0  0  0
  8  9  1  0  0  0  0
  9 17  1  0  0  0  0
  9 10  2  0  0  0  0
 18 19  1  0  0  0  0
 19 28  1  0  0  0  0
 19 20  2  0  0  0  0
 29 32  1  0  0  0  0
  8 11  1  0  0  0  0
 38 39  1  0  0  0  0
 18 21  1  0  0  0  0
 21 22  1  0  0  0  0
 28 29  1  0  0  0  0
  7  8  1  0  0  0  0
 17 18  1  0  0  0  0
  3  4  1  0  0  0  0
  3  5  1  0  0  0  0
  3  6  1  0  0  0  0
 32 35  1  0  0  0  0
 32 36  1  0  0  0  0
 32 37  1  0  0  0  0
 11 14  1  0  0  0  0
 11 15  1  0  0  0  0
 11 16  1  0  0  0  0
 39 41  1  0  0  0  0
 39 42  1  0  0  0  0
 39 43  1  0  0  0  0
 21 25  1  0  0  0  0
 21 26  1  0  0  0  0
 29 34  1  0  0  0  0
  8 13  1  0  0  0  0
 18 24  1  0  0  0  0
 38 40  1  0  0  0  0
  7 12  1  0  0  0  0
 28 33  1  0  0  0  0
 17 23  1  0  0  0  0
 22 27  1  0  0  0  0
M  END
$$$$

  -OEChem-05262214473D

 43 42  0     1  0  0  0  0  0999 V2000
   -2.8661   -4.7415    2.2943 C   0  0  0  0  0  0  0  0  0  0  0  0
   -2.0233   -5.5727    2.6109 O   0  0  0  0  0  0  0  0  0  0  0  0
   -4.3078   -5.0134    2.5698 C   0  0  0  0  0  0  0  0  0  0  0  0
   -4.8057   -5.5295    1.7332 H   0  0  0  0  0  0  0  0  0  0  0  0
   -4.4526   -5.6688    3.4436 H   0  0  0  0  0  0  0  0  0  0  0  0
   -4.9255   -4.1233    2.7700 H   0  0  0  0  0  0  0  0  0  0  0  0
   -2.6241   -3.5219    1.6838 N   0  0  0  0  0  0  0  0  0  0  0  0
   -1.3070   -3.0608    1.3315 C   0  0  2  0  0  0  0  0  0  0  0  0
   -1.3931   -1.5680    1.0422 C   0  0  0  0  0  0  0  0  0  0  0  0
   -2.4385   -1.0059    0.7226 O   0  0  0  0  0  0  0  0  0  0  0  0
   -0.7590   -3.8164    0.1309 C   0  0  0  0  0  0  0  0  0  0  0  0
   -3.4188   -2.9207    1.4735 H   0  0  0  0  0  0  0  0  0  0  0  0
   -0.6690   -3.2277    2.2062 H   0  0  0  0  0  0  0  0  0  0  0  0
   -1.3852   -3.6613   -0.7553 H   0  0  0  0  0  0  0  0  0  0  0  0
    0.2542   -3.4843   -0.1182 H   0  0  0  0  0  0  0  0  0  0  0  0
   -0.7257   -4.8930    0.3300 H   0  0  0  0  0  0  0  0  0  0  0  0
   -0.1563   -0.9420    1.1402 N   0  0  0  0  0  0  0  0  0  0  0  0
    0.0261    0.4671    0.9001 C   0  0  2  0  0  0  0  0  0  0  0  0
    1.0091    0.6488   -0.2546 C   0  0  0  0  0  0  0  0  0  0  0  0
    1.3357    1.7516   -0.6888 O   0  0  0  0  0  0  0  0  0  0  0  0
    0.4302    1.2264    2.1663 C   0  0  0  0  0  0  0  0  0  0  0  0
   -0.8535    1.2323    3.4603 S   0  0  0  0  0  0  0  0  0  0  0  0
    0.6533   -1.4855    1.4300 H   0  0  0  0  0  0  0  0  0  0  0  0
   -0.9505    0.8378    0.5649 H   0  0  0  0  0  0  0  0  0  0  0  0
    1.3342    0.7904    2.6039 H   0  0  0  0  0  0  0  0  0  0  0  0
    0.6526    2.2704    1.9204 H   0  0  0  0  0  0  0  0  0  0  0  0
   -0.1508    1.9529    4.3436 H   0  0  0  0  0  0  0  0  0  0  0  0
    1.4580   -0.5641   -0.7576 N   0  0  0  0  0  0  0  0  0  0  0  0
    2.3868   -0.6546   -1.8598 C   0  0  2  0  0  0  0  0  0  0  0  0
    2.5239   -2.1230   -2.2399 C   0  0  0  0  0  0  0  0  0  0  0  0
    2.2662   -3.0430   -1.4665 O   0  0  0  0  0  0  0  0  0  0  0  0
    3.7378   -0.0591   -1.4952 C   0  0  0  0  0  0  0  0  0  0  0  0
    1.1614   -1.4292   -0.3155 H   0  0  0  0  0  0  0  0  0  0  0  0
    1.9426   -0.1007   -2.6940 H   0  0  0  0  0  0  0  0  0  0  0  0
    4.1983   -0.6010   -0.6611 H   0  0  0  0  0  0  0  0  0  0  0  0
    4.4319   -0.1026   -2.3410 H   0  0  0  0  0  0  0  0  0  0  0  0
    3.6332    0.9887   -1.1934 H   0  0  0  0  0  0  0  0  0  0  0  0
    3.0091   -2.2850   -3.5301 N   0  0  0  0  0  0  0  0  0  0  0  0
    3.2386   -3.5835   -4.1194 C   0  0  0  0  0  0  0  0  0  0  0  0
    3.1776   -1.4662   -4.1071 H   0  0  0  0  0  0  0  0  0  0  0  0
    4.2812   -3.8871   -3.9442 H   0  0  0  0  0  0  0  0  0  0  0  0
    2.5608   -4.3188   -3.6615 H   0  0  0  0  0  0  0  0  0  0  0  0
    3.0483   -3.5336   -5.2017 H   0  0  0  0  0  0  0  0  0  0  0  0
  1  3  1  0  0  0  0
  1  7  1  0  0  0  0
  1  2  2  0  0  0  0
 29 30  1  0  0  0  0
 30 38  1  0  0  0  0
 30 31  2  0  0  0  0
  8  9  1  0  0  0  0
  9 17  1  0  0  0  0
  9 10  2  0  0  0  0
 18 19  1  0  0  0  0
 19 28  1  0  0  0  0
 19 20  2  0  0  0  0
 29 32  1  0  0  0  0
  8 11  1  0  0  0  0
 38 39  1  0  0  0  0
 18 21  1  0  0  0  0
 21 22  1  0  0  0  0
 28 29  1  0  0  0  0
  7  8  1  0  0  0  0
 17 18  1  0  0  0  0
  3  4  1  0  0  0  0
  3  5  1  0  0  0  0
  3  6  1  0  0  0  0
 32 35  1  0  0  0  0
 32 36  1  0  0  0  0
 32 37  1  0  0  0  0
 11 14  1  0  0  0  0
 11 15  1  0  0  0  0
 11 16  1  0  0  0  0
 39 41  1  0  0  0  0
 39 42  1  0  0  0  0
 39 43  1  0  0  0  0
 21 25  1  0  0  0  0
 21 26  1  0  0  0  0
 29 34  1  0  0  0  0
  8 13  1  0  0  0  0
 18 24  1  0  0  0  0
 38 40  1  0  0  0  0
  7 12  1  0  0  0  0
 28 33  1  0  0  0  0
 17 23  1  0  0  0  0
 22 27  1  0  0  0  0
M  END
$$$$

  -OEChem-05262214473D

 43 42  0     1  0  0  0  0  0999 V2000
   -2.8661   -4.7415    2.2943 C   0  0  0  0  0  0  0  0  0  0  0  0
   -2.0233   -5.5727    2.6109 O   0  0  0  0  0  0  0  0  0  0  0  0
   -4.3078   -5.0134    2.5698 C   0  0  0  0  0  0  0  0  0  0  0  0
   -4.8057   -5.5295    1.7332 H   0  0  0  0  0  0  0  0  0  0  0  0
   -4.4526   -5.6688    3.4436 H   0  0  0  0  0  0  0  0  0  0  0  0
   -4.9255   -4.1233    2.7700 H   0  0  0  0  0  0  0  0  0  0  0  0
   -2.6241   -3.5219    1.6838 N   0  0  0  0  0  0  0  0  0  0  0  0
   -1.3070   -3.0608    1.3315 C   0  0  2  0  0  0  0  0  0  0  0  0
   -1.3931   -1.5680    1.0422 C   0  0  0  0  0  0  0  0  0  0  0  0
   -2.4385   -1.0059    0.7226 O   0  0  0  0  0  0  0  0  0  0  0  0
   -0.7590   -3.8164    0.1309 C   0  0  0  0  0  0  0  0  0  0  0  0
   -3.4188   -2.9207    1.4735 H   0  0  0  0  0  0  0  0  0  0  0  0
   -0.6690   -3.2277    2.2062 H   0  0  0  0  0  0  0  0  0  0  0  0
   -1.3852   -3.6613   -0.7553 H   0  0  0  0  0  0  0  0  0  0  0  0
    0.2542   -3.4843   -0.1182 H   0  0  0  0  0  0  0  0  0  0  0  0
   -0.7257   -4.8930    0.3300 H   0  0  0  0  0  0  0  0  0  0  0  0
   -0.1563   -0.9420    1.1402 N   0  0  0  0  0  0  0  0  0  0  0  0
    0.0261    0.4671    0.9001 C   0  0  2  0  0  0  0  0  0  0  0  0
    1.0091    0.6488   -0.2546 C   0  0  0  0  0  0  0  0  0  0  0  0
    1.5417    1.7252   -0.5176 O   0  0  0  0  0  0  0  0  0  0  0  0
    0.4302    1.2264    2.1663 C   0  0  0  0  0  0  0  0  0  0  0  0
   -0.8535    1.2323    3.4603 S   0  0  0  0  0  0  0  0  0  0  0  0
    0.6533   -1.4855    1.4300 H   0  0  0  0  0  0  0  0  0  0  0  0
   -0.9505    0.8378    0.5649 H   0  0  0  0  0  0  0  0  0  0  0  0
    1.3342    0.7904    2.6039 H   0  0  0  0  0  0  0  0  0  0  0  0
    0.6526    2.2704    1.9204 H   0  0  0  0  0  0  0  0  0  0  0  0
   -0.1508    1.9529    4.3436 H   0  0  0  0  0  0  0  0  0  0  0  0
    1.2014   -0.5247   -0.9698 N   0  0  0  0  0  0  0  0  0  0  0  0
    2.0781   -0.6045   -2.1147 C   0  0  2  0  0  0  0  0  0  0  0  0
    1.9159   -1.9856   -2.7359 C   0  0  0  0  0  0  0  0  0  0  0  0
    1.4919   -2.9561   -2.1120 O   0  0  0  0  0  0  0  0  0  0  0  0
    3.5254   -0.3517   -1.7221 C   0  0  0  0  0  0  0  0  0  0  0  0
    0.7454   -1.3784   -0.6616 H   0  0  0  0  0  0  0  0  0  0  0  0
    1.7407    0.1580   -2.8252 H   0  0  0  0  0  0  0  0  0  0  0  0
    3.8811   -1.1059   -1.0106 H   0  0  0  0  0  0  0  0  0  0  0  0
    4.1850   -0.3843   -2.5955 H   0  0  0  0  0  0  0  0  0  0  0  0
    3.6349    0.6299   -1.2484 H   0  0  0  0  0  0  0  0  0  0  0  0
    2.3409   -2.0169   -4.0567 N   0  0  0  0  0  0  0  0  0  0  0  0
    2.3000   -3.2161   -4.8607 C   0  0  0  0  0  0  0  0  0  0  0  0
    2.6602   -1.1602   -4.4994 H   0  0  0  0  0  0  0  0  0  0  0  0
    3.2641   -3.7406   -4.7870 H   0  0  0  0  0  0  0  0  0  0  0  0
    1.4964   -3.8736   -4.4975 H   0  0  0  0  0  0  0  0  0  0  0  0
    2.1080   -2.9476   -5.9100 H   0  0  0  0  0  0  0  0  0  0  0  0
  1  3  1  0  0  0  0
  1  7  1  0  0  0  0
  1  2  2  0  0  0  0
 29 30  1  0  0  0  0
 30 38  1  0  0  0  0
 30 31  2  0  0  0  0
  8  9  1  0  0  0  0
  9 17  1  0  0  0  0
  9 10  2  0  0  0  0
 18 19  1  0  0  0  0
 19 28  1  0  0  0  0
 19 20  2  0  0  0  0
 29 32  1  0  0  0  0
  8 11  1  0  0  0  0
 38 39  1  0  0  0  0
 18 21  1  0  0  0  0
 21 22  1  0  0  0  0
 28 29  1  0  0  0  0
  7  8  1  0  0  0  0
 17 18  1  0  0  0  0
  3  4  1  0  0  0  0
  3  5  1  0  0  0  0
  3  6  1  0  0  0  0
 32 35  1  0  0  0  0
 32 36  1  0  0  0  0
 32 37  1  0  0  0  0
 11 14  1  0  0  0  0
 11 15  1  0  0  0  0
 11 16  1  0  0  0  0
 39 41  1  0  0  0  0
 39 42  1  0  0  0  0
 39 43  1  0  0  0  0
 21 25  1  0  0  0  0
 21 26  1  0  0  0  0
 29 34  1  0  0  0  0
  8 13  1  0  0  0  0
 18 24  1  0  0  0  0
 38 40  1  0  0  0  0
  7 12  1  0  0  0  0
 28 33  1  0  0  0  0
 17 23  1  0  0  0  0
 22 27  1  0  0  0  0
M  END
$$$$

  -OEChem-05262214473D

 43 42  0     1  0  0  0  0  0999 V2000
   -2.8661   -4.7415    2.2943 C   0  0  0  0  0  0  0  0  0  0  0  0
   -2.0233   -5.5727    2.6109 O   0  0  0  0  0  0  0  0  0  0  0  0
   -4.3078   -5.0134    2.5698 C   0  0  0  0  0  0  0  0  0  0  0  0
   -4.8057   -5.5295    1.7332 H   0  0  0  0  0  0  0  0  0  0  0  0
   -4.4526   -5.6688    3.4436 H   0  0  0  0  0  0  0  0  0  0  0  0
   -4.9255   -4.1233    2.7700 H   0  0  0  0  0  0  0  0  0  0  0  0
   -2.6241   -3.5219    1.6838 N   0  0  0  0  0  0  0  0  0  0  0  0
   -1.3070   -3.0608    1.3315 C   0  0  2  0  0  0  0  0  0  0  0  0
   -1.3931   -1.5680    1.0422 C   0  0  0  0  0  0  0  0  0  0  0  0
   -2.4385   -1.0059    0.7226 O   0  0  0  0  0  0  0  0  0  0  0  0
   -0.7590   -3.8164    0.1309 C   0  0  0  0  0  0  0  0  0  0  0  0
   -3.4188   -2.9207    1.4735 H   0  0  0  0  0  0  0  0  0  0  0  0
   -0.6690   -3.2277    2.2062 H   0  0  0  0  0  0  0  0  0  0  0  0
   -1.3852   -3.6613   -0.7553 H   0  0  0  0  0  0  0  0  0  0  0  0
    0.2542   -3.4843   -0.1182 H   0  0  0  0  0  0  0  0  0  0  0  0
   -0.7257   -4.8930    0.3300 H   0  0  0  0  0  0  0  0  0  0  0  0
   -0.1563   -0.9420    1.1402 N   0  0  0  0  0  0  0  0  0  0  0  0
    0.0261    0.4671    0.9001 C   0  0  2  0  0  0  0  0  0  0  0  0
    1.0091    0.6488   -0.2546 C   0  0  0  0  0  0  0  0  0  0  0  0
    1.7408    1.6308   -0.3630 O   0  0  0  0  0  0  0  0  0  0  0  0
    0.4302    1.2264    2.1663 C   0  0  0  0  0  0  0  0  0  0  0  0
   -0.8535    1.2323    3.4603 S   0  0  0  0  0  0  0  0  0  0  0  0
    0.6533   -1.4855    1.4300 H   0  0  0  0  0  0  0  0  0  0  0  0
   -0.9505    0.8378    0.5649 H   0  0  0  0  0  0  0  0  0  0  0  0
    1.3342    0.7904    2.6039 H   0  0  0  0  0  0  0  0  0  0  0  0
    0.6526    2.2704    1.9204 H   0  0  0  0  0  0  0  0  0  0  0  0
   -0.1508    1.9529    4.3436 H   0  0  0  0  0  0  0  0  0  0  0  0
    0.9547   -0.4011   -1.1604 N   0  0  0  0  0  0  0  0  0  0  0  0
    1.7818   -0.4533   -2.3431 C   0  0  2  0  0  0  0  0  0  0  0  0
    1.3402   -1.6512   -3.1734 C   0  0  0  0  0  0  0  0  0  0  0  0
    0.7411   -2.6132   -2.6972 O   0  0  0  0  0  0  0  0  0  0  0  0
    3.2559   -0.5550   -1.9834 C   0  0  0  0  0  0  0  0  0  0  0  0
    0.3429   -1.1904   -0.9747 H   0  0  0  0  0  0  0  0  0  0  0  0
    1.5923    0.4693   -2.9025 H   0  0  0  0  0  0  0  0  0  0  0  0
    3.4651   -1.4732   -1.4225 H   0  0  0  0  0  0  0  0  0  0  0  0
    3.8835   -0.5656   -2.8807 H   0  0  0  0  0  0  0  0  0  0  0  0
    3.5646    0.2921   -1.3614 H   0  0  0  0  0  0  0  0  0  0  0  0
    1.7317   -1.5395   -4.5002 N   0  0  0  0  0  0  0  0  0  0  0  0
    1.4425   -2.5541   -5.4865 C   0  0  0  0  0  0  0  0  0  0  0  0
    2.2083   -0.6982   -4.8114 H   0  0  0  0  0  0  0  0  0  0  0  0
    2.2844   -3.2596   -5.5454 H   0  0  0  0  0  0  0  0  0  0  0  0
    0.5297   -3.0960   -5.1981 H   0  0  0  0  0  0  0  0  0  0  0  0
    1.2927   -2.0795   -6.4675 H   0  0  0  0  0  0  0  0  0  0  0  0
  1  3  1  0  0  0  0
  1  7  1  0  0  0  0
  1  2  2  0  0  0  0
 29 30  1  0  0  0  0
 30 38  1  0  0  0  0
 30 31  2  0  0  0  0
  8  9  1  0  0  0  0
  9 17  1  0  0  0  0
  9 10  2  0  0  0  0
 18 19  1  0  0  0  0
 19 28  1  0  0  0  0
 19 20  2  0  0  0  0
 29 32  1  0  0  0  0
  8 11  1  0  0  0  0
 38 39  1  0  0  0  0
 18 21  1  0  0  0  0
 21 22  1  0  0  0  0
 28 29  1  0  0  0  0
  7  8  1  0  0  0  0
 17 18  1  0  0  0  0
  3  4  1  0  0  0  0
  3  5  1  0  0  0  0
  3  6  1  0  0  0  0
 32 35  1  0  0  0  0
 32 36  1  0  0  0  0
 32 37  1  0  0  0  0
 11 14  1  0  0  0  0
 11 15  1  0  0  0  0
 11 16  1  0  0  0  0
 39 41  1  0  0  0  0
 39 42  1  0  0  0  0
 39 43  1  0  0  0  0
 21 25  1  0  0  0  0
 21 26  1  0  0  0  0
 29 34  1  0  0  0  0
  8 13  1  0  0  0  0
 18 24  1  0  0  0  0
 38 40  1  0  0  0  0
  7 12  1  0  0  0  0
 28 33  1  0  0  0  0
 17 23  1  0  0  0  0
 22 27  1  0  0  0  0
M  END
$$$$

  -OEChem-05262214473D

 43 42  0     1  0  0  0  0  0999 V2000
   -2.8661   -4.7415    2.2943 C   0  0  0  0  0  0  0  0  0  0  0  0
   -2.0233   -5.5727    2.6109 O   0  0  0  0  0  0  0  0  0  0  0  0
   -4.3078   -5.0134    2.5698 C   0  0  0  0  0  0  0  0  0  0  0  0
   -4.8057   -5.5295    1.7332 H   0  0  0  0  0  0  0  0  0  0  0  0
   -4.4526   -5.6688    3.4436 H   0  0  0  0  0  0  0  0  0  0  0  0
   -4.9255   -4.1233    2.7700 H   0  0  0  0  0  0  0  0  0  0  0  0
   -2.6241   -3.5219    1.6838 N   0  0  0  0  0  0  0  0  0  0  0  0
   -1.3070   -3.0608    1.3315 C   0  0  2  0  0  0  0  0  0  0  0  0
   -1.3931   -1.5680    1.0422 C   0  0  0  0  0  0  0  0  0  0  0  0
   -2.4385   -1.0059    0.7226 O   0  0  0  0  0  0  0  0  0  0  0  0
   -0.7590   -3.8164    0.1309 C   0  0  0  0  0  0  0  0  0  0  0  0
   -3.4188   -2.9207    1.4735 H   0  0  0  0  0  0  0  0  0  0  0  0
   -0.6690   -3.2277    2.2062 H   0  0  0  0  0  0  0  0  0  0  0  0
   -1.3852   -3.6613   -0.7553 H   0  0  0  0  0  0  0  0  0  0  0  0
    0.2542   -3.4843   -0.1182 H   0  0  0  0  0  0  0  0  0  0  0  0
   -0.7257   -4.8930    0.3300 H   0  0  0  0  0  0  0  0  0  0  0  0
   -0.1563   -0.9420    1.1402 N   0  0  0  0  0  0  0  0  0  0  0  0
    0.0261    0.4671    0.9001 C   0  0  2  0  0  0  0  0  0  0  0  0
    1.0091    0.6488   -0.2546 C   0  0  0  0  0  0  0  0  0  0  0  0
    1.9194    1.4749   -0.2355 O   0  0  0  0  0  0  0  0  0  0  0  0
    0.4302    1.2264    2.1663 C   0  0  0  0  0  0  0  0  0  0  0  0
   -0.8535    1.2323    3.4603 S   0  0  0  0  0  0  0  0  0  0  0  0
    0.6533   -1.4855    1.4300 H   0  0  0  0  0  0  0  0  0  0  0  0
   -0.9505    0.8378    0.5649 H   0  0  0  0  0  0  0  0  0  0  0  0
    1.3342    0.7904    2.6039 H   0  0  0  0  0  0  0  0  0  0  0  0
    0.6526    2.2704    1.9204 H   0  0  0  0  0  0  0  0  0  0  0  0
   -0.1508    1.9529    4.3436 H   0  0  0  0  0  0  0  0  0  0  0  0
    0.7347   -0.2016   -1.3162 N   0  0  0  0  0  0  0  0  0  0  0  0
    1.5182   -0.2111   -2.5294 C   0  0  2  0  0  0  0  0  0  0  0  0
    0.8361   -1.1427   -3.5226 C   0  0  0  0  0  0  0  0  0  0  0  0
    0.0649   -2.0375   -3.1822 O   0  0  0  0  0  0  0  0  0  0  0  0
    2.9478   -0.6551   -2.2614 C   0  0  0  0  0  0  0  0  0  0  0  0
   -0.0187   -0.8778   -1.2333 H   0  0  0  0  0  0  0  0  0  0  0  0
    1.5075    0.8120   -2.9208 H   0  0  0  0  0  0  0  0  0  0  0  0
    2.9787   -1.6779   -1.8687 H   0  0  0  0  0  0  0  0  0  0  0  0
    3.5480   -0.6343   -3.1771 H   0  0  0  0  0  0  0  0  0  0  0  0
    3.4272   -0.0015   -1.5246 H   0  0  0  0  0  0  0  0  0  0  0  0
    1.2231   -0.8853   -4.8303 N   0  0  0  0  0  0  0  0  0  0  0  0
    0.7244   -1.6426   -5.9544 C   0  0  0  0  0  0  0  0  0  0  0  0
    1.8525   -0.1114   -5.0219 H   0  0  0  0  0  0  0  0  0  0  0  0
    1.4088   -2.4770   -6.1676 H   0  0  0  0  0  0  0  0  0  0  0  0
   -0.2735   -2.0390   -5.7156 H   0  0  0  0  0  0  0  0  0  0  0  0
    0.6578   -0.9886   -6.8364 H   0  0  0  0  0  0  0  0  0  0  0  0
  1  3  1  0  0  0  0
  1  7  1  0  0  0  0
  1  2  2  0  0  0  0
 29 30  1  0  0  0  0
 30 38  1  0  0  0  0
 30 31  2  0  0  0  0
  8  9  1  0  0  0  0
  9 17  1  0  0  0  0
  9 10  2  0  0  0  0
 18 19  1  0  0  0  0
 19 28  1  0  0  0  0
 19 20  2  0  0  0  0
 29 32  1  0  0  0  0
  8 11  1  0  0  0  0
 38 39  1  0  0  0  0
 18 21  1  0  0  0  0
 21 22  1  0  0  0  0
 28 29  1  0  0  0  0
  7  8  1  0  0  0  0
 17 18  1  0  0  0  0
  3  4  1  0  0  0  0
  3  5  1  0  0  0  0
  3  6  1  0  0  0  0
 32 35  1  0  0  0  0
 32 36  1  0  0  0  0
 32 37  1  0  0  0  0
 11 14  1  0  0  0  0
 11 15  1  0  0  0  0
 11 16  1  0  0  0  0
 39 41  1  0  0  0  0
 39 42  1  0  0  0  0
 39 43  1  0  0  0  0
 21 25  1  0  0  0  0
 21 26  1  0  0  0  0
 29 34  1  0  0  0  0
  8 13  1  0  0  0  0
 18 24  1  0  0  0  0
 38 40  1  0  0  0  0
  7 12  1  0  0  0  0
 28 33  1  0  0  0  0
 17 23  1  0  0  0  0
 22 27  1  0  0  0  0
M  END
$$$$

  -OEChem-05262214473D

 43 42  0     1  0  0  0  0  0999 V2000
   -2.8661   -4.7415    2.2943 C   0  0  0  0  0  0  0  0  0  0  0  0
   -2.0233   -5.5727    2.6109 O   0  0  0  0  0  0  0  0  0  0  0  0
   -4.3078   -5.0134    2.5698 C   0  0  0  0  0  0  0  0  0  0  0  0
   -4.8057   -5.5295    1.7332 H   0  0  0  0  0  0  0  0  0  0  0  0
   -4.4526   -5.6688    3.4436 H   0  0  0  0  0  0  0  0  0  0  0  0
   -4.9255   -4.1233    2.7700 H   0  0  0  0  0  0  0  0  0  0  0  0
   -2.6241   -3.5219    1.6838 N   0  0  0  0  0  0  0  0  0  0  0  0
   -1.3070   -3.0608    1.3315 C   0  0  2  0  0  0  0  0  0  0  0  0
   -1.3931   -1.5680    1.0422 C   0  0  0  0  0  0  0  0  0  0  0  0
   -2.4385   -1.0059    0.7226 O   0  0  0  0  0  0  0  0  0  0  0  0
   -0.7590   -3.8164    0.1309 C   0  0  0  0  0  0  0  0  0  0  0  0
   -3.4188   -2.9207    1.4735 H   0  0  0  0  0  0  0  0  0  0  0  0
   -0.6690   -3.2277    2.2062 H   0  0  0  0  0  0  0  0  0  0  0  0
   -1.3852   -3.6613   -0.7553 H   0  0  0  0  0  0  0  0  0  0  0  0
    0.2542   -3.4843   -0.1182 H   0  0  0  0  0  0  0  0  0  0  0  0
   -0.7257   -4.8930    0.3300 H   0  0  0  0  0  0  0  0  0  0  0  0
   -0.1563   -0.9420    1.1402 N   0  0  0  0  0  0  0  0  0  0  0  0
    0.0261    0.4671    0.9001 C   0  0  2  0  0  0  0  0  0  0  0  0
    1.0091    0.6488   -0.2546 C   0  0  0  0  0  0  0  0  0  0  0  0
    2.0653    1.2682   -0.1438 O   0  0  0  0  0  0  0  0  0  0  0  0
    0.4302    1.2264    2.1663 C   0  0  0  0  0  0  0  0  0  0  0  0
   -0.8535    1.2323    3.4603 S   0  0  0  0  0  0  0  0  0  0  0  0
    0.6533   -1.4855    1.4300 H   0  0  0  0  0  0  0  0  0  0  0  0
   -0.9505    0.8378    0.5649 H   0  0  0  0  0  0  0  0  0  0  0  0
    1.3342    0.7904    2.6039 H   0  0  0  0  0  0  0  0  0  0  0  0
    0.6526    2.2704    1.9204 H   0  0  0  0  0  0  0  0  0  0  0  0
   -0.1508    1.9529    4.3436 H   0  0  0  0  0  0  0  0  0  0  0  0
    0.5565    0.0600   -1.4268 N   0  0  0  0  0  0  0  0  0  0  0  0
    1.3052    0.1054   -2.6610 C   0  0  2  0  0  0  0  0  0  0  0  0
    0.4379   -0.4947   -3.7596 C   0  0  0  0  0  0  0  0  0  0  0  0
   -0.4905   -1.2683   -3.5340 O   0  0  0  0  0  0  0  0  0  0  0  0
    2.6221   -0.6451   -2.5371 C   0  0  0  0  0  0  0  0  0  0  0  0
   -0.3148   -0.4620   -1.4200 H   0  0  0  0  0  0  0  0  0  0  0  0
    1.4920    1.1626   -2.8788 H   0  0  0  0  0  0  0  0  0  0  0  0
    2.4551   -1.7062   -2.3189 H   0  0  0  0  0  0  0  0  0  0  0  0
    3.2014   -0.5856   -3.4644 H   0  0  0  0  0  0  0  0  0  0  0  0
    3.2319   -0.2311   -1.7269 H   0  0  0  0  0  0  0  0  0  0  0  0
    0.8497   -0.0988   -5.0244 N   0  0  0  0  0  0  0  0  0  0  0  0
    0.1948   -0.5437   -6.2324 C   0  0  0  0  0  0  0  0  0  0  0  0
    1.6173    0.5600   -5.1166 H   0  0  0  0  0  0  0  0  0  0  0  0
    0.6970   -1.4460   -6.6114 H   0  0  0  0  0  0  0  0  0  0  0  0
   -0.8584   -0.7746   -6.0146 H   0  0  0  0  0  0  0  0  0  0  0  0
    0.2466    0.2508   -6.9914 H   0  0  0  0  0  0  0  0  0  0  0  0
  1  3  1  0  0  0  0
  1  7  1  0  0  0  0
  1  2  2  0  0  0  0
 29 30  1  0  0  0  0
 30 38  1  0  0  0  0
 30 31  2  0  0  0  0
  8  9  1  0  0  0  0
  9 17  1  0  0  0  0
  9 10  2  0  0  0  0
 18 19  1  0  0  0  0
 19 28  1  0  0  0  0
 19 20  2  0  0  0  0
 29 32  1  0  0  0  0
  8 11  1  0  0  0  0
 38 39  1  0  0  0  0
 18 21  1  0  0  0  0
 21 22  1  0  0  0  0
 28 29  1  0  0  0  0
  7  8  1  0  0  0  0
 17 18  1  0  0  0  0
  3  4  1  0  0  0  0
  3  5  1  0  0  0  0
  3  6  1  0  0  0  0
 32 35  1  0  0  0  0
 32 36  1  0  0  0  0
 32 37  1  0  0  0  0
 11 14  1  0  0  0  0
 11 15  1  0  0  0  0
 11 16  1  0  0  0  0
 39 41  1  0  0  0  0
 39 42  1  0  0  0  0
 39 43  1  0  0  0  0
 21 25  1  0  0  0  0
 21 26  1  0  0  0  0
 29 34  1  0  0  0  0
  8 13  1  0  0  0  0
 18 24  1  0  0  0  0
 38 40  1  0  0  0  0
  7 12  1  0  0  0  0
 28 33  1  0  0  0  0
 17 23  1  0  0  0  0
 22 27  1  0  0  0  0
M  END
$$$$

  -OEChem-05262214473D

 43 42  0     1  0  0  0  0  0999 V2000
   -2.8661   -4.7415    2.2943 C   0  0  0  0  0  0  0  0  0  0  0  0
   -2.0233   -5.5727    2.6109 O   0  0  0  0  0  0  0  0  0  0  0  0
   -4.3078   -5.0134    2.5698 C   0  0  0  0  0  0  0  0  0  0  0  0
   -4.8057   -5.5295    1.7332 H   0  0  0  0  0  0  0  0  0  0  0  0
   -4.4526   -5.6688    3.4436 H   0  0  0  0  0  0  0  0  0  0  0  0
   -4.9255   -4.1233    2.7700 H   0  0  0  0  0  0  0  0  0  0  0  0
   -2.6241   -3.5219    1.6838 N   0  0  0  0  0  0  0  0  0  0  0  0
   -1.3070   -3.0608    1.3315 C   0  0  2  0  0  0  0  0  0  0  0  0
   -1.3931   -1.5680    1.0422 C   0  0  0  0  0  0  0  0  0  0  0  0
   -2.4385   -1.0059    0.7226 O   0  0  0  0  0  0  0  0  0  0  0  0
   -0.7590   -3.8164    0.1309 C   0  0  0  0  0  0  0  0  0  0  0  0
   -3.4188   -2.9207    1.4735 H   0  0  0  0  0  0  0  0  0  0  0  0
   -0.6690   -3.2277    2.2062 H   0  0  0  0  0  0  0  0  0  0  0  0
   -1.3852   -3.6613   -0.7553 H   0  0  0  0  0  0  0  0  0  0  0  0
    0.2542   -3.4843   -0.1182 H   0  0  0  0  0  0  0  0  0  0  0  0
   -0.7257   -4.8930    0.3300 H   0  0  0  0  0  0  0  0  0  0  0  0
   -0.1563   -0.9420    1.1402 N   0  0  0  0  0  0  0  0  0  0  0  0
    0.0261    0.4671    0.9001 C   0  0  2  0  0  0  0  0  0  0  0  0
    1.0091    0.6488   -0.2546 C   0  0  0  0  0  0  0  0  0  0  0  0
    2.1686    1.0247   -0.0941 O   0  0  0  0  0  0  0  0  0  0  0  0
    0.4302    1.2264    2.1663 C   0  0  0  0  0  0  0  0  0  0  0  0
   -0.8535    1.2323    3.4603 S   0  0  0  0  0  0  0  0  0  0  0  0
    0.6533   -1.4855    1.4300 H   0  0  0  0  0  0  0  0  0  0  0  0
   -0.9505    0.8378    0.5649 H   0  0  0  0  0  0  0  0  0  0  0  0
    1.3342    0.7904    2.6039 H   0  0  0  0  0  0  0  0  0  0  0  0
    0.6526    2.2704    1.9204 H   0  0  0  0  0  0  0  0  0  0  0  0
   -0.1508    1.9529    4.3436 H   0  0  0  0  0  0  0  0  0  0  0  0
    0.4321    0.3660   -1.4845 N   0  0  0  0  0  0  0  0  0  0  0  0
    1.1574    0.4747   -2.7287 C   0  0  2  0  0  0  0  0  0  0  0  0
    0.1728    0.2486   -3.8684 C   0  0  0  0  0  0  0  0  0  0  0  0
   -0.8872   -0.3580   -3.7286 O   0  0  0  0  0  0  0  0  0  0  0  0
    2.3009   -0.5259   -2.7918 C   0  0  0  0  0  0  0  0  0  0  0  0
   -0.5252    0.0286   -1.5219 H   0  0  0  0  0  0  0  0  0  0  0  0
    1.5470    1.4973   -2.7794 H   0  0  0  0  0  0  0  0  0  0  0  0
    1.9300   -1.5561   -2.7423 H   0  0  0  0  0  0  0  0  0  0  0  0
    2.8673   -0.4229   -3.7233 H   0  0  0  0  0  0  0  0  0  0  0  0
    2.9922   -0.3810   -1.9546 H   0  0  0  0  0  0  0  0  0  0  0  0
    0.6369    0.7663   -5.0695 N   0  0  0  0  0  0  0  0  0  0  0  0
   -0.1103    0.6676   -6.3016 C   0  0  0  0  0  0  0  0  0  0  0  0
    1.5185    1.2704   -5.0889 H   0  0  0  0  0  0  0  0  0  0  0  0
    0.1976   -0.2370   -6.8463 H   0  0  0  0  0  0  0  0  0  0  0  0
   -1.1852    0.6109   -6.0748 H   0  0  0  0  0  0  0  0  0  0  0  0
    0.0873    1.5542   -6.9220 H   0  0  0  0  0  0  0  0  0  0  0  0
  1  3  1  0  0  0  0
  1  7  1  0  0  0  0
  1  2  2  0  0  0  0
 29 30  1  0  0  0  0
 30 38  1  0  0  0  0
 30 31  2  0  0  0  0
  8  9  1  0  0  0  0
  9 17  1  0  0  0  0
  9 10  2  0  0  0  0
 18 19  1  0  0  0  0
 19 28  1  0  0  0  0
 19 20  2  0  0  0  0
 29 32  1  0  0  0  0
  8 11  1  0  0  0  0
 38 39  1  0  0  0  0
 18 21  1  0  0  0  0
 21 22  1  0  0  0  0
 28 29  1  0  0  0  0
  7  8  1  0  0  0  0
 17 18  1  0  0  0  0
  3  4  1  0  0  0  0
  3  5  1  0  0  0  0
  3  6  1  0  0  0  0
 32 35  1  0  0  0  0
 32 36  1  0  0  0  0
 32 37  1  0  0  0  0
 11 14  1  0  0  0  0
 11 15  1  0  0  0  0
 11 16  1  0  0  0  0
 39 41  1  0  0  0  0
 39 42  1  0  0  0  0
 39 43  1  0  0  0  0
 21 25  1  0  0  0  0
 21 26  1  0  0  0  0
 29 34  1  0  0  0  0
  8 13  1  0  0  0  0
 18 24  1  0  0  0  0
 38 40  1  0  0  0  0
  7 12  1  0  0  0  0
 28 33  1  0  0  0  0
 17 23  1  0  0  0  0
 22 27  1  0  0  0  0
M  END
$$$$

  -OEChem-05262214473D

 43 42  0     1  0  0  0  0  0999 V2000
   -2.8661   -4.7415    2.2943 C   0  0  0  0  0  0  0  0  0  0  0  0
   -2.0233   -5.5727    2.6109 O   0  0  0  0  0  0  0  0  0  0  0  0
   -4.3078   -5.0134    2.5698 C   0  0  0  0  0  0  0  0  0  0  0  0
   -4.8057   -5.5295    1.7332 H   0  0  0  0  0  0  0  0  0  0  0  0
   -4.4526   -5.6688    3.4436 H   0  0  0  0  0  0  0  0  0  0  0  0
   -4.9255   -4.1233    2.7700 H   0  0  0  0  0  0  0  0  0  0  0  0
   -2.6241   -3.5219    1.6838 N   0  0  0  0  0  0  0  0  0  0  0  0
   -1.3070   -3.0608    1.3315 C   0  0  2  0  0  0  0  0  0  0  0  0
   -1.3931   -1.5680    1.0422 C   0  0  0  0  0  0  0  0  0  0  0  0
   -2.4385   -1.0059    0.7226 O   0  0  0  0  0  0  0  0  0  0  0  0
   -0.7590   -3.8164    0.1309 C   0  0  0  0  0  0  0  0  0  0  0  0
   -3.4188   -2.9207    1.4735 H   0  0  0  0  0  0  0  0  0  0  0  0
   -0.6690   -3.2277    2.2062 H   0  0  0  0  0  0  0  0  0  0  0  0
   -1.3852   -3.6613   -0.7553 H   0  0  0  0  0  0  0  0  0  0  0  0
    0.2542   -3.4843   -0.1182 H   0  0  0  0  0  0  0  0  0  0  0  0
   -0.7257   -4.8930    0.3300 H   0  0  0  0  0  0  0  0  0  0  0  0
   -0.1563   -0.9420    1.1402 N   0  0  0  0  0  0  0  0  0  0  0  0
    0.0261    0.4671    0.9001 C   0  0  2  0  0  0  0  0  0  0  0  0
    1.0091    0.6488   -0.2546 C   0  0  0  0  0  0  0  0  0  0  0  0
    2.2223    0.7610   -0.0899 O   0  0  0  0  0  0  0  0  0  0  0  0
    0.4302    1.2264    2.1663 C   0  0  0  0  0  0  0  0  0  0  0  0
   -0.8535    1.2323    3.4603 S   0  0  0  0  0  0  0  0  0  0  0  0
    0.6533   -1.4855    1.4300 H   0  0  0  0  0  0  0  0  0  0  0  0
   -0.9505    0.8378    0.5649 H   0  0  0  0  0  0  0  0  0  0  0  0
    1.3342    0.7904    2.6039 H   0  0  0  0  0  0  0  0  0  0  0  0
    0.6526    2.2704    1.9204 H   0  0  0  0  0  0  0  0  0  0  0  0
   -0.1508    1.9529    4.3436 H   0  0  0  0  0  0  0  0  0  0  0  0
    0.3701    0.6956   -1.4855 N   0  0  0  0  0  0  0  0  0  0  0  0
    1.0848    0.8716   -2.7281 C   0  0  2  0  0  0  0  0  0  0  0  0
    0.0588    1.0365   -3.8414 C   0  0  0  0  0  0  0  0  0  0  0  0
   -1.0984    0.6313   -3.7527 O   0  0  0  0  0  0  0  0  0  0  0  0
    2.0062   -0.3054   -3.0080 C   0  0  0  0  0  0  0  0  0  0  0  0
   -0.6355    0.5606   -1.5322 H   0  0  0  0  0  0  0  0  0  0  0  0
    1.6687    1.7932   -2.6293 H   0  0  0  0  0  0  0  0  0  0  0  0
    1.4391   -1.2378   -3.1101 H   0  0  0  0  0  0  0  0  0  0  0  0
    2.5684   -0.1572   -3.9359 H   0  0  0  0  0  0  0  0  0  0  0  0
    2.7243   -0.4409   -2.1921 H   0  0  0  0  0  0  0  0  0  0  0  0
    0.5992    1.6510   -4.9624 N   0  0  0  0  0  0  0  0  0  0  0  0
   -0.1701    1.9090   -6.1572 C   0  0  0  0  0  0  0  0  0  0  0  0
    1.5629    1.9713   -4.9408 H   0  0  0  0  0  0  0  0  0  0  0  0
   -0.0554    1.0677   -6.8565 H   0  0  0  0  0  0  0  0  0  0  0  0
   -1.2316    2.0232   -5.8921 H   0  0  0  0  0  0  0  0  0  0  0  0
    0.1905    2.8329   -6.6330 H   0  0  0  0  0  0  0  0  0  0  0  0
  1  3  1  0  0  0  0
  1  7  1  0  0  0  0
  1  2  2  0  0  0  0
 29 30  1  0  0  0  0
 30 38  1  0  0  0  0
 30 31  2  0  0  0  0
  8  9  1  0  0  0  0
  9 17  1  0  0  0  0
  9 10  2  0  0  0  0
 18 19  1  0  0  0  0
 19 28  1  0  0  0  0
 19 20  2  0  0  0  0
 29 32  1  0  0  0  0
  8 11  1  0  0  0  0
 38 39  1  0  0  0  0
 18 21  1  0  0  0  0
 21 22  1  0  0  0  0
 28 29  1  0  0  0  0
  7  8  1  0  0  0  0
 17 18  1  0  0  0  0
  3  4  1  0  0  0  0
  3  5  1  0  0  0  0
  3  6  1  0  0  0  0
 32 35  1  0  0  0  0
 32 36  1  0  0  0  0
 32 37  1  0  0  0  0
 11 14  1  0  0  0  0
 11 15  1  0  0  0  0
 11 16  1  0  0  0  0
 39 41  1  0  0  0  0
 39 42  1  0  0  0  0
 39 43  1  0  0  0  0
 21 25  1  0  0  0  0
 21 26  1  0  0  0  0
 29 34  1  0  0  0  0
  8 13  1  0  0  0  0
 18 24  1  0  0  0  0
 38 40  1  0  0  0  0
  7 12  1  0  0  0  0
 28 33  1  0  0  0  0
 17 23  1  0  0  0  0
 22 27  1  0  0  0  0
M  END
$$$$

  -OEChem-05262214473D

 43 42  0     1  0  0  0  0  0999 V2000
   -2.8661   -4.7415    2.2943 C   0  0  0  0  0  0  0  0  0  0  0  0
   -2.0233   -5.5727    2.6109 O   0  0  0  0  0  0  0  0  0  0  0  0
   -4.3078   -5.0134    2.5698 C   0  0  0  0  0  0  0  0  0  0  0  0
   -4.8057   -5.5295    1.7332 H   0  0  0  0  0  0  0  0  0  0  0  0
   -4.4526   -5.6688    3.4436 H   0  0  0  0  0  0  0  0  0  0  0  0
   -4.9255   -4.1233    2.7700 H   0  0  0  0  0  0  0  0  0  0  0  0
   -2.6241   -3.5219    1.6838 N   0  0  0  0  0  0  0  0  0  0  0  0
   -1.3070   -3.0608    1.3315 C   0  0  2  0  0  0  0  0  0  0  0  0
   -1.3931   -1.5680    1.0422 C   0  0  0  0  0  0  0  0  0  0  0  0
   -2.4385   -1.0059    0.7226 O   0  0  0  0  0  0  0  0  0  0  0  0
   -0.7590   -3.8164    0.1309 C   0  0  0  0  0  0  0  0  0  0  0  0
   -3.4188   -2.9207    1.4735 H   0  0  0  0  0  0  0  0  0  0  0  0
   -0.6690   -3.2277    2.2062 H   0  0  0  0  0  0  0  0  0  0  0  0
   -1.3852   -3.6613   -0.7553 H   0  0  0  0  0  0  0  0  0  0  0  0
    0.2542   -3.4843   -0.1182 H   0  0  0  0  0  0  0  0  0  0  0  0
   -0.7257   -4.8930    0.3300 H   0  0  0  0  0  0  0  0  0  0  0  0
   -0.1563   -0.9420    1.1402 N   0  0  0  0  0  0  0  0  0  0  0  0
    0.0261    0.4671    0.9001 C   0  0  2  0  0  0  0  0  0  0  0  0
    1.0091    0.6488   -0.2546 C   0  0  0  0  0  0  0  0  0  0  0  0
    2.2226    0.4950   -0.1315 O   0  0  0  0  0  0  0  0  0  0  0  0
    0.4302    1.2264    2.1663 C   0  0  0  0  0  0  0  0  0  0  0  0
   -0.8535    1.2323    3.4603 S   0  0  0  0  0  0  0  0  0  0  0  0
    0.6533   -1.4855    1.4300 H   0  0  0  0  0  0  0  0  0  0  0  0
   -0.9505    0.8378    0.5649 H   0  0  0  0  0  0  0  0  0  0  0  0
    1.3342    0.7904    2.6039 H   0  0  0  0  0  0  0  0  0  0  0  0
    0.6526    2.2704    1.9204 H   0  0  0  0  0  0  0  0  0  0  0  0
   -0.1508    1.9529    4.3436 H   0  0  0  0  0  0  0  0  0  0  0  0
    0.3747    1.0262   -1.4296 N   0  0  0  0  0  0  0  0  0  0  0  0
    1.0923    1.2691   -2.6591 C   0  0  2  0  0  0  0  0  0  0  0  0
    0.1037    1.8155   -3.6807 C   0  0  0  0  0  0  0  0  0  0  0  0
   -1.1094    1.6322   -3.6047 O   0  0  0  0  0  0  0  0  0  0  0  0
    1.7580    0.0013   -3.1711 C   0  0  0  0  0  0  0  0  0  0  0  0
   -0.6383    1.0979   -1.4500 H   0  0  0  0  0  0  0  0  0  0  0  0
    1.8487    2.0303   -2.4387 H   0  0  0  0  0  0  0  0  0  0  0  0
    1.0158   -0.7730   -3.3973 H   0  0  0  0  0  0  0  0  0  0  0  0
    2.3252    0.1933   -4.0878 H   0  0  0  0  0  0  0  0  0  0  0  0
    2.4465   -0.4067   -2.4232 H   0  0  0  0  0  0  0  0  0  0  0  0
    0.7393    2.4951   -4.7104 N   0  0  0  0  0  0  0  0  0  0  0  0
    0.0195    3.0956   -5.8091 C   0  0  0  0  0  0  0  0  0  0  0  0
    1.7476    2.6149   -4.6824 H   0  0  0  0  0  0  0  0  0  0  0  0
   -0.0449    2.3791   -6.6412 H   0  0  0  0  0  0  0  0  0  0  0  0
   -0.9944    3.3660   -5.4790 H   0  0  0  0  0  0  0  0  0  0  0  0
    0.5493    3.9996   -6.1440 H   0  0  0  0  0  0  0  0  0  0  0  0
  1  3  1  0  0  0  0
  1  7  1  0  0  0  0
  1  2  2  0  0  0  0
 29 30  1  0  0  0  0
 30 38  1  0  0  0  0
 30 31  2  0  0  0  0
  8  9  1  0  0  0  0
  9 17  1  0  0  0  0
  9 10  2  0  0  0  0
 18 19  1  0  0  0  0
 19 28  1  0  0  0  0
 19 20  2  0  0  0  0
 29 32  1  0  0  0  0
  8 11  1  0  0  0  0
 38 39  1  0  0  0  0
 18 21  1  0  0  0  0
 21 22  1  0  0  0  0
 28 29  1  0  0  0  0
  7  8  1  0  0  0  0
 17 18  1  0  0  0  0
  3  4  1  0  0  0  0
  3  5  1  0  0  0  0
  3  6  1  0  0  0  0
 32 35  1  0  0  0  0
 32 36  1  0  0  0  0
 32 37  1  0  0  0  0
 11 14  1  0  0  0  0
 11 15  1  0  0  0  0
 11 16  1  0  0  0  0
 39 41  1  0  0  0  0
 39 42  1  0  0  0  0
 39 43  1  0  0  0  0
 21 25  1  0  0  0  0
 21 26  1  0  0  0  0
 29 34  1  0  0  0  0
  8 13  1  0  0  0  0
 18 24  1  0  0  0  0
 38 40  1  0  0  0  0
  7 12  1  0  0  0  0
 28 33  1  0  0  0  0
 17 23  1  0  0  0  0
 22 27  1  0  0  0  0
M  END
$$$$

  -OEChem-05262214473D

 43 42  0     1  0  0  0  0  0999 V2000
   -2.8661   -4.7415    2.2943 C   0  0  0  0  0  0  0  0  0  0  0  0
   -2.0233   -5.5727    2.6109 O   0  0  0  0  0  0  0  0  0  0  0  0
   -4.3078   -5.0134    2.5698 C   0  0  0  0  0  0  0  0  0  0  0  0
   -4.8057   -5.5295    1.7332 H   0  0  0  0  0  0  0  0  0  0  0  0
   -4.4526   -5.6688    3.4436 H   0  0  0  0  0  0  0  0  0  0  0  0
   -4.9255   -4.1233    2.7700 H   0  0  0  0  0  0  0  0  0  0  0  0
   -2.6241   -3.5219    1.6838 N   0  0  0  0  0  0  0  0  0  0  0  0
   -1.3070   -3.0608    1.3315 C   0  0  2  0  0  0  0  0  0  0  0  0
   -1.3931   -1.5680    1.0422 C   0  0  0  0  0  0  0  0  0  0  0  0
   -2.4385   -1.0059    0.7226 O   0  0  0  0  0  0  0  0  0  0  0  0
   -0.7590   -3.8164    0.1309 C   0  0  0  0  0  0  0  0  0  0  0  0
   -3.4188   -2.9207    1.4735 H   0  0  0  0  0  0  0  0  0  0  0  0
   -0.6690   -3.2277    2.2062 H   0  0  0  0  0  0  0  0  0  0  0  0
   -1.3852   -3.6613   -0.7553 H   0  0  0  0  0  0  0  0  0  0  0  0
    0.2542   -3.4843   -0.1182 H   0  0  0  0  0  0  0  0  0  0  0  0
   -0.7257   -4.8930    0.3300 H   0  0  0  0  0  0  0  0  0  0  0  0
   -0.1563   -0.9420    1.1402 N   0  0  0  0  0  0  0  0  0  0  0  0
    0.0261    0.4671    0.9001 C   0  0  2  0  0  0  0  0  0  0  0  0
    1.0091    0.6488   -0.2546 C   0  0  0  0  0  0  0  0  0  0  0  0
    2.1697    0.2450   -0.2159 O   0  0  0  0  0  0  0  0  0  0  0  0
    0.4302    1.2264    2.1663 C   0  0  0  0  0  0  0  0  0  0  0  0
   -0.8535    1.2323    3.4603 S   0  0  0  0  0  0  0  0  0  0  0  0
    0.6533   -1.4855    1.4300 H   0  0  0  0  0  0  0  0  0  0  0  0
   -0.9505    0.8378    0.5649 H   0  0  0  0  0  0  0  0  0  0  0  0
    1.3342    0.7904    2.6039 H   0  0  0  0  0  0  0  0  0  0  0  0
    0.6526    2.2704    1.9204 H   0  0  0  0  0  0  0  0  0  0  0  0
   -0.1508    1.9529    4.3436 H   0  0  0  0  0  0  0  0  0  0  0  0
    0.4455    1.3354   -1.3207 N   0  0  0  0  0  0  0  0  0  0  0  0
    1.1795    1.6402   -2.5265 C   0  0  2  0  0  0  0  0  0  0  0  0
    0.3045    2.5323   -3.3970 C   0  0  0  0  0  0  0  0  0  0  0  0
   -0.9197    2.5765   -3.2946 O   0  0  0  0  0  0  0  0  0  0  0  0
    1.5732    0.3732   -3.2698 C   0  0  0  0  0  0  0  0  0  0  0  0
   -0.5334    1.6037   -1.2811 H   0  0  0  0  0  0  0  0  0  0  0  0
    2.0749    2.1923   -2.2207 H   0  0  0  0  0  0  0  0  0  0  0  0
    0.6891   -0.1934   -3.5842 H   0  0  0  0  0  0  0  0  0  0  0  0
    2.1542    0.6048   -4.1687 H   0  0  0  0  0  0  0  0  0  0  0  0
    2.1777   -0.2809   -2.6322 H   0  0  0  0  0  0  0  0  0  0  0  0
    1.0475    3.2411   -4.3306 N   0  0  0  0  0  0  0  0  0  0  0  0
    0.4455    4.1468   -5.2811 C   0  0  0  0  0  0  0  0  0  0  0  0
    2.0598    3.1575   -4.3313 H   0  0  0  0  0  0  0  0  0  0  0  0
    0.2286    3.6079   -6.2152 H   0  0  0  0  0  0  0  0  0  0  0  0
   -0.4898    4.5478   -4.8635 H   0  0  0  0  0  0  0  0  0  0  0  0
    1.1393    4.9749   -5.4883 H   0  0  0  0  0  0  0  0  0  0  0  0
  1  3  1  0  0  0  0
  1  7  1  0  0  0  0
  1  2  2  0  0  0  0
 29 30  1  0  0  0  0
 30 38  1  0  0  0  0
 30 31  2  0  0  0  0
  8  9  1  0  0  0  0
  9 17  1  0  0  0  0
  9 10  2  0  0  0  0
 18 19  1  0  0  0  0
 19 28  1  0  0  0  0
 19 20  2  0  0  0  0
 29 32  1  0  0  0  0
  8 11  1  0  0  0  0
 38 39  1  0  0  0  0
 18 21  1  0  0  0  0
 21 22  1  0  0  0  0
 28 29  1  0  0  0  0
  7  8  1  0  0  0  0
 17 18  1  0  0  0  0
  3  4  1  0  0  0  0
  3  5  1  0  0  0  0
  3  6  1  0  0  0  0
 32 35  1  0  0  0  0
 32 36  1  0  0  0  0
 32 37  1  0  0  0  0
 11 14  1  0  0  0  0
 11 15  1  0  0  0  0
 11 16  1  0  0  0  0
 39 41  1  0  0  0  0
 39 42  1  0  0  0  0
 39 43  1  0  0  0  0
 21 25  1  0  0  0  0
 21 26  1  0  0  0  0
 29 34  1  0  0  0  0
  8 13  1  0  0  0  0
 18 24  1  0  0  0  0
 38 40  1  0  0  0  0
  7 12  1  0  0  0  0
 28 33  1  0  0  0  0
 17 23  1  0  0  0  0
 22 27  1  0  0  0  0
M  END
$$$$

  -OEChem-05262214473D

 43 42  0     1  0  0  0  0  0999 V2000
   -2.8661   -4.7415    2.2943 C   0  0  0  0  0  0  0  0  0  0  0  0
   -2.0233   -5.5727    2.6109 O   0  0  0  0  0  0  0  0  0  0  0  0
   -4.3078   -5.0134    2.5698 C   0  0  0  0  0  0  0  0  0  0  0  0
   -4.8057   -5.5295    1.7332 H   0  0  0  0  0  0  0  0  0  0  0  0
   -4.4526   -5.6688    3.4436 H   0  0  0  0  0  0  0  0  0  0  0  0
   -4.9255   -4.1233    2.7700 H   0  0  0  0  0  0  0  0  0  0  0  0
   -2.6241   -3.5219    1.6838 N   0  0  0  0  0  0  0  0  0  0  0  0
   -1.3070   -3.0608    1.3315 C   0  0  2  0  0  0  0  0  0  0  0  0
   -1.3931   -1.5680    1.0422 C   0  0  0  0  0  0  0  0  0  0  0  0
   -2.4385   -1.0059    0.7226 O   0  0  0  0  0  0  0  0  0  0  0  0
   -0.7590   -3.8164    0.1309 C   0  0  0  0  0  0  0  0  0  0  0  0
   -3.4188   -2.9207    1.4735 H   0  0  0  0  0  0  0  0  0  0  0  0
   -0.6690   -3.2277    2.2062 H   0  0  0  0  0  0  0  0  0  0  0  0
   -1.3852   -3.6613   -0.7553 H   0  0  0  0  0  0  0  0  0  0  0  0
    0.2542   -3.4843   -0.1182 H   0  0  0  0  0  0  0  0  0  0  0  0
   -0.7257   -4.8930    0.3300 H   0  0  0  0  0  0  0  0  0  0  0  0
   -0.1563   -0.9420    1.1402 N   0  0  0  0  0  0  0  0  0  0  0  0
    0.0261    0.4671    0.9001 C   0  0  2  0  0  0  0  0  0  0  0  0
    1.0091    0.6488   -0.2546 C   0  0  0  0  0  0  0  0  0  0  0  0
    2.0670    0.0279   -0.3374 O   0  0  0  0  0  0  0  0  0  0  0  0
    0.4302    1.2264    2.1663 C   0  0  0  0  0  0  0  0  0  0  0  0
   -0.8535    1.2323    3.4603 S   0  0  0  0  0  0  0  0  0  0  0  0
    0.6533   -1.4855    1.4300 H   0  0  0  0  0  0  0  0  0  0  0  0
   -0.9505    0.8378    0.5649 H   0  0  0  0  0  0  0  0  0  0  0  0
    1.3342    0.7904    2.6039 H   0  0  0  0  0  0  0  0  0  0  0  0
    0.6526    2.2704    1.9204 H   0  0  0  0  0  0  0  0  0  0  0  0
   -0.1508    1.9529    4.3436 H   0  0  0  0  0  0  0  0  0  0  0  0
    0.5777    1.6020   -1.1662 N   0  0  0  0  0  0  0  0  0  0  0  0
    1.3405    1.9594   -2.3393 C   0  0  2  0  0  0  0  0  0  0  0  0
    0.6474    3.1382   -3.0098 C   0  0  0  0  0  0  0  0  0  0  0  0
   -0.5422    3.3999   -2.8437 O   0  0  0  0  0  0  0  0  0  0  0  0
    1.4645    0.7850   -3.2976 C   0  0  0  0  0  0  0  0  0  0  0  0
   -0.3278    2.0435   -1.0369 H   0  0  0  0  0  0  0  0  0  0  0  0
    2.3318    2.2682   -1.9901 H   0  0  0  0  0  0  0  0  0  0  0  0
    0.4812    0.4615   -3.6582 H   0  0  0  0  0  0  0  0  0  0  0  0
    2.0670    1.0492   -4.1729 H   0  0  0  0  0  0  0  0  0  0  0  0
    1.9363   -0.0719   -2.8049 H   0  0  0  0  0  0  0  0  0  0  0  0
    1.5029    3.8381   -3.8491 N   0  0  0  0  0  0  0  0  0  0  0  0
    1.0790    4.9908   -4.6090 C   0  0  0  0  0  0  0  0  0  0  0  0
    2.4784    3.5619   -3.9113 H   0  0  0  0  0  0  0  0  0  0  0  0
    0.7462    4.6704   -5.6073 H   0  0  0  0  0  0  0  0  0  0  0  0
    0.2478    5.4881   -4.0877 H   0  0  0  0  0  0  0  0  0  0  0  0
    1.9202    5.6923   -4.7107 H   0  0  0  0  0  0  0  0  0  0  0  0
  1  3  1  0  0  0  0
  1  7  1  0  0  0  0
  1  2  2  0  0  0  0
 29 30  1  0  0  0  0
 30 38  1  0  0  0  0
 30 31  2  0  0  0  0
  8  9  1  0  0  0  0
  9 17  1  0  0  0  0
  9 10  2  0  0  0  0
 18 19  1  0  0  0  0
 19 28  1  0  0  0  0
 19 20  2  0  0  0  0
 29 32  1  0  0  0  0
  8 11  1  0  0  0  0
 38 39  1  0  0  0  0
 18 21  1  0  0  0  0
 21 22  1  0  0  0  0
 28 29  1  0  0  0  0
  7  8  1  0  0  0  0
 17 18  1  0  0  0  0
  3  4  1  0  0  0  0
  3  5  1  0  0  0  0
  3  6  1  0  0  0  0
 32 35  1  0  0  0  0
 32 36  1  0  0  0  0
 32 37  1  0  0  0  0
 11 14  1  0  0  0  0
 11 15  1  0  0  0  0
 11 16  1  0  0  0  0
 39 41  1  0  0  0  0
 39 42  1  0  0  0  0
 39 43  1  0  0  0  0
 21 25  1  0  0  0  0
 21 26  1  0  0  0  0
 29 34  1  0  0  0  0
  8 13  1  0  0  0  0
 18 24  1  0  0  0  0
 38 40  1  0  0  0  0
  7 12  1  0  0  0  0
 28 33  1  0  0  0  0
 17 23  1  0  0  0  0
 22 27  1  0  0  0  0
M  END
$$$$

  -OEChem-05262214473D

 43 42  0     1  0  0  0  0  0999 V2000
   -2.8661   -4.7415    2.2943 C   0  0  0  0  0  0  0  0  0  0  0  0
   -2.0233   -5.5727    2.6109 O   0  0  0  0  0  0  0  0  0  0  0  0
   -4.3078   -5.0134    2.5698 C   0  0  0  0  0  0  0  0  0  0  0  0
   -4.8057   -5.5295    1.7332 H   0  0  0  0  0  0  0  0  0  0  0  0
   -4.4526   -5.6688    3.4436 H   0  0  0  0  0  0  0  0  0  0  0  0
   -4.9255   -4.1233    2.7700 H   0  0  0  0  0  0  0  0  0  0  0  0
   -2.6241   -3.5219    1.6838 N   0  0  0  0  0  0  0  0  0  0  0  0
   -1.3070   -3.0608    1.3315 C   0  0  2  0  0  0  0  0  0  0  0  0
   -1.3931   -1.5680    1.0422 C   0  0  0  0  0  0  0  0  0  0  0  0
   -2.4385   -1.0059    0.7226 O   0  0  0  0  0  0  0  0  0  0  0  0
   -0.7590   -3.8164    0.1309 C   0  0  0  0  0  0  0  0  0  0  0  0
   -3.4188   -2.9207    1.4735 H   0  0  0  0  0  0  0  0  0  0  0  0
   -0.6690   -3.2277    2.2062 H   0  0  0  0  0  0  0  0  0  0  0  0
   -1.3852   -3.6613   -0.7553 H   0  0  0  0  0  0  0  0  0  0  0  0
    0.2542   -3.4843   -0.1182 H   0  0  0  0  0  0  0  0  0  0  0  0
   -0.7257   -4.8930    0.3300 H   0  0  0  0  0  0  0  0  0  0  0  0
   -0.1563   -0.9420    1.1402 N   0  0  0  0  0  0  0  0  0  0  0  0
    0.0261    0.4671    0.9001 C   0  0  2  0  0  0  0  0  0  0  0  0
    1.0091    0.6488   -0.2546 C   0  0  0  0  0  0  0  0  0  0  0  0
    1.9216   -0.1414   -0.4878 O   0  0  0  0  0  0  0  0  0  0  0  0
    0.4302    1.2264    2.1663 C   0  0  0  0  0  0  0  0  0  0  0  0
   -0.8535    1.2323    3.4603 S   0  0  0  0  0  0  0  0  0  0  0  0
    0.6533   -1.4855    1.4300 H   0  0  0  0  0  0  0  0  0  0  0  0
   -0.9505    0.8378    0.5649 H   0  0  0  0  0  0  0  0  0  0  0  0
    1.3342    0.7904    2.6039 H   0  0  0  0  0  0  0  0  0  0  0  0
    0.6526    2.2704    1.9204 H   0  0  0  0  0  0  0  0  0  0  0  0
   -0.1508    1.9529    4.3436 H   0  0  0  0  0  0  0  0  0  0  0  0
    0.7624    1.8079   -0.9766 N   0  0  0  0  0  0  0  0  0  0  0  0
    1.5641    2.2050   -2.1103 C   0  0  2  0  0  0  0  0  0  0  0  0
    1.1091    3.5918   -2.5454 C   0  0  0  0  0  0  0  0  0  0  0  0
   -0.0024    4.0462   -2.2826 O   0  0  0  0  0  0  0  0  0  0  0  0
    1.4392    1.2088   -3.2525 C   0  0  0  0  0  0  0  0  0  0  0  0
   -0.0357    2.3875   -0.7341 H   0  0  0  0  0  0  0  0  0  0  0  0
    2.6018    2.2529   -1.7626 H   0  0  0  0  0  0  0  0  0  0  0  0
    0.4063    1.1471   -3.6141 H   0  0  0  0  0  0  0  0  0  0  0  0
    2.0697    1.4962   -4.1004 H   0  0  0  0  0  0  0  0  0  0  0  0
    1.7386    0.2059   -2.9294 H   0  0  0  0  0  0  0  0  0  0  0  0
    2.0744    4.2454   -3.2985 N   0  0  0  0  0  0  0  0  0  0  0  0
    1.8768    5.5702   -3.8388 C   0  0  0  0  0  0  0  0  0  0  0  0
    2.9748    3.8007   -3.4512 H   0  0  0  0  0  0  0  0  0  0  0  0
    1.4729    5.4941   -4.8591 H   0  0  0  0  0  0  0  0  0  0  0  0
    1.1682    6.1228   -3.2044 H   0  0  0  0  0  0  0  0  0  0  0  0
    2.8388    6.1029   -3.8641 H   0  0  0  0  0  0  0  0  0  0  0  0
  1  3  1  0  0  0  0
  1  7  1  0  0  0  0
  1  2  2  0  0  0  0
 29 30  1  0  0  0  0
 30 38  1  0  0  0  0
 30 31  2  0  0  0  0
  8  9  1  0  0  0  0
  9 17  1  0  0  0  0
  9 10  2  0  0  0  0
 18 19  1  0  0  0  0
 19 28  1  0  0  0  0
 19 20  2  0  0  0  0
 29 32  1  0  0  0  0
  8 11  1  0  0  0  0
 38 39  1  0  0  0  0
 18 21  1  0  0  0  0
 21 22  1  0  0  0  0
 28 29  1  0  0  0  0
  7  8  1  0  0  0  0
 17 18  1  0  0  0  0
  3  4  1  0  0  0  0
  3  5  1  0  0  0  0
  3  6  1  0  0  0  0
 32 35  1  0  0  0  0
 32 36  1  0  0  0  0
 32 37  1  0  0  0  0
 11 14  1  0  0  0  0
 11 15  1  0  0  0  0
 11 16  1  0  0  0  0
 39 41  1  0  0  0  0
 39 42  1  0  0  0  0
 39 43  1  0  0  0  0
 21 25  1  0  0  0  0
 21 26  1  0  0  0  0
 29 34  1  0  0  0  0
  8 13  1  0  0  0  0
 18 24  1  0  0  0  0
 38 40  1  0  0  0  0
  7 12  1  0  0  0  0
 28 33  1  0  0  0  0
 17 23  1  0  0  0  0
 22 27  1  0  0  0  0
M  END
$$$$

  -OEChem-05262214473D

 43 42  0     1  0  0  0  0  0999 V2000
   -2.8661   -4.7415    2.2943 C   0  0  0  0  0  0  0  0  0  0  0  0
   -2.0233   -5.5727    2.6109 O   0  0  0  0  0  0  0  0  0  0  0  0
   -4.3078   -5.0134    2.5698 C   0  0  0  0  0  0  0  0  0  0  0  0
   -4.8057   -5.5295    1.7332 H   0  0  0  0  0  0  0  0  0  0  0  0
   -4.4526   -5.6688    3.4436 H   0  0  0  0  0  0  0  0  0  0  0  0
   -4.9255   -4.1233    2.7700 H   0  0  0  0  0  0  0  0  0  0  0  0
   -2.6241   -3.5219    1.6838 N   0  0  0  0  0  0  0  0  0  0  0  0
   -1.3070   -3.0608    1.3315 C   0  0  2  0  0  0  0  0  0  0  0  0
   -1.3931   -1.5680    1.0422 C   0  0  0  0  0  0  0  0  0  0  0  0
   -2.4385   -1.0059    0.7226 O   0  0  0  0  0  0  0  0  0  0  0  0
   -0.7590   -3.8164    0.1309 C   0  0  0  0  0  0  0  0  0  0  0  0
   -3.4188   -2.9207    1.4735 H   0  0  0  0  0  0  0  0  0  0  0  0
   -0.6690   -3.2277    2.2062 H   0  0  0  0  0  0  0  0  0  0  0  0
   -1.3852   -3.6613   -0.7553 H   0  0  0  0  0  0  0  0  0  0  0  0
    0.2542   -3.4843   -0.1182 H   0  0  0  0  0  0  0  0  0  0  0  0
   -0.7257   -4.8930    0.3300 H   0  0  0  0  0  0  0  0  0  0  0  0
   -0.1563   -0.9420    1.1402 N   0  0  0  0  0  0  0  0  0  0  0  0
    0.0261    0.4671    0.9001 C   0  0  2  0  0  0  0  0  0  0  0  0
    1.0091    0.6488   -0.2546 C   0  0  0  0  0  0  0  0  0  0  0  0
    1.7434   -0.2515   -0.6568 O   0  0  0  0  0  0  0  0  0  0  0  0
    0.4302    1.2264    2.1663 C   0  0  0  0  0  0  0  0  0  0  0  0
   -0.8535    1.2323    3.4603 S   0  0  0  0  0  0  0  0  0  0  0  0
    0.6533   -1.4855    1.4300 H   0  0  0  0  0  0  0  0  0  0  0  0
   -0.9505    0.8378    0.5649 H   0  0  0  0  0  0  0  0  0  0  0  0
    1.3342    0.7904    2.6039 H   0  0  0  0  0  0  0  0  0  0  0  0
    0.6526    2.2704    1.9204 H   0  0  0  0  0  0  0  0  0  0  0  0
   -0.1508    1.9529    4.3436 H   0  0  0  0  0  0  0  0  0  0  0  0
    0.9869    1.9391   -0.7648 N   0  0  0  0  0  0  0  0  0  0  0  0
    1.8353    2.3604   -1.8550 C   0  0  2  0  0  0  0  0  0  0  0  0
    1.6581    3.8623   -2.0354 C   0  0  0  0  0  0  0  0  0  0  0  0
    0.6626    4.4714   -1.6495 O   0  0  0  0  0  0  0  0  0  0  0  0
    1.4991    1.6155   -3.1375 C   0  0  0  0  0  0  0  0  0  0  0  0
    0.3232    2.6122   -0.3933 H   0  0  0  0  0  0  0  0  0  0  0  0
    2.8667    2.1473   -1.5537 H   0  0  0  0  0  0  0  0  0  0  0  0
    0.4694    1.8167   -3.4551 H   0  0  0  0  0  0  0  0  0  0  0  0
    2.1619    1.9154   -3.9559 H   0  0  0  0  0  0  0  0  0  0  0  0
    1.5983    0.5337   -2.9973 H   0  0  0  0  0  0  0  0  0  0  0  0
    2.7231    4.4353   -2.7164 N   0  0  0  0  0  0  0  0  0  0  0  0
    2.7844    5.8454   -3.0228 C   0  0  0  0  0  0  0  0  0  0  0  0
    3.5151    3.8576   -2.9822 H   0  0  0  0  0  0  0  0  0  0  0  0
    2.3591    6.0229   -4.0216 H   0  0  0  0  0  0  0  0  0  0  0  0
    2.2086    6.4086   -2.2738 H   0  0  0  0  0  0  0  0  0  0  0  0
    3.8325    6.1788   -3.0063 H   0  0  0  0  0  0  0  0  0  0  0  0
  1  3  1  0  0  0  0
  1  7  1  0  0  0  0
  1  2  2  0  0  0  0
 29 30  1  0  0  0  0
 30 38  1  0  0  0  0
 30 31  2  0  0  0  0
  8  9  1  0  0  0  0
  9 17  1  0  0  0  0
  9 10  2  0  0  0  0
 18 19  1  0  0  0  0
 19 28  1  0  0  0  0
 19 20  2  0  0  0  0
 29 32  1  0  0  0  0
  8 11  1  0  0  0  0
 38 39  1  0  0  0  0
 18 21  1  0  0  0  0
 21 22  1  0  0  0  0
 28 29  1  0  0  0  0
  7  8  1  0  0  0  0
 17 18  1  0  0  0  0
  3  4  1  0  0  0  0
  3  5  1  0  0  0  0
  3  6  1  0  0  0  0
 32 35  1  0  0  0  0
 32 36  1  0  0  0  0
 32 37  1  0  0  0  0
 11 14  1  0  0  0  0
 11 15  1  0  0  0  0
 11 16  1  0  0  0  0
 39 41  1  0  0  0  0
 39 42  1  0  0  0  0
 39 43  1  0  0  0  0
 21 25  1  0  0  0  0
 21 26  1  0  0  0  0
 29 34  1  0  0  0  0
  8 13  1  0  0  0  0
 18 24  1  0  0  0  0
 38 40  1  0  0  0  0
  7 12  1  0  0  0  0
 28 33  1  0  0  0  0
 17 23  1  0  0  0  0
 22 27  1  0  0  0  0
M  END
$$$$

  -OEChem-05262214473D

 43 42  0     1  0  0  0  0  0999 V2000
   -2.8661   -4.7415    2.2943 C   0  0  0  0  0  0  0  0  0  0  0  0
   -2.0233   -5.5727    2.6109 O   0  0  0  0  0  0  0  0  0  0  0  0
   -4.3078   -5.0134    2.5698 C   0  0  0  0  0  0  0  0  0  0  0  0
   -4.8057   -5.5295    1.7332 H   0  0  0  0  0  0  0  0  0  0  0  0
   -4.4526   -5.6688    3.4436 H   0  0  0  0  0  0  0  0  0  0  0  0
   -4.9255   -4.1233    2.7700 H   0  0  0  0  0  0  0  0  0  0  0  0
   -2.6241   -3.5219    1.6838 N   0  0  0  0  0  0  0  0  0  0  0  0
   -1.3070   -3.0608    1.3315 C   0  0  2  0  0  0  0  0  0  0  0  0
   -1.3931   -1.5680    1.0422 C   0  0  0  0  0  0  0  0  0  0  0  0
   -2.4385   -1.0059    0.7226 O   0  0  0  0  0  0  0  0  0  0  0  0
   -0.7590   -3.8164    0.1309 C   0  0  0  0  0  0  0  0  0  0  0  0
   -3.4188   -2.9207    1.4735 H   0  0  0  0  0  0  0  0  0  0  0  0
   -0.6690   -3.2277    2.2062 H   0  0  0  0  0  0  0  0  0  0  0  0
   -1.3852   -3.6613   -0.7553 H   0  0  0  0  0  0  0  0  0  0  0  0
    0.2542   -3.4843   -0.1182 H   0  0  0  0  0  0  0  0  0  0  0  0
   -0.7257   -4.8930    0.3300 H   0  0  0  0  0  0  0  0  0  0  0  0
   -0.1563   -0.9420    1.1402 N   0  0  0  0  0  0  0  0  0  0  0  0
    0.0261    0.4671    0.9001 C   0  0  2  0  0  0  0  0  0  0  0  0
    0.6934    0.6545   -0.4609 C   0  0  0  0  0  0  0  0  0  0  0  0
    1.0202   -0.2863   -1.1817 O   0  0  0  0  0  0  0  0  0  0  0  0
    0.7721    1.1610    2.0425 C   0  0  0  0  0  0  0  0  0  0  0  0
   -0.1417    1.1673    3.6196 S   0  0  0  0  0  0  0  0  0  0  0  0
    0.6533   -1.4855    1.4300 H   0  0  0  0  0  0  0  0  0  0  0  0
   -0.9848    0.8881    0.8340 H   0  0  0  0  0  0  0  0  0  0  0  0
    1.7356    0.6737    2.2242 H   0  0  0  0  0  0  0  0  0  0  0  0
    0.9744    2.2042    1.7767 H   0  0  0  0  0  0  0  0  0  0  0  0
    0.7945    1.8256    4.3149 H   0  0  0  0  0  0  0  0  0  0  0  0
    0.9026    1.9926   -0.7631 N   0  0  0  0  0  0  0  0  0  0  0  0
    1.5283    2.4254   -1.9907 C   0  0  2  0  0  0  0  0  0  0  0  0
    1.7369    3.9317   -1.9067 C   0  0  0  0  0  0  0  0  0  0  0  0
    1.0828    4.6589   -1.1620 O   0  0  0  0  0  0  0  0  0  0  0  0
    0.6831    2.0604   -3.2012 C   0  0  0  0  0  0  0  0  0  0  0  0
    0.5699    2.7077   -0.1230 H   0  0  0  0  0  0  0  0  0  0  0  0
    2.5007    1.9239   -2.0439 H   0  0  0  0  0  0  0  0  0  0  0  0
   -0.2951    2.5536   -3.1655 H   0  0  0  0  0  0  0  0  0  0  0  0
    1.1724    2.3637   -4.1327 H   0  0  0  0  0  0  0  0  0  0  0  0
    0.5092    0.9798   -3.2435 H   0  0  0  0  0  0  0  0  0  0  0  0
    2.7095    4.3741   -2.7923 N   0  0  0  0  0  0  0  0  0  0  0  0
    3.0814    5.7647   -2.9111 C   0  0  0  0  0  0  0  0  0  0  0  0
    3.2145    3.6985   -3.3583 H   0  0  0  0  0  0  0  0  0  0  0  0
    2.4828    6.2384   -3.7031 H   0  0  0  0  0  0  0  0  0  0  0  0
    2.8956    6.2766   -1.9554 H   0  0  0  0  0  0  0  0  0  0  0  0
    4.1491    5.8382   -3.1649 H   0  0  0  0  0  0  0  0  0  0  0  0
  1  3  1  0  0  0  0
  1  7  1  0  0  0  0
  1  2  2  0  0  0  0
 29 30  1  0  0  0  0
 30 38  1  0  0  0  0
 30 31  2  0  0  0  0
  8  9  1  0  0  0  0
  9 17  1  0  0  0  0
  9 10  2  0  0  0  0
 18 19  1  0  0  0  0
 19 28  1  0  0  0  0
 19 20  2  0  0  0  0
 29 32  1  0  0  0  0
  8 11  1  0  0  0  0
 38 39  1  0  0  0  0
 18 21  1  0  0  0  0
 21 22  1  0  0  0  0
 28 29  1  0  0  0  0
  7  8  1  0  0  0  0
 17 18  1  0  0  0  0
  3  4  1  0  0  0  0
  3  5  1  0  0  0  0
  3  6  1  0  0  0  0
 32 35  1  0  0  0  0
 32 36  1  0  0  0  0
 32 37  1  0  0  0  0
 11 14  1  0  0  0  0
 11 15  1  0  0  0  0
 11 16  1  0  0  0  0
 39 41  1  0  0  0  0
 39 42  1  0  0  0  0
 39 43  1  0  0  0  0
 21 25  1  0  0  0  0
 21 26  1  0  0  0  0
 29 34  1  0  0  0  0
  8 13  1  0  0  0  0
 18 24  1  0  0  0  0
 38 40  1  0  0  0  0
  7 12  1  0  0  0  0
 28 33  1  0  0  0  0
 17 23  1  0  0  0  0
 22 27  1  0  0  0  0
M  END
$$$$

  -OEChem-05262214473D

 43 42  0     1  0  0  0  0  0999 V2000
   -2.8661   -4.7415    2.2943 C   0  0  0  0  0  0  0  0  0  0  0  0
   -2.0233   -5.5727    2.6109 O   0  0  0  0  0  0  0  0  0  0  0  0
   -4.3078   -5.0134    2.5698 C   0  0  0  0  0  0  0  0  0  0  0  0
   -4.8057   -5.5295    1.7332 H   0  0  0  0  0  0  0  0  0  0  0  0
   -4.4526   -5.6688    3.4436 H   0  0  0  0  0  0  0  0  0  0  0  0
   -4.9255   -4.1233    2.7700 H   0  0  0  0  0  0  0  0  0  0  0  0
   -2.6241   -3.5219    1.6838 N   0  0  0  0  0  0  0  0  0  0  0  0
   -1.3070   -3.0608    1.3315 C   0  0  2  0  0  0  0  0  0  0  0  0
   -1.3931   -1.5680    1.0422 C   0  0  0  0  0  0  0  0  0  0  0  0
   -2.4385   -1.0059    0.7226 O   0  0  0  0  0  0  0  0  0  0  0  0
   -0.7590   -3.8164    0.1309 C   0  0  0  0  0  0  0  0  0  0  0  0
   -3.4188   -2.9207    1.4735 H   0  0  0  0  0  0  0  0  0  0  0  0
   -0.6690   -3.2277    2.2062 H   0  0  0  0  0  0  0  0  0  0  0  0
   -1.3852   -3.6613   -0.7553 H   0  0  0  0  0  0  0  0  0  0  0  0
    0.2542   -3.4843   -0.1182 H   0  0  0  0  0  0  0  0  0  0  0  0
   -0.7257   -4.8930    0.3300 H   0  0  0  0  0  0  0  0  0  0  0  0
   -0.1563   -0.9420    1.1402 N   0  0  0  0  0  0  0  0  0  0  0  0
    0.0261    0.4671    0.9001 C   0  0  2  0  0  0  0  0  0  0  0  0
    0.6934    0.6545   -0.4609 C   0  0  0  0  0  0  0  0  0  0  0  0
    0.7791   -0.2453   -1.2942 O   0  0  0  0  0  0  0  0  0  0  0  0
    0.7721    1.1610    2.0425 C   0  0  0  0  0  0  0  0  0  0  0  0
   -0.1417    1.1673    3.6196 S   0  0  0  0  0  0  0  0  0  0  0  0
    0.6533   -1.4855    1.4300 H   0  0  0  0  0  0  0  0  0  0  0  0
   -0.9848    0.8881    0.8340 H   0  0  0  0  0  0  0  0  0  0  0  0
    1.7356    0.6737    2.2242 H   0  0  0  0  0  0  0  0  0  0  0  0
    0.9744    2.2042    1.7767 H   0  0  0  0  0  0  0  0  0  0  0  0
    0.7945    1.8256    4.3149 H   0  0  0  0  0  0  0  0  0  0  0  0
    1.2023    1.9351   -0.6241 N   0  0  0  0  0  0  0  0  0  0  0  0
    1.8887    2.3536   -1.8239 C   0  0  2  0  0  0  0  0  0  0  0  0
    2.4432    3.7518   -1.5852 C   0  0  0  0  0  0  0  0  0  0  0  0
    1.9900    4.5173   -0.7368 O   0  0  0  0  0  0  0  0  0  0  0  0
    0.9596    2.3356   -3.0278 C   0  0  0  0  0  0  0  0  0  0  0  0
    1.0569    2.6275    0.1046 H   0  0  0  0  0  0  0  0  0  0  0  0
    2.7167    1.6526   -1.9754 H   0  0  0  0  0  0  0  0  0  0  0  0
    0.1236    3.0319   -2.8943 H   0  0  0  0  0  0  0  0  0  0  0  0
    1.4886    2.6256   -3.9416 H   0  0  0  0  0  0  0  0  0  0  0  0
    0.5384    1.3360   -3.1801 H   0  0  0  0  0  0  0  0  0  0  0  0
    3.4755    4.0602   -2.4600 N   0  0  0  0  0  0  0  0  0  0  0  0
    4.1581    5.3329   -2.4426 C   0  0  0  0  0  0  0  0  0  0  0  0
    3.7990    3.3579   -3.1186 H   0  0  0  0  0  0  0  0  0  0  0  0
    3.6716    6.0202   -3.1504 H   0  0  0  0  0  0  0  0  0  0  0  0
    4.1142    5.7586   -1.4293 H   0  0  0  0  0  0  0  0  0  0  0  0
    5.2089    5.1893   -2.7347 H   0  0  0  0  0  0  0  0  0  0  0  0
  1  3  1  0  0  0  0
  1  7  1  0  0  0  0
  1  2  2  0  0  0  0
 29 30  1  0  0  0  0
 30 38  1  0  0  0  0
 30 31  2  0  0  0  0
  8  9  1  0  0  0  0
  9 17  1  0  0  0  0
  9 10  2  0  0  0  0
 18 19  1  0  0  0  0
 19 28  1  0  0  0  0
 19 20  2  0  0  0  0
 29 32  1  0  0  0  0
  8 11  1  0  0  0  0
 38 39  1  0  0  0  0
 18 21  1  0  0  0  0
 21 22  1  0  0  0  0
 28 29  1  0  0  0  0
  7  8  1  0  0  0  0
 17 18  1  0  0  0  0
  3  4  1  0  0  0  0
  3  5  1  0  0  0  0
  3  6  1  0  0  0  0
 32 35  1  0  0  0  0
 32 36  1  0  0  0  0
 32 37  1  0  0  0  0
 11 14  1  0  0  0  0
 11 15  1  0  0  0  0
 11 16  1  0  0  0  0
 39 41  1  0  0  0  0
 39 42  1  0  0  0  0
 39 43  1  0  0  0  0
 21 25  1  0  0  0  0
 21 26  1  0  0  0  0
 29 34  1  0  0  0  0
  8 13  1  0  0  0  0
 18 24  1  0  0  0  0
 38 40  1  0  0  0  0
  7 12  1  0  0  0  0
 28 33  1  0  0  0  0
 17 23  1  0  0  0  0
 22 27  1  0  0  0  0
M  END
$$$$

  -OEChem-05262214473D

 43 42  0     1  0  0  0  0  0999 V2000
   -2.8661   -4.7415    2.2943 C   0  0  0  0  0  0  0  0  0  0  0  0
   -2.0233   -5.5727    2.6109 O   0  0  0  0  0  0  0  0  0  0  0  0
   -4.3078   -5.0134    2.5698 C   0  0  0  0  0  0  0  0  0  0  0  0
   -4.8057   -5.5295    1.7332 H   0  0  0  0  0  0  0  0  0  0  0  0
   -4.4526   -5.6688    3.4436 H   0  0  0  0  0  0  0  0  0  0  0  0
   -4.9255   -4.1233    2.7700 H   0  0  0  0  0  0  0  0  0  0  0  0
   -2.6241   -3.5219    1.6838 N   0  0  0  0  0  0  0  0  0  0  0  0
   -1.3070   -3.0608    1.3315 C   0  0  2  0  0  0  0  0  0  0  0  0
   -1.3931   -1.5680    1.0422 C   0  0  0  0  0  0  0  0  0  0  0  0
   -2.4385   -1.0059    0.7226 O   0  0  0  0  0  0  0  0  0  0  0  0
   -0.7590   -3.8164    0.1309 C   0  0  0  0  0  0  0  0  0  0  0  0
   -3.4188   -2.9207    1.4735 H   0  0  0  0  0  0  0  0  0  0  0  0
   -0.6690   -3.2277    2.2062 H   0  0  0  0  0  0  0  0  0  0  0  0
   -1.3852   -3.6613   -0.7553 H   0  0  0  0  0  0  0  0  0  0  0  0
    0.2542   -3.4843   -0.1182 H   0  0  0  0  0  0  0  0  0  0  0  0
   -0.7257   -4.8930    0.3300 H   0  0  0  0  0  0  0  0  0  0  0  0
   -0.1563   -0.9420    1.1402 N   0  0  0  0  0  0  0  0  0  0  0  0
    0.0261    0.4671    0.9001 C   0  0  2  0  0  0  0  0  0  0  0  0
    0.6934    0.6545   -0.4609 C   0  0  0  0  0  0  0  0  0  0  0  0
    0.5522   -0.1374   -1.3906 O   0  0  0  0  0  0  0  0  0  0  0  0
    0.7721    1.1610    2.0425 C   0  0  0  0  0  0  0  0  0  0  0  0
   -0.1417    1.1673    3.6196 S   0  0  0  0  0  0  0  0  0  0  0  0
    0.6533   -1.4855    1.4300 H   0  0  0  0  0  0  0  0  0  0  0  0
   -0.9848    0.8881    0.8340 H   0  0  0  0  0  0  0  0  0  0  0  0
    1.7356    0.6737    2.2242 H   0  0  0  0  0  0  0  0  0  0  0  0
    0.9744    2.2042    1.7767 H   0  0  0  0  0  0  0  0  0  0  0  0
    0.7945    1.8256    4.3149 H   0  0  0  0  0  0  0  0  0  0  0  0
    1.4829    1.7948   -0.5059 N   0  0  0  0  0  0  0  0  0  0  0  0
    2.2255    2.1823   -1.6824 C   0  0  2  0  0  0  0  0  0  0  0  0
    3.0942    3.3788   -1.3174 C   0  0  0  0  0  0  0  0  0  0  0  0
    2.8471    4.1232   -0.3709 O   0  0  0  0  0  0  0  0  0  0  0  0
    1.2956    2.5181   -2.8379 C   0  0  0  0  0  0  0  0  0  0  0  0
    1.5159    2.4121    0.3001 H   0  0  0  0  0  0  0  0  0  0  0  0
    2.8649    1.3330   -1.9467 H   0  0  0  0  0  0  0  0  0  0  0  0
    0.6470    3.3667   -2.5917 H   0  0  0  0  0  0  0  0  0  0  0  0
    1.8605    2.7840   -3.7375 H   0  0  0  0  0  0  0  0  0  0  0  0
    0.6508    1.6662   -3.0796 H   0  0  0  0  0  0  0  0  0  0  0  0
    4.1536    3.5428   -2.1988 N   0  0  0  0  0  0  0  0  0  0  0  0
    5.1135    4.6146   -2.0731 C   0  0  0  0  0  0  0  0  0  0  0  0
    4.2927    2.8669   -2.9442 H   0  0  0  0  0  0  0  0  0  0  0  0
    4.7871    5.4728   -2.6789 H   0  0  0  0  0  0  0  0  0  0  0  0
    5.1885    4.9177   -1.0184 H   0  0  0  0  0  0  0  0  0  0  0  0
    6.0965    4.2694   -2.4262 H   0  0  0  0  0  0  0  0  0  0  0  0
  1  3  1  0  0  0  0
  1  7  1  0  0  0  0
  1  2  2  0  0  0  0
 29 30  1  0  0  0  0
 30 38  1  0  0  0  0
 30 31  2  0  0  0  0
  8  9  1  0  0  0  0
  9 17  1  0  0  0  0
  9 10  2  0  0  0  0
 18 19  1  0  0  0  0
 19 28  1  0  0  0  0
 19 20  2  0  0  0  0
 29 32  1  0  0  0  0
  8 11  1  0  0  0  0
 38 39  1  0  0  0  0
 18 21  1  0  0  0  0
 21 22  1  0  0  0  0
 28 29  1  0  0  0  0
  7  8  1  0  0  0  0
 17 18  1  0  0  0  0
  3  4  1  0  0  0  0
  3  5  1  0  0  0  0
  3  6  1  0  0  0  0
 32 35  1  0  0  0  0
 32 36  1  0  0  0  0
 32 37  1  0  0  0  0
 11 14  1  0  0  0  0
 11 15  1  0  0  0  0
 11 16  1  0  0  0  0
 39 41  1  0  0  0  0
 39 42  1  0  0  0  0
 39 43  1  0  0  0  0
 21 25  1  0  0  0  0
 21 26  1  0  0  0  0
 29 34  1  0  0  0  0
  8 13  1  0  0  0  0
 18 24  1  0  0  0  0
 38 40  1  0  0  0  0
  7 12  1  0  0  0  0
 28 33  1  0  0  0  0
 17 23  1  0  0  0  0
 22 27  1  0  0  0  0
M  END
$$$$

  -OEChem-05262214473D

 43 42  0     1  0  0  0  0  0999 V2000
   -2.8661   -4.7415    2.2943 C   0  0  0  0  0  0  0  0  0  0  0  0
   -2.0233   -5.5727    2.6109 O   0  0  0  0  0  0  0  0  0  0  0  0
   -4.3078   -5.0134    2.5698 C   0  0  0  0  0  0  0  0  0  0  0  0
   -4.8057   -5.5295    1.7332 H   0  0  0  0  0  0  0  0  0  0  0  0
   -4.4526   -5.6688    3.4436 H   0  0  0  0  0  0  0  0  0  0  0  0
   -4.9255   -4.1233    2.7700 H   0  0  0  0  0  0  0  0  0  0  0  0
   -2.6241   -3.5219    1.6838 N   0  0  0  0  0  0  0  0  0  0  0  0
   -1.3070   -3.0608    1.3315 C   0  0  2  0  0  0  0  0  0  0  0  0
   -1.3931   -1.5680    1.0422 C   0  0  0  0  0  0  0  0  0  0  0  0
   -2.4385   -1.0059    0.7226 O   0  0  0  0  0  0  0  0  0  0  0  0
   -0.7590   -3.8164    0.1309 C   0  0  0  0  0  0  0  0  0  0  0  0
   -3.4188   -2.9207    1.4735 H   0  0  0  0  0  0  0  0  0  0  0  0
   -0.6690   -3.2277    2.2062 H   0  0  0  0  0  0  0  0  0  0  0  0
   -1.3852   -3.6613   -0.7553 H   0  0  0  0  0  0  0  0  0  0  0  0
    0.2542   -3.4843   -0.1182 H   0  0  0  0  0  0  0  0  0  0  0  0
   -0.7257   -4.8930    0.3300 H   0  0  0  0  0  0  0  0  0  0  0  0
   -0.1563   -0.9420    1.1402 N   0  0  0  0  0  0  0  0  0  0  0  0
    0.0261    0.4671    0.9001 C   0  0  2  0  0  0  0  0  0  0  0  0
    0.6934    0.6545   -0.4609 C   0  0  0  0  0  0  0  0  0  0  0  0
    0.3548    0.0301   -1.4643 O   0  0  0  0  0  0  0  0  0  0  0  0
    0.7721    1.1610    2.0425 C   0  0  0  0  0  0  0  0  0  0  0  0
   -0.1417    1.1673    3.6196 S   0  0  0  0  0  0  0  0  0  0  0  0
    0.6533   -1.4855    1.4300 H   0  0  0  0  0  0  0  0  0  0  0  0
   -0.9848    0.8881    0.8340 H   0  0  0  0  0  0  0  0  0  0  0  0
    1.7356    0.6737    2.2242 H   0  0  0  0  0  0  0  0  0  0  0  0
    0.9744    2.2042    1.7767 H   0  0  0  0  0  0  0  0  0  0  0  0
    0.7945    1.8256    4.3149 H   0  0  0  0  0  0  0  0  0  0  0  0
    1.7254    1.5811   -0.4164 N   0  0  0  0  0  0  0  0  0  0  0  0
    2.5158    1.9231   -1.5758 C   0  0  2  0  0  0  0  0  0  0  0  0
    3.6454    2.8380   -1.1216 C   0  0  0  0  0  0  0  0  0  0  0  0
    3.5958    3.5034   -0.0892 O   0  0  0  0  0  0  0  0  0  0  0  0
    1.6682    2.5954   -2.6446 C   0  0  0  0  0  0  0  0  0  0  0  0
    1.9159    2.0760    0.4499 H   0  0  0  0  0  0  0  0  0  0  0  0
    2.9353    0.9869   -1.9599 H   0  0  0  0  0  0  0  0  0  0  0  0
    1.2394    3.5351   -2.2781 H   0  0  0  0  0  0  0  0  0  0  0  0
    2.2628    2.8282   -3.5342 H   0  0  0  0  0  0  0  0  0  0  0  0
    0.8388    1.9478   -2.9487 H   0  0  0  0  0  0  0  0  0  0  0  0
    4.6974    2.8571   -2.0266 N   0  0  0  0  0  0  0  0  0  0  0  0
    5.8824    3.6586   -1.8278 C   0  0  0  0  0  0  0  0  0  0  0  0
    4.6618    2.2591   -2.8469 H   0  0  0  0  0  0  0  0  0  0  0  0
    5.7533    4.6334   -2.3208 H   0  0  0  0  0  0  0  0  0  0  0  0
    6.0453    3.8112   -0.7507 H   0  0  0  0  0  0  0  0  0  0  0  0
    6.7515    3.1413   -2.2604 H   0  0  0  0  0  0  0  0  0  0  0  0
  1  3  1  0  0  0  0
  1  7  1  0  0  0  0
  1  2  2  0  0  0  0
 29 30  1  0  0  0  0
 30 38  1  0  0  0  0
 30 31  2  0  0  0  0
  8  9  1  0  0  0  0
  9 17  1  0  0  0  0
  9 10  2  0  0  0  0
 18 19  1  0  0  0  0
 19 28  1  0  0  0  0
 19 20  2  0  0  0  0
 29 32  1  0  0  0  0
  8 11  1  0  0  0  0
 38 39  1  0  0  0  0
 18 21  1  0  0  0  0
 21 22  1  0  0  0  0
 28 29  1  0  0  0  0
  7  8  1  0  0  0  0
 17 18  1  0  0  0  0
  3  4  1  0  0  0  0
  3  5  1  0  0  0  0
  3  6  1  0  0  0  0
 32 35  1  0  0  0  0
 32 36  1  0  0  0  0
 32 37  1  0  0  0  0
 11 14  1  0  0  0  0
 11 15  1  0  0  0  0
 11 16  1  0  0  0  0
 39 41  1  0  0  0  0
 39 42  1  0  0  0  0
 39 43  1  0  0  0  0
 21 25  1  0  0  0  0
 21 26  1  0  0  0  0
 29 34  1  0  0  0  0
  8 13  1  0  0  0  0
 18 24  1  0  0  0  0
 38 40  1  0  0  0  0
  7 12  1  0  0  0  0
 28 33  1  0  0  0  0
 17 23  1  0  0  0  0
 22 27  1  0  0  0  0
M  END
$$$$

  -OEChem-05262214473D

 43 42  0     1  0  0  0  0  0999 V2000
   -2.8661   -4.7415    2.2943 C   0  0  0  0  0  0  0  0  0  0  0  0
   -2.0233   -5.5727    2.6109 O   0  0  0  0  0  0  0  0  0  0  0  0
   -4.3078   -5.0134    2.5698 C   0  0  0  0  0  0  0  0  0  0  0  0
   -4.8057   -5.5295    1.7332 H   0  0  0  0  0  0  0  0  0  0  0  0
   -4.4526   -5.6688    3.4436 H   0  0  0  0  0  0  0  0  0  0  0  0
   -4.9255   -4.1233    2.7700 H   0  0  0  0  0  0  0  0  0  0  0  0
   -2.6241   -3.5219    1.6838 N   0  0  0  0  0  0  0  0  0  0  0  0
   -1.3070   -3.0608    1.3315 C   0  0  2  0  0  0  0  0  0  0  0  0
   -1.3931   -1.5680    1.0422 C   0  0  0  0  0  0  0  0  0  0  0  0
   -2.4385   -1.0059    0.7226 O   0  0  0  0  0  0  0  0  0  0  0  0
   -0.7590   -3.8164    0.1309 C   0  0  0  0  0  0  0  0  0  0  0  0
   -3.4188   -2.9207    1.4735 H   0  0  0  0  0  0  0  0  0  0  0  0
   -0.6690   -3.2277    2.2062 H   0  0  0  0  0  0  0  0  0  0  0  0
   -1.3852   -3.6613   -0.7553 H   0  0  0  0  0  0  0  0  0  0  0  0
    0.2542   -3.4843   -0.1182 H   0  0  0  0  0  0  0  0  0  0  0  0
   -0.7257   -4.8930    0.3300 H   0  0  0  0  0  0  0  0  0  0  0  0
   -0.1563   -0.9420    1.1402 N   0  0  0  0  0  0  0  0  0  0  0  0
    0.0261    0.4671    0.9001 C   0  0  2  0  0  0  0  0  0  0  0  0
    0.6934    0.6545   -0.4609 C   0  0  0  0  0  0  0  0  0  0  0  0
    0.2004    0.2457   -1.5103 O   0  0  0  0  0  0  0  0  0  0  0  0
    0.7721    1.1610    2.0425 C   0  0  0  0  0  0  0  0  0  0  0  0
   -0.1417    1.1673    3.6196 S   0  0  0  0  0  0  0  0  0  0  0  0
    0.6533   -1.4855    1.4300 H   0  0  0  0  0  0  0  0  0  0  0  0
   -0.9848    0.8881    0.8340 H   0  0  0  0  0  0  0  0  0  0  0  0
    1.7356    0.6737    2.2242 H   0  0  0  0  0  0  0  0  0  0  0  0
    0.9744    2.2042    1.7767 H   0  0  0  0  0  0  0  0  0  0  0  0
    0.7945    1.8256    4.3149 H   0  0  0  0  0  0  0  0  0  0  0  0
    1.9131    1.3087   -0.3619 N   0  0  0  0  0  0  0  0  0  0  0  0
    2.7398    1.5937   -1.5113 C   0  0  2  0  0  0  0  0  0  0  0  0
    4.0594    2.1664   -1.0111 C   0  0  0  0  0  0  0  0  0  0  0  0
    4.1849    2.7003    0.0890 O   0  0  0  0  0  0  0  0  0  0  0  0
    2.0522    2.5622   -2.4610 C   0  0  0  0  0  0  0  0  0  0  0  0
    2.2295    1.6422    0.5439 H   0  0  0  0  0  0  0  0  0  0  0  0
    2.9231    0.6378   -2.0140 H   0  0  0  0  0  0  0  0  0  0  0  0
    1.8603    3.5258   -1.9749 H   0  0  0  0  0  0  0  0  0  0  0  0
    2.6680    2.7551   -3.3456 H   0  0  0  0  0  0  0  0  0  0  0  0
    1.0894    2.1617   -2.7964 H   0  0  0  0  0  0  0  0  0  0  0  0
    5.0701    2.0499   -1.9550 N   0  0  0  0  0  0  0  0  0  0  0  0
    6.4124    2.5301   -1.7234 C   0  0  0  0  0  0  0  0  0  0  0  0
    4.8813    1.5759   -2.8334 H   0  0  0  0  0  0  0  0  0  0  0  0
    6.5044    3.5593   -2.1004 H   0  0  0  0  0  0  0  0  0  0  0  0
    6.6262    2.5145   -0.6445 H   0  0  0  0  0  0  0  0  0  0  0  0
    7.1293    1.8819   -2.2486 H   0  0  0  0  0  0  0  0  0  0  0  0
  1  3  1  0  0  0  0
  1  7  1  0  0  0  0
  1  2  2  0  0  0  0
 29 30  1  0  0  0  0
 30 38  1  0  0  0  0
 30 31  2  0  0  0  0
  8  9  1  0  0  0  0
  9 17  1  0  0  0  0
  9 10  2  0  0  0  0
 18 19  1  0  0  0  0
 19 28  1  0  0  0  0
 19 20  2  0  0  0  0
 29 32  1  0  0  0  0
  8 11  1  0  0  0  0
 38 39  1  0  0  0  0
 18 21  1  0  0  0  0
 21 22  1  0  0  0  0
 28 29  1  0  0  0  0
  7  8  1  0  0  0  0
 17 18  1  0  0  0  0
  3  4  1  0  0  0  0
  3  5  1  0  0  0  0
  3  6  1  0  0  0  0
 32 35  1  0  0  0  0
 32 36  1  0  0  0  0
 32 37  1  0  0  0  0
 11 14  1  0  0  0  0
 11 15  1  0  0  0  0
 11 16  1  0  0  0  0
 39 41  1  0  0  0  0
 39 42  1  0  0  0  0
 39 43  1  0  0  0  0
 21 25  1  0  0  0  0
 21 26  1  0  0  0  0
 29 34  1  0  0  0  0
  8 13  1  0  0  0  0
 18 24  1  0  0  0  0
 38 40  1  0  0  0  0
  7 12  1  0  0  0  0
 28 33  1  0  0  0  0
 17 23  1  0  0  0  0
 22 27  1  0  0  0  0
M  END
$$$$

  -OEChem-05262214473D

 43 42  0     1  0  0  0  0  0999 V2000
   -2.8661   -4.7415    2.2943 C   0  0  0  0  0  0  0  0  0  0  0  0
   -2.0233   -5.5727    2.6109 O   0  0  0  0  0  0  0  0  0  0  0  0
   -4.3078   -5.0134    2.5698 C   0  0  0  0  0  0  0  0  0  0  0  0
   -4.8057   -5.5295    1.7332 H   0  0  0  0  0  0  0  0  0  0  0  0
   -4.4526   -5.6688    3.4436 H   0  0  0  0  0  0  0  0  0  0  0  0
   -4.9255   -4.1233    2.7700 H   0  0  0  0  0  0  0  0  0  0  0  0
   -2.6241   -3.5219    1.6838 N   0  0  0  0  0  0  0  0  0  0  0  0
   -1.3070   -3.0608    1.3315 C   0  0  2  0  0  0  0  0  0  0  0  0
   -1.3931   -1.5680    1.0422 C   0  0  0  0  0  0  0  0  0  0  0  0
   -2.4385   -1.0059    0.7226 O   0  0  0  0  0  0  0  0  0  0  0  0
   -0.7590   -3.8164    0.1309 C   0  0  0  0  0  0  0  0  0  0  0  0
   -3.4188   -2.9207    1.4735 H   0  0  0  0  0  0  0  0  0  0  0  0
   -0.6690   -3.2277    2.2062 H   0  0  0  0  0  0  0  0  0  0  0  0
   -1.3852   -3.6613   -0.7553 H   0  0  0  0  0  0  0  0  0  0  0  0
    0.2542   -3.4843   -0.1182 H   0  0  0  0  0  0  0  0  0  0  0  0
   -0.7257   -4.8930    0.3300 H   0  0  0  0  0  0  0  0  0  0  0  0
   -0.1563   -0.9420    1.1402 N   0  0  0  0  0  0  0  0  0  0  0  0
    0.0261    0.4671    0.9001 C   0  0  2  0  0  0  0  0  0  0  0  0
    0.6934    0.6545   -0.4609 C   0  0  0  0  0  0  0  0  0  0  0  0
    0.0996    0.4948   -1.5254 O   0  0  0  0  0  0  0  0  0  0  0  0
    0.7721    1.1610    2.0425 C   0  0  0  0  0  0  0  0  0  0  0  0
   -0.1417    1.1673    3.6196 S   0  0  0  0  0  0  0  0  0  0  0  0
    0.6533   -1.4855    1.4300 H   0  0  0  0  0  0  0  0  0  0  0  0
   -0.9848    0.8881    0.8340 H   0  0  0  0  0  0  0  0  0  0  0  0
    1.7356    0.6737    2.2242 H   0  0  0  0  0  0  0  0  0  0  0  0
    0.9744    2.2042    1.7767 H   0  0  0  0  0  0  0  0  0  0  0  0
    0.7945    1.8256    4.3149 H   0  0  0  0  0  0  0  0  0  0  0  0
    2.0334    0.9961   -0.3460 N   0  0  0  0  0  0  0  0  0  0  0  0
    2.8823    1.2166   -1.4934 C   0  0  2  0  0  0  0  0  0  0  0  0
    4.3079    1.4097   -0.9935 C   0  0  0  0  0  0  0  0  0  0  0  0
    4.5744    1.7685    0.1517 O   0  0  0  0  0  0  0  0  0  0  0  0
    2.4212    2.4209   -2.2995 C   0  0  0  0  0  0  0  0  0  0  0  0
    2.4353    1.1402    0.5756 H   0  0  0  0  0  0  0  0  0  0  0  0
    2.8290    0.3096   -2.1053 H   0  0  0  0  0  0  0  0  0  0  0  0
    2.4676    3.3392   -1.7029 H   0  0  0  0  0  0  0  0  0  0  0  0
    3.0485    2.5696   -3.1846 H   0  0  0  0  0  0  0  0  0  0  0  0
    1.3857    2.2932   -2.6330 H   0  0  0  0  0  0  0  0  0  0  0  0
    5.2462    1.1761   -1.9890 N   0  0  0  0  0  0  0  0  0  0  0  0
    6.6674    1.3060   -1.7669 C   0  0  0  0  0  0  0  0  0  0  0  0
    4.9362    0.8638   -2.9045 H   0  0  0  0  0  0  0  0  0  0  0  0
    6.9891    2.3237   -2.0329 H   0  0  0  0  0  0  0  0  0  0  0  0
    6.8916    1.1160   -0.7069 H   0  0  0  0  0  0  0  0  0  0  0  0
    7.2042    0.5768   -2.3916 H   0  0  0  0  0  0  0  0  0  0  0  0
  1  3  1  0  0  0  0
  1  7  1  0  0  0  0
  1  2  2  0  0  0  0
 29 30  1  0  0  0  0
 30 38  1  0  0  0  0
 30 31  2  0  0  0  0
  8  9  1  0  0  0  0
  9 17  1  0  0  0  0
  9 10  2  0  0  0  0
 18 19  1  0  0  0  0
 19 28  1  0  0  0  0
 19 20  2  0  0  0  0
 29 32  1  0  0  0  0
  8 11  1  0  0  0  0
 38 39  1  0  0  0  0
 18 21  1  0  0  0  0
 21 22  1  0  0  0  0
 28 29  1  0  0  0  0
  7  8  1  0  0  0  0
 17 18  1  0  0  0  0
  3  4  1  0  0  0  0
  3  5  1  0  0  0  0
  3  6  1  0  0  0  0
 32 35  1  0  0  0  0
 32 36  1  0  0  0  0
 32 37  1  0  0  0  0
 11 14  1  0  0  0  0
 11 15  1  0  0  0  0
 11 16  1  0  0  0  0
 39 41  1  0  0  0  0
 39 42  1  0  0  0  0
 39 43  1  0  0  0  0
 21 25  1  0  0  0  0
 21 26  1  0  0  0  0
 29 34  1  0  0  0  0
  8 13  1  0  0  0  0
 18 24  1  0  0  0  0
 38 40  1  0  0  0  0
  7 12  1  0  0  0  0
 28 33  1  0  0  0  0
 17 23  1  0  0  0  0
 22 27  1  0  0  0  0
M  END
$$$$

  -OEChem-05262214473D

 43 42  0     1  0  0  0  0  0999 V2000
   -2.8661   -4.7415    2.2943 C   0  0  0  0  0  0  0  0  0  0  0  0
   -2.0233   -5.5727    2.6109 O   0  0  0  0  0  0  0  0  0  0  0  0
   -4.3078   -5.0134    2.5698 C   0  0  0  0  0  0  0  0  0  0  0  0
   -4.8057   -5.5295    1.7332 H   0  0  0  0  0  0  0  0  0  0  0  0
   -4.4526   -5.6688    3.4436 H   0  0  0  0  0  0  0  0  0  0  0  0
   -4.9255   -4.1233    2.7700 H   0  0  0  0  0  0  0  0  0  0  0  0
   -2.6241   -3.5219    1.6838 N   0  0  0  0  0  0  0  0  0  0  0  0
   -1.3070   -3.0608    1.3315 C   0  0  2  0  0  0  0  0  0  0  0  0
   -1.3931   -1.5680    1.0422 C   0  0  0  0  0  0  0  0  0  0  0  0
   -2.4385   -1.0059    0.7226 O   0  0  0  0  0  0  0  0  0  0  0  0
   -0.7590   -3.8164    0.1309 C   0  0  0  0  0  0  0  0  0  0  0  0
   -3.4188   -2.9207    1.4735 H   0  0  0  0  0  0  0  0  0  0  0  0
   -0.6690   -3.2277    2.2062 H   0  0  0  0  0  0  0  0  0  0  0  0
   -1.3852   -3.6613   -0.7553 H   0  0  0  0  0  0  0  0  0  0  0  0
    0.2542   -3.4843   -0.1182 H   0  0  0  0  0  0  0  0  0  0  0  0
   -0.7257   -4.8930    0.3300 H   0  0  0  0  0  0  0  0  0  0  0  0
   -0.1563   -0.9420    1.1402 N   0  0  0  0  0  0  0  0  0  0  0  0
    0.0261    0.4671    0.9001 C   0  0  2  0  0  0  0  0  0  0  0  0
    0.6934    0.6545   -0.4609 C   0  0  0  0  0  0  0  0  0  0  0  0
    0.0591    0.7603   -1.5087 O   0  0  0  0  0  0  0  0  0  0  0  0
    0.7721    1.1610    2.0425 C   0  0  0  0  0  0  0  0  0  0  0  0
   -0.1417    1.1673    3.6196 S   0  0  0  0  0  0  0  0  0  0  0  0
    0.6533   -1.4855    1.4300 H   0  0  0  0  0  0  0  0  0  0  0  0
   -0.9848    0.8881    0.8340 H   0  0  0  0  0  0  0  0  0  0  0  0
    1.7356    0.6737    2.2242 H   0  0  0  0  0  0  0  0  0  0  0  0
    0.9744    2.2042    1.7767 H   0  0  0  0  0  0  0  0  0  0  0  0
    0.7945    1.8256    4.3149 H   0  0  0  0  0  0  0  0  0  0  0  0
    2.0780    0.6645   -0.3697 N   0  0  0  0  0  0  0  0  0  0  0  0
    2.9335    0.8175   -1.5232 C   0  0  2  0  0  0  0  0  0  0  0  0
    4.3740    0.6195   -1.0699 C   0  0  0  0  0  0  0  0  0  0  0  0
    4.7376    0.7715    0.0945 O   0  0  0  0  0  0  0  0  0  0  0  0
    2.7502    2.1810   -2.1713 C   0  0  0  0  0  0  0  0  0  0  0  0
    2.5194    0.6043    0.5431 H   0  0  0  0  0  0  0  0  0  0  0  0
    2.6595    0.0245   -2.2276 H   0  0  0  0  0  0  0  0  0  0  0  0
    3.0199    2.9882   -1.4805 H   0  0  0  0  0  0  0  0  0  0  0  0
    3.3784    2.2846   -3.0621 H   0  0  0  0  0  0  0  0  0  0  0  0
    1.7074    2.3335   -2.4698 H   0  0  0  0  0  0  0  0  0  0  0  0
    5.2137    0.2953   -2.1262 N   0  0  0  0  0  0  0  0  0  0  0  0
    6.6300    0.0697   -1.9555 C   0  0  0  0  0  0  0  0  0  0  0  0
    4.8227    0.1714   -3.0555 H   0  0  0  0  0  0  0  0  0  0  0  0
    7.1745    1.0107   -2.1228 H   0  0  0  0  0  0  0  0  0  0  0  0
    6.8234   -0.2890   -0.9338 H   0  0  0  0  0  0  0  0  0  0  0  0
    6.9709   -0.6848   -2.6797 H   0  0  0  0  0  0  0  0  0  0  0  0
  1  3  1  0  0  0  0
  1  7  1  0  0  0  0
  1  2  2  0  0  0  0
 29 30  1  0  0  0  0
 30 38  1  0  0  0  0
 30 31  2  0  0  0  0
  8  9  1  0  0  0  0
  9 17  1  0  0  0  0
  9 10  2  0  0  0  0
 18 19  1  0  0  0  0
 19 28  1  0  0  0  0
 19 20  2  0  0  0  0
 29 32  1  0  0  0  0
  8 11  1  0  0  0  0
 38 39  1  0  0  0  0
 18 21  1  0  0  0  0
 21 22  1  0  0  0  0
 28 29  1  0  0  0  0
  7  8  1  0  0  0  0
 17 18  1  0  0  0  0
  3  4  1  0  0  0  0
  3  5  1  0  0  0  0
  3  6  1  0  0  0  0
 32 35  1  0  0  0  0
 32 36  1  0  0  0  0
 32 37  1  0  0  0  0
 11 14  1  0  0  0  0
 11 15  1  0  0  0  0
 11 16  1  0  0  0  0
 39 41  1  0  0  0  0
 39 42  1  0  0  0  0
 39 43  1  0  0  0  0
 21 25  1  0  0  0  0
 21 26  1  0  0  0  0
 29 34  1  0  0  0  0
  8 13  1  0  0  0  0
 18 24  1  0  0  0  0
 38 40  1  0  0  0  0
  7 12  1  0  0  0  0
 28 33  1  0  0  0  0
 17 23  1  0  0  0  0
 22 27  1  0  0  0  0
M  END
$$$$

  -OEChem-05262214473D

 43 42  0     1  0  0  0  0  0999 V2000
   -2.8661   -4.7415    2.2943 C   0  0  0  0  0  0  0  0  0  0  0  0
   -2.0233   -5.5727    2.6109 O   0  0  0  0  0  0  0  0  0  0  0  0
   -4.3078   -5.0134    2.5698 C   0  0  0  0  0  0  0  0  0  0  0  0
   -4.8057   -5.5295    1.7332 H   0  0  0  0  0  0  0  0  0  0  0  0
   -4.4526   -5.6688    3.4436 H   0  0  0  0  0  0  0  0  0  0  0  0
   -4.9255   -4.1233    2.7700 H   0  0  0  0  0  0  0  0  0  0  0  0
   -2.6241   -3.5219    1.6838 N   0  0  0  0  0  0  0  0  0  0  0  0
   -1.3070   -3.0608    1.3315 C   0  0  2  0  0  0  0  0  0  0  0  0
   -1.3931   -1.5680    1.0422 C   0  0  0  0  0  0  0  0  0  0  0  0
   -2.4385   -1.0059    0.7226 O   0  0  0  0  0  0  0  0  0  0  0  0
   -0.7590   -3.8164    0.1309 C   0  0  0  0  0  0  0  0  0  0  0  0
   -3.4188   -2.9207    1.4735 H   0  0  0  0  0  0  0  0  0  0  0  0
   -0.6690   -3.2277    2.2062 H   0  0  0  0  0  0  0  0  0  0  0  0
   -1.3852   -3.6613   -0.7553 H   0  0  0  0  0  0  0  0  0  0  0  0
    0.2542   -3.4843   -0.1182 H   0  0  0  0  0  0  0  0  0  0  0  0
   -0.7257   -4.8930    0.3300 H   0  0  0  0  0  0  0  0  0  0  0  0
   -0.1563   -0.9420    1.1402 N   0  0  0  0  0  0  0  0  0  0  0  0
    0.0261    0.4671    0.9001 C   0  0  2  0  0  0  0  0  0  0  0  0
    0.6934    0.6545   -0.4609 C   0  0  0  0  0  0  0  0  0  0  0  0
    0.0818    1.0243   -1.4612 O   0  0  0  0  0  0  0  0  0  0  0  0
    0.7721    1.1610    2.0425 C   0  0  0  0  0  0  0  0  0  0  0  0
   -0.1417    1.1673    3.6196 S   0  0  0  0  0  0  0  0  0  0  0  0
    0.6533   -1.4855    1.4300 H   0  0  0  0  0  0  0  0  0  0  0  0
   -0.9848    0.8881    0.8340 H   0  0  0  0  0  0  0  0  0  0  0  0
    1.7356    0.6737    2.2242 H   0  0  0  0  0  0  0  0  0  0  0  0
    0.9744    2.2042    1.7767 H   0  0  0  0  0  0  0  0  0  0  0  0
    0.7945    1.8256    4.3149 H   0  0  0  0  0  0  0  0  0  0  0  0
    2.0438    0.3367   -0.4316 N   0  0  0  0  0  0  0  0  0  0  0  0
    2.8900    0.4235   -1.5988 C   0  0  2  0  0  0  0  0  0  0  0  0
    4.2531   -0.1503   -1.2351 C   0  0  0  0  0  0  0  0  0  0  0  0
    4.6636   -0.2226   -0.0787 O   0  0  0  0  0  0  0  0  0  0  0  0
    3.0167    1.8589   -2.0849 C   0  0  0  0  0  0  0  0  0  0  0  0
    2.4759    0.0709    0.4483 H   0  0  0  0  0  0  0  0  0  0  0  0
    2.4262   -0.1979   -2.3726 H   0  0  0  0  0  0  0  0  0  0  0  0
    3.4794    2.4966   -1.3229 H   0  0  0  0  0  0  0  0  0  0  0  0
    3.6352    1.9193   -2.9865 H   0  0  0  0  0  0  0  0  0  0  0  0
    2.0326    2.2798   -2.3177 H   0  0  0  0  0  0  0  0  0  0  0  0
    4.9747   -0.5324   -2.3573 N   0  0  0  0  0  0  0  0  0  0  0  0
    6.3027   -1.0945   -2.2762 C   0  0  0  0  0  0  0  0  0  0  0  0
    4.5485   -0.4542   -3.2760 H   0  0  0  0  0  0  0  0  0  0  0  0
    7.0479   -0.2901   -2.3640 H   0  0  0  0  0  0  0  0  0  0  0  0
    6.4263   -1.6047   -1.3096 H   0  0  0  0  0  0  0  0  0  0  0  0
    6.4454   -1.8171   -3.0932 H   0  0  0  0  0  0  0  0  0  0  0  0
  1  3  1  0  0  0  0
  1  7  1  0  0  0  0
  1  2  2  0  0  0  0
 29 30  1  0  0  0  0
 30 38  1  0  0  0  0
 30 31  2  0  0  0  0
  8  9  1  0  0  0  0
  9 17  1  0  0  0  0
  9 10  2  0  0  0  0
 18 19  1  0  0  0  0
 19 28  1  0  0  0  0
 19 20  2  0  0  0  0
 29 32  1  0  0  0  0
  8 11  1  0  0  0  0
 38 39  1  0  0  0  0
 18 21  1  0  0  0  0
 21 22  1  0  0  0  0
 28 29  1  0  0  0  0
  7  8  1  0  0  0  0
 17 18  1  0  0  0  0
  3  4  1  0  0  0  0
  3  5  1  0  0  0  0
  3  6  1  0  0  0  0
 32 35  1  0  0  0  0
 32 36  1  0  0  0  0
 32 37  1  0  0  0  0
 11 14  1  0  0  0  0
 11 15  1  0  0  0  0
 11 16  1  0  0  0  0
 39 41  1  0  0  0  0
 39 42  1  0  0  0  0
 39 43  1  0  0  0  0
 21 25  1  0  0  0  0
 21 26  1  0  0  0  0
 29 34  1  0  0  0  0
  8 13  1  0  0  0  0
 18 24  1  0  0  0  0
 38 40  1  0  0  0  0
  7 12  1  0  0  0  0
 28 33  1  0  0  0  0
 17 23  1  0  0  0  0
 22 27  1  0  0  0  0
M  END
$$$$

  -OEChem-05262214473D

 43 42  0     1  0  0  0  0  0999 V2000
   -2.8661   -4.7415    2.2943 C   0  0  0  0  0  0  0  0  0  0  0  0
   -2.0233   -5.5727    2.6109 O   0  0  0  0  0  0  0  0  0  0  0  0
   -4.3078   -5.0134    2.5698 C   0  0  0  0  0  0  0  0  0  0  0  0
   -4.8057   -5.5295    1.7332 H   0  0  0  0  0  0  0  0  0  0  0  0
   -4.4526   -5.6688    3.4436 H   0  0  0  0  0  0  0  0  0  0  0  0
   -4.9255   -4.1233    2.7700 H   0  0  0  0  0  0  0  0  0  0  0  0
   -2.6241   -3.5219    1.6838 N   0  0  0  0  0  0  0  0  0  0  0  0
   -1.3070   -3.0608    1.3315 C   0  0  2  0  0  0  0  0  0  0  0  0
   -1.3931   -1.5680    1.0422 C   0  0  0  0  0  0  0  0  0  0  0  0
   -2.4385   -1.0059    0.7226 O   0  0  0  0  0  0  0  0  0  0  0  0
   -0.7590   -3.8164    0.1309 C   0  0  0  0  0  0  0  0  0  0  0  0
   -3.4188   -2.9207    1.4735 H   0  0  0  0  0  0  0  0  0  0  0  0
   -0.6690   -3.2277    2.2062 H   0  0  0  0  0  0  0  0  0  0  0  0
   -1.3852   -3.6613   -0.7553 H   0  0  0  0  0  0  0  0  0  0  0  0
    0.2542   -3.4843   -0.1182 H   0  0  0  0  0  0  0  0  0  0  0  0
   -0.7257   -4.8930    0.3300 H   0  0  0  0  0  0  0  0  0  0  0  0
   -0.1563   -0.9420    1.1402 N   0  0  0  0  0  0  0  0  0  0  0  0
    0.0261    0.4671    0.9001 C   0  0  2  0  0  0  0  0  0  0  0  0
    0.6934    0.6545   -0.4609 C   0  0  0  0  0  0  0  0  0  0  0  0
    0.1661    1.2686   -1.3863 O   0  0  0  0  0  0  0  0  0  0  0  0
    0.7721    1.1610    2.0425 C   0  0  0  0  0  0  0  0  0  0  0  0
   -0.1417    1.1673    3.6196 S   0  0  0  0  0  0  0  0  0  0  0  0
    0.6533   -1.4855    1.4300 H   0  0  0  0  0  0  0  0  0  0  0  0
   -0.9848    0.8881    0.8340 H   0  0  0  0  0  0  0  0  0  0  0  0
    1.7356    0.6737    2.2242 H   0  0  0  0  0  0  0  0  0  0  0  0
    0.9744    2.2042    1.7767 H   0  0  0  0  0  0  0  0  0  0  0  0
    0.7945    1.8256    4.3149 H   0  0  0  0  0  0  0  0  0  0  0  0
    1.9333    0.0350   -0.5274 N   0  0  0  0  0  0  0  0  0  0  0  0
    2.7547    0.0615   -1.7149 C   0  0  2  0  0  0  0  0  0  0  0  0
    3.9535   -0.8474   -1.4780 C   0  0  0  0  0  0  0  0  0  0  0  0
    4.3573   -1.1463   -0.3560 O   0  0  0  0  0  0  0  0  0  0  0  0
    3.2026    1.4765   -2.0465 C   0  0  0  0  0  0  0  0  0  0  0  0
    2.3079   -0.4236    0.2979 H   0  0  0  0  0  0  0  0  0  0  0  0
    2.1449   -0.3425   -2.5304 H   0  0  0  0  0  0  0  0  0  0  0  0
    3.8148    1.8980   -1.2409 H   0  0  0  0  0  0  0  0  0  0  0  0
    3.8014    1.4987   -2.9629 H   0  0  0  0  0  0  0  0  0  0  0  0
    2.3391    2.1357   -2.1873 H   0  0  0  0  0  0  0  0  0  0  0  0
    4.5457   -1.2507   -2.6666 N   0  0  0  0  0  0  0  0  0  0  0  0
    5.7079   -2.1073   -2.7072 C   0  0  0  0  0  0  0  0  0  0  0  0
    4.1324   -0.9703   -3.5511 H   0  0  0  0  0  0  0  0  0  0  0  0
    6.6179   -1.4901   -2.7400 H   0  0  0  0  0  0  0  0  0  0  0  0
    5.7274   -2.7416   -1.8088 H   0  0  0  0  0  0  0  0  0  0  0  0
    5.6636   -2.7429   -3.6039 H   0  0  0  0  0  0  0  0  0  0  0  0
  1  3  1  0  0  0  0
  1  7  1  0  0  0  0
  1  2  2  0  0  0  0
 29 30  1  0  0  0  0
 30 38  1  0  0  0  0
 30 31  2  0  0  0  0
  8  9  1  0  0  0  0
  9 17  1  0  0  0  0
  9 10  2  0  0  0  0
 18 19  1  0  0  0  0
 19 28  1  0  0  0  0
 19 20  2  0  0  0  0
 29 32  1  0  0  0  0
  8 11  1  0  0  0  0
 38 39  1  0  0  0  0
 18 21  1  0  0  0  0
 21 22  1  0  0  0  0
 28 29  1  0  0  0  0
  7  8  1  0  0  0  0
 17 18  1  0  0  0  0
  3  4  1  0  0  0  0
  3  5  1  0  0  0  0
  3  6  1  0  0  0  0
 32 35  1  0  0  0  0
 32 36  1  0  0  0  0
 32 37  1  0  0  0  0
 11 14  1  0  0  0  0
 11 15  1  0  0  0  0
 11 16  1  0  0  0  0
 39 41  1  0  0  0  0
 39 42  1  0  0  0  0
 39 43  1  0  0  0  0
 21 25  1  0  0  0  0
 21 26  1  0  0  0  0
 29 34  1  0  0  0  0
  8 13  1  0  0  0  0
 18 24  1  0  0  0  0
 38 40  1  0  0  0  0
  7 12  1  0  0  0  0
 28 33  1  0  0  0  0
 17 23  1  0  0  0  0
 22 27  1  0  0  0  0
M  END
$$$$

  -OEChem-05262214473D

 43 42  0     1  0  0  0  0  0999 V2000
   -2.8661   -4.7415    2.2943 C   0  0  0  0  0  0  0  0  0  0  0  0
   -2.0233   -5.5727    2.6109 O   0  0  0  0  0  0  0  0  0  0  0  0
   -4.3078   -5.0134    2.5698 C   0  0  0  0  0  0  0  0  0  0  0  0
   -4.8057   -5.5295    1.7332 H   0  0  0  0  0  0  0  0  0  0  0  0
   -4.4526   -5.6688    3.4436 H   0  0  0  0  0  0  0  0  0  0  0  0
   -4.9255   -4.1233    2.7700 H   0  0  0  0  0  0  0  0  0  0  0  0
   -2.6241   -3.5219    1.6838 N   0  0  0  0  0  0  0  0  0  0  0  0
   -1.3070   -3.0608    1.3315 C   0  0  2  0  0  0  0  0  0  0  0  0
   -1.3931   -1.5680    1.0422 C   0  0  0  0  0  0  0  0  0  0  0  0
   -2.4385   -1.0059    0.7226 O   0  0  0  0  0  0  0  0  0  0  0  0
   -0.7590   -3.8164    0.1309 C   0  0  0  0  0  0  0  0  0  0  0  0
   -3.4188   -2.9207    1.4735 H   0  0  0  0  0  0  0  0  0  0  0  0
   -0.6690   -3.2277    2.2062 H   0  0  0  0  0  0  0  0  0  0  0  0
   -1.3852   -3.6613   -0.7553 H   0  0  0  0  0  0  0  0  0  0  0  0
    0.2542   -3.4843   -0.1182 H   0  0  0  0  0  0  0  0  0  0  0  0
   -0.7257   -4.8930    0.3300 H   0  0  0  0  0  0  0  0  0  0  0  0
   -0.1563   -0.9420    1.1402 N   0  0  0  0  0  0  0  0  0  0  0  0
    0.0261    0.4671    0.9001 C   0  0  2  0  0  0  0  0  0  0  0  0
    0.6934    0.6545   -0.4609 C   0  0  0  0  0  0  0  0  0  0  0  0
    0.3063    1.4767   -1.2889 O   0  0  0  0  0  0  0  0  0  0  0  0
    0.7721    1.1610    2.0425 C   0  0  0  0  0  0  0  0  0  0  0  0
   -0.1417    1.1673    3.6196 S   0  0  0  0  0  0  0  0  0  0  0  0
    0.6533   -1.4855    1.4300 H   0  0  0  0  0  0  0  0  0  0  0  0
   -0.9848    0.8881    0.8340 H   0  0  0  0  0  0  0  0  0  0  0  0
    1.7356    0.6737    2.2242 H   0  0  0  0  0  0  0  0  0  0  0  0
    0.9744    2.2042    1.7767 H   0  0  0  0  0  0  0  0  0  0  0  0
    0.7945    1.8256    4.3149 H   0  0  0  0  0  0  0  0  0  0  0  0
    1.7538   -0.2202   -0.6505 N   0  0  0  0  0  0  0  0  0  0  0  0
    2.5368   -0.2438   -1.8638 C   0  0  2  0  0  0  0  0  0  0  0  0
    3.4957   -1.4242   -1.7818 C   0  0  0  0  0  0  0  0  0  0  0  0
    3.8396   -1.9365   -0.7186 O   0  0  0  0  0  0  0  0  0  0  0  0
    3.2951    1.0600   -2.0584 C   0  0  0  0  0  0  0  0  0  0  0  0
    2.0268   -0.8455    0.1020 H   0  0  0  0  0  0  0  0  0  0  0  0
    1.8349   -0.3994   -2.6902 H   0  0  0  0  0  0  0  0  0  0  0  0
    4.0034    1.2331   -1.2400 H   0  0  0  0  0  0  0  0  0  0  0  0
    3.8657    1.0514   -2.9930 H   0  0  0  0  0  0  0  0  0  0  0  0
    2.6062    1.9110   -2.0873 H   0  0  0  0  0  0  0  0  0  0  0  0
    3.9558   -1.8107   -3.0329 N   0  0  0  0  0  0  0  0  0  0  0  0
    4.8861   -2.8996   -3.2192 C   0  0  0  0  0  0  0  0  0  0  0  0
    3.6028   -1.3418   -3.8619 H   0  0  0  0  0  0  0  0  0  0  0  0
    5.9138   -2.5076   -3.2252 H   0  0  0  0  0  0  0  0  0  0  0  0
    4.7742   -3.6220   -2.3973 H   0  0  0  0  0  0  0  0  0  0  0  0
    4.6787   -3.3990   -4.1771 H   0  0  0  0  0  0  0  0  0  0  0  0
  1  3  1  0  0  0  0
  1  7  1  0  0  0  0
  1  2  2  0  0  0  0
 29 30  1  0  0  0  0
 30 38  1  0  0  0  0
 30 31  2  0  0  0  0
  8  9  1  0  0  0  0
  9 17  1  0  0  0  0
  9 10  2  0  0  0  0
 18 19  1  0  0  0  0
 19 28  1  0  0  0  0
 19 20  2  0  0  0  0
 29 32  1  0  0  0  0
  8 11  1  0  0  0  0
 38 39  1  0  0  0  0
 18 21  1  0  0  0  0
 21 22  1  0  0  0  0
 28 29  1  0  0  0  0
  7  8  1  0  0  0  0
 17 18  1  0  0  0  0
  3  4  1  0  0  0  0
  3  5  1  0  0  0  0
  3  6  1  0  0  0  0
 32 35  1  0  0  0  0
 32 36  1  0  0  0  0
 32 37  1  0  0  0  0
 11 14  1  0  0  0  0
 11 15  1  0  0  0  0
 11 16  1  0  0  0  0
 39 41  1  0  0  0  0
 39 42  1  0  0  0  0
 39 43  1  0  0  0  0
 21 25  1  0  0  0  0
 21 26  1  0  0  0  0
 29 34  1  0  0  0  0
  8 13  1  0  0  0  0
 18 24  1  0  0  0  0
 38 40  1  0  0  0  0
  7 12  1  0  0  0  0
 28 33  1  0  0  0  0
 17 23  1  0  0  0  0
 22 27  1  0  0  0  0
M  END
$$$$

  -OEChem-05262214473D

 43 42  0     1  0  0  0  0  0999 V2000
   -2.8661   -4.7415    2.2943 C   0  0  0  0  0  0  0  0  0  0  0  0
   -2.0233   -5.5727    2.6109 O   0  0  0  0  0  0  0  0  0  0  0  0
   -4.3078   -5.0134    2.5698 C   0  0  0  0  0  0  0  0  0  0  0  0
   -4.8057   -5.5295    1.7332 H   0  0  0  0  0  0  0  0  0  0  0  0
   -4.4526   -5.6688    3.4436 H   0  0  0  0  0  0  0  0  0  0  0  0
   -4.9255   -4.1233    2.7700 H   0  0  0  0  0  0  0  0  0  0  0  0
   -2.6241   -3.5219    1.6838 N   0  0  0  0  0  0  0  0  0  0  0  0
   -1.3070   -3.0608    1.3315 C   0  0  2  0  0  0  0  0  0  0  0  0
   -1.3931   -1.5680    1.0422 C   0  0  0  0  0  0  0  0  0  0  0  0
   -2.4385   -1.0059    0.7226 O   0  0  0  0  0  0  0  0  0  0  0  0
   -0.7590   -3.8164    0.1309 C   0  0  0  0  0  0  0  0  0  0  0  0
   -3.4188   -2.9207    1.4735 H   0  0  0  0  0  0  0  0  0  0  0  0
   -0.6690   -3.2277    2.2062 H   0  0  0  0  0  0  0  0  0  0  0  0
   -1.3852   -3.6613   -0.7553 H   0  0  0  0  0  0  0  0  0  0  0  0
    0.2542   -3.4843   -0.1182 H   0  0  0  0  0  0  0  0  0  0  0  0
   -0.7257   -4.8930    0.3300 H   0  0  0  0  0  0  0  0  0  0  0  0
   -0.1563   -0.9420    1.1402 N   0  0  0  0  0  0  0  0  0  0  0  0
    0.0261    0.4671    0.9001 C   0  0  2  0  0  0  0  0  0  0  0  0
    0.6934    0.6545   -0.4609 C   0  0  0  0  0  0  0  0  0  0  0  0
    0.4928    1.6344   -1.1757 O   0  0  0  0  0  0  0  0  0  0  0  0
    0.7721    1.1610    2.0425 C   0  0  0  0  0  0  0  0  0  0  0  0
   -0.1417    1.1673    3.6196 S   0  0  0  0  0  0  0  0  0  0  0  0
    0.6533   -1.4855    1.4300 H   0  0  0  0  0  0  0  0  0  0  0  0
   -0.9848    0.8881    0.8340 H   0  0  0  0  0  0  0  0  0  0  0  0
    1.7356    0.6737    2.2242 H   0  0  0  0  0  0  0  0  0  0  0  0
    0.9744    2.2042    1.7767 H   0  0  0  0  0  0  0  0  0  0  0  0
    0.7945    1.8256    4.3149 H   0  0  0  0  0  0  0  0  0  0  0  0
    1.5177   -0.4113   -0.7925 N   0  0  0  0  0  0  0  0  0  0  0  0
    2.2512   -0.4716   -2.0352 C   0  0  2  0  0  0  0  0  0  0  0  0
    2.9108   -1.8414   -2.1260 C   0  0  0  0  0  0  0  0  0  0  0  0
    3.1458   -2.5393   -1.1418 O   0  0  0  0  0  0  0  0  0  0  0  0
    3.2881    0.6376   -2.1200 C   0  0  0  0  0  0  0  0  0  0  0  0
    1.6517   -1.1660   -0.1260 H   0  0  0  0  0  0  0  0  0  0  0  0
    1.5172   -0.3649   -2.8412 H   0  0  0  0  0  0  0  0  0  0  0  0
    4.0322    0.5473   -1.3203 H   0  0  0  0  0  0  0  0  0  0  0  0
    3.8237    0.6079   -3.0746 H   0  0  0  0  0  0  0  0  0  0  0  0
    2.8154    1.6211   -2.0246 H   0  0  0  0  0  0  0  0  0  0  0  0
    3.2452   -2.1740   -3.4312 N   0  0  0  0  0  0  0  0  0  0  0  0
    3.8933   -3.4175   -3.7772 C   0  0  0  0  0  0  0  0  0  0  0  0
    2.9956   -1.5433   -4.1873 H   0  0  0  0  0  0  0  0  0  0  0  0
    4.9837   -3.2731   -3.7866 H   0  0  0  0  0  0  0  0  0  0  0  0
    3.6317   -4.1861   -3.0350 H   0  0  0  0  0  0  0  0  0  0  0  0
    3.5578   -3.7409   -4.7737 H   0  0  0  0  0  0  0  0  0  0  0  0
  1  3  1  0  0  0  0
  1  7  1  0  0  0  0
  1  2  2  0  0  0  0
 29 30  1  0  0  0  0
 30 38  1  0  0  0  0
 30 31  2  0  0  0  0
  8  9  1  0  0  0  0
  9 17  1  0  0  0  0
  9 10  2  0  0  0  0
 18 19  1  0  0  0  0
 19 28  1  0  0  0  0
 19 20  2  0  0  0  0
 29 32  1  0  0  0  0
  8 11  1  0  0  0  0
 38 39  1  0  0  0  0
 18 21  1  0  0  0  0
 21 22  1  0  0  0  0
 28 29  1  0  0  0  0
  7  8  1  0  0  0  0
 17 18  1  0  0  0  0
  3  4  1  0  0  0  0
  3  5  1  0  0  0  0
  3  6  1  0  0  0  0
 32 35  1  0  0  0  0
 32 36  1  0  0  0  0
 32 37  1  0  0  0  0
 11 14  1  0  0  0  0
 11 15  1  0  0  0  0
 11 16  1  0  0  0  0
 39 41  1  0  0  0  0
 39 42  1  0  0  0  0
 39 43  1  0  0  0  0
 21 25  1  0  0  0  0
 21 26  1  0  0  0  0
 29 34  1  0  0  0  0
  8 13  1  0  0  0  0
 18 24  1  0  0  0  0
 38 40  1  0  0  0  0
  7 12  1  0  0  0  0
 28 33  1  0  0  0  0
 17 23  1  0  0  0  0
 22 27  1  0  0  0  0
M  END
$$$$

  -OEChem-05262214473D

 43 42  0     1  0  0  0  0  0999 V2000
   -2.8661   -4.7415    2.2943 C   0  0  0  0  0  0  0  0  0  0  0  0
   -2.0233   -5.5727    2.6109 O   0  0  0  0  0  0  0  0  0  0  0  0
   -4.3078   -5.0134    2.5698 C   0  0  0  0  0  0  0  0  0  0  0  0
   -4.8057   -5.5295    1.7332 H   0  0  0  0  0  0  0  0  0  0  0  0
   -4.4526   -5.6688    3.4436 H   0  0  0  0  0  0  0  0  0  0  0  0
   -4.9255   -4.1233    2.7700 H   0  0  0  0  0  0  0  0  0  0  0  0
   -2.6241   -3.5219    1.6838 N   0  0  0  0  0  0  0  0  0  0  0  0
   -1.3070   -3.0608    1.3315 C   0  0  2  0  0  0  0  0  0  0  0  0
   -1.3931   -1.5680    1.0422 C   0  0  0  0  0  0  0  0  0  0  0  0
   -2.4385   -1.0059    0.7226 O   0  0  0  0  0  0  0  0  0  0  0  0
   -0.7590   -3.8164    0.1309 C   0  0  0  0  0  0  0  0  0  0  0  0
   -3.4188   -2.9207    1.4735 H   0  0  0  0  0  0  0  0  0  0  0  0
   -0.6690   -3.2277    2.2062 H   0  0  0  0  0  0  0  0  0  0  0  0
   -1.3852   -3.6613   -0.7553 H   0  0  0  0  0  0  0  0  0  0  0  0
    0.2542   -3.4843   -0.1182 H   0  0  0  0  0  0  0  0  0  0  0  0
   -0.7257   -4.8930    0.3300 H   0  0  0  0  0  0  0  0  0  0  0  0
   -0.1563   -0.9420    1.1402 N   0  0  0  0  0  0  0  0  0  0  0  0
    0.0261    0.4671    0.9001 C   0  0  2  0  0  0  0  0  0  0  0  0
    0.6934    0.6545   -0.4609 C   0  0  0  0  0  0  0  0  0  0  0  0
    0.7129    1.7309   -1.0546 O   0  0  0  0  0  0  0  0  0  0  0  0
    0.7721    1.1610    2.0425 C   0  0  0  0  0  0  0  0  0  0  0  0
   -0.1417    1.1673    3.6196 S   0  0  0  0  0  0  0  0  0  0  0  0
    0.6533   -1.4855    1.4300 H   0  0  0  0  0  0  0  0  0  0  0  0
   -0.9848    0.8881    0.8340 H   0  0  0  0  0  0  0  0  0  0  0  0
    1.7356    0.6737    2.2242 H   0  0  0  0  0  0  0  0  0  0  0  0
    0.9744    2.2042    1.7767 H   0  0  0  0  0  0  0  0  0  0  0  0
    0.7945    1.8256    4.3149 H   0  0  0  0  0  0  0  0  0  0  0  0
    1.2411   -0.5254   -0.9439 N   0  0  0  0  0  0  0  0  0  0  0  0
    1.9174   -0.6064   -2.2174 C   0  0  2  0  0  0  0  0  0  0  0  0
    2.2387   -2.0705   -2.4871 C   0  0  0  0  0  0  0  0  0  0  0  0
    2.3231   -2.9137   -1.5966 O   0  0  0  0  0  0  0  0  0  0  0  0
    3.1820    0.2383   -2.2270 C   0  0  0  0  0  0  0  0  0  0  0  0
    1.2083   -1.3633   -0.3706 H   0  0  0  0  0  0  0  0  0  0  0  0
    1.2135   -0.2412   -2.9731 H   0  0  0  0  0  0  0  0  0  0  0  0
    3.8994   -0.1127   -1.4763 H   0  0  0  0  0  0  0  0  0  0  0  0
    3.6782    0.1985   -3.2023 H   0  0  0  0  0  0  0  0  0  0  0  0
    2.9527    1.2858   -2.0035 H   0  0  0  0  0  0  0  0  0  0  0  0
    2.4624   -2.3161   -3.8346 N   0  0  0  0  0  0  0  0  0  0  0  0
    2.7971   -3.6257   -4.3433 C   0  0  0  0  0  0  0  0  0  0  0  0
    2.3523   -1.5611   -4.5051 H   0  0  0  0  0  0  0  0  0  0  0  0
    3.8909   -3.7346   -4.3859 H   0  0  0  0  0  0  0  0  0  0  0  0
    2.3778   -4.3953   -3.6785 H   0  0  0  0  0  0  0  0  0  0  0  0
    2.3773   -3.7451   -5.3530 H   0  0  0  0  0  0  0  0  0  0  0  0
  1  3  1  0  0  0  0
  1  7  1  0  0  0  0
  1  2  2  0  0  0  0
 29 30  1  0  0  0  0
 30 38  1  0  0  0  0
 30 31  2  0  0  0  0
  8  9  1  0  0  0  0
  9 17  1  0  0  0  0
  9 10  2  0  0  0  0
 18 19  1  0  0  0  0
 19 28  1  0  0  0  0
 19 20  2  0  0  0  0
 29 32  1  0  0  0  0
  8 11  1  0  0  0  0
 38 39  1  0  0  0  0
 18 21  1  0  0  0  0
 21 22  1  0  0  0  0
 28 29  1  0  0  0  0
  7  8  1  0  0  0  0
 17 18  1  0  0  0  0
  3  4  1  0  0  0  0
  3  5  1  0  0  0  0
  3  6  1  0  0  0  0
 32 35  1  0  0  0  0
 32 36  1  0  0  0  0
 32 37  1  0  0  0  0
 11 14  1  0  0  0  0
 11 15  1  0  0  0  0
 11 16  1  0  0  0  0
 39 41  1  0  0  0  0
 39 42  1  0  0  0  0
 39 43  1  0  0  0  0
 21 25  1  0  0  0  0
 21 26  1  0  0  0  0
 29 34  1  0  0  0  0
  8 13  1  0  0  0  0
 18 24  1  0  0  0  0
 38 40  1  0  0  0  0
  7 12  1  0  0  0  0
 28 33  1  0  0  0  0
 17 23  1  0  0  0  0
 22 27  1  0  0  0  0
M  END
$$$$

  -OEChem-05262214473D

 43 42  0     1  0  0  0  0  0999 V2000
   -2.8661   -4.7415    2.2943 C   0  0  0  0  0  0  0  0  0  0  0  0
   -2.0233   -5.5727    2.6109 O   0  0  0  0  0  0  0  0  0  0  0  0
   -4.3078   -5.0134    2.5698 C   0  0  0  0  0  0  0  0  0  0  0  0
   -4.8057   -5.5295    1.7332 H   0  0  0  0  0  0  0  0  0  0  0  0
   -4.4526   -5.6688    3.4436 H   0  0  0  0  0  0  0  0  0  0  0  0
   -4.9255   -4.1233    2.7700 H   0  0  0  0  0  0  0  0  0  0  0  0
   -2.6241   -3.5219    1.6838 N   0  0  0  0  0  0  0  0  0  0  0  0
   -1.3070   -3.0608    1.3315 C   0  0  2  0  0  0  0  0  0  0  0  0
   -1.3931   -1.5680    1.0422 C   0  0  0  0  0  0  0  0  0  0  0  0
   -2.4385   -1.0059    0.7226 O   0  0  0  0  0  0  0  0  0  0  0  0
   -0.7590   -3.8164    0.1309 C   0  0  0  0  0  0  0  0  0  0  0  0
   -3.4188   -2.9207    1.4735 H   0  0  0  0  0  0  0  0  0  0  0  0
   -0.6690   -3.2277    2.2062 H   0  0  0  0  0  0  0  0  0  0  0  0
   -1.3852   -3.6613   -0.7553 H   0  0  0  0  0  0  0  0  0  0  0  0
    0.2542   -3.4843   -0.1182 H   0  0  0  0  0  0  0  0  0  0  0  0
   -0.7257   -4.8930    0.3300 H   0  0  0  0  0  0  0  0  0  0  0  0
   -0.1563   -0.9420    1.1402 N   0  0  0  0  0  0  0  0  0  0  0  0
    0.0261    0.4671    0.9001 C   0  0  2  0  0  0  0  0  0  0  0  0
    0.6934    0.6545   -0.4609 C   0  0  0  0  0  0  0  0  0  0  0  0
    0.9516    1.7596   -0.9336 O   0  0  0  0  0  0  0  0  0  0  0  0
    0.7721    1.1610    2.0425 C   0  0  0  0  0  0  0  0  0  0  0  0
   -0.1417    1.1673    3.6196 S   0  0  0  0  0  0  0  0  0  0  0  0
    0.6533   -1.4855    1.4300 H   0  0  0  0  0  0  0  0  0  0  0  0
   -0.9848    0.8881    0.8340 H   0  0  0  0  0  0  0  0  0  0  0  0
    1.7356    0.6737    2.2242 H   0  0  0  0  0  0  0  0  0  0  0  0
    0.9744    2.2042    1.7767 H   0  0  0  0  0  0  0  0  0  0  0  0
    0.7945    1.8256    4.3149 H   0  0  0  0  0  0  0  0  0  0  0  0
    0.9428   -0.5548   -1.0941 N   0  0  0  0  0  0  0  0  0  0  0  0
    1.5581   -0.6390   -2.3980 C   0  0  2  0  0  0  0  0  0  0  0  0
    1.5251   -2.0960   -2.8404 C   0  0  0  0  0  0  0  0  0  0  0  0
    1.4277   -3.0342   -2.0522 O   0  0  0  0  0  0  0  0  0  0  0  0
    2.9840   -0.1109   -2.3722 C   0  0  0  0  0  0  0  0  0  0  0  0
    0.7267   -1.4239   -0.6150 H   0  0  0  0  0  0  0  0  0  0  0  0
    0.9445   -0.0367   -3.0768 H   0  0  0  0  0  0  0  0  0  0  0  0
    3.6139   -0.7019   -1.6974 H   0  0  0  0  0  0  0  0  0  0  0  0
    3.4393   -0.1490   -3.3673 H   0  0  0  0  0  0  0  0  0  0  0  0
    3.0086    0.9278   -2.0254 H   0  0  0  0  0  0  0  0  0  0  0  0
    1.6607   -2.2271   -4.2153 N   0  0  0  0  0  0  0  0  0  0  0  0
    1.6723   -3.5100   -4.8788 C   0  0  0  0  0  0  0  0  0  0  0  0
    1.7167   -1.3940   -4.7937 H   0  0  0  0  0  0  0  0  0  0  0  0
    2.7099   -3.8605   -4.9822 H   0  0  0  0  0  0  0  0  0  0  0  0
    1.0980   -4.2355   -4.2839 H   0  0  0  0  0  0  0  0  0  0  0  0
    1.2176   -3.4113   -5.8755 H   0  0  0  0  0  0  0  0  0  0  0  0
  1  3  1  0  0  0  0
  1  7  1  0  0  0  0
  1  2  2  0  0  0  0
 29 30  1  0  0  0  0
 30 38  1  0  0  0  0
 30 31  2  0  0  0  0
  8  9  1  0  0  0  0
  9 17  1  0  0  0  0
  9 10  2  0  0  0  0
 18 19  1  0  0  0  0
 19 28  1  0  0  0  0
 19 20  2  0  0  0  0
 29 32  1  0  0  0  0
  8 11  1  0  0  0  0
 38 39  1  0  0  0  0
 18 21  1  0  0  0  0
 21 22  1  0  0  0  0
 28 29  1  0  0  0  0
  7  8  1  0  0  0  0
 17 18  1  0  0  0  0
  3  4  1  0  0  0  0
  3  5  1  0  0  0  0
  3  6  1  0  0  0  0
 32 35  1  0  0  0  0
 32 36  1  0  0  0  0
 32 37  1  0  0  0  0
 11 14  1  0  0  0  0
 11 15  1  0  0  0  0
 11 16  1  0  0  0  0
 39 41  1  0  0  0  0
 39 42  1  0  0  0  0
 39 43  1  0  0  0  0
 21 25  1  0  0  0  0
 21 26  1  0  0  0  0
 29 34  1  0  0  0  0
  8 13  1  0  0  0  0
 18 24  1  0  0  0  0
 38 40  1  0  0  0  0
  7 12  1  0  0  0  0
 28 33  1  0  0  0  0
 17 23  1  0  0  0  0
 22 27  1  0  0  0  0
M  END
$$$$

  -OEChem-05262214473D

 43 42  0     1  0  0  0  0  0999 V2000
   -2.8661   -4.7415    2.2943 C   0  0  0  0  0  0  0  0  0  0  0  0
   -2.0233   -5.5727    2.6109 O   0  0  0  0  0  0  0  0  0  0  0  0
   -4.3078   -5.0134    2.5698 C   0  0  0  0  0  0  0  0  0  0  0  0
   -4.8057   -5.5295    1.7332 H   0  0  0  0  0  0  0  0  0  0  0  0
   -4.4526   -5.6688    3.4436 H   0  0  0  0  0  0  0  0  0  0  0  0
   -4.9255   -4.1233    2.7700 H   0  0  0  0  0  0  0  0  0  0  0  0
   -2.6241   -3.5219    1.6838 N   0  0  0  0  0  0  0  0  0  0  0  0
   -1.3070   -3.0608    1.3315 C   0  0  2  0  0  0  0  0  0  0  0  0
   -1.3931   -1.5680    1.0422 C   0  0  0  0  0  0  0  0  0  0  0  0
   -2.4385   -1.0059    0.7226 O   0  0  0  0  0  0  0  0  0  0  0  0
   -0.7590   -3.8164    0.1309 C   0  0  0  0  0  0  0  0  0  0  0  0
   -3.4188   -2.9207    1.4735 H   0  0  0  0  0  0  0  0  0  0  0  0
   -0.6690   -3.2277    2.2062 H   0  0  0  0  0  0  0  0  0  0  0  0
   -1.3852   -3.6613   -0.7553 H   0  0  0  0  0  0  0  0  0  0  0  0
    0.2542   -3.4843   -0.1182 H   0  0  0  0  0  0  0  0  0  0  0  0
   -0.7257   -4.8930    0.3300 H   0  0  0  0  0  0  0  0  0  0  0  0
   -0.1563   -0.9420    1.1402 N   0  0  0  0  0  0  0  0  0  0  0  0
    0.0261    0.4671    0.9001 C   0  0  2  0  0  0  0  0  0  0  0  0
    0.6934    0.6545   -0.4609 C   0  0  0  0  0  0  0  0  0  0  0  0
    1.1927    1.7187   -0.8211 O   0  0  0  0  0  0  0  0  0  0  0  0
    0.7721    1.1610    2.0425 C   0  0  0  0  0  0  0  0  0  0  0  0
   -0.1417    1.1673    3.6196 S   0  0  0  0  0  0  0  0  0  0  0  0
    0.6533   -1.4855    1.4300 H   0  0  0  0  0  0  0  0  0  0  0  0
   -0.9848    0.8881    0.8340 H   0  0  0  0  0  0  0  0  0  0  0  0
    1.7356    0.6737    2.2242 H   0  0  0  0  0  0  0  0  0  0  0  0
    0.9744    2.2042    1.7767 H   0  0  0  0  0  0  0  0  0  0  0  0
    0.7945    1.8256    4.3149 H   0  0  0  0  0  0  0  0  0  0  0  0
    0.6431   -0.4973   -1.2332 N   0  0  0  0  0  0  0  0  0  0  0  0
    1.1977   -0.5672   -2.5648 C   0  0  2  0  0  0  0  0  0  0  0  0
    0.8188   -1.9161   -3.1619 C   0  0  0  0  0  0  0  0  0  0  0  0
    0.5205   -2.8926   -2.4774 O   0  0  0  0  0  0  0  0  0  0  0  0
    2.7075   -0.3861   -2.5456 C   0  0  0  0  0  0  0  0  0  0  0  0
    0.2398   -1.3438   -0.8427 H   0  0  0  0  0  0  0  0  0  0  0  0
    0.7285    0.2346   -3.1453 H   0  0  0  0  0  0  0  0  0  0  0  0
    3.1951   -1.1803   -1.9685 H   0  0  0  0  0  0  0  0  0  0  0  0
    3.1230   -0.4109   -3.5584 H   0  0  0  0  0  0  0  0  0  0  0  0
    2.9794    0.5716   -2.0887 H   0  0  0  0  0  0  0  0  0  0  0  0
    0.8947   -1.9133   -4.5476 N   0  0  0  0  0  0  0  0  0  0  0  0
    0.5955   -3.0783   -5.3472 C   0  0  0  0  0  0  0  0  0  0  0  0
    1.1322   -1.0534   -5.0333 H   0  0  0  0  0  0  0  0  0  0  0  0
    1.5211   -3.6423   -5.5350 H   0  0  0  0  0  0  0  0  0  0  0  0
   -0.1206   -3.7174   -4.8100 H   0  0  0  0  0  0  0  0  0  0  0  0
    0.1579   -2.7624   -6.3057 H   0  0  0  0  0  0  0  0  0  0  0  0
  1  3  1  0  0  0  0
  1  7  1  0  0  0  0
  1  2  2  0  0  0  0
 29 30  1  0  0  0  0
 30 38  1  0  0  0  0
 30 31  2  0  0  0  0
  8  9  1  0  0  0  0
  9 17  1  0  0  0  0
  9 10  2  0  0  0  0
 18 19  1  0  0  0  0
 19 28  1  0  0  0  0
 19 20  2  0  0  0  0
 29 32  1  0  0  0  0
  8 11  1  0  0  0  0
 38 39  1  0  0  0  0
 18 21  1  0  0  0  0
 21 22  1  0  0  0  0
 28 29  1  0  0  0  0
  7  8  1  0  0  0  0
 17 18  1  0  0  0  0
  3  4  1  0  0  0  0
  3  5  1  0  0  0  0
  3  6  1  0  0  0  0
 32 35  1  0  0  0  0
 32 36  1  0  0  0  0
 32 37  1  0  0  0  0
 11 14  1  0  0  0  0
 11 15  1  0  0  0  0
 11 16  1  0  0  0  0
 39 41  1  0  0  0  0
 39 42  1  0  0  0  0
 39 43  1  0  0  0  0
 21 25  1  0  0  0  0
 21 26  1  0  0  0  0
 29 34  1  0  0  0  0
  8 13  1  0  0  0  0
 18 24  1  0  0  0  0
 38 40  1  0  0  0  0
  7 12  1  0  0  0  0
 28 33  1  0  0  0  0
 17 23  1  0  0  0  0
 22 27  1  0  0  0  0
M  END
$$$$

  -OEChem-05262214473D

 43 42  0     1  0  0  0  0  0999 V2000
   -2.8661   -4.7415    2.2943 C   0  0  0  0  0  0  0  0  0  0  0  0
   -2.0233   -5.5727    2.6109 O   0  0  0  0  0  0  0  0  0  0  0  0
   -4.3078   -5.0134    2.5698 C   0  0  0  0  0  0  0  0  0  0  0  0
   -4.8057   -5.5295    1.7332 H   0  0  0  0  0  0  0  0  0  0  0  0
   -4.4526   -5.6688    3.4436 H   0  0  0  0  0  0  0  0  0  0  0  0
   -4.9255   -4.1233    2.7700 H   0  0  0  0  0  0  0  0  0  0  0  0
   -2.6241   -3.5219    1.6838 N   0  0  0  0  0  0  0  0  0  0  0  0
   -1.3070   -3.0608    1.3315 C   0  0  2  0  0  0  0  0  0  0  0  0
   -1.3931   -1.5680    1.0422 C   0  0  0  0  0  0  0  0  0  0  0  0
   -2.4385   -1.0059    0.7226 O   0  0  0  0  0  0  0  0  0  0  0  0
   -0.7590   -3.8164    0.1309 C   0  0  0  0  0  0  0  0  0  0  0  0
   -3.4188   -2.9207    1.4735 H   0  0  0  0  0  0  0  0  0  0  0  0
   -0.6690   -3.2277    2.2062 H   0  0  0  0  0  0  0  0  0  0  0  0
   -1.3852   -3.6613   -0.7553 H   0  0  0  0  0  0  0  0  0  0  0  0
    0.2542   -3.4843   -0.1182 H   0  0  0  0  0  0  0  0  0  0  0  0
   -0.7257   -4.8930    0.3300 H   0  0  0  0  0  0  0  0  0  0  0  0
   -0.1563   -0.9420    1.1402 N   0  0  0  0  0  0  0  0  0  0  0  0
    0.0261    0.4671    0.9001 C   0  0  2  0  0  0  0  0  0  0  0  0
    0.6934    0.6545   -0.4609 C   0  0  0  0  0  0  0  0  0  0  0  0
    1.4196    1.6108   -0.7247 O   0  0  0  0  0  0  0  0  0  0  0  0
    0.7721    1.1610    2.0425 C   0  0  0  0  0  0  0  0  0  0  0  0
   -0.1417    1.1673    3.6196 S   0  0  0  0  0  0  0  0  0  0  0  0
    0.6533   -1.4855    1.4300 H   0  0  0  0  0  0  0  0  0  0  0  0
   -0.9848    0.8881    0.8340 H   0  0  0  0  0  0  0  0  0  0  0  0
    1.7356    0.6737    2.2242 H   0  0  0  0  0  0  0  0  0  0  0  0
    0.9744    2.2042    1.7767 H   0  0  0  0  0  0  0  0  0  0  0  0
    0.7945    1.8256    4.3149 H   0  0  0  0  0  0  0  0  0  0  0  0
    0.3624   -0.3569   -1.3514 N   0  0  0  0  0  0  0  0  0  0  0  0
    0.8609   -0.3959   -2.7063 C   0  0  2  0  0  0  0  0  0  0  0  0
    0.1678   -1.5431   -3.4296 C   0  0  0  0  0  0  0  0  0  0  0  0
   -0.3366   -2.4985   -2.8433 O   0  0  0  0  0  0  0  0  0  0  0  0
    2.3715   -0.5686   -2.7354 C   0  0  0  0  0  0  0  0  0  0  0  0
   -0.2193   -1.1284   -1.0381 H   0  0  0  0  0  0  0  0  0  0  0  0
    0.5802    0.5541   -3.1740 H   0  0  0  0  0  0  0  0  0  0  0  0
    2.6718   -1.5150   -2.2712 H   0  0  0  0  0  0  0  0  0  0  0  0
    2.7511   -0.5693   -3.7626 H   0  0  0  0  0  0  0  0  0  0  0  0
    2.8670    0.2414   -2.1893 H   0  0  0  0  0  0  0  0  0  0  0  0
    0.2167   -1.3959   -4.8088 N   0  0  0  0  0  0  0  0  0  0  0  0
   -0.3599   -2.3599   -5.7167 C   0  0  0  0  0  0  0  0  0  0  0  0
    0.6385   -0.5624   -5.2077 H   0  0  0  0  0  0  0  0  0  0  0  0
    0.4056   -3.0949   -6.0065 H   0  0  0  0  0  0  0  0  0  0  0  0
   -1.1949   -2.8765   -5.2209 H   0  0  0  0  0  0  0  0  0  0  0  0
   -0.7297   -1.8426   -6.6142 H   0  0  0  0  0  0  0  0  0  0  0  0
  1  3  1  0  0  0  0
  1  7  1  0  0  0  0
  1  2  2  0  0  0  0
 29 30  1  0  0  0  0
 30 38  1  0  0  0  0
 30 31  2  0  0  0  0
  8  9  1  0  0  0  0
  9 17  1  0  0  0  0
  9 10  2  0  0  0  0
 18 19  1  0  0  0  0
 19 28  1  0  0  0  0
 19 20  2  0  0  0  0
 29 32  1  0  0  0  0
  8 11  1  0  0  0  0
 38 39  1  0  0  0  0
 18 21  1  0  0  0  0
 21 22  1  0  0  0  0
 28 29  1  0  0  0  0
  7  8  1  0  0  0  0
 17 18  1  0  0  0  0
  3  4  1  0  0  0  0
  3  5  1  0  0  0  0
  3  6  1  0  0  0  0
 32 35  1  0  0  0  0
 32 36  1  0  0  0  0
 32 37  1  0  0  0  0
 11 14  1  0  0  0  0
 11 15  1  0  0  0  0
 11 16  1  0  0  0  0
 39 41  1  0  0  0  0
 39 42  1  0  0  0  0
 39 43  1  0  0  0  0
 21 25  1  0  0  0  0
 21 26  1  0  0  0  0
 29 34  1  0  0  0  0
  8 13  1  0  0  0  0
 18 24  1  0  0  0  0
 38 40  1  0  0  0  0
  7 12  1  0  0  0  0
 28 33  1  0  0  0  0
 17 23  1  0  0  0  0
 22 27  1  0  0  0  0
M  END
$$$$

  -OEChem-05262214473D

 43 42  0     1  0  0  0  0  0999 V2000
   -2.8661   -4.7415    2.2943 C   0  0  0  0  0  0  0  0  0  0  0  0
   -2.0233   -5.5727    2.6109 O   0  0  0  0  0  0  0  0  0  0  0  0
   -4.3078   -5.0134    2.5698 C   0  0  0  0  0  0  0  0  0  0  0  0
   -4.8057   -5.5295    1.7332 H   0  0  0  0  0  0  0  0  0  0  0  0
   -4.4526   -5.6688    3.4436 H   0  0  0  0  0  0  0  0  0  0  0  0
   -4.9255   -4.1233    2.7700 H   0  0  0  0  0  0  0  0  0  0  0  0
   -2.6241   -3.5219    1.6838 N   0  0  0  0  0  0  0  0  0  0  0  0
   -1.3070   -3.0608    1.3315 C   0  0  2  0  0  0  0  0  0  0  0  0
   -1.3931   -1.5680    1.0422 C   0  0  0  0  0  0  0  0  0  0  0  0
   -2.4385   -1.0059    0.7226 O   0  0  0  0  0  0  0  0  0  0  0  0
   -0.7590   -3.8164    0.1309 C   0  0  0  0  0  0  0  0  0  0  0  0
   -3.4188   -2.9207    1.4735 H   0  0  0  0  0  0  0  0  0  0  0  0
   -0.6690   -3.2277    2.2062 H   0  0  0  0  0  0  0  0  0  0  0  0
   -1.3852   -3.6613   -0.7553 H   0  0  0  0  0  0  0  0  0  0  0  0
    0.2542   -3.4843   -0.1182 H   0  0  0  0  0  0  0  0  0  0  0  0
   -0.7257   -4.8930    0.3300 H   0  0  0  0  0  0  0  0  0  0  0  0
   -0.1563   -0.9420    1.1402 N   0  0  0  0  0  0  0  0  0  0  0  0
    0.0261    0.4671    0.9001 C   0  0  2  0  0  0  0  0  0  0  0  0
    0.6934    0.6545   -0.4609 C   0  0  0  0  0  0  0  0  0  0  0  0
    1.6170    1.4433   -0.6509 O   0  0  0  0  0  0  0  0  0  0  0  0
    0.7721    1.1610    2.0425 C   0  0  0  0  0  0  0  0  0  0  0  0
   -0.1417    1.1673    3.6196 S   0  0  0  0  0  0  0  0  0  0  0  0
    0.6533   -1.4855    1.4300 H   0  0  0  0  0  0  0  0  0  0  0  0
   -0.9848    0.8881    0.8340 H   0  0  0  0  0  0  0  0  0  0  0  0
    1.7356    0.6737    2.2242 H   0  0  0  0  0  0  0  0  0  0  0  0
    0.9744    2.2042    1.7767 H   0  0  0  0  0  0  0  0  0  0  0  0
    0.7945    1.8256    4.3149 H   0  0  0  0  0  0  0  0  0  0  0  0
    0.1200   -0.1433   -1.4409 N   0  0  0  0  0  0  0  0  0  0  0  0
    0.5706   -0.1367   -2.8130 C   0  0  2  0  0  0  0  0  0  0  0  0
   -0.3835   -1.0023   -3.6254 C   0  0  0  0  0  0  0  0  0  0  0  0
   -1.0852   -1.8788   -3.1250 O   0  0  0  0  0  0  0  0  0  0  0  0
    1.9989   -0.6459   -2.9288 C   0  0  0  0  0  0  0  0  0  0  0  0
   -0.6193   -0.7923   -1.1879 H   0  0  0  0  0  0  0  0  0  0  0  0
    0.5099    0.9003   -3.1609 H   0  0  0  0  0  0  0  0  0  0  0  0
    2.0794   -1.6835   -2.5848 H   0  0  0  0  0  0  0  0  0  0  0  0
    2.3488   -0.6134   -3.9658 H   0  0  0  0  0  0  0  0  0  0  0  0
    2.6791   -0.0402   -2.3202 H   0  0  0  0  0  0  0  0  0  0  0  0
   -0.3272   -0.7102   -4.9810 N   0  0  0  0  0  0  0  0  0  0  0  0
   -1.1288   -1.4039   -5.9620 C   0  0  0  0  0  0  0  0  0  0  0  0
    0.2694    0.0454   -5.3050 H   0  0  0  0  0  0  0  0  0  0  0  0
   -0.5606   -2.2555   -6.3646 H   0  0  0  0  0  0  0  0  0  0  0  0
   -2.0517   -1.7700   -5.4886 H   0  0  0  0  0  0  0  0  0  0  0  0
   -1.3848   -0.7145   -6.7800 H   0  0  0  0  0  0  0  0  0  0  0  0
  1  3  1  0  0  0  0
  1  7  1  0  0  0  0
  1  2  2  0  0  0  0
 29 30  1  0  0  0  0
 30 38  1  0  0  0  0
 30 31  2  0  0  0  0
  8  9  1  0  0  0  0
  9 17  1  0  0  0  0
  9 10  2  0  0  0  0
 18 19  1  0  0  0  0
 19 28  1  0  0  0  0
 19 20  2  0  0  0  0
 29 32  1  0  0  0  0
  8 11  1  0  0  0  0
 38 39  1  0  0  0  0
 18 21  1  0  0  0  0
 21 22  1  0  0  0  0
 28 29  1  0  0  0  0
  7  8  1  0  0  0  0
 17 18  1  0  0  0  0
  3  4  1  0  0  0  0
  3  5  1  0  0  0  0
  3  6  1  0  0  0  0
 32 35  1  0  0  0  0
 32 36  1  0  0  0  0
 32 37  1  0  0  0  0
 11 14  1  0  0  0  0
 11 15  1  0  0  0  0
 11 16  1  0  0  0  0
 39 41  1  0  0  0  0
 39 42  1  0  0  0  0
 39 43  1  0  0  0  0
 21 25  1  0  0  0  0
 21 26  1  0  0  0  0
 29 34  1  0  0  0  0
  8 13  1  0  0  0  0
 18 24  1  0  0  0  0
 38 40  1  0  0  0  0
  7 12  1  0  0  0  0
 28 33  1  0  0  0  0
 17 23  1  0  0  0  0
 22 27  1  0  0  0  0
M  END
$$$$

  -OEChem-05262214473D

 43 42  0     1  0  0  0  0  0999 V2000
   -2.8661   -4.7415    2.2943 C   0  0  0  0  0  0  0  0  0  0  0  0
   -2.0233   -5.5727    2.6109 O   0  0  0  0  0  0  0  0  0  0  0  0
   -4.3078   -5.0134    2.5698 C   0  0  0  0  0  0  0  0  0  0  0  0
   -4.8057   -5.5295    1.7332 H   0  0  0  0  0  0  0  0  0  0  0  0
   -4.4526   -5.6688    3.4436 H   0  0  0  0  0  0  0  0  0  0  0  0
   -4.9255   -4.1233    2.7700 H   0  0  0  0  0  0  0  0  0  0  0  0
   -2.6241   -3.5219    1.6838 N   0  0  0  0  0  0  0  0  0  0  0  0
   -1.3070   -3.0608    1.3315 C   0  0  2  0  0  0  0  0  0  0  0  0
   -1.3931   -1.5680    1.0422 C   0  0  0  0  0  0  0  0  0  0  0  0
   -2.4385   -1.0059    0.7226 O   0  0  0  0  0  0  0  0  0  0  0  0
   -0.7590   -3.8164    0.1309 C   0  0  0  0  0  0  0  0  0  0  0  0
   -3.4188   -2.9207    1.4735 H   0  0  0  0  0  0  0  0  0  0  0  0
   -0.6690   -3.2277    2.2062 H   0  0  0  0  0  0  0  0  0  0  0  0
   -1.3852   -3.6613   -0.7553 H   0  0  0  0  0  0  0  0  0  0  0  0
    0.2542   -3.4843   -0.1182 H   0  0  0  0  0  0  0  0  0  0  0  0
   -0.7257   -4.8930    0.3300 H   0  0  0  0  0  0  0  0  0  0  0  0
   -0.1563   -0.9420    1.1402 N   0  0  0  0  0  0  0  0  0  0  0  0
    0.0261    0.4671    0.9001 C   0  0  2  0  0  0  0  0  0  0  0  0
    0.6934    0.6545   -0.4609 C   0  0  0  0  0  0  0  0  0  0  0  0
    1.7714    1.2277   -0.6049 O   0  0  0  0  0  0  0  0  0  0  0  0
    0.7721    1.1610    2.0425 C   0  0  0  0  0  0  0  0  0  0  0  0
   -0.1417    1.1673    3.6196 S   0  0  0  0  0  0  0  0  0  0  0  0
    0.6533   -1.4855    1.4300 H   0  0  0  0  0  0  0  0  0  0  0  0
   -0.9848    0.8881    0.8340 H   0  0  0  0  0  0  0  0  0  0  0  0
    1.7356    0.6737    2.2242 H   0  0  0  0  0  0  0  0  0  0  0  0
    0.9744    2.2042    1.7767 H   0  0  0  0  0  0  0  0  0  0  0  0
    0.7945    1.8256    4.3149 H   0  0  0  0  0  0  0  0  0  0  0  0
   -0.0678    0.1292   -1.4954 N   0  0  0  0  0  0  0  0  0  0  0  0
    0.3465    0.1927   -2.8775 C   0  0  2  0  0  0  0  0  0  0  0  0
   -0.7974   -0.3307   -3.7359 C   0  0  0  0  0  0  0  0  0  0  0  0
   -1.6743   -1.0756   -3.3032 O   0  0  0  0  0  0  0  0  0  0  0  0
    1.6149   -0.6127   -3.1124 C   0  0  0  0  0  0  0  0  0  0  0  0
   -0.9329   -0.3585   -1.2819 H   0  0  0  0  0  0  0  0  0  0  0  0
    0.5221    1.2493   -3.1068 H   0  0  0  0  0  0  0  0  0  0  0  0
    1.4584   -1.6741   -2.8879 H   0  0  0  0  0  0  0  0  0  0  0  0
    1.9436   -0.5403   -4.1544 H   0  0  0  0  0  0  0  0  0  0  0  0
    2.4284   -0.2541   -2.4725 H   0  0  0  0  0  0  0  0  0  0  0  0
   -0.6999    0.0971   -5.0526 N   0  0  0  0  0  0  0  0  0  0  0  0
   -1.6587   -0.2754   -6.0664 C   0  0  0  0  0  0  0  0  0  0  0  0
    0.0499    0.7286   -5.3186 H   0  0  0  0  0  0  0  0  0  0  0  0
   -1.3117   -1.1814   -6.5849 H   0  0  0  0  0  0  0  0  0  0  0  0
   -2.6326   -0.4733   -5.5948 H   0  0  0  0  0  0  0  0  0  0  0  0
   -1.7626    0.5450   -6.7918 H   0  0  0  0  0  0  0  0  0  0  0  0
  1  3  1  0  0  0  0
  1  7  1  0  0  0  0
  1  2  2  0  0  0  0
 29 30  1  0  0  0  0
 30 38  1  0  0  0  0
 30 31  2  0  0  0  0
  8  9  1  0  0  0  0
  9 17  1  0  0  0  0
  9 10  2  0  0  0  0
 18 19  1  0  0  0  0
 19 28  1  0  0  0  0
 19 20  2  0  0  0  0
 29 32  1  0  0  0  0
  8 11  1  0  0  0  0
 38 39  1  0  0  0  0
 18 21  1  0  0  0  0
 21 22  1  0  0  0  0
 28 29  1  0  0  0  0
  7  8  1  0  0  0  0
 17 18  1  0  0  0  0
  3  4  1  0  0  0  0
  3  5  1  0  0  0  0
  3  6  1  0  0  0  0
 32 35  1  0  0  0  0
 32 36  1  0  0  0  0
 32 37  1  0  0  0  0
 11 14  1  0  0  0  0
 11 15  1  0  0  0  0
 11 16  1  0  0  0  0
 39 41  1  0  0  0  0
 39 42  1  0  0  0  0
 39 43  1  0  0  0  0
 21 25  1  0  0  0  0
 21 26  1  0  0  0  0
 29 34  1  0  0  0  0
  8 13  1  0  0  0  0
 18 24  1  0  0  0  0
 38 40  1  0  0  0  0
  7 12  1  0  0  0  0
 28 33  1  0  0  0  0
 17 23  1  0  0  0  0
 22 27  1  0  0  0  0
M  END
$$$$

  -OEChem-05262214473D

 43 42  0     1  0  0  0  0  0999 V2000
   -2.8661   -4.7415    2.2943 C   0  0  0  0  0  0  0  0  0  0  0  0
   -2.0233   -5.5727    2.6109 O   0  0  0  0  0  0  0  0  0  0  0  0
   -4.3078   -5.0134    2.5698 C   0  0  0  0  0  0  0  0  0  0  0  0
   -4.8057   -5.5295    1.7332 H   0  0  0  0  0  0  0  0  0  0  0  0
   -4.4526   -5.6688    3.4436 H   0  0  0  0  0  0  0  0  0  0  0  0
   -4.9255   -4.1233    2.7700 H   0  0  0  0  0  0  0  0  0  0  0  0
   -2.6241   -3.5219    1.6838 N   0  0  0  0  0  0  0  0  0  0  0  0
   -1.3070   -3.0608    1.3315 C   0  0  2  0  0  0  0  0  0  0  0  0
   -1.3931   -1.5680    1.0422 C   0  0  0  0  0  0  0  0  0  0  0  0
   -2.4385   -1.0059    0.7226 O   0  0  0  0  0  0  0  0  0  0  0  0
   -0.7590   -3.8164    0.1309 C   0  0  0  0  0  0  0  0  0  0  0  0
   -3.4188   -2.9207    1.4735 H   0  0  0  0  0  0  0  0  0  0  0  0
   -0.6690   -3.2277    2.2062 H   0  0  0  0  0  0  0  0  0  0  0  0
   -1.3852   -3.6613   -0.7553 H   0  0  0  0  0  0  0  0  0  0  0  0
    0.2542   -3.4843   -0.1182 H   0  0  0  0  0  0  0  0  0  0  0  0
   -0.7257   -4.8930    0.3300 H   0  0  0  0  0  0  0  0  0  0  0  0
   -0.1563   -0.9420    1.1402 N   0  0  0  0  0  0  0  0  0  0  0  0
    0.0261    0.4671    0.9001 C   0  0  2  0  0  0  0  0  0  0  0  0
    0.6934    0.6545   -0.4609 C   0  0  0  0  0  0  0  0  0  0  0  0
    1.8722    0.9786   -0.5898 O   0  0  0  0  0  0  0  0  0  0  0  0
    0.7721    1.1610    2.0425 C   0  0  0  0  0  0  0  0  0  0  0  0
   -0.1417    1.1673    3.6196 S   0  0  0  0  0  0  0  0  0  0  0  0
    0.6533   -1.4855    1.4300 H   0  0  0  0  0  0  0  0  0  0  0  0
   -0.9848    0.8881    0.8340 H   0  0  0  0  0  0  0  0  0  0  0  0
    1.7356    0.6737    2.2242 H   0  0  0  0  0  0  0  0  0  0  0  0
    0.9744    2.2042    1.7767 H   0  0  0  0  0  0  0  0  0  0  0  0
    0.7945    1.8256    4.3149 H   0  0  0  0  0  0  0  0  0  0  0  0
   -0.1881    0.4418   -1.5113 N   0  0  0  0  0  0  0  0  0  0  0  0
    0.2040    0.5698   -2.8954 C   0  0  2  0  0  0  0  0  0  0  0  0
   -1.0459    0.4260   -3.7536 C   0  0  0  0  0  0  0  0  0  0  0  0
   -2.0638   -0.1438   -3.3659 O   0  0  0  0  0  0  0  0  0  0  0  0
    1.2459   -0.4714   -3.2739 C   0  0  0  0  0  0  0  0  0  0  0  0
   -1.1387    0.1435   -1.3137 H   0  0  0  0  0  0  0  0  0  0  0  0
    0.6162    1.5776   -3.0155 H   0  0  0  0  0  0  0  0  0  0  0  0
    0.8511   -1.4876   -3.1599 H   0  0  0  0  0  0  0  0  0  0  0  0
    1.5631   -0.3549   -4.3154 H   0  0  0  0  0  0  0  0  0  0  0  0
    2.1322   -0.3857   -2.6359 H   0  0  0  0  0  0  0  0  0  0  0  0
   -0.8760    0.9709   -5.0186 N   0  0  0  0  0  0  0  0  0  0  0  0
   -1.9137    0.9487   -6.0229 C   0  0  0  0  0  0  0  0  0  0  0  0
   -0.0050    1.4407   -5.2474 H   0  0  0  0  0  0  0  0  0  0  0  0
   -1.7964    0.0543   -6.6524 H   0  0  0  0  0  0  0  0  0  0  0  0
   -2.8980    0.9252   -5.5324 H   0  0  0  0  0  0  0  0  0  0  0  0
   -1.8374    1.8500   -6.6488 H   0  0  0  0  0  0  0  0  0  0  0  0
  1  3  1  0  0  0  0
  1  7  1  0  0  0  0
  1  2  2  0  0  0  0
 29 30  1  0  0  0  0
 30 38  1  0  0  0  0
 30 31  2  0  0  0  0
  8  9  1  0  0  0  0
  9 17  1  0  0  0  0
  9 10  2  0  0  0  0
 18 19  1  0  0  0  0
 19 28  1  0  0  0  0
 19 20  2  0  0  0  0
 29 32  1  0  0  0  0
  8 11  1  0  0  0  0
 38 39  1  0  0  0  0
 18 21  1  0  0  0  0
 21 22  1  0  0  0  0
 28 29  1  0  0  0  0
  7  8  1  0  0  0  0
 17 18  1  0  0  0  0
  3  4  1  0  0  0  0
  3  5  1  0  0  0  0
  3  6  1  0  0  0  0
 32 35  1  0  0  0  0
 32 36  1  0  0  0  0
 32 37  1  0  0  0  0
 11 14  1  0  0  0  0
 11 15  1  0  0  0  0
 11 16  1  0  0  0  0
 39 41  1  0  0  0  0
 39 42  1  0  0  0  0
 39 43  1  0  0  0  0
 21 25  1  0  0  0  0
 21 26  1  0  0  0  0
 29 34  1  0  0  0  0
  8 13  1  0  0  0  0
 18 24  1  0  0  0  0
 38 40  1  0  0  0  0
  7 12  1  0  0  0  0
 28 33  1  0  0  0  0
 17 23  1  0  0  0  0
 22 27  1  0  0  0  0
M  END
$$$$

  -OEChem-05262214473D

 43 42  0     1  0  0  0  0  0999 V2000
   -2.8661   -4.7415    2.2943 C   0  0  0  0  0  0  0  0  0  0  0  0
   -2.0233   -5.5727    2.6109 O   0  0  0  0  0  0  0  0  0  0  0  0
   -4.3078   -5.0134    2.5698 C   0  0  0  0  0  0  0  0  0  0  0  0
   -4.8057   -5.5295    1.7332 H   0  0  0  0  0  0  0  0  0  0  0  0
   -4.4526   -5.6688    3.4436 H   0  0  0  0  0  0  0  0  0  0  0  0
   -4.9255   -4.1233    2.7700 H   0  0  0  0  0  0  0  0  0  0  0  0
   -2.6241   -3.5219    1.6838 N   0  0  0  0  0  0  0  0  0  0  0  0
   -1.3070   -3.0608    1.3315 C   0  0  2  0  0  0  0  0  0  0  0  0
   -1.3931   -1.5680    1.0422 C   0  0  0  0  0  0  0  0  0  0  0  0
   -2.4385   -1.0059    0.7226 O   0  0  0  0  0  0  0  0  0  0  0  0
   -0.7590   -3.8164    0.1309 C   0  0  0  0  0  0  0  0  0  0  0  0
   -3.4188   -2.9207    1.4735 H   0  0  0  0  0  0  0  0  0  0  0  0
   -0.6690   -3.2277    2.2062 H   0  0  0  0  0  0  0  0  0  0  0  0
   -1.3852   -3.6613   -0.7553 H   0  0  0  0  0  0  0  0  0  0  0  0
    0.2542   -3.4843   -0.1182 H   0  0  0  0  0  0  0  0  0  0  0  0
   -0.7257   -4.8930    0.3300 H   0  0  0  0  0  0  0  0  0  0  0  0
   -0.1563   -0.9420    1.1402 N   0  0  0  0  0  0  0  0  0  0  0  0
    0.0261    0.4671    0.9001 C   0  0  2  0  0  0  0  0  0  0  0  0
    0.6934    0.6545   -0.4609 C   0  0  0  0  0  0  0  0  0  0  0  0
    1.9127    0.7130   -0.6065 O   0  0  0  0  0  0  0  0  0  0  0  0
    0.7721    1.1610    2.0425 C   0  0  0  0  0  0  0  0  0  0  0  0
   -0.1417    1.1673    3.6196 S   0  0  0  0  0  0  0  0  0  0  0  0
    0.6533   -1.4855    1.4300 H   0  0  0  0  0  0  0  0  0  0  0  0
   -0.9848    0.8881    0.8340 H   0  0  0  0  0  0  0  0  0  0  0  0
    1.7356    0.6737    2.2242 H   0  0  0  0  0  0  0  0  0  0  0  0
    0.9744    2.2042    1.7767 H   0  0  0  0  0  0  0  0  0  0  0  0
    0.7945    1.8256    4.3149 H   0  0  0  0  0  0  0  0  0  0  0  0
   -0.2327    0.7733   -1.4875 N   0  0  0  0  0  0  0  0  0  0  0  0
    0.1528    0.9689   -2.8656 C   0  0  2  0  0  0  0  0  0  0  0  0
   -1.1120    1.2162   -3.6771 C   0  0  0  0  0  0  0  0  0  0  0  0
   -2.2271    0.8531   -3.3087 O   0  0  0  0  0  0  0  0  0  0  0  0
    0.9169   -0.2315   -3.4021 C   0  0  0  0  0  0  0  0  0  0  0  0
   -1.2227    0.6795   -1.2811 H   0  0  0  0  0  0  0  0  0  0  0  0
    0.7857    1.8626   -2.8931 H   0  0  0  0  0  0  0  0  0  0  0  0
    0.2989   -1.1365   -3.3823 H   0  0  0  0  0  0  0  0  0  0  0  0
    1.2332   -0.0699   -4.4379 H   0  0  0  0  0  0  0  0  0  0  0  0
    1.8105   -0.4260   -2.7991 H   0  0  0  0  0  0  0  0  0  0  0  0
   -0.8434    1.8516   -4.8814 N   0  0  0  0  0  0  0  0  0  0  0  0
   -1.8763    2.1849   -5.8343 C   0  0  0  0  0  0  0  0  0  0  0  0
    0.1085    2.1331   -5.0964 H   0  0  0  0  0  0  0  0  0  0  0  0
   -1.9818    1.3672   -6.5625 H   0  0  0  0  0  0  0  0  0  0  0  0
   -2.8299    2.3302   -5.3055 H   0  0  0  0  0  0  0  0  0  0  0  0
   -1.6041    3.1117   -6.3608 H   0  0  0  0  0  0  0  0  0  0  0  0
  1  3  1  0  0  0  0
  1  7  1  0  0  0  0
  1  2  2  0  0  0  0
 29 30  1  0  0  0  0
 30 38  1  0  0  0  0
 30 31  2  0  0  0  0
  8  9  1  0  0  0  0
  9 17  1  0  0  0  0
  9 10  2  0  0  0  0
 18 19  1  0  0  0  0
 19 28  1  0  0  0  0
 19 20  2  0  0  0  0
 29 32  1  0  0  0  0
  8 11  1  0  0  0  0
 38 39  1  0  0  0  0
 18 21  1  0  0  0  0
 21 22  1  0  0  0  0
 28 29  1  0  0  0  0
  7  8  1  0  0  0  0
 17 18  1  0  0  0  0
  3  4  1  0  0  0  0
  3  5  1  0  0  0  0
  3  6  1  0  0  0  0
 32 35  1  0  0  0  0
 32 36  1  0  0  0  0
 32 37  1  0  0  0  0
 11 14  1  0  0  0  0
 11 15  1  0  0  0  0
 11 16  1  0  0  0  0
 39 41  1  0  0  0  0
 39 42  1  0  0  0  0
 39 43  1  0  0  0  0
 21 25  1  0  0  0  0
 21 26  1  0  0  0  0
 29 34  1  0  0  0  0
  8 13  1  0  0  0  0
 18 24  1  0  0  0  0
 38 40  1  0  0  0  0
  7 12  1  0  0  0  0
 28 33  1  0  0  0  0
 17 23  1  0  0  0  0
 22 27  1  0  0  0  0
M  END
$$$$

  -OEChem-05262214473D

 43 42  0     1  0  0  0  0  0999 V2000
   -2.8661   -4.7415    2.2943 C   0  0  0  0  0  0  0  0  0  0  0  0
   -2.0233   -5.5727    2.6109 O   0  0  0  0  0  0  0  0  0  0  0  0
   -4.3078   -5.0134    2.5698 C   0  0  0  0  0  0  0  0  0  0  0  0
   -4.8057   -5.5295    1.7332 H   0  0  0  0  0  0  0  0  0  0  0  0
   -4.4526   -5.6688    3.4436 H   0  0  0  0  0  0  0  0  0  0  0  0
   -4.9255   -4.1233    2.7700 H   0  0  0  0  0  0  0  0  0  0  0  0
   -2.6241   -3.5219    1.6838 N   0  0  0  0  0  0  0  0  0  0  0  0
   -1.3070   -3.0608    1.3315 C   0  0  2  0  0  0  0  0  0  0  0  0
   -1.3931   -1.5680    1.0422 C   0  0  0  0  0  0  0  0  0  0  0  0
   -2.4385   -1.0059    0.7226 O   0  0  0  0  0  0  0  0  0  0  0  0
   -0.7590   -3.8164    0.1309 C   0  0  0  0  0  0  0  0  0  0  0  0
   -3.4188   -2.9207    1.4735 H   0  0  0  0  0  0  0  0  0  0  0  0
   -0.6690   -3.2277    2.2062 H   0  0  0  0  0  0  0  0  0  0  0  0
   -1.3852   -3.6613   -0.7553 H   0  0  0  0  0  0  0  0  0  0  0  0
    0.2542   -3.4843   -0.1182 H   0  0  0  0  0  0  0  0  0  0  0  0
   -0.7257   -4.8930    0.3300 H   0  0  0  0  0  0  0  0  0  0  0  0
   -0.1563   -0.9420    1.1402 N   0  0  0  0  0  0  0  0  0  0  0  0
    0.0261    0.4671    0.9001 C   0  0  2  0  0  0  0  0  0  0  0  0
    0.6934    0.6545   -0.4609 C   0  0  0  0  0  0  0  0  0  0  0  0
    1.8900    0.4491   -0.6540 O   0  0  0  0  0  0  0  0  0  0  0  0
    0.7721    1.1610    2.0425 C   0  0  0  0  0  0  0  0  0  0  0  0
   -0.1417    1.1673    3.6196 S   0  0  0  0  0  0  0  0  0  0  0  0
    0.6533   -1.4855    1.4300 H   0  0  0  0  0  0  0  0  0  0  0  0
   -0.9848    0.8881    0.8340 H   0  0  0  0  0  0  0  0  0  0  0  0
    1.7356    0.6737    2.2242 H   0  0  0  0  0  0  0  0  0  0  0  0
    0.9744    2.2042    1.7767 H   0  0  0  0  0  0  0  0  0  0  0  0
    0.7945    1.8256    4.3149 H   0  0  0  0  0  0  0  0  0  0  0  0
   -0.1985    1.1011   -1.4257 N   0  0  0  0  0  0  0  0  0  0  0  0
    0.1963    1.3629   -2.7900 C   0  0  2  0  0  0  0  0  0  0  0  0
   -0.9911    1.9860   -3.5119 C   0  0  0  0  0  0  0  0  0  0  0  0
   -2.1531    1.8473   -3.1355 O   0  0  0  0  0  0  0  0  0  0  0  0
    0.6504    0.0906   -3.4884 C   0  0  0  0  0  0  0  0  0  0  0  0
   -1.1793    1.2129   -1.1864 H   0  0  0  0  0  0  0  0  0  0  0  0
    1.0190    2.0850   -2.7481 H   0  0  0  0  0  0  0  0  0  0  0  0
   -0.1606   -0.6450   -3.5399 H   0  0  0  0  0  0  0  0  0  0  0  0
    0.9764    0.2954   -4.5135 H   0  0  0  0  0  0  0  0  0  0  0  0
    1.4853   -0.3722   -2.9512 H   0  0  0  0  0  0  0  0  0  0  0  0
   -0.6045    2.6794   -4.6503 N   0  0  0  0  0  0  0  0  0  0  0  0
   -1.5490    3.3491   -5.5136 C   0  0  0  0  0  0  0  0  0  0  0  0
    0.3827    2.7587   -4.8759 H   0  0  0  0  0  0  0  0  0  0  0  0
   -1.8552    2.6680   -6.3213 H   0  0  0  0  0  0  0  0  0  0  0  0
   -2.4328    3.6459   -4.9297 H   0  0  0  0  0  0  0  0  0  0  0  0
   -1.0787    4.2439   -5.9473 H   0  0  0  0  0  0  0  0  0  0  0  0
  1  3  1  0  0  0  0
  1  7  1  0  0  0  0
  1  2  2  0  0  0  0
 29 30  1  0  0  0  0
 30 38  1  0  0  0  0
 30 31  2  0  0  0  0
  8  9  1  0  0  0  0
  9 17  1  0  0  0  0
  9 10  2  0  0  0  0
 18 19  1  0  0  0  0
 19 28  1  0  0  0  0
 19 20  2  0  0  0  0
 29 32  1  0  0  0  0
  8 11  1  0  0  0  0
 38 39  1  0  0  0  0
 18 21  1  0  0  0  0
 21 22  1  0  0  0  0
 28 29  1  0  0  0  0
  7  8  1  0  0  0  0
 17 18  1  0  0  0  0
  3  4  1  0  0  0  0
  3  5  1  0  0  0  0
  3  6  1  0  0  0  0
 32 35  1  0  0  0  0
 32 36  1  0  0  0  0
 32 37  1  0  0  0  0
 11 14  1  0  0  0  0
 11 15  1  0  0  0  0
 11 16  1  0  0  0  0
 39 41  1  0  0  0  0
 39 42  1  0  0  0  0
 39 43  1  0  0  0  0
 21 25  1  0  0  0  0
 21 26  1  0  0  0  0
 29 34  1  0  0  0  0
  8 13  1  0  0  0  0
 18 24  1  0  0  0  0
 38 40  1  0  0  0  0
  7 12  1  0  0  0  0
 28 33  1  0  0  0  0
 17 23  1  0  0  0  0
 22 27  1  0  0  0  0
M  END
$$$$

  -OEChem-05262214473D

 43 42  0     1  0  0  0  0  0999 V2000
   -2.8661   -4.7415    2.2943 C   0  0  0  0  0  0  0  0  0  0  0  0
   -2.0233   -5.5727    2.6109 O   0  0  0  0  0  0  0  0  0  0  0  0
   -4.3078   -5.0134    2.5698 C   0  0  0  0  0  0  0  0  0  0  0  0
   -4.8057   -5.5295    1.7332 H   0  0  0  0  0  0  0  0  0  0  0  0
   -4.4526   -5.6688    3.4436 H   0  0  0  0  0  0  0  0  0  0  0  0
   -4.9255   -4.1233    2.7700 H   0  0  0  0  0  0  0  0  0  0  0  0
   -2.6241   -3.5219    1.6838 N   0  0  0  0  0  0  0  0  0  0  0  0
   -1.3070   -3.0608    1.3315 C   0  0  2  0  0  0  0  0  0  0  0  0
   -1.3931   -1.5680    1.0422 C   0  0  0  0  0  0  0  0  0  0  0  0
   -2.4385   -1.0059    0.7226 O   0  0  0  0  0  0  0  0  0  0  0  0
   -0.7590   -3.8164    0.1309 C   0  0  0  0  0  0  0  0  0  0  0  0
   -3.4188   -2.9207    1.4735 H   0  0  0  0  0  0  0  0  0  0  0  0
   -0.6690   -3.2277    2.2062 H   0  0  0  0  0  0  0  0  0  0  0  0
   -1.3852   -3.6613   -0.7553 H   0  0  0  0  0  0  0  0  0  0  0  0
    0.2542   -3.4843   -0.1182 H   0  0  0  0  0  0  0  0  0  0  0  0
   -0.7257   -4.8930    0.3300 H   0  0  0  0  0  0  0  0  0  0  0  0
   -0.1563   -0.9420    1.1402 N   0  0  0  0  0  0  0  0  0  0  0  0
    0.0261    0.4671    0.9001 C   0  0  2  0  0  0  0  0  0  0  0  0
    0.6934    0.6545   -0.4609 C   0  0  0  0  0  0  0  0  0  0  0  0
    1.8057    0.2047   -0.7290 O   0  0  0  0  0  0  0  0  0  0  0  0
    0.7721    1.1610    2.0425 C   0  0  0  0  0  0  0  0  0  0  0  0
   -0.1417    1.1673    3.6196 S   0  0  0  0  0  0  0  0  0  0  0  0
    0.6533   -1.4855    1.4300 H   0  0  0  0  0  0  0  0  0  0  0  0
   -0.9848    0.8881    0.8340 H   0  0  0  0  0  0  0  0  0  0  0  0
    1.7356    0.6737    2.2242 H   0  0  0  0  0  0  0  0  0  0  0  0
    0.9744    2.2042    1.7767 H   0  0  0  0  0  0  0  0  0  0  0  0
    0.7945    1.8256    4.3149 H   0  0  0  0  0  0  0  0  0  0  0  0
   -0.0879    1.4029   -1.3299 N   0  0  0  0  0  0  0  0  0  0  0  0
    0.3316    1.7249   -2.6738 C   0  0  2  0  0  0  0  0  0  0  0  0
   -0.6916    2.6831   -3.2691 C   0  0  0  0  0  0  0  0  0  0  0  0
   -1.8468    2.7709   -2.8582 O   0  0  0  0  0  0  0  0  0  0  0  0
    0.4645    0.4729   -3.5269 C   0  0  0  0  0  0  0  0  0  0  0  0
   -1.0113    1.7073   -1.0359 H   0  0  0  0  0  0  0  0  0  0  0  0
    1.3003    2.2296   -2.5903 H   0  0  0  0  0  0  0  0  0  0  0  0
   -0.4961   -0.0463   -3.6219 H   0  0  0  0  0  0  0  0  0  0  0  0
    0.8102    0.7160   -4.5371 H   0  0  0  0  0  0  0  0  0  0  0  0
    1.1787   -0.2281   -3.0816 H   0  0  0  0  0  0  0  0  0  0  0  0
   -0.1755    3.3977   -4.3411 N   0  0  0  0  0  0  0  0  0  0  0  0
   -0.9542    4.3619   -5.0826 C   0  0  0  0  0  0  0  0  0  0  0  0
    0.7988    3.2748   -4.6009 H   0  0  0  0  0  0  0  0  0  0  0  0
   -1.4252    3.8681   -5.9453 H   0  0  0  0  0  0  0  0  0  0  0  0
   -1.7338    4.7827   -4.4305 H   0  0  0  0  0  0  0  0  0  0  0  0
   -0.2968    5.1697   -5.4365 H   0  0  0  0  0  0  0  0  0  0  0  0
  1  3  1  0  0  0  0
  1  7  1  0  0  0  0
  1  2  2  0  0  0  0
 29 30  1  0  0  0  0
 30 38  1  0  0  0  0
 30 31  2  0  0  0  0
  8  9  1  0  0  0  0
  9 17  1  0  0  0  0
  9 10  2  0  0  0  0
 18 19  1  0  0  0  0
 19 28  1  0  0  0  0
 19 20  2  0  0  0  0
 29 32  1  0  0  0  0
  8 11  1  0  0  0  0
 38 39  1  0  0  0  0
 18 21  1  0  0  0  0
 21 22  1  0  0  0  0
 28 29  1  0  0  0  0
  7  8  1  0  0  0  0
 17 18  1  0  0  0  0
  3  4  1  0  0  0  0
  3  5  1  0  0  0  0
  3  6  1  0  0  0  0
 32 35  1  0  0  0  0
 32 36  1  0  0  0  0
 32 37  1  0  0  0  0
 11 14  1  0  0  0  0
 11 15  1  0  0  0  0
 11 16  1  0  0  0  0
 39 41  1  0  0  0  0
 39 42  1  0  0  0  0
 39 43  1  0  0  0  0
 21 25  1  0  0  0  0
 21 26  1  0  0  0  0
 29 34  1  0  0  0  0
  8 13  1  0  0  0  0
 18 24  1  0  0  0  0
 38 40  1  0  0  0  0
  7 12  1  0  0  0  0
 28 33  1  0  0  0  0
 17 23  1  0  0  0  0
 22 27  1  0  0  0  0
M  END
$$$$

  -OEChem-05262214473D

 43 42  0     1  0  0  0  0  0999 V2000
   -2.8661   -4.7415    2.2943 C   0  0  0  0  0  0  0  0  0  0  0  0
   -2.0233   -5.5727    2.6109 O   0  0  0  0  0  0  0  0  0  0  0  0
   -4.3078   -5.0134    2.5698 C   0  0  0  0  0  0  0  0  0  0  0  0
   -4.8057   -5.5295    1.7332 H   0  0  0  0  0  0  0  0  0  0  0  0
   -4.4526   -5.6688    3.4436 H   0  0  0  0  0  0  0  0  0  0  0  0
   -4.9255   -4.1233    2.7700 H   0  0  0  0  0  0  0  0  0  0  0  0
   -2.6241   -3.5219    1.6838 N   0  0  0  0  0  0  0  0  0  0  0  0
   -1.3070   -3.0608    1.3315 C   0  0  2  0  0  0  0  0  0  0  0  0
   -1.3931   -1.5680    1.0422 C   0  0  0  0  0  0  0  0  0  0  0  0
   -2.4385   -1.0059    0.7226 O   0  0  0  0  0  0  0  0  0  0  0  0
   -0.7590   -3.8164    0.1309 C   0  0  0  0  0  0  0  0  0  0  0  0
   -3.4188   -2.9207    1.4735 H   0  0  0  0  0  0  0  0  0  0  0  0
   -0.6690   -3.2277    2.2062 H   0  0  0  0  0  0  0  0  0  0  0  0
   -1.3852   -3.6613   -0.7553 H   0  0  0  0  0  0  0  0  0  0  0  0
    0.2542   -3.4843   -0.1182 H   0  0  0  0  0  0  0  0  0  0  0  0
   -0.7257   -4.8930    0.3300 H   0  0  0  0  0  0  0  0  0  0  0  0
   -0.1563   -0.9420    1.1402 N   0  0  0  0  0  0  0  0  0  0  0  0
    0.0261    0.4671    0.9001 C   0  0  2  0  0  0  0  0  0  0  0  0
    0.6934    0.6545   -0.4609 C   0  0  0  0  0  0  0  0  0  0  0  0
    1.6655   -0.0034   -0.8264 O   0  0  0  0  0  0  0  0  0  0  0  0
    0.7721    1.1610    2.0425 C   0  0  0  0  0  0  0  0  0  0  0  0
   -0.1417    1.1673    3.6196 S   0  0  0  0  0  0  0  0  0  0  0  0
    0.6533   -1.4855    1.4300 H   0  0  0  0  0  0  0  0  0  0  0  0
   -0.9848    0.8881    0.8340 H   0  0  0  0  0  0  0  0  0  0  0  0
    1.7356    0.6737    2.2242 H   0  0  0  0  0  0  0  0  0  0  0  0
    0.9744    2.2042    1.7767 H   0  0  0  0  0  0  0  0  0  0  0  0
    0.7945    1.8256    4.3149 H   0  0  0  0  0  0  0  0  0  0  0  0
    0.0915    1.6580   -1.2068 N   0  0  0  0  0  0  0  0  0  0  0  0
    0.5495    2.0302   -2.5250 C   0  0  2  0  0  0  0  0  0  0  0  0
   -0.2337    3.2599   -2.9652 C   0  0  0  0  0  0  0  0  0  0  0  0
   -1.3291    3.5611   -2.4956 O   0  0  0  0  0  0  0  0  0  0  0  0
    0.3719    0.8895   -3.5150 C   0  0  0  0  0  0  0  0  0  0  0  0
   -0.7302    2.1292   -0.8400 H   0  0  0  0  0  0  0  0  0  0  0  0
    1.6103    2.2866   -2.4305 H   0  0  0  0  0  0  0  0  0  0  0  0
   -0.6847    0.6185   -3.6229 H   0  0  0  0  0  0  0  0  0  0  0  0
    0.7459    1.1633   -4.5070 H   0  0  0  0  0  0  0  0  0  0  0  0
    0.9117   -0.0035   -3.1816 H   0  0  0  0  0  0  0  0  0  0  0  0
    0.4144    3.9576   -3.9748 N   0  0  0  0  0  0  0  0  0  0  0  0
   -0.1324    5.1543   -4.5706 C   0  0  0  0  0  0  0  0  0  0  0  0
    1.3284    3.6463   -4.2901 H   0  0  0  0  0  0  0  0  0  0  0  0
   -0.7212    4.8855   -5.4601 H   0  0  0  0  0  0  0  0  0  0  0  0
   -0.7806    5.6632   -3.8420 H   0  0  0  0  0  0  0  0  0  0  0  0
    0.6881    5.8259   -4.8633 H   0  0  0  0  0  0  0  0  0  0  0  0
  1  3  1  0  0  0  0
  1  7  1  0  0  0  0
  1  2  2  0  0  0  0
 29 30  1  0  0  0  0
 30 38  1  0  0  0  0
 30 31  2  0  0  0  0
  8  9  1  0  0  0  0
  9 17  1  0  0  0  0
  9 10  2  0  0  0  0
 18 19  1  0  0  0  0
 19 28  1  0  0  0  0
 19 20  2  0  0  0  0
 29 32  1  0  0  0  0
  8 11  1  0  0  0  0
 38 39  1  0  0  0  0
 18 21  1  0  0  0  0
 21 22  1  0  0  0  0
 28 29  1  0  0  0  0
  7  8  1  0  0  0  0
 17 18  1  0  0  0  0
  3  4  1  0  0  0  0
  3  5  1  0  0  0  0
  3  6  1  0  0  0  0
 32 35  1  0  0  0  0
 32 36  1  0  0  0  0
 32 37  1  0  0  0  0
 11 14  1  0  0  0  0
 11 15  1  0  0  0  0
 11 16  1  0  0  0  0
 39 41  1  0  0  0  0
 39 42  1  0  0  0  0
 39 43  1  0  0  0  0
 21 25  1  0  0  0  0
 21 26  1  0  0  0  0
 29 34  1  0  0  0  0
  8 13  1  0  0  0  0
 18 24  1  0  0  0  0
 38 40  1  0  0  0  0
  7 12  1  0  0  0  0
 28 33  1  0  0  0  0
 17 23  1  0  0  0  0
 22 27  1  0  0  0  0
M  END
$$$$

  -OEChem-05262214473D

 43 42  0     1  0  0  0  0  0999 V2000
   -2.8661   -4.7415    2.2943 C   0  0  0  0  0  0  0  0  0  0  0  0
   -2.0233   -5.5727    2.6109 O   0  0  0  0  0  0  0  0  0  0  0  0
   -4.3078   -5.0134    2.5698 C   0  0  0  0  0  0  0  0  0  0  0  0
   -4.8057   -5.5295    1.7332 H   0  0  0  0  0  0  0  0  0  0  0  0
   -4.4526   -5.6688    3.4436 H   0  0  0  0  0  0  0  0  0  0  0  0
   -4.9255   -4.1233    2.7700 H   0  0  0  0  0  0  0  0  0  0  0  0
   -2.6241   -3.5219    1.6838 N   0  0  0  0  0  0  0  0  0  0  0  0
   -1.3070   -3.0608    1.3315 C   0  0  2  0  0  0  0  0  0  0  0  0
   -1.3931   -1.5680    1.0422 C   0  0  0  0  0  0  0  0  0  0  0  0
   -2.4385   -1.0059    0.7226 O   0  0  0  0  0  0  0  0  0  0  0  0
   -0.7590   -3.8164    0.1309 C   0  0  0  0  0  0  0  0  0  0  0  0
   -3.4188   -2.9207    1.4735 H   0  0  0  0  0  0  0  0  0  0  0  0
   -0.6690   -3.2277    2.2062 H   0  0  0  0  0  0  0  0  0  0  0  0
   -1.3852   -3.6613   -0.7553 H   0  0  0  0  0  0  0  0  0  0  0  0
    0.2542   -3.4843   -0.1182 H   0  0  0  0  0  0  0  0  0  0  0  0
   -0.7257   -4.8930    0.3300 H   0  0  0  0  0  0  0  0  0  0  0  0
   -0.1563   -0.9420    1.1402 N   0  0  0  0  0  0  0  0  0  0  0  0
    0.0261    0.4671    0.9001 C   0  0  2  0  0  0  0  0  0  0  0  0
    0.6934    0.6545   -0.4609 C   0  0  0  0  0  0  0  0  0  0  0  0
    1.4790   -0.1610   -0.9395 O   0  0  0  0  0  0  0  0  0  0  0  0
    0.7721    1.1610    2.0425 C   0  0  0  0  0  0  0  0  0  0  0  0
   -0.1417    1.1673    3.6196 S   0  0  0  0  0  0  0  0  0  0  0  0
    0.6533   -1.4855    1.4300 H   0  0  0  0  0  0  0  0  0  0  0  0
   -0.9848    0.8881    0.8340 H   0  0  0  0  0  0  0  0  0  0  0  0
    1.7356    0.6737    2.2242 H   0  0  0  0  0  0  0  0  0  0  0  0
    0.9744    2.2042    1.7767 H   0  0  0  0  0  0  0  0  0  0  0  0
    0.7945    1.8256    4.3149 H   0  0  0  0  0  0  0  0  0  0  0  0
    0.3276    1.8492   -1.0648 N   0  0  0  0  0  0  0  0  0  0  0  0
    0.8351    2.2580   -2.3536 C   0  0  2  0  0  0  0  0  0  0  0  0
    0.3512    3.6771   -2.6210 C   0  0  0  0  0  0  0  0  0  0  0  0
   -0.6352    4.1640   -2.0724 O   0  0  0  0  0  0  0  0  0  0  0  0
    0.3790    1.3118   -3.4534 C   0  0  0  0  0  0  0  0  0  0  0  0
   -0.3551    2.4497   -0.6120 H   0  0  0  0  0  0  0  0  0  0  0  0
    1.9280    2.2520   -2.2795 H   0  0  0  0  0  0  0  0  0  0  0  0
   -0.7135    1.3043   -3.5426 H   0  0  0  0  0  0  0  0  0  0  0  0
    0.7879    1.6068   -4.4254 H   0  0  0  0  0  0  0  0  0  0  0  0
    0.7024    0.2864   -3.2443 H   0  0  0  0  0  0  0  0  0  0  0  0
    1.1250    4.3210   -3.5764 N   0  0  0  0  0  0  0  0  0  0  0  0
    0.8604    5.6722   -4.0126 C   0  0  0  0  0  0  0  0  0  0  0  0
    1.9356    3.8478   -3.9647 H   0  0  0  0  0  0  0  0  0  0  0  0
    0.2090    5.6511   -4.8987 H   0  0  0  0  0  0  0  0  0  0  0  0
    0.3618    6.2273   -3.2043 H   0  0  0  0  0  0  0  0  0  0  0  0
    1.8090    6.1677   -4.2668 H   0  0  0  0  0  0  0  0  0  0  0  0
  1  3  1  0  0  0  0
  1  7  1  0  0  0  0
  1  2  2  0  0  0  0
 29 30  1  0  0  0  0
 30 38  1  0  0  0  0
 30 31  2  0  0  0  0
  8  9  1  0  0  0  0
  9 17  1  0  0  0  0
  9 10  2  0  0  0  0
 18 19  1  0  0  0  0
 19 28  1  0  0  0  0
 19 20  2  0  0  0  0
 29 32  1  0  0  0  0
  8 11  1  0  0  0  0
 38 39  1  0  0  0  0
 18 21  1  0  0  0  0
 21 22  1  0  0  0  0
 28 29  1  0  0  0  0
  7  8  1  0  0  0  0
 17 18  1  0  0  0  0
  3  4  1  0  0  0  0
  3  5  1  0  0  0  0
  3  6  1  0  0  0  0
 32 35  1  0  0  0  0
 32 36  1  0  0  0  0
 32 37  1  0  0  0  0
 11 14  1  0  0  0  0
 11 15  1  0  0  0  0
 11 16  1  0  0  0  0
 39 41  1  0  0  0  0
 39 42  1  0  0  0  0
 39 43  1  0  0  0  0
 21 25  1  0  0  0  0
 21 26  1  0  0  0  0
 29 34  1  0  0  0  0
  8 13  1  0  0  0  0
 18 24  1  0  0  0  0
 38 40  1  0  0  0  0
  7 12  1  0  0  0  0
 28 33  1  0  0  0  0
 17 23  1  0  0  0  0
 22 27  1  0  0  0  0
M  END
$$$$

  -OEChem-05262214473D

 43 42  0     1  0  0  0  0  0999 V2000
   -2.8661   -4.7415    2.2943 C   0  0  0  0  0  0  0  0  0  0  0  0
   -2.0233   -5.5727    2.6109 O   0  0  0  0  0  0  0  0  0  0  0  0
   -4.3078   -5.0134    2.5698 C   0  0  0  0  0  0  0  0  0  0  0  0
   -4.8057   -5.5295    1.7332 H   0  0  0  0  0  0  0  0  0  0  0  0
   -4.4526   -5.6688    3.4436 H   0  0  0  0  0  0  0  0  0  0  0  0
   -4.9255   -4.1233    2.7700 H   0  0  0  0  0  0  0  0  0  0  0  0
   -2.6241   -3.5219    1.6838 N   0  0  0  0  0  0  0  0  0  0  0  0
   -1.3070   -3.0608    1.3315 C   0  0  2  0  0  0  0  0  0  0  0  0
   -1.3931   -1.5680    1.0422 C   0  0  0  0  0  0  0  0  0  0  0  0
   -2.4385   -1.0059    0.7226 O   0  0  0  0  0  0  0  0  0  0  0  0
   -0.7590   -3.8164    0.1309 C   0  0  0  0  0  0  0  0  0  0  0  0
   -3.4188   -2.9207    1.4735 H   0  0  0  0  0  0  0  0  0  0  0  0
   -0.6690   -3.2277    2.2062 H   0  0  0  0  0  0  0  0  0  0  0  0
   -1.3852   -3.6613   -0.7553 H   0  0  0  0  0  0  0  0  0  0  0  0
    0.2542   -3.4843   -0.1182 H   0  0  0  0  0  0  0  0  0  0  0  0
   -0.7257   -4.8930    0.3300 H   0  0  0  0  0  0  0  0  0  0  0  0
   -0.1563   -0.9420    1.1402 N   0  0  0  0  0  0  0  0  0  0  0  0
    0.0261    0.4671    0.9001 C   0  0  2  0  0  0  0  0  0  0  0  0
    0.6934    0.6545   -0.4609 C   0  0  0  0  0  0  0  0  0  0  0  0
    1.2589   -0.2575   -1.0607 O   0  0  0  0  0  0  0  0  0  0  0  0
    0.7721    1.1610    2.0425 C   0  0  0  0  0  0  0  0  0  0  0  0
   -0.1417    1.1673    3.6196 S   0  0  0  0  0  0  0  0  0  0  0  0
    0.6533   -1.4855    1.4300 H   0  0  0  0  0  0  0  0  0  0  0  0
   -0.9848    0.8881    0.8340 H   0  0  0  0  0  0  0  0  0  0  0  0
    1.7356    0.6737    2.2242 H   0  0  0  0  0  0  0  0  0  0  0  0
    0.9744    2.2042    1.7767 H   0  0  0  0  0  0  0  0  0  0  0  0
    0.7945    1.8256    4.3149 H   0  0  0  0  0  0  0  0  0  0  0  0
    0.6042    1.9633   -0.9134 N   0  0  0  0  0  0  0  0  0  0  0  0
    1.1689    2.3928   -2.1714 C   0  0  2  0  0  0  0  0  0  0  0  0
    1.0233    3.9062   -2.2600 C   0  0  0  0  0  0  0  0  0  0  0  0
    0.1874    4.5384   -1.6176 O   0  0  0  0  0  0  0  0  0  0  0  0
    0.4851    1.7112   -3.3463 C   0  0  0  0  0  0  0  0  0  0  0  0
    0.0883    2.6470   -0.3675 H   0  0  0  0  0  0  0  0  0  0  0  0
    2.2317    2.1283   -2.1477 H   0  0  0  0  0  0  0  0  0  0  0  0
   -0.5806    1.9644   -3.3866 H   0  0  0  0  0  0  0  0  0  0  0  0
    0.9334    2.0162   -4.2977 H   0  0  0  0  0  0  0  0  0  0  0  0
    0.5651    0.6218   -3.2654 H   0  0  0  0  0  0  0  0  0  0  0  0
    1.9078    4.4630   -3.1731 N   0  0  0  0  0  0  0  0  0  0  0  0
    1.9566    5.8804   -3.4465 C   0  0  0  0  0  0  0  0  0  0  0  0
    2.5789    3.8656   -3.6468 H   0  0  0  0  0  0  0  0  0  0  0  0
    1.3018    6.1125   -4.2994 H   0  0  0  0  0  0  0  0  0  0  0  0
    1.6157    6.4365   -2.5608 H   0  0  0  0  0  0  0  0  0  0  0  0
    2.9895    6.1719   -3.6875 H   0  0  0  0  0  0  0  0  0  0  0  0
  1  3  1  0  0  0  0
  1  7  1  0  0  0  0
  1  2  2  0  0  0  0
 29 30  1  0  0  0  0
 30 38  1  0  0  0  0
 30 31  2  0  0  0  0
  8  9  1  0  0  0  0
  9 17  1  0  0  0  0
  9 10  2  0  0  0  0
 18 19  1  0  0  0  0
 19 28  1  0  0  0  0
 19 20  2  0  0  0  0
 29 32  1  0  0  0  0
  8 11  1  0  0  0  0
 38 39  1  0  0  0  0
 18 21  1  0  0  0  0
 21 22  1  0  0  0  0
 28 29  1  0  0  0  0
  7  8  1  0  0  0  0
 17 18  1  0  0  0  0
  3  4  1  0  0  0  0
  3  5  1  0  0  0  0
  3  6  1  0  0  0  0
 32 35  1  0  0  0  0
 32 36  1  0  0  0  0
 32 37  1  0  0  0  0
 11 14  1  0  0  0  0
 11 15  1  0  0  0  0
 11 16  1  0  0  0  0
 39 41  1  0  0  0  0
 39 42  1  0  0  0  0
 39 43  1  0  0  0  0
 21 25  1  0  0  0  0
 21 26  1  0  0  0  0
 29 34  1  0  0  0  0
  8 13  1  0  0  0  0
 18 24  1  0  0  0  0
 38 40  1  0  0  0  0
  7 12  1  0  0  0  0
 28 33  1  0  0  0  0
 17 23  1  0  0  0  0
 22 27  1  0  0  0  0
M  END
$$$$

  -OEChem-05262214473D

 43 42  0     1  0  0  0  0  0999 V2000
   -2.8661   -4.7415    2.2943 C   0  0  0  0  0  0  0  0  0  0  0  0
   -2.0233   -5.5727    2.6109 O   0  0  0  0  0  0  0  0  0  0  0  0
   -4.3078   -5.0134    2.5698 C   0  0  0  0  0  0  0  0  0  0  0  0
   -4.8057   -5.5295    1.7332 H   0  0  0  0  0  0  0  0  0  0  0  0
   -4.4526   -5.6688    3.4436 H   0  0  0  0  0  0  0  0  0  0  0  0
   -4.9255   -4.1233    2.7700 H   0  0  0  0  0  0  0  0  0  0  0  0
   -2.6241   -3.5219    1.6838 N   0  0  0  0  0  0  0  0  0  0  0  0
   -1.3070   -3.0608    1.3315 C   0  0  2  0  0  0  0  0  0  0  0  0
   -1.3931   -1.5680    1.0422 C   0  0  0  0  0  0  0  0  0  0  0  0
   -2.4385   -1.0059    0.7226 O   0  0  0  0  0  0  0  0  0  0  0  0
   -0.7590   -3.8164    0.1309 C   0  0  0  0  0  0  0  0  0  0  0  0
   -3.4188   -2.9207    1.4735 H   0  0  0  0  0  0  0  0  0  0  0  0
   -0.6690   -3.2277    2.2062 H   0  0  0  0  0  0  0  0  0  0  0  0
   -1.3852   -3.6613   -0.7553 H   0  0  0  0  0  0  0  0  0  0  0  0
    0.2542   -3.4843   -0.1182 H   0  0  0  0  0  0  0  0  0  0  0  0
   -0.7257   -4.8930    0.3300 H   0  0  0  0  0  0  0  0  0  0  0  0
   -0.1563   -0.9420    1.1402 N   0  0  0  0  0  0  0  0  0  0  0  0
    0.0261    0.4671    0.9001 C   0  0  2  0  0  0  0  0  0  0  0  0
    0.3364    0.6804   -0.5801 C   0  0  0  0  0  0  0  0  0  0  0  0
    0.4258   -0.2440   -1.3855 O   0  0  0  0  0  0  0  0  0  0  0  0
    1.0683    1.0872    1.8342 C   0  0  0  0  0  0  0  0  0  0  0  0
    0.5834    1.0685    3.5912 S   0  0  0  0  0  0  0  0  0  0  0  0
    0.6533   -1.4855    1.4300 H   0  0  0  0  0  0  0  0  0  0  0  0
   -0.9477    0.9294    1.1042 H   0  0  0  0  0  0  0  0  0  0  0  0
    2.0223    0.5562    1.7521 H   0  0  0  0  0  0  0  0  0  0  0  0
    1.2461    2.1311    1.5543 H   0  0  0  0  0  0  0  0  0  0  0  0
    1.6948    1.6628    4.0437 H   0  0  0  0  0  0  0  0  0  0  0  0
    0.5256    2.0200   -0.8889 N   0  0  0  0  0  0  0  0  0  0  0  0
    0.8411    2.4748   -2.2229 C   0  0  2  0  0  0  0  0  0  0  0  0
    1.1352    3.9675   -2.1535 C   0  0  0  0  0  0  0  0  0  0  0  0
    0.7255    4.6906   -1.2478 O   0  0  0  0  0  0  0  0  0  0  0  0
   -0.2985    2.1897   -3.1887 C   0  0  0  0  0  0  0  0  0  0  0  0
    0.3996    2.7224   -0.1662 H   0  0  0  0  0  0  0  0  0  0  0  0
    1.7438    1.9382   -2.5348 H   0  0  0  0  0  0  0  0  0  0  0  0
   -1.2116    2.7188   -2.8924 H   0  0  0  0  0  0  0  0  0  0  0  0
   -0.0464    2.5092   -4.2052 H   0  0  0  0  0  0  0  0  0  0  0  0
   -0.5285    1.1190   -3.2149 H   0  0  0  0  0  0  0  0  0  0  0  0
    1.8727    4.4054   -3.2447 N   0  0  0  0  0  0  0  0  0  0  0  0
    2.2679    5.7839   -3.4160 C   0  0  0  0  0  0  0  0  0  0  0  0
    2.1859    3.7328   -3.9385 H   0  0  0  0  0  0  0  0  0  0  0  0
    1.5120    6.3107   -4.0170 H   0  0  0  0  0  0  0  0  0  0  0  0
    2.3538    6.2658   -2.4309 H   0  0  0  0  0  0  0  0  0  0  0  0
    3.2393    5.8255   -3.9305 H   0  0  0  0  0  0  0  0  0  0  0  0
  1  3  1  0  0  0  0
  1  7  1  0  0  0  0
  1  2  2  0  0  0  0
 29 30  1  0  0  0  0
 30 38  1  0  0  0  0
 30 31  2  0  0  0  0
  8  9  1  0  0  0  0
  9 17  1  0  0  0  0
  9 10  2  0  0  0  0
 18 19  1  0  0  0  0
 19 28  1  0  0  0  0
 19 20  2  0  0  0  0
 29 32  1  0  0  0  0
  8 11  1  0  0  0  0
 38 39  1  0  0  0  0
 18 21  1  0  0  0  0
 21 22  1  0  0  0  0
 28 29  1  0  0  0  0
  7  8  1  0  0  0  0
 17 18  1  0  0  0  0
  3  4  1  0  0  0  0
  3  5  1  0  0  0  0
  3  6  1  0  0  0  0
 32 35  1  0  0  0  0
 32 36  1  0  0  0  0
 32 37  1  0  0  0  0
 11 14  1  0  0  0  0
 11 15  1  0  0  0  0
 11 16  1  0  0  0  0
 39 41  1  0  0  0  0
 39 42  1  0  0  0  0
 39 43  1  0  0  0  0
 21 25  1  0  0  0  0
 21 26  1  0  0  0  0
 29 34  1  0  0  0  0
  8 13  1  0  0  0  0
 18 24  1  0  0  0  0
 38 40  1  0  0  0  0
  7 12  1  0  0  0  0
 28 33  1  0  0  0  0
 17 23  1  0  0  0  0
 22 27  1  0  0  0  0
M  END
$$$$

  -OEChem-05262214473D

 43 42  0     1  0  0  0  0  0999 V2000
   -2.8661   -4.7415    2.2943 C   0  0  0  0  0  0  0  0  0  0  0  0
   -2.0233   -5.5727    2.6109 O   0  0  0  0  0  0  0  0  0  0  0  0
   -4.3078   -5.0134    2.5698 C   0  0  0  0  0  0  0  0  0  0  0  0
   -4.8057   -5.5295    1.7332 H   0  0  0  0  0  0  0  0  0  0  0  0
   -4.4526   -5.6688    3.4436 H   0  0  0  0  0  0  0  0  0  0  0  0
   -4.9255   -4.1233    2.7700 H   0  0  0  0  0  0  0  0  0  0  0  0
   -2.6241   -3.5219    1.6838 N   0  0  0  0  0  0  0  0  0  0  0  0
   -1.3070   -3.0608    1.3315 C   0  0  2  0  0  0  0  0  0  0  0  0
   -1.3931   -1.5680    1.0422 C   0  0  0  0  0  0  0  0  0  0  0  0
   -2.4385   -1.0059    0.7226 O   0  0  0  0  0  0  0  0  0  0  0  0
   -0.7590   -3.8164    0.1309 C   0  0  0  0  0  0  0  0  0  0  0  0
   -3.4188   -2.9207    1.4735 H   0  0  0  0  0  0  0  0  0  0  0  0
   -0.6690   -3.2277    2.2062 H   0  0  0  0  0  0  0  0  0  0  0  0
   -1.3852   -3.6613   -0.7553 H   0  0  0  0  0  0  0  0  0  0  0  0
    0.2542   -3.4843   -0.1182 H   0  0  0  0  0  0  0  0  0  0  0  0
   -0.7257   -4.8930    0.3300 H   0  0  0  0  0  0  0  0  0  0  0  0
   -0.1563   -0.9420    1.1402 N   0  0  0  0  0  0  0  0  0  0  0  0
    0.0261    0.4671    0.9001 C   0  0  2  0  0  0  0  0  0  0  0  0
    0.3364    0.6804   -0.5801 C   0  0  0  0  0  0  0  0  0  0  0  0
    0.1664   -0.1894   -1.4320 O   0  0  0  0  0  0  0  0  0  0  0  0
    1.0683    1.0872    1.8342 C   0  0  0  0  0  0  0  0  0  0  0  0
    0.5834    1.0685    3.5912 S   0  0  0  0  0  0  0  0  0  0  0  0
    0.6533   -1.4855    1.4300 H   0  0  0  0  0  0  0  0  0  0  0  0
   -0.9477    0.9294    1.1042 H   0  0  0  0  0  0  0  0  0  0  0  0
    2.0223    0.5562    1.7521 H   0  0  0  0  0  0  0  0  0  0  0  0
    1.2461    2.1311    1.5543 H   0  0  0  0  0  0  0  0  0  0  0  0
    1.6948    1.6628    4.0437 H   0  0  0  0  0  0  0  0  0  0  0  0
    0.8477    1.9456   -0.8322 N   0  0  0  0  0  0  0  0  0  0  0  0
    1.2281    2.3827   -2.1551 C   0  0  2  0  0  0  0  0  0  0  0  0
    1.8905    3.7481   -2.0269 C   0  0  0  0  0  0  0  0  0  0  0  0
    1.7028    4.4976   -1.0708 O   0  0  0  0  0  0  0  0  0  0  0  0
    0.0255    2.4471   -3.0837 C   0  0  0  0  0  0  0  0  0  0  0  0
    0.9238    2.6147   -0.0718 H   0  0  0  0  0  0  0  0  0  0  0  0
    1.9570    1.6564   -2.5307 H   0  0  0  0  0  0  0  0  0  0  0  0
   -0.7158    3.1697   -2.7235 H   0  0  0  0  0  0  0  0  0  0  0  0
    0.3199    2.7511   -4.0936 H   0  0  0  0  0  0  0  0  0  0  0  0
   -0.4673    1.4712   -3.1513 H   0  0  0  0  0  0  0  0  0  0  0  0
    2.6820    4.0494   -3.1263 N   0  0  0  0  0  0  0  0  0  0  0  0
    3.4064    5.2930   -3.2481 C   0  0  0  0  0  0  0  0  0  0  0  0
    2.7952    3.3608   -3.8644 H   0  0  0  0  0  0  0  0  0  0  0  0
    2.7901    6.0253   -3.7902 H   0  0  0  0  0  0  0  0  0  0  0  0
    3.6398    5.6809   -2.2456 H   0  0  0  0  0  0  0  0  0  0  0  0
    4.3414    5.1199   -3.8012 H   0  0  0  0  0  0  0  0  0  0  0  0
  1  3  1  0  0  0  0
  1  7  1  0  0  0  0
  1  2  2  0  0  0  0
 29 30  1  0  0  0  0
 30 38  1  0  0  0  0
 30 31  2  0  0  0  0
  8  9  1  0  0  0  0
  9 17  1  0  0  0  0
  9 10  2  0  0  0  0
 18 19  1  0  0  0  0
 19 28  1  0  0  0  0
 19 20  2  0  0  0  0
 29 32  1  0  0  0  0
  8 11  1  0  0  0  0
 38 39  1  0  0  0  0
 18 21  1  0  0  0  0
 21 22  1  0  0  0  0
 28 29  1  0  0  0  0
  7  8  1  0  0  0  0
 17 18  1  0  0  0  0
  3  4  1  0  0  0  0
  3  5  1  0  0  0  0
  3  6  1  0  0  0  0
 32 35  1  0  0  0  0
 32 36  1  0  0  0  0
 32 37  1  0  0  0  0
 11 14  1  0  0  0  0
 11 15  1  0  0  0  0
 11 16  1  0  0  0  0
 39 41  1  0  0  0  0
 39 42  1  0  0  0  0
 39 43  1  0  0  0  0
 21 25  1  0  0  0  0
 21 26  1  0  0  0  0
 29 34  1  0  0  0  0
  8 13  1  0  0  0  0
 18 24  1  0  0  0  0
 38 40  1  0  0  0  0
  7 12  1  0  0  0  0
 28 33  1  0  0  0  0
 17 23  1  0  0  0  0
 22 27  1  0  0  0  0
M  END
$$$$

  -OEChem-05262214473D

 43 42  0     1  0  0  0  0  0999 V2000
   -2.8661   -4.7415    2.2943 C   0  0  0  0  0  0  0  0  0  0  0  0
   -2.0233   -5.5727    2.6109 O   0  0  0  0  0  0  0  0  0  0  0  0
   -4.3078   -5.0134    2.5698 C   0  0  0  0  0  0  0  0  0  0  0  0
   -4.8057   -5.5295    1.7332 H   0  0  0  0  0  0  0  0  0  0  0  0
   -4.4526   -5.6688    3.4436 H   0  0  0  0  0  0  0  0  0  0  0  0
   -4.9255   -4.1233    2.7700 H   0  0  0  0  0  0  0  0  0  0  0  0
   -2.6241   -3.5219    1.6838 N   0  0  0  0  0  0  0  0  0  0  0  0
   -1.3070   -3.0608    1.3315 C   0  0  2  0  0  0  0  0  0  0  0  0
   -1.3931   -1.5680    1.0422 C   0  0  0  0  0  0  0  0  0  0  0  0
   -2.4385   -1.0059    0.7226 O   0  0  0  0  0  0  0  0  0  0  0  0
   -0.7590   -3.8164    0.1309 C   0  0  0  0  0  0  0  0  0  0  0  0
   -3.4188   -2.9207    1.4735 H   0  0  0  0  0  0  0  0  0  0  0  0
   -0.6690   -3.2277    2.2062 H   0  0  0  0  0  0  0  0  0  0  0  0
   -1.3852   -3.6613   -0.7553 H   0  0  0  0  0  0  0  0  0  0  0  0
    0.2542   -3.4843   -0.1182 H   0  0  0  0  0  0  0  0  0  0  0  0
   -0.7257   -4.8930    0.3300 H   0  0  0  0  0  0  0  0  0  0  0  0
   -0.1563   -0.9420    1.1402 N   0  0  0  0  0  0  0  0  0  0  0  0
    0.0261    0.4671    0.9001 C   0  0  2  0  0  0  0  0  0  0  0  0
    0.3364    0.6804   -0.5801 C   0  0  0  0  0  0  0  0  0  0  0  0
   -0.0722   -0.0692   -1.4647 O   0  0  0  0  0  0  0  0  0  0  0  0
    1.0683    1.0872    1.8342 C   0  0  0  0  0  0  0  0  0  0  0  0
    0.5834    1.0685    3.5912 S   0  0  0  0  0  0  0  0  0  0  0  0
    0.6533   -1.4855    1.4300 H   0  0  0  0  0  0  0  0  0  0  0  0
   -0.9477    0.9294    1.1042 H   0  0  0  0  0  0  0  0  0  0  0  0
    2.0223    0.5562    1.7521 H   0  0  0  0  0  0  0  0  0  0  0  0
    1.2461    2.1311    1.5543 H   0  0  0  0  0  0  0  0  0  0  0  0
    1.6948    1.6628    4.0437 H   0  0  0  0  0  0  0  0  0  0  0  0
    1.1421    1.7900   -0.7929 N   0  0  0  0  0  0  0  0  0  0  0  0
    1.5812    2.1931   -2.1084 C   0  0  2  0  0  0  0  0  0  0  0  0
    2.5695    3.3400   -1.9433 C   0  0  0  0  0  0  0  0  0  0  0  0
    2.6049    4.0567   -0.9452 O   0  0  0  0  0  0  0  0  0  0  0  0
    0.4068    2.6089   -2.9805 C   0  0  0  0  0  0  0  0  0  0  0  0
    1.4066    2.3742   -0.0052 H   0  0  0  0  0  0  0  0  0  0  0  0
    2.0923    1.3304   -2.5494 H   0  0  0  0  0  0  0  0  0  0  0  0
   -0.1178    3.4720   -2.5546 H   0  0  0  0  0  0  0  0  0  0  0  0
    0.7383    2.8869   -3.9863 H   0  0  0  0  0  0  0  0  0  0  0  0
   -0.3177    1.7926   -3.0737 H   0  0  0  0  0  0  0  0  0  0  0  0
    3.3787    3.4964   -3.0600 N   0  0  0  0  0  0  0  0  0  0  0  0
    4.3890    4.5244   -3.1530 C   0  0  0  0  0  0  0  0  0  0  0  0
    3.2931    2.8447   -3.8344 H   0  0  0  0  0  0  0  0  0  0  0  0
    3.9613    5.4173   -3.6324 H   0  0  0  0  0  0  0  0  0  0  0  0
    4.7419    4.7837   -2.1439 H   0  0  0  0  0  0  0  0  0  0  0  0
    5.2335    4.1551   -3.7532 H   0  0  0  0  0  0  0  0  0  0  0  0
  1  3  1  0  0  0  0
  1  7  1  0  0  0  0
  1  2  2  0  0  0  0
 29 30  1  0  0  0  0
 30 38  1  0  0  0  0
 30 31  2  0  0  0  0
  8  9  1  0  0  0  0
  9 17  1  0  0  0  0
  9 10  2  0  0  0  0
 18 19  1  0  0  0  0
 19 28  1  0  0  0  0
 19 20  2  0  0  0  0
 29 32  1  0  0  0  0
  8 11  1  0  0  0  0
 38 39  1  0  0  0  0
 18 21  1  0  0  0  0
 21 22  1  0  0  0  0
 28 29  1  0  0  0  0
  7  8  1  0  0  0  0
 17 18  1  0  0  0  0
  3  4  1  0  0  0  0
  3  5  1  0  0  0  0
  3  6  1  0  0  0  0
 32 35  1  0  0  0  0
 32 36  1  0  0  0  0
 32 37  1  0  0  0  0
 11 14  1  0  0  0  0
 11 15  1  0  0  0  0
 11 16  1  0  0  0  0
 39 41  1  0  0  0  0
 39 42  1  0  0  0  0
 39 43  1  0  0  0  0
 21 25  1  0  0  0  0
 21 26  1  0  0  0  0
 29 34  1  0  0  0  0
  8 13  1  0  0  0  0
 18 24  1  0  0  0  0
 38 40  1  0  0  0  0
  7 12  1  0  0  0  0
 28 33  1  0  0  0  0
 17 23  1  0  0  0  0
 22 27  1  0  0  0  0
M  END
$$$$

  -OEChem-05262214473D

 43 42  0     1  0  0  0  0  0999 V2000
   -2.8661   -4.7415    2.2943 C   0  0  0  0  0  0  0  0  0  0  0  0
   -2.0233   -5.5727    2.6109 O   0  0  0  0  0  0  0  0  0  0  0  0
   -4.3078   -5.0134    2.5698 C   0  0  0  0  0  0  0  0  0  0  0  0
   -4.8057   -5.5295    1.7332 H   0  0  0  0  0  0  0  0  0  0  0  0
   -4.4526   -5.6688    3.4436 H   0  0  0  0  0  0  0  0  0  0  0  0
   -4.9255   -4.1233    2.7700 H   0  0  0  0  0  0  0  0  0  0  0  0
   -2.6241   -3.5219    1.6838 N   0  0  0  0  0  0  0  0  0  0  0  0
   -1.3070   -3.0608    1.3315 C   0  0  2  0  0  0  0  0  0  0  0  0
   -1.3931   -1.5680    1.0422 C   0  0  0  0  0  0  0  0  0  0  0  0
   -2.4385   -1.0059    0.7226 O   0  0  0  0  0  0  0  0  0  0  0  0
   -0.7590   -3.8164    0.1309 C   0  0  0  0  0  0  0  0  0  0  0  0
   -3.4188   -2.9207    1.4735 H   0  0  0  0  0  0  0  0  0  0  0  0
   -0.6690   -3.2277    2.2062 H   0  0  0  0  0  0  0  0  0  0  0  0
   -1.3852   -3.6613   -0.7553 H   0  0  0  0  0  0  0  0  0  0  0  0
    0.2542   -3.4843   -0.1182 H   0  0  0  0  0  0  0  0  0  0  0  0
   -0.7257   -4.8930    0.3300 H   0  0  0  0  0  0  0  0  0  0  0  0
   -0.1563   -0.9420    1.1402 N   0  0  0  0  0  0  0  0  0  0  0  0
    0.0261    0.4671    0.9001 C   0  0  2  0  0  0  0  0  0  0  0  0
    0.3364    0.6804   -0.5801 C   0  0  0  0  0  0  0  0  0  0  0  0
   -0.2736    0.1086   -1.4813 O   0  0  0  0  0  0  0  0  0  0  0  0
    1.0683    1.0872    1.8342 C   0  0  0  0  0  0  0  0  0  0  0  0
    0.5834    1.0685    3.5912 S   0  0  0  0  0  0  0  0  0  0  0  0
    0.6533   -1.4855    1.4300 H   0  0  0  0  0  0  0  0  0  0  0  0
   -0.9477    0.9294    1.1042 H   0  0  0  0  0  0  0  0  0  0  0  0
    2.0223    0.5562    1.7521 H   0  0  0  0  0  0  0  0  0  0  0  0
    1.2461    2.1311    1.5543 H   0  0  0  0  0  0  0  0  0  0  0  0
    1.6948    1.6628    4.0437 H   0  0  0  0  0  0  0  0  0  0  0  0
    1.3889    1.5638   -0.7738 N   0  0  0  0  0  0  0  0  0  0  0  0
    1.8764    1.9189   -2.0860 C   0  0  2  0  0  0  0  0  0  0  0  0
    3.1261    2.7711   -1.9087 C   0  0  0  0  0  0  0  0  0  0  0  0
    3.3702    3.3979   -0.8797 O   0  0  0  0  0  0  0  0  0  0  0  0
    0.8194    2.6641   -2.8860 C   0  0  0  0  0  0  0  0  0  0  0  0
    1.8151    2.0173    0.0289 H   0  0  0  0  0  0  0  0  0  0  0  0
    2.1406    0.9825   -2.5894 H   0  0  0  0  0  0  0  0  0  0  0  0
    0.5419    3.6052   -2.3972 H   0  0  0  0  0  0  0  0  0  0  0  0
    1.1805    2.9076   -3.8907 H   0  0  0  0  0  0  0  0  0  0  0  0
   -0.0897    2.0615   -2.9871 H   0  0  0  0  0  0  0  0  0  0  0  0
    3.9154    2.7840   -3.0502 N   0  0  0  0  0  0  0  0  0  0  0  0
    5.1487    3.5305   -3.1369 C   0  0  0  0  0  0  0  0  0  0  0  0
    3.6456    2.2197   -3.8506 H   0  0  0  0  0  0  0  0  0  0  0  0
    4.9457    4.5278   -3.5542 H   0  0  0  0  0  0  0  0  0  0  0  0
    5.5852    3.6353   -2.1327 H   0  0  0  0  0  0  0  0  0  0  0  0
    5.8551    2.9968   -3.7899 H   0  0  0  0  0  0  0  0  0  0  0  0
  1  3  1  0  0  0  0
  1  7  1  0  0  0  0
  1  2  2  0  0  0  0
 29 30  1  0  0  0  0
 30 38  1  0  0  0  0
 30 31  2  0  0  0  0
  8  9  1  0  0  0  0
  9 17  1  0  0  0  0
  9 10  2  0  0  0  0
 18 19  1  0  0  0  0
 19 28  1  0  0  0  0
 19 20  2  0  0  0  0
 29 32  1  0  0  0  0
  8 11  1  0  0  0  0
 38 39  1  0  0  0  0
 18 21  1  0  0  0  0
 21 22  1  0  0  0  0
 28 29  1  0  0  0  0
  7  8  1  0  0  0  0
 17 18  1  0  0  0  0
  3  4  1  0  0  0  0
  3  5  1  0  0  0  0
  3  6  1  0  0  0  0
 32 35  1  0  0  0  0
 32 36  1  0  0  0  0
 32 37  1  0  0  0  0
 11 14  1  0  0  0  0
 11 15  1  0  0  0  0
 11 16  1  0  0  0  0
 39 41  1  0  0  0  0
 39 42  1  0  0  0  0
 39 43  1  0  0  0  0
 21 25  1  0  0  0  0
 21 26  1  0  0  0  0
 29 34  1  0  0  0  0
  8 13  1  0  0  0  0
 18 24  1  0  0  0  0
 38 40  1  0  0  0  0
  7 12  1  0  0  0  0
 28 33  1  0  0  0  0
 17 23  1  0  0  0  0
 22 27  1  0  0  0  0
M  END
$$$$

  -OEChem-05262214473D

 43 42  0     1  0  0  0  0  0999 V2000
   -2.8661   -4.7415    2.2943 C   0  0  0  0  0  0  0  0  0  0  0  0
   -2.0233   -5.5727    2.6109 O   0  0  0  0  0  0  0  0  0  0  0  0
   -4.3078   -5.0134    2.5698 C   0  0  0  0  0  0  0  0  0  0  0  0
   -4.8057   -5.5295    1.7332 H   0  0  0  0  0  0  0  0  0  0  0  0
   -4.4526   -5.6688    3.4436 H   0  0  0  0  0  0  0  0  0  0  0  0
   -4.9255   -4.1233    2.7700 H   0  0  0  0  0  0  0  0  0  0  0  0
   -2.6241   -3.5219    1.6838 N   0  0  0  0  0  0  0  0  0  0  0  0
   -1.3070   -3.0608    1.3315 C   0  0  2  0  0  0  0  0  0  0  0  0
   -1.3931   -1.5680    1.0422 C   0  0  0  0  0  0  0  0  0  0  0  0
   -2.4385   -1.0059    0.7226 O   0  0  0  0  0  0  0  0  0  0  0  0
   -0.7590   -3.8164    0.1309 C   0  0  0  0  0  0  0  0  0  0  0  0
   -3.4188   -2.9207    1.4735 H   0  0  0  0  0  0  0  0  0  0  0  0
   -0.6690   -3.2277    2.2062 H   0  0  0  0  0  0  0  0  0  0  0  0
   -1.3852   -3.6613   -0.7553 H   0  0  0  0  0  0  0  0  0  0  0  0
    0.2542   -3.4843   -0.1182 H   0  0  0  0  0  0  0  0  0  0  0  0
   -0.7257   -4.8930    0.3300 H   0  0  0  0  0  0  0  0  0  0  0  0
   -0.1563   -0.9420    1.1402 N   0  0  0  0  0  0  0  0  0  0  0  0
    0.0261    0.4671    0.9001 C   0  0  2  0  0  0  0  0  0  0  0  0
    0.3364    0.6804   -0.5801 C   0  0  0  0  0  0  0  0  0  0  0  0
   -0.4242    0.3316   -1.4807 O   0  0  0  0  0  0  0  0  0  0  0  0
    1.0683    1.0872    1.8342 C   0  0  0  0  0  0  0  0  0  0  0  0
    0.5834    1.0685    3.5912 S   0  0  0  0  0  0  0  0  0  0  0  0
    0.6533   -1.4855    1.4300 H   0  0  0  0  0  0  0  0  0  0  0  0
   -0.9477    0.9294    1.1042 H   0  0  0  0  0  0  0  0  0  0  0  0
    2.0223    0.5562    1.7521 H   0  0  0  0  0  0  0  0  0  0  0  0
    1.2461    2.1311    1.5543 H   0  0  0  0  0  0  0  0  0  0  0  0
    1.6948    1.6628    4.0437 H   0  0  0  0  0  0  0  0  0  0  0  0
    1.5712    1.2824   -0.7761 N   0  0  0  0  0  0  0  0  0  0  0  0
    2.0936    1.5789   -2.0895 C   0  0  2  0  0  0  0  0  0  0  0  0
    3.5223    2.0802   -1.9252 C   0  0  0  0  0  0  0  0  0  0  0  0
    3.9465    2.5662   -0.8788 O   0  0  0  0  0  0  0  0  0  0  0  0
    1.2352    2.6091   -2.8068 C   0  0  0  0  0  0  0  0  0  0  0  0
    2.1214    1.5684    0.0284 H   0  0  0  0  0  0  0  0  0  0  0  0
    2.0986    0.6365   -2.6480 H   0  0  0  0  0  0  0  0  0  0  0  0
    1.2181    3.5600   -2.2619 H   0  0  0  0  0  0  0  0  0  0  0  0
    1.6163    2.8116   -3.8132 H   0  0  0  0  0  0  0  0  0  0  0  0
    0.2011    2.2595   -2.8976 H   0  0  0  0  0  0  0  0  0  0  0  0
    4.2554    1.9607   -3.0976 N   0  0  0  0  0  0  0  0  0  0  0  0
    5.6339    2.3791   -3.2012 C   0  0  0  0  0  0  0  0  0  0  0  0
    3.8288    1.5284   -3.9118 H   0  0  0  0  0  0  0  0  0  0  0  0
    5.6763    3.4177   -3.5611 H   0  0  0  0  0  0  0  0  0  0  0  0
    6.1120    2.3138   -2.2127 H   0  0  0  0  0  0  0  0  0  0  0  0
    6.1635    1.7241   -3.9086 H   0  0  0  0  0  0  0  0  0  0  0  0
  1  3  1  0  0  0  0
  1  7  1  0  0  0  0
  1  2  2  0  0  0  0
 29 30  1  0  0  0  0
 30 38  1  0  0  0  0
 30 31  2  0  0  0  0
  8  9  1  0  0  0  0
  9 17  1  0  0  0  0
  9 10  2  0  0  0  0
 18 19  1  0  0  0  0
 19 28  1  0  0  0  0
 19 20  2  0  0  0  0
 29 32  1  0  0  0  0
  8 11  1  0  0  0  0
 38 39  1  0  0  0  0
 18 21  1  0  0  0  0
 21 22  1  0  0  0  0
 28 29  1  0  0  0  0
  7  8  1  0  0  0  0
 17 18  1  0  0  0  0
  3  4  1  0  0  0  0
  3  5  1  0  0  0  0
  3  6  1  0  0  0  0
 32 35  1  0  0  0  0
 32 36  1  0  0  0  0
 32 37  1  0  0  0  0
 11 14  1  0  0  0  0
 11 15  1  0  0  0  0
 11 16  1  0  0  0  0
 39 41  1  0  0  0  0
 39 42  1  0  0  0  0
 39 43  1  0  0  0  0
 21 25  1  0  0  0  0
 21 26  1  0  0  0  0
 29 34  1  0  0  0  0
  8 13  1  0  0  0  0
 18 24  1  0  0  0  0
 38 40  1  0  0  0  0
  7 12  1  0  0  0  0
 28 33  1  0  0  0  0
 17 23  1  0  0  0  0
 22 27  1  0  0  0  0
M  END
$$$$

  -OEChem-05262214473D

 43 42  0     1  0  0  0  0  0999 V2000
   -2.8661   -4.7415    2.2943 C   0  0  0  0  0  0  0  0  0  0  0  0
   -2.0233   -5.5727    2.6109 O   0  0  0  0  0  0  0  0  0  0  0  0
   -4.3078   -5.0134    2.5698 C   0  0  0  0  0  0  0  0  0  0  0  0
   -4.8057   -5.5295    1.7332 H   0  0  0  0  0  0  0  0  0  0  0  0
   -4.4526   -5.6688    3.4436 H   0  0  0  0  0  0  0  0  0  0  0  0
   -4.9255   -4.1233    2.7700 H   0  0  0  0  0  0  0  0  0  0  0  0
   -2.6241   -3.5219    1.6838 N   0  0  0  0  0  0  0  0  0  0  0  0
   -1.3070   -3.0608    1.3315 C   0  0  2  0  0  0  0  0  0  0  0  0
   -1.3931   -1.5680    1.0422 C   0  0  0  0  0  0  0  0  0  0  0  0
   -2.4385   -1.0059    0.7226 O   0  0  0  0  0  0  0  0  0  0  0  0
   -0.7590   -3.8164    0.1309 C   0  0  0  0  0  0  0  0  0  0  0  0
   -3.4188   -2.9207    1.4735 H   0  0  0  0  0  0  0  0  0  0  0  0
   -0.6690   -3.2277    2.2062 H   0  0  0  0  0  0  0  0  0  0  0  0
   -1.3852   -3.6613   -0.7553 H   0  0  0  0  0  0  0  0  0  0  0  0
    0.2542   -3.4843   -0.1182 H   0  0  0  0  0  0  0  0  0  0  0  0
   -0.7257   -4.8930    0.3300 H   0  0  0  0  0  0  0  0  0  0  0  0
   -0.1563   -0.9420    1.1402 N   0  0  0  0  0  0  0  0  0  0  0  0
    0.0261    0.4671    0.9001 C   0  0  2  0  0  0  0  0  0  0  0  0
    0.3364    0.6804   -0.5801 C   0  0  0  0  0  0  0  0  0  0  0  0
   -0.5137    0.5848   -1.4630 O   0  0  0  0  0  0  0  0  0  0  0  0
    1.0683    1.0872    1.8342 C   0  0  0  0  0  0  0  0  0  0  0  0
    0.5834    1.0685    3.5912 S   0  0  0  0  0  0  0  0  0  0  0  0
    0.6533   -1.4855    1.4300 H   0  0  0  0  0  0  0  0  0  0  0  0
   -0.9477    0.9294    1.1042 H   0  0  0  0  0  0  0  0  0  0  0  0
    2.0223    0.5562    1.7521 H   0  0  0  0  0  0  0  0  0  0  0  0
    1.2461    2.1311    1.5543 H   0  0  0  0  0  0  0  0  0  0  0  0
    1.6948    1.6628    4.0437 H   0  0  0  0  0  0  0  0  0  0  0  0
    1.6767    0.9649   -0.7997 N   0  0  0  0  0  0  0  0  0  0  0  0
    2.2180    1.1961   -2.1186 C   0  0  2  0  0  0  0  0  0  0  0  0
    3.7311    1.3143   -1.9918 C   0  0  0  0  0  0  0  0  0  0  0  0
    4.2946    1.6183   -0.9425 O   0  0  0  0  0  0  0  0  0  0  0  0
    1.6259    2.4474   -2.7482 C   0  0  0  0  0  0  0  0  0  0  0  0
    2.3045    1.0579   -0.0067 H   0  0  0  0  0  0  0  0  0  0  0  0
    1.9691    0.3159   -2.7214 H   0  0  0  0  0  0  0  0  0  0  0  0
    1.8649    3.3397   -2.1581 H   0  0  0  0  0  0  0  0  0  0  0  0
    2.0159    2.6055   -3.7591 H   0  0  0  0  0  0  0  0  0  0  0  0
    0.5349    2.3730   -2.8113 H   0  0  0  0  0  0  0  0  0  0  0  0
    4.3756    1.0827   -3.1989 N   0  0  0  0  0  0  0  0  0  0  0  0
    5.8114    1.1485   -3.3413 C   0  0  0  0  0  0  0  0  0  0  0  0
    3.8302    0.8180   -4.0139 H   0  0  0  0  0  0  0  0  0  0  0  0
    6.1034    2.1624   -3.6525 H   0  0  0  0  0  0  0  0  0  0  0  0
    6.2866    0.9095   -2.3785 H   0  0  0  0  0  0  0  0  0  0  0  0
    6.1380    0.4235   -4.1014 H   0  0  0  0  0  0  0  0  0  0  0  0
  1  3  1  0  0  0  0
  1  7  1  0  0  0  0
  1  2  2  0  0  0  0
 29 30  1  0  0  0  0
 30 38  1  0  0  0  0
 30 31  2  0  0  0  0
  8  9  1  0  0  0  0
  9 17  1  0  0  0  0
  9 10  2  0  0  0  0
 18 19  1  0  0  0  0
 19 28  1  0  0  0  0
 19 20  2  0  0  0  0
 29 32  1  0  0  0  0
  8 11  1  0  0  0  0
 38 39  1  0  0  0  0
 18 21  1  0  0  0  0
 21 22  1  0  0  0  0
 28 29  1  0  0  0  0
  7  8  1  0  0  0  0
 17 18  1  0  0  0  0
  3  4  1  0  0  0  0
  3  5  1  0  0  0  0
  3  6  1  0  0  0  0
 32 35  1  0  0  0  0
 32 36  1  0  0  0  0
 32 37  1  0  0  0  0
 11 14  1  0  0  0  0
 11 15  1  0  0  0  0
 11 16  1  0  0  0  0
 39 41  1  0  0  0  0
 39 42  1  0  0  0  0
 39 43  1  0  0  0  0
 21 25  1  0  0  0  0
 21 26  1  0  0  0  0
 29 34  1  0  0  0  0
  8 13  1  0  0  0  0
 18 24  1  0  0  0  0
 38 40  1  0  0  0  0
  7 12  1  0  0  0  0
 28 33  1  0  0  0  0
 17 23  1  0  0  0  0
 22 27  1  0  0  0  0
M  END
$$$$

  -OEChem-05262214473D

 43 42  0     1  0  0  0  0  0999 V2000
   -2.8661   -4.7415    2.2943 C   0  0  0  0  0  0  0  0  0  0  0  0
   -2.0233   -5.5727    2.6109 O   0  0  0  0  0  0  0  0  0  0  0  0
   -4.3078   -5.0134    2.5698 C   0  0  0  0  0  0  0  0  0  0  0  0
   -4.8057   -5.5295    1.7332 H   0  0  0  0  0  0  0  0  0  0  0  0
   -4.4526   -5.6688    3.4436 H   0  0  0  0  0  0  0  0  0  0  0  0
   -4.9255   -4.1233    2.7700 H   0  0  0  0  0  0  0  0  0  0  0  0
   -2.6241   -3.5219    1.6838 N   0  0  0  0  0  0  0  0  0  0  0  0
   -1.3070   -3.0608    1.3315 C   0  0  2  0  0  0  0  0  0  0  0  0
   -1.3931   -1.5680    1.0422 C   0  0  0  0  0  0  0  0  0  0  0  0
   -2.4385   -1.0059    0.7226 O   0  0  0  0  0  0  0  0  0  0  0  0
   -0.7590   -3.8164    0.1309 C   0  0  0  0  0  0  0  0  0  0  0  0
   -3.4188   -2.9207    1.4735 H   0  0  0  0  0  0  0  0  0  0  0  0
   -0.6690   -3.2277    2.2062 H   0  0  0  0  0  0  0  0  0  0  0  0
   -1.3852   -3.6613   -0.7553 H   0  0  0  0  0  0  0  0  0  0  0  0
    0.2542   -3.4843   -0.1182 H   0  0  0  0  0  0  0  0  0  0  0  0
   -0.7257   -4.8930    0.3300 H   0  0  0  0  0  0  0  0  0  0  0  0
   -0.1563   -0.9420    1.1402 N   0  0  0  0  0  0  0  0  0  0  0  0
    0.0261    0.4671    0.9001 C   0  0  2  0  0  0  0  0  0  0  0  0
    0.3364    0.6804   -0.5801 C   0  0  0  0  0  0  0  0  0  0  0  0
   -0.5360    0.8509   -1.4293 O   0  0  0  0  0  0  0  0  0  0  0  0
    1.0683    1.0872    1.8342 C   0  0  0  0  0  0  0  0  0  0  0  0
    0.5834    1.0685    3.5912 S   0  0  0  0  0  0  0  0  0  0  0  0
    0.6533   -1.4855    1.4300 H   0  0  0  0  0  0  0  0  0  0  0  0
   -0.9477    0.9294    1.1042 H   0  0  0  0  0  0  0  0  0  0  0  0
    2.0223    0.5562    1.7521 H   0  0  0  0  0  0  0  0  0  0  0  0
    1.2461    2.1311    1.5543 H   0  0  0  0  0  0  0  0  0  0  0  0
    1.6948    1.6628    4.0437 H   0  0  0  0  0  0  0  0  0  0  0  0
    1.6981    0.6331   -0.8431 N   0  0  0  0  0  0  0  0  0  0  0  0
    2.2411    0.7967   -2.1713 C   0  0  2  0  0  0  0  0  0  0  0  0
    3.7382    0.5257   -2.1040 C   0  0  0  0  0  0  0  0  0  0  0  0
    4.3908    0.6187   -1.0664 O   0  0  0  0  0  0  0  0  0  0  0  0
    1.9649    2.1901   -2.7142 C   0  0  0  0  0  0  0  0  0  0  0  0
    2.3522    0.5207   -0.0742 H   0  0  0  0  0  0  0  0  0  0  0  0
    1.7609    0.0426   -2.8044 H   0  0  0  0  0  0  0  0  0  0  0  0
    2.4381    2.9592   -2.0928 H   0  0  0  0  0  0  0  0  0  0  0  0
    2.3521    2.3033   -3.7322 H   0  0  0  0  0  0  0  0  0  0  0  0
    0.8889    2.3945   -2.7340 H   0  0  0  0  0  0  0  0  0  0  0  0
    4.2678    0.2097   -3.3473 N   0  0  0  0  0  0  0  0  0  0  0  0
    5.6691   -0.0772   -3.5478 C   0  0  0  0  0  0  0  0  0  0  0  0
    3.6496    0.1368   -4.1499 H   0  0  0  0  0  0  0  0  0  0  0  0
    6.1977    0.8476   -3.8222 H   0  0  0  0  0  0  0  0  0  0  0  0
    6.0969   -0.4820   -2.6188 H   0  0  0  0  0  0  0  0  0  0  0  0
    5.7801   -0.8161   -4.3551 H   0  0  0  0  0  0  0  0  0  0  0  0
  1  3  1  0  0  0  0
  1  7  1  0  0  0  0
  1  2  2  0  0  0  0
 29 30  1  0  0  0  0
 30 38  1  0  0  0  0
 30 31  2  0  0  0  0
  8  9  1  0  0  0  0
  9 17  1  0  0  0  0
  9 10  2  0  0  0  0
 18 19  1  0  0  0  0
 19 28  1  0  0  0  0
 19 20  2  0  0  0  0
 29 32  1  0  0  0  0
  8 11  1  0  0  0  0
 38 39  1  0  0  0  0
 18 21  1  0  0  0  0
 21 22  1  0  0  0  0
 28 29  1  0  0  0  0
  7  8  1  0  0  0  0
 17 18  1  0  0  0  0
  3  4  1  0  0  0  0
  3  5  1  0  0  0  0
  3  6  1  0  0  0  0
 32 35  1  0  0  0  0
 32 36  1  0  0  0  0
 32 37  1  0  0  0  0
 11 14  1  0  0  0  0
 11 15  1  0  0  0  0
 11 16  1  0  0  0  0
 39 41  1  0  0  0  0
 39 42  1  0  0  0  0
 39 43  1  0  0  0  0
 21 25  1  0  0  0  0
 21 26  1  0  0  0  0
 29 34  1  0  0  0  0
  8 13  1  0  0  0  0
 18 24  1  0  0  0  0
 38 40  1  0  0  0  0
  7 12  1  0  0  0  0
 28 33  1  0  0  0  0
 17 23  1  0  0  0  0
 22 27  1  0  0  0  0
M  END
$$$$

  -OEChem-05262214473D

 43 42  0     1  0  0  0  0  0999 V2000
   -2.8661   -4.7415    2.2943 C   0  0  0  0  0  0  0  0  0  0  0  0
   -2.0233   -5.5727    2.6109 O   0  0  0  0  0  0  0  0  0  0  0  0
   -4.3078   -5.0134    2.5698 C   0  0  0  0  0  0  0  0  0  0  0  0
   -4.8057   -5.5295    1.7332 H   0  0  0  0  0  0  0  0  0  0  0  0
   -4.4526   -5.6688    3.4436 H   0  0  0  0  0  0  0  0  0  0  0  0
   -4.9255   -4.1233    2.7700 H   0  0  0  0  0  0  0  0  0  0  0  0
   -2.6241   -3.5219    1.6838 N   0  0  0  0  0  0  0  0  0  0  0  0
   -1.3070   -3.0608    1.3315 C   0  0  2  0  0  0  0  0  0  0  0  0
   -1.3931   -1.5680    1.0422 C   0  0  0  0  0  0  0  0  0  0  0  0
   -2.4385   -1.0059    0.7226 O   0  0  0  0  0  0  0  0  0  0  0  0
   -0.7590   -3.8164    0.1309 C   0  0  0  0  0  0  0  0  0  0  0  0
   -3.4188   -2.9207    1.4735 H   0  0  0  0  0  0  0  0  0  0  0  0
   -0.6690   -3.2277    2.2062 H   0  0  0  0  0  0  0  0  0  0  0  0
   -1.3852   -3.6613   -0.7553 H   0  0  0  0  0  0  0  0  0  0  0  0
    0.2542   -3.4843   -0.1182 H   0  0  0  0  0  0  0  0  0  0  0  0
   -0.7257   -4.8930    0.3300 H   0  0  0  0  0  0  0  0  0  0  0  0
   -0.1563   -0.9420    1.1402 N   0  0  0  0  0  0  0  0  0  0  0  0
    0.0261    0.4671    0.9001 C   0  0  2  0  0  0  0  0  0  0  0  0
    0.3364    0.6804   -0.5801 C   0  0  0  0  0  0  0  0  0  0  0  0
   -0.4896    1.1118   -1.3820 O   0  0  0  0  0  0  0  0  0  0  0  0
    1.0683    1.0872    1.8342 C   0  0  0  0  0  0  0  0  0  0  0  0
    0.5834    1.0685    3.5912 S   0  0  0  0  0  0  0  0  0  0  0  0
    0.6533   -1.4855    1.4300 H   0  0  0  0  0  0  0  0  0  0  0  0
   -0.9477    0.9294    1.1042 H   0  0  0  0  0  0  0  0  0  0  0  0
    2.0223    0.5562    1.7521 H   0  0  0  0  0  0  0  0  0  0  0  0
    1.2461    2.1311    1.5543 H   0  0  0  0  0  0  0  0  0  0  0  0
    1.6948    1.6628    4.0437 H   0  0  0  0  0  0  0  0  0  0  0  0
    1.6339    0.3095   -0.9032 N   0  0  0  0  0  0  0  0  0  0  0  0
    2.1613    0.4079   -2.2441 C   0  0  2  0  0  0  0  0  0  0  0  0
    3.5433   -0.2320   -2.2540 C   0  0  0  0  0  0  0  0  0  0  0  0
    4.2285   -0.3645   -1.2421 O   0  0  0  0  0  0  0  0  0  0  0  0
    2.2290    1.8549   -2.7072 C   0  0  0  0  0  0  0  0  0  0  0  0
    2.2610   -0.0065   -0.1693 H   0  0  0  0  0  0  0  0  0  0  0  0
    1.4883   -0.1648   -2.8914 H   0  0  0  0  0  0  0  0  0  0  0  0
    2.8986    2.4444   -2.0705 H   0  0  0  0  0  0  0  0  0  0  0  0
    2.6021    1.9257   -3.7342 H   0  0  0  0  0  0  0  0  0  0  0  0
    1.2390    2.3223   -2.6710 H   0  0  0  0  0  0  0  0  0  0  0  0
    3.9394   -0.5986   -3.5326 N   0  0  0  0  0  0  0  0  0  0  0  0
    5.2167   -1.2146   -3.8065 C   0  0  0  0  0  0  0  0  0  0  0  0
    3.2993   -0.4687   -4.3106 H   0  0  0  0  0  0  0  0  0  0  0  0
    5.9528   -0.4371   -4.0586 H   0  0  0  0  0  0  0  0  0  0  0  0
    5.5560   -1.7660   -2.9172 H   0  0  0  0  0  0  0  0  0  0  0  0
    5.1143   -1.9104   -4.6523 H   0  0  0  0  0  0  0  0  0  0  0  0
  1  3  1  0  0  0  0
  1  7  1  0  0  0  0
  1  2  2  0  0  0  0
 29 30  1  0  0  0  0
 30 38  1  0  0  0  0
 30 31  2  0  0  0  0
  8  9  1  0  0  0  0
  9 17  1  0  0  0  0
  9 10  2  0  0  0  0
 18 19  1  0  0  0  0
 19 28  1  0  0  0  0
 19 20  2  0  0  0  0
 29 32  1  0  0  0  0
  8 11  1  0  0  0  0
 38 39  1  0  0  0  0
 18 21  1  0  0  0  0
 21 22  1  0  0  0  0
 28 29  1  0  0  0  0
  7  8  1  0  0  0  0
 17 18  1  0  0  0  0
  3  4  1  0  0  0  0
  3  5  1  0  0  0  0
  3  6  1  0  0  0  0
 32 35  1  0  0  0  0
 32 36  1  0  0  0  0
 32 37  1  0  0  0  0
 11 14  1  0  0  0  0
 11 15  1  0  0  0  0
 11 16  1  0  0  0  0
 39 41  1  0  0  0  0
 39 42  1  0  0  0  0
 39 43  1  0  0  0  0
 21 25  1  0  0  0  0
 21 26  1  0  0  0  0
 29 34  1  0  0  0  0
  8 13  1  0  0  0  0
 18 24  1  0  0  0  0
 38 40  1  0  0  0  0
  7 12  1  0  0  0  0
 28 33  1  0  0  0  0
 17 23  1  0  0  0  0
 22 27  1  0  0  0  0
M  END
$$$$

  -OEChem-05262214473D

 43 42  0     1  0  0  0  0  0999 V2000
   -2.8661   -4.7415    2.2943 C   0  0  0  0  0  0  0  0  0  0  0  0
   -2.0233   -5.5727    2.6109 O   0  0  0  0  0  0  0  0  0  0  0  0
   -4.3078   -5.0134    2.5698 C   0  0  0  0  0  0  0  0  0  0  0  0
   -4.8057   -5.5295    1.7332 H   0  0  0  0  0  0  0  0  0  0  0  0
   -4.4526   -5.6688    3.4436 H   0  0  0  0  0  0  0  0  0  0  0  0
   -4.9255   -4.1233    2.7700 H   0  0  0  0  0  0  0  0  0  0  0  0
   -2.6241   -3.5219    1.6838 N   0  0  0  0  0  0  0  0  0  0  0  0
   -1.3070   -3.0608    1.3315 C   0  0  2  0  0  0  0  0  0  0  0  0
   -1.3931   -1.5680    1.0422 C   0  0  0  0  0  0  0  0  0  0  0  0
   -2.4385   -1.0059    0.7226 O   0  0  0  0  0  0  0  0  0  0  0  0
   -0.7590   -3.8164    0.1309 C   0  0  0  0  0  0  0  0  0  0  0  0
   -3.4188   -2.9207    1.4735 H   0  0  0  0  0  0  0  0  0  0  0  0
   -0.6690   -3.2277    2.2062 H   0  0  0  0  0  0  0  0  0  0  0  0
   -1.3852   -3.6613   -0.7553 H   0  0  0  0  0  0  0  0  0  0  0  0
    0.2542   -3.4843   -0.1182 H   0  0  0  0  0  0  0  0  0  0  0  0
   -0.7257   -4.8930    0.3300 H   0  0  0  0  0  0  0  0  0  0  0  0
   -0.1563   -0.9420    1.1402 N   0  0  0  0  0  0  0  0  0  0  0  0
    0.0261    0.4671    0.9001 C   0  0  2  0  0  0  0  0  0  0  0  0
    0.3364    0.6804   -0.5801 C   0  0  0  0  0  0  0  0  0  0  0  0
   -0.3776    1.3496   -1.3242 O   0  0  0  0  0  0  0  0  0  0  0  0
    1.0683    1.0872    1.8342 C   0  0  0  0  0  0  0  0  0  0  0  0
    0.5834    1.0685    3.5912 S   0  0  0  0  0  0  0  0  0  0  0  0
    0.6533   -1.4855    1.4300 H   0  0  0  0  0  0  0  0  0  0  0  0
   -0.9477    0.9294    1.1042 H   0  0  0  0  0  0  0  0  0  0  0  0
    2.0223    0.5562    1.7521 H   0  0  0  0  0  0  0  0  0  0  0  0
    1.2461    2.1311    1.5543 H   0  0  0  0  0  0  0  0  0  0  0  0
    1.6948    1.6628    4.0437 H   0  0  0  0  0  0  0  0  0  0  0  0
    1.4886    0.0161   -0.9759 N   0  0  0  0  0  0  0  0  0  0  0  0
    1.9841    0.0562   -2.3319 C   0  0  2  0  0  0  0  0  0  0  0  0
    3.1595   -0.9071   -2.4318 C   0  0  0  0  0  0  0  0  0  0  0  0
    3.8187   -1.2642   -1.4576 O   0  0  0  0  0  0  0  0  0  0  0  0
    2.4002    1.4644   -2.7276 C   0  0  0  0  0  0  0  0  0  0  0  0
    2.0372   -0.4880   -0.2855 H   0  0  0  0  0  0  0  0  0  0  0  0
    1.1698   -0.2922   -2.9765 H   0  0  0  0  0  0  0  0  0  0  0  0
    3.2152    1.8305   -2.0926 H   0  0  0  0  0  0  0  0  0  0  0  0
    2.7488    1.4983   -3.7650 H   0  0  0  0  0  0  0  0  0  0  0  0
    1.5614    2.1615   -2.6266 H   0  0  0  0  0  0  0  0  0  0  0  0
    3.4127   -1.2873   -3.7423 N   0  0  0  0  0  0  0  0  0  0  0  0
    4.4851   -2.1862   -4.0999 C   0  0  0  0  0  0  0  0  0  0  0  0
    2.8034   -0.9573   -4.4849 H   0  0  0  0  0  0  0  0  0  0  0  0
    5.3856   -1.6042   -4.3457 H   0  0  0  0  0  0  0  0  0  0  0  0
    4.7007   -2.8548   -3.2534 H   0  0  0  0  0  0  0  0  0  0  0  0
    4.1859   -2.7848   -4.9729 H   0  0  0  0  0  0  0  0  0  0  0  0
  1  3  1  0  0  0  0
  1  7  1  0  0  0  0
  1  2  2  0  0  0  0
 29 30  1  0  0  0  0
 30 38  1  0  0  0  0
 30 31  2  0  0  0  0
  8  9  1  0  0  0  0
  9 17  1  0  0  0  0
  9 10  2  0  0  0  0
 18 19  1  0  0  0  0
 19 28  1  0  0  0  0
 19 20  2  0  0  0  0
 29 32  1  0  0  0  0
  8 11  1  0  0  0  0
 38 39  1  0  0  0  0
 18 21  1  0  0  0  0
 21 22  1  0  0  0  0
 28 29  1  0  0  0  0
  7  8  1  0  0  0  0
 17 18  1  0  0  0  0
  3  4  1  0  0  0  0
  3  5  1  0  0  0  0
  3  6  1  0  0  0  0
 32 35  1  0  0  0  0
 32 36  1  0  0  0  0
 32 37  1  0  0  0  0
 11 14  1  0  0  0  0
 11 15  1  0  0  0  0
 11 16  1  0  0  0  0
 39 41  1  0  0  0  0
 39 42  1  0  0  0  0
 39 43  1  0  0  0  0
 21 25  1  0  0  0  0
 21 26  1  0  0  0  0
 29 34  1  0  0  0  0
  8 13  1  0  0  0  0
 18 24  1  0  0  0  0
 38 40  1  0  0  0  0
  7 12  1  0  0  0  0
 28 33  1  0  0  0  0
 17 23  1  0  0  0  0
 22 27  1  0  0  0  0
M  END
$$$$

  -OEChem-05262214473D

 43 42  0     1  0  0  0  0  0999 V2000
   -2.8661   -4.7415    2.2943 C   0  0  0  0  0  0  0  0  0  0  0  0
   -2.0233   -5.5727    2.6109 O   0  0  0  0  0  0  0  0  0  0  0  0
   -4.3078   -5.0134    2.5698 C   0  0  0  0  0  0  0  0  0  0  0  0
   -4.8057   -5.5295    1.7332 H   0  0  0  0  0  0  0  0  0  0  0  0
   -4.4526   -5.6688    3.4436 H   0  0  0  0  0  0  0  0  0  0  0  0
   -4.9255   -4.1233    2.7700 H   0  0  0  0  0  0  0  0  0  0  0  0
   -2.6241   -3.5219    1.6838 N   0  0  0  0  0  0  0  0  0  0  0  0
   -1.3070   -3.0608    1.3315 C   0  0  2  0  0  0  0  0  0  0  0  0
   -1.3931   -1.5680    1.0422 C   0  0  0  0  0  0  0  0  0  0  0  0
   -2.4385   -1.0059    0.7226 O   0  0  0  0  0  0  0  0  0  0  0  0
   -0.7590   -3.8164    0.1309 C   0  0  0  0  0  0  0  0  0  0  0  0
   -3.4188   -2.9207    1.4735 H   0  0  0  0  0  0  0  0  0  0  0  0
   -0.6690   -3.2277    2.2062 H   0  0  0  0  0  0  0  0  0  0  0  0
   -1.3852   -3.6613   -0.7553 H   0  0  0  0  0  0  0  0  0  0  0  0
    0.2542   -3.4843   -0.1182 H   0  0  0  0  0  0  0  0  0  0  0  0
   -0.7257   -4.8930    0.3300 H   0  0  0  0  0  0  0  0  0  0  0  0
   -0.1563   -0.9420    1.1402 N   0  0  0  0  0  0  0  0  0  0  0  0
    0.0261    0.4671    0.9001 C   0  0  2  0  0  0  0  0  0  0  0  0
    0.3364    0.6804   -0.5801 C   0  0  0  0  0  0  0  0  0  0  0  0
   -0.2077    1.5482   -1.2600 O   0  0  0  0  0  0  0  0  0  0  0  0
    1.0683    1.0872    1.8342 C   0  0  0  0  0  0  0  0  0  0  0  0
    0.5834    1.0685    3.5912 S   0  0  0  0  0  0  0  0  0  0  0  0
    0.6533   -1.4855    1.4300 H   0  0  0  0  0  0  0  0  0  0  0  0
   -0.9477    0.9294    1.1042 H   0  0  0  0  0  0  0  0  0  0  0  0
    2.0223    0.5562    1.7521 H   0  0  0  0  0  0  0  0  0  0  0  0
    1.2461    2.1311    1.5543 H   0  0  0  0  0  0  0  0  0  0  0  0
    1.6948    1.6628    4.0437 H   0  0  0  0  0  0  0  0  0  0  0  0
    1.2720   -0.2269   -1.0563 N   0  0  0  0  0  0  0  0  0  0  0  0
    1.7215   -0.2345   -2.4288 C   0  0  2  0  0  0  0  0  0  0  0  0
    2.6130   -1.4536   -2.6251 C   0  0  0  0  0  0  0  0  0  0  0  0
    3.1894   -2.0192   -1.6983 O   0  0  0  0  0  0  0  0  0  0  0  0
    2.4670    1.0453   -2.7740 C   0  0  0  0  0  0  0  0  0  0  0  0
    1.6961   -0.8907   -0.4151 H   0  0  0  0  0  0  0  0  0  0  0  0
    0.8271   -0.3309   -3.0540 H   0  0  0  0  0  0  0  0  0  0  0  0
    3.3662    1.1593   -2.1577 H   0  0  0  0  0  0  0  0  0  0  0  0
    2.7822    1.0504   -3.8226 H   0  0  0  0  0  0  0  0  0  0  0  0
    1.8341    1.9230   -2.6039 H   0  0  0  0  0  0  0  0  0  0  0  0
    2.7236   -1.8094   -3.9619 N   0  0  0  0  0  0  0  0  0  0  0  0
    3.5242   -2.9258   -4.4079 C   0  0  0  0  0  0  0  0  0  0  0  0
    2.1954   -1.2957   -4.6611 H   0  0  0  0  0  0  0  0  0  0  0  0
    4.5345   -2.5741   -4.6639 H   0  0  0  0  0  0  0  0  0  0  0  0
    3.5892   -3.6743   -3.6044 H   0  0  0  0  0  0  0  0  0  0  0  0
    3.0583   -3.3797   -5.2950 H   0  0  0  0  0  0  0  0  0  0  0  0
  1  3  1  0  0  0  0
  1  7  1  0  0  0  0
  1  2  2  0  0  0  0
 29 30  1  0  0  0  0
 30 38  1  0  0  0  0
 30 31  2  0  0  0  0
  8  9  1  0  0  0  0
  9 17  1  0  0  0  0
  9 10  2  0  0  0  0
 18 19  1  0  0  0  0
 19 28  1  0  0  0  0
 19 20  2  0  0  0  0
 29 32  1  0  0  0  0
  8 11  1  0  0  0  0
 38 39  1  0  0  0  0
 18 21  1  0  0  0  0
 21 22  1  0  0  0  0
 28 29  1  0  0  0  0
  7  8  1  0  0  0  0
 17 18  1  0  0  0  0
  3  4  1  0  0  0  0
  3  5  1  0  0  0  0
  3  6  1  0  0  0  0
 32 35  1  0  0  0  0
 32 36  1  0  0  0  0
 32 37  1  0  0  0  0
 11 14  1  0  0  0  0
 11 15  1  0  0  0  0
 11 16  1  0  0  0  0
 39 41  1  0  0  0  0
 39 42  1  0  0  0  0
 39 43  1  0  0  0  0
 21 25  1  0  0  0  0
 21 26  1  0  0  0  0
 29 34  1  0  0  0  0
  8 13  1  0  0  0  0
 18 24  1  0  0  0  0
 38 40  1  0  0  0  0
  7 12  1  0  0  0  0
 28 33  1  0  0  0  0
 17 23  1  0  0  0  0
 22 27  1  0  0  0  0
M  END
$$$$

  -OEChem-05262214473D

 43 42  0     1  0  0  0  0  0999 V2000
   -2.8661   -4.7415    2.2943 C   0  0  0  0  0  0  0  0  0  0  0  0
   -2.0233   -5.5727    2.6109 O   0  0  0  0  0  0  0  0  0  0  0  0
   -4.3078   -5.0134    2.5698 C   0  0  0  0  0  0  0  0  0  0  0  0
   -4.8057   -5.5295    1.7332 H   0  0  0  0  0  0  0  0  0  0  0  0
   -4.4526   -5.6688    3.4436 H   0  0  0  0  0  0  0  0  0  0  0  0
   -4.9255   -4.1233    2.7700 H   0  0  0  0  0  0  0  0  0  0  0  0
   -2.6241   -3.5219    1.6838 N   0  0  0  0  0  0  0  0  0  0  0  0
   -1.3070   -3.0608    1.3315 C   0  0  2  0  0  0  0  0  0  0  0  0
   -1.3931   -1.5680    1.0422 C   0  0  0  0  0  0  0  0  0  0  0  0
   -2.4385   -1.0059    0.7226 O   0  0  0  0  0  0  0  0  0  0  0  0
   -0.7590   -3.8164    0.1309 C   0  0  0  0  0  0  0  0  0  0  0  0
   -3.4188   -2.9207    1.4735 H   0  0  0  0  0  0  0  0  0  0  0  0
   -0.6690   -3.2277    2.2062 H   0  0  0  0  0  0  0  0  0  0  0  0
   -1.3852   -3.6613   -0.7553 H   0  0  0  0  0  0  0  0  0  0  0  0
    0.2542   -3.4843   -0.1182 H   0  0  0  0  0  0  0  0  0  0  0  0
   -0.7257   -4.8930    0.3300 H   0  0  0  0  0  0  0  0  0  0  0  0
   -0.1563   -0.9420    1.1402 N   0  0  0  0  0  0  0  0  0  0  0  0
    0.0261    0.4671    0.9001 C   0  0  2  0  0  0  0  0  0  0  0  0
    0.3364    0.6804   -0.5801 C   0  0  0  0  0  0  0  0  0  0  0  0
    0.0086    1.6941   -1.1936 O   0  0  0  0  0  0  0  0  0  0  0  0
    1.0683    1.0872    1.8342 C   0  0  0  0  0  0  0  0  0  0  0  0
    0.5834    1.0685    3.5912 S   0  0  0  0  0  0  0  0  0  0  0  0
    0.6533   -1.4855    1.4300 H   0  0  0  0  0  0  0  0  0  0  0  0
   -0.9477    0.9294    1.1042 H   0  0  0  0  0  0  0  0  0  0  0  0
    2.0223    0.5562    1.7521 H   0  0  0  0  0  0  0  0  0  0  0  0
    1.2461    2.1311    1.5543 H   0  0  0  0  0  0  0  0  0  0  0  0
    1.6948    1.6628    4.0437 H   0  0  0  0  0  0  0  0  0  0  0  0
    0.9990   -0.4032   -1.1389 N   0  0  0  0  0  0  0  0  0  0  0  0
    1.3914   -0.4443   -2.5282 C   0  0  2  0  0  0  0  0  0  0  0  0
    1.9411   -1.8342   -2.8207 C   0  0  0  0  0  0  0  0  0  0  0  0
    2.3835   -2.5779   -1.9477 O   0  0  0  0  0  0  0  0  0  0  0  0
    2.4247    0.6262   -2.8432 C   0  0  0  0  0  0  0  0  0  0  0  0
    1.2609   -1.1874   -0.5491 H   0  0  0  0  0  0  0  0  0  0  0  0
    0.4836   -0.2783   -3.1184 H   0  0  0  0  0  0  0  0  0  0  0  0
    3.3414    0.4764   -2.2613 H   0  0  0  0  0  0  0  0  0  0  0  0
    2.6999    0.6123   -3.9030 H   0  0  0  0  0  0  0  0  0  0  0  0
    2.0384    1.6230   -2.6043 H   0  0  0  0  0  0  0  0  0  0  0  0
    1.9192   -2.1293   -4.1767 N   0  0  0  0  0  0  0  0  0  0  0  0
    2.3993   -3.3829   -4.7095 C   0  0  0  0  0  0  0  0  0  0  0  0
    1.5169   -1.4608   -4.8271 H   0  0  0  0  0  0  0  0  0  0  0  0
    3.4576   -3.2808   -4.9915 H   0  0  0  0  0  0  0  0  0  0  0  0
    2.2974   -4.1686   -3.9464 H   0  0  0  0  0  0  0  0  0  0  0  0
    1.8082   -3.6545   -5.5966 H   0  0  0  0  0  0  0  0  0  0  0  0
  1  3  1  0  0  0  0
  1  7  1  0  0  0  0
  1  2  2  0  0  0  0
 29 30  1  0  0  0  0
 30 38  1  0  0  0  0
 30 31  2  0  0  0  0
  8  9  1  0  0  0  0
  9 17  1  0  0  0  0
  9 10  2  0  0  0  0
 18 19  1  0  0  0  0
 19 28  1  0  0  0  0
 19 20  2  0  0  0  0
 29 32  1  0  0  0  0
  8 11  1  0  0  0  0
 38 39  1  0  0  0  0
 18 21  1  0  0  0  0
 21 22  1  0  0  0  0
 28 29  1  0  0  0  0
  7  8  1  0  0  0  0
 17 18  1  0  0  0  0
  3  4  1  0  0  0  0
  3  5  1  0  0  0  0
  3  6  1  0  0  0  0
 32 35  1  0  0  0  0
 32 36  1  0  0  0  0
 32 37  1  0  0  0  0
 11 14  1  0  0  0  0
 11 15  1  0  0  0  0
 11 16  1  0  0  0  0
 39 41  1  0  0  0  0
 39 42  1  0  0  0  0
 39 43  1  0  0  0  0
 21 25  1  0  0  0  0
 21 26  1  0  0  0  0
 29 34  1  0  0  0  0
  8 13  1  0  0  0  0
 18 24  1  0  0  0  0
 38 40  1  0  0  0  0
  7 12  1  0  0  0  0
 28 33  1  0  0  0  0
 17 23  1  0  0  0  0
 22 27  1  0  0  0  0
M  END
$$$$

  -OEChem-05262214473D

 43 42  0     1  0  0  0  0  0999 V2000
   -2.8661   -4.7415    2.2943 C   0  0  0  0  0  0  0  0  0  0  0  0
   -2.0233   -5.5727    2.6109 O   0  0  0  0  0  0  0  0  0  0  0  0
   -4.3078   -5.0134    2.5698 C   0  0  0  0  0  0  0  0  0  0  0  0
   -4.8057   -5.5295    1.7332 H   0  0  0  0  0  0  0  0  0  0  0  0
   -4.4526   -5.6688    3.4436 H   0  0  0  0  0  0  0  0  0  0  0  0
   -4.9255   -4.1233    2.7700 H   0  0  0  0  0  0  0  0  0  0  0  0
   -2.6241   -3.5219    1.6838 N   0  0  0  0  0  0  0  0  0  0  0  0
   -1.3070   -3.0608    1.3315 C   0  0  2  0  0  0  0  0  0  0  0  0
   -1.3931   -1.5680    1.0422 C   0  0  0  0  0  0  0  0  0  0  0  0
   -2.4385   -1.0059    0.7226 O   0  0  0  0  0  0  0  0  0  0  0  0
   -0.7590   -3.8164    0.1309 C   0  0  0  0  0  0  0  0  0  0  0  0
   -3.4188   -2.9207    1.4735 H   0  0  0  0  0  0  0  0  0  0  0  0
   -0.6690   -3.2277    2.2062 H   0  0  0  0  0  0  0  0  0  0  0  0
   -1.3852   -3.6613   -0.7553 H   0  0  0  0  0  0  0  0  0  0  0  0
    0.2542   -3.4843   -0.1182 H   0  0  0  0  0  0  0  0  0  0  0  0
   -0.7257   -4.8930    0.3300 H   0  0  0  0  0  0  0  0  0  0  0  0
   -0.1563   -0.9420    1.1402 N   0  0  0  0  0  0  0  0  0  0  0  0
    0.0261    0.4671    0.9001 C   0  0  2  0  0  0  0  0  0  0  0  0
    0.3364    0.6804   -0.5801 C   0  0  0  0  0  0  0  0  0  0  0  0
    0.2564    1.7772   -1.1297 O   0  0  0  0  0  0  0  0  0  0  0  0
    1.0683    1.0872    1.8342 C   0  0  0  0  0  0  0  0  0  0  0  0
    0.5834    1.0685    3.5912 S   0  0  0  0  0  0  0  0  0  0  0  0
    0.6533   -1.4855    1.4300 H   0  0  0  0  0  0  0  0  0  0  0  0
   -0.9477    0.9294    1.1042 H   0  0  0  0  0  0  0  0  0  0  0  0
    2.0223    0.5562    1.7521 H   0  0  0  0  0  0  0  0  0  0  0  0
    1.2461    2.1311    1.5543 H   0  0  0  0  0  0  0  0  0  0  0  0
    1.6948    1.6628    4.0437 H   0  0  0  0  0  0  0  0  0  0  0  0
    0.6880   -0.5006   -1.2182 N   0  0  0  0  0  0  0  0  0  0  0  0
    1.0164   -0.5589   -2.6234 C   0  0  2  0  0  0  0  0  0  0  0  0
    1.1895   -2.0230   -3.0055 C   0  0  0  0  0  0  0  0  0  0  0  0
    1.4559   -2.9024   -2.1889 O   0  0  0  0  0  0  0  0  0  0  0  0
    2.2762    0.2357   -2.9306 C   0  0  0  0  0  0  0  0  0  0  0  0
    0.7613   -1.3578   -0.6783 H   0  0  0  0  0  0  0  0  0  0  0  0
    0.1626   -0.1379   -3.1654 H   0  0  0  0  0  0  0  0  0  0  0  0
    3.1423   -0.1715   -2.3964 H   0  0  0  0  0  0  0  0  0  0  0  0
    2.5078    0.2141   -4.0006 H   0  0  0  0  0  0  0  0  0  0  0  0
    2.1606    1.2820   -2.6278 H   0  0  0  0  0  0  0  0  0  0  0  0
    1.0541   -2.2253   -4.3718 N   0  0  0  0  0  0  0  0  0  0  0  0
    1.1872   -3.5265   -4.9843 C   0  0  0  0  0  0  0  0  0  0  0  0
    0.8142   -1.4414   -4.9716 H   0  0  0  0  0  0  0  0  0  0  0  0
    2.2284   -3.6761   -5.3061 H   0  0  0  0  0  0  0  0  0  0  0  0
    0.9133   -4.3041   -4.2561 H   0  0  0  0  0  0  0  0  0  0  0  0
    0.5209   -3.5906   -5.8572 H   0  0  0  0  0  0  0  0  0  0  0  0
  1  3  1  0  0  0  0
  1  7  1  0  0  0  0
  1  2  2  0  0  0  0
 29 30  1  0  0  0  0
 30 38  1  0  0  0  0
 30 31  2  0  0  0  0
  8  9  1  0  0  0  0
  9 17  1  0  0  0  0
  9 10  2  0  0  0  0
 18 19  1  0  0  0  0
 19 28  1  0  0  0  0
 19 20  2  0  0  0  0
 29 32  1  0  0  0  0
  8 11  1  0  0  0  0
 38 39  1  0  0  0  0
 18 21  1  0  0  0  0
 21 22  1  0  0  0  0
 28 29  1  0  0  0  0
  7  8  1  0  0  0  0
 17 18  1  0  0  0  0
  3  4  1  0  0  0  0
  3  5  1  0  0  0  0
  3  6  1  0  0  0  0
 32 35  1  0  0  0  0
 32 36  1  0  0  0  0
 32 37  1  0  0  0  0
 11 14  1  0  0  0  0
 11 15  1  0  0  0  0
 11 16  1  0  0  0  0
 39 41  1  0  0  0  0
 39 42  1  0  0  0  0
 39 43  1  0  0  0  0
 21 25  1  0  0  0  0
 21 26  1  0  0  0  0
 29 34  1  0  0  0  0
  8 13  1  0  0  0  0
 18 24  1  0  0  0  0
 38 40  1  0  0  0  0
  7 12  1  0  0  0  0
 28 33  1  0  0  0  0
 17 23  1  0  0  0  0
 22 27  1  0  0  0  0
M  END
$$$$

  -OEChem-05262214473D

 43 42  0     1  0  0  0  0  0999 V2000
   -2.8661   -4.7415    2.2943 C   0  0  0  0  0  0  0  0  0  0  0  0
   -2.0233   -5.5727    2.6109 O   0  0  0  0  0  0  0  0  0  0  0  0
   -4.3078   -5.0134    2.5698 C   0  0  0  0  0  0  0  0  0  0  0  0
   -4.8057   -5.5295    1.7332 H   0  0  0  0  0  0  0  0  0  0  0  0
   -4.4526   -5.6688    3.4436 H   0  0  0  0  0  0  0  0  0  0  0  0
   -4.9255   -4.1233    2.7700 H   0  0  0  0  0  0  0  0  0  0  0  0
   -2.6241   -3.5219    1.6838 N   0  0  0  0  0  0  0  0  0  0  0  0
   -1.3070   -3.0608    1.3315 C   0  0  2  0  0  0  0  0  0  0  0  0
   -1.3931   -1.5680    1.0422 C   0  0  0  0  0  0  0  0  0  0  0  0
   -2.4385   -1.0059    0.7226 O   0  0  0  0  0  0  0  0  0  0  0  0
   -0.7590   -3.8164    0.1309 C   0  0  0  0  0  0  0  0  0  0  0  0
   -3.4188   -2.9207    1.4735 H   0  0  0  0  0  0  0  0  0  0  0  0
   -0.6690   -3.2277    2.2062 H   0  0  0  0  0  0  0  0  0  0  0  0
   -1.3852   -3.6613   -0.7553 H   0  0  0  0  0  0  0  0  0  0  0  0
    0.2542   -3.4843   -0.1182 H   0  0  0  0  0  0  0  0  0  0  0  0
   -0.7257   -4.8930    0.3300 H   0  0  0  0  0  0  0  0  0  0  0  0
   -0.1563   -0.9420    1.1402 N   0  0  0  0  0  0  0  0  0  0  0  0
    0.0261    0.4671    0.9001 C   0  0  2  0  0  0  0  0  0  0  0  0
    0.3364    0.6804   -0.5801 C   0  0  0  0  0  0  0  0  0  0  0  0
    0.5190    1.7920   -1.0725 O   0  0  0  0  0  0  0  0  0  0  0  0
    1.0683    1.0872    1.8342 C   0  0  0  0  0  0  0  0  0  0  0  0
    0.5834    1.0685    3.5912 S   0  0  0  0  0  0  0  0  0  0  0  0
    0.6533   -1.4855    1.4300 H   0  0  0  0  0  0  0  0  0  0  0  0
   -0.9477    0.9294    1.1042 H   0  0  0  0  0  0  0  0  0  0  0  0
    2.0223    0.5562    1.7521 H   0  0  0  0  0  0  0  0  0  0  0  0
    1.2461    2.1311    1.5543 H   0  0  0  0  0  0  0  0  0  0  0  0
    1.6948    1.6628    4.0437 H   0  0  0  0  0  0  0  0  0  0  0  0
    0.3604   -0.5125   -1.2885 N   0  0  0  0  0  0  0  0  0  0  0  0
    0.6220   -0.5706   -2.7077 C   0  0  2  0  0  0  0  0  0  0  0  0
    0.4095   -2.0071   -3.1667 C   0  0  0  0  0  0  0  0  0  0  0  0
    0.4699   -2.9704   -2.4054 O   0  0  0  0  0  0  0  0  0  0  0  0
    2.0316   -0.0997   -3.0302 C   0  0  0  0  0  0  0  0  0  0  0  0
    0.2313   -1.3903   -0.7941 H   0  0  0  0  0  0  0  0  0  0  0  0
   -0.1138    0.0807   -3.1919 H   0  0  0  0  0  0  0  0  0  0  0  0
    2.7827   -0.7402   -2.5537 H   0  0  0  0  0  0  0  0  0  0  0  0
    2.2187   -0.1173   -4.1090 H   0  0  0  0  0  0  0  0  0  0  0  0
    2.1922    0.9232   -2.6729 H   0  0  0  0  0  0  0  0  0  0  0  0
    0.1873   -2.0907   -4.5341 N   0  0  0  0  0  0  0  0  0  0  0  0
   -0.0296   -3.3466   -5.2134 C   0  0  0  0  0  0  0  0  0  0  0  0
    0.1350   -1.2388   -5.0848 H   0  0  0  0  0  0  0  0  0  0  0  0
    0.9305   -3.7330   -5.5863 H   0  0  0  0  0  0  0  0  0  0  0  0
   -0.4689   -4.0715   -4.5123 H   0  0  0  0  0  0  0  0  0  0  0  0
   -0.7159   -3.1922   -6.0591 H   0  0  0  0  0  0  0  0  0  0  0  0
  1  3  1  0  0  0  0
  1  7  1  0  0  0  0
  1  2  2  0  0  0  0
 29 30  1  0  0  0  0
 30 38  1  0  0  0  0
 30 31  2  0  0  0  0
  8  9  1  0  0  0  0
  9 17  1  0  0  0  0
  9 10  2  0  0  0  0
 18 19  1  0  0  0  0
 19 28  1  0  0  0  0
 19 20  2  0  0  0  0
 29 32  1  0  0  0  0
  8 11  1  0  0  0  0
 38 39  1  0  0  0  0
 18 21  1  0  0  0  0
 21 22  1  0  0  0  0
 28 29  1  0  0  0  0
  7  8  1  0  0  0  0
 17 18  1  0  0  0  0
  3  4  1  0  0  0  0
  3  5  1  0  0  0  0
  3  6  1  0  0  0  0
 32 35  1  0  0  0  0
 32 36  1  0  0  0  0
 32 37  1  0  0  0  0
 11 14  1  0  0  0  0
 11 15  1  0  0  0  0
 11 16  1  0  0  0  0
 39 41  1  0  0  0  0
 39 42  1  0  0  0  0
 39 43  1  0  0  0  0
 21 25  1  0  0  0  0
 21 26  1  0  0  0  0
 29 34  1  0  0  0  0
  8 13  1  0  0  0  0
 18 24  1  0  0  0  0
 38 40  1  0  0  0  0
  7 12  1  0  0  0  0
 28 33  1  0  0  0  0
 17 23  1  0  0  0  0
 22 27  1  0  0  0  0
M  END
$$$$

  -OEChem-05262214473D

 43 42  0     1  0  0  0  0  0999 V2000
   -2.8661   -4.7415    2.2943 C   0  0  0  0  0  0  0  0  0  0  0  0
   -2.0233   -5.5727    2.6109 O   0  0  0  0  0  0  0  0  0  0  0  0
   -4.3078   -5.0134    2.5698 C   0  0  0  0  0  0  0  0  0  0  0  0
   -4.8057   -5.5295    1.7332 H   0  0  0  0  0  0  0  0  0  0  0  0
   -4.4526   -5.6688    3.4436 H   0  0  0  0  0  0  0  0  0  0  0  0
   -4.9255   -4.1233    2.7700 H   0  0  0  0  0  0  0  0  0  0  0  0
   -2.6241   -3.5219    1.6838 N   0  0  0  0  0  0  0  0  0  0  0  0
   -1.3070   -3.0608    1.3315 C   0  0  2  0  0  0  0  0  0  0  0  0
   -1.3931   -1.5680    1.0422 C   0  0  0  0  0  0  0  0  0  0  0  0
   -2.4385   -1.0059    0.7226 O   0  0  0  0  0  0  0  0  0  0  0  0
   -0.7590   -3.8164    0.1309 C   0  0  0  0  0  0  0  0  0  0  0  0
   -3.4188   -2.9207    1.4735 H   0  0  0  0  0  0  0  0  0  0  0  0
   -0.6690   -3.2277    2.2062 H   0  0  0  0  0  0  0  0  0  0  0  0
   -1.3852   -3.6613   -0.7553 H   0  0  0  0  0  0  0  0  0  0  0  0
    0.2542   -3.4843   -0.1182 H   0  0  0  0  0  0  0  0  0  0  0  0
   -0.7257   -4.8930    0.3300 H   0  0  0  0  0  0  0  0  0  0  0  0
   -0.1563   -0.9420    1.1402 N   0  0  0  0  0  0  0  0  0  0  0  0
    0.0261    0.4671    0.9001 C   0  0  2  0  0  0  0  0  0  0  0  0
    0.3364    0.6804   -0.5801 C   0  0  0  0  0  0  0  0  0  0  0  0
    0.7784    1.7374   -1.0260 O   0  0  0  0  0  0  0  0  0  0  0  0
    1.0683    1.0872    1.8342 C   0  0  0  0  0  0  0  0  0  0  0  0
    0.5834    1.0685    3.5912 S   0  0  0  0  0  0  0  0  0  0  0  0
    0.6533   -1.4855    1.4300 H   0  0  0  0  0  0  0  0  0  0  0  0
   -0.9477    0.9294    1.1042 H   0  0  0  0  0  0  0  0  0  0  0  0
    2.0223    0.5562    1.7521 H   0  0  0  0  0  0  0  0  0  0  0  0
    1.2461    2.1311    1.5543 H   0  0  0  0  0  0  0  0  0  0  0  0
    1.6948    1.6628    4.0437 H   0  0  0  0  0  0  0  0  0  0  0  0
    0.0384   -0.4381   -1.3453 N   0  0  0  0  0  0  0  0  0  0  0  0
    0.2350   -0.4784   -2.7755 C   0  0  2  0  0  0  0  0  0  0  0  0
   -0.3457   -1.7877   -3.2934 C   0  0  0  0  0  0  0  0  0  0  0  0
   -0.5075   -2.7774   -2.5825 O   0  0  0  0  0  0  0  0  0  0  0  0
    1.7076   -0.3571   -3.1352 C   0  0  0  0  0  0  0  0  0  0  0  0
   -0.2930   -1.2826   -0.8885 H   0  0  0  0  0  0  0  0  0  0  0  0
   -0.3270    0.3626   -3.1959 H   0  0  0  0  0  0  0  0  0  0  0  0
    2.2870   -1.1912   -2.7226 H   0  0  0  0  0  0  0  0  0  0  0  0
    1.8524   -0.3592   -4.2206 H   0  0  0  0  0  0  0  0  0  0  0  0
    2.1310    0.5710   -2.7364 H   0  0  0  0  0  0  0  0  0  0  0  0
   -0.6220   -1.7347   -4.6524 N   0  0  0  0  0  0  0  0  0  0  0  0
   -1.1680   -2.8557   -5.3813 C   0  0  0  0  0  0  0  0  0  0  0  0
   -0.4743   -0.8667   -5.1589 H   0  0  0  0  0  0  0  0  0  0  0  0
   -0.3476   -3.4477   -5.8131 H   0  0  0  0  0  0  0  0  0  0  0  0
   -1.7549   -3.4866   -4.6975 H   0  0  0  0  0  0  0  0  0  0  0  0
   -1.8179   -2.4866   -6.1884 H   0  0  0  0  0  0  0  0  0  0  0  0
  1  3  1  0  0  0  0
  1  7  1  0  0  0  0
  1  2  2  0  0  0  0
 29 30  1  0  0  0  0
 30 38  1  0  0  0  0
 30 31  2  0  0  0  0
  8  9  1  0  0  0  0
  9 17  1  0  0  0  0
  9 10  2  0  0  0  0
 18 19  1  0  0  0  0
 19 28  1  0  0  0  0
 19 20  2  0  0  0  0
 29 32  1  0  0  0  0
  8 11  1  0  0  0  0
 38 39  1  0  0  0  0
 18 21  1  0  0  0  0
 21 22  1  0  0  0  0
 28 29  1  0  0  0  0
  7  8  1  0  0  0  0
 17 18  1  0  0  0  0
  3  4  1  0  0  0  0
  3  5  1  0  0  0  0
  3  6  1  0  0  0  0
 32 35  1  0  0  0  0
 32 36  1  0  0  0  0
 32 37  1  0  0  0  0
 11 14  1  0  0  0  0
 11 15  1  0  0  0  0
 11 16  1  0  0  0  0
 39 41  1  0  0  0  0
 39 42  1  0  0  0  0
 39 43  1  0  0  0  0
 21 25  1  0  0  0  0
 21 26  1  0  0  0  0
 29 34  1  0  0  0  0
  8 13  1  0  0  0  0
 18 24  1  0  0  0  0
 38 40  1  0  0  0  0
  7 12  1  0  0  0  0
 28 33  1  0  0  0  0
 17 23  1  0  0  0  0
 22 27  1  0  0  0  0
M  END
$$$$

  -OEChem-05262214473D

 43 42  0     1  0  0  0  0  0999 V2000
   -2.8661   -4.7415    2.2943 C   0  0  0  0  0  0  0  0  0  0  0  0
   -2.0233   -5.5727    2.6109 O   0  0  0  0  0  0  0  0  0  0  0  0
   -4.3078   -5.0134    2.5698 C   0  0  0  0  0  0  0  0  0  0  0  0
   -4.8057   -5.5295    1.7332 H   0  0  0  0  0  0  0  0  0  0  0  0
   -4.4526   -5.6688    3.4436 H   0  0  0  0  0  0  0  0  0  0  0  0
   -4.9255   -4.1233    2.7700 H   0  0  0  0  0  0  0  0  0  0  0  0
   -2.6241   -3.5219    1.6838 N   0  0  0  0  0  0  0  0  0  0  0  0
   -1.3070   -3.0608    1.3315 C   0  0  2  0  0  0  0  0  0  0  0  0
   -1.3931   -1.5680    1.0422 C   0  0  0  0  0  0  0  0  0  0  0  0
   -2.4385   -1.0059    0.7226 O   0  0  0  0  0  0  0  0  0  0  0  0
   -0.7590   -3.8164    0.1309 C   0  0  0  0  0  0  0  0  0  0  0  0
   -3.4188   -2.9207    1.4735 H   0  0  0  0  0  0  0  0  0  0  0  0
   -0.6690   -3.2277    2.2062 H   0  0  0  0  0  0  0  0  0  0  0  0
   -1.3852   -3.6613   -0.7553 H   0  0  0  0  0  0  0  0  0  0  0  0
    0.2542   -3.4843   -0.1182 H   0  0  0  0  0  0  0  0  0  0  0  0
   -0.7257   -4.8930    0.3300 H   0  0  0  0  0  0  0  0  0  0  0  0
   -0.1563   -0.9420    1.1402 N   0  0  0  0  0  0  0  0  0  0  0  0
    0.0261    0.4671    0.9001 C   0  0  2  0  0  0  0  0  0  0  0  0
    0.3364    0.6804   -0.5801 C   0  0  0  0  0  0  0  0  0  0  0  0
    1.0170    1.6171   -0.9934 O   0  0  0  0  0  0  0  0  0  0  0  0
    1.0683    1.0872    1.8342 C   0  0  0  0  0  0  0  0  0  0  0  0
    0.5834    1.0685    3.5912 S   0  0  0  0  0  0  0  0  0  0  0  0
    0.6533   -1.4855    1.4300 H   0  0  0  0  0  0  0  0  0  0  0  0
   -0.9477    0.9294    1.1042 H   0  0  0  0  0  0  0  0  0  0  0  0
    2.0223    0.5562    1.7521 H   0  0  0  0  0  0  0  0  0  0  0  0
    1.2461    2.1311    1.5543 H   0  0  0  0  0  0  0  0  0  0  0  0
    1.6948    1.6628    4.0437 H   0  0  0  0  0  0  0  0  0  0  0  0
   -0.2561   -0.2825   -1.3846 N   0  0  0  0  0  0  0  0  0  0  0  0
   -0.1181   -0.2888   -2.8222 C   0  0  2  0  0  0  0  0  0  0  0  0
   -1.0248   -1.3796   -3.3769 C   0  0  0  0  0  0  0  0  0  0  0  0
   -1.4096   -2.3365   -2.7080 O   0  0  0  0  0  0  0  0  0  0  0  0
    1.3263   -0.5190   -3.2385 C   0  0  0  0  0  0  0  0  0  0  0  0
   -0.7758   -1.0421   -0.9550 H   0  0  0  0  0  0  0  0  0  0  0  0
   -0.4624    0.6886   -3.1773 H   0  0  0  0  0  0  0  0  0  0  0  0
    1.6889   -1.4935   -2.8915 H   0  0  0  0  0  0  0  0  0  0  0  0
    1.4340   -0.4950   -4.3279 H   0  0  0  0  0  0  0  0  0  0  0  0
    1.9814    0.2496   -2.8141 H   0  0  0  0  0  0  0  0  0  0  0  0
   -1.3187   -1.1817   -4.7188 N   0  0  0  0  0  0  0  0  0  0  0  0
   -2.1506   -2.0871   -5.4765 C   0  0  0  0  0  0  0  0  0  0  0  0
   -0.9722   -0.3506   -5.1889 H   0  0  0  0  0  0  0  0  0  0  0  0
   -1.5188   -2.8396   -5.9709 H   0  0  0  0  0  0  0  0  0  0  0  0
   -2.8570   -2.5894   -4.7992 H   0  0  0  0  0  0  0  0  0  0  0  0
   -2.7101   -1.5218   -6.2363 H   0  0  0  0  0  0  0  0  0  0  0  0
  1  3  1  0  0  0  0
  1  7  1  0  0  0  0
  1  2  2  0  0  0  0
 29 30  1  0  0  0  0
 30 38  1  0  0  0  0
 30 31  2  0  0  0  0
  8  9  1  0  0  0  0
  9 17  1  0  0  0  0
  9 10  2  0  0  0  0
 18 19  1  0  0  0  0
 19 28  1  0  0  0  0
 19 20  2  0  0  0  0
 29 32  1  0  0  0  0
  8 11  1  0  0  0  0
 38 39  1  0  0  0  0
 18 21  1  0  0  0  0
 21 22  1  0  0  0  0
 28 29  1  0  0  0  0
  7  8  1  0  0  0  0
 17 18  1  0  0  0  0
  3  4  1  0  0  0  0
  3  5  1  0  0  0  0
  3  6  1  0  0  0  0
 32 35  1  0  0  0  0
 32 36  1  0  0  0  0
 32 37  1  0  0  0  0
 11 14  1  0  0  0  0
 11 15  1  0  0  0  0
 11 16  1  0  0  0  0
 39 41  1  0  0  0  0
 39 42  1  0  0  0  0
 39 43  1  0  0  0  0
 21 25  1  0  0  0  0
 21 26  1  0  0  0  0
 29 34  1  0  0  0  0
  8 13  1  0  0  0  0
 18 24  1  0  0  0  0
 38 40  1  0  0  0  0
  7 12  1  0  0  0  0
 28 33  1  0  0  0  0
 17 23  1  0  0  0  0
 22 27  1  0  0  0  0
M  END
$$$$

  -OEChem-05262214473D

 43 42  0     1  0  0  0  0  0999 V2000
   -2.8661   -4.7415    2.2943 C   0  0  0  0  0  0  0  0  0  0  0  0
   -2.0233   -5.5727    2.6109 O   0  0  0  0  0  0  0  0  0  0  0  0
   -4.3078   -5.0134    2.5698 C   0  0  0  0  0  0  0  0  0  0  0  0
   -4.8057   -5.5295    1.7332 H   0  0  0  0  0  0  0  0  0  0  0  0
   -4.4526   -5.6688    3.4436 H   0  0  0  0  0  0  0  0  0  0  0  0
   -4.9255   -4.1233    2.7700 H   0  0  0  0  0  0  0  0  0  0  0  0
   -2.6241   -3.5219    1.6838 N   0  0  0  0  0  0  0  0  0  0  0  0
   -1.3070   -3.0608    1.3315 C   0  0  2  0  0  0  0  0  0  0  0  0
   -1.3931   -1.5680    1.0422 C   0  0  0  0  0  0  0  0  0  0  0  0
   -2.4385   -1.0059    0.7226 O   0  0  0  0  0  0  0  0  0  0  0  0
   -0.7590   -3.8164    0.1309 C   0  0  0  0  0  0  0  0  0  0  0  0
   -3.4188   -2.9207    1.4735 H   0  0  0  0  0  0  0  0  0  0  0  0
   -0.6690   -3.2277    2.2062 H   0  0  0  0  0  0  0  0  0  0  0  0
   -1.3852   -3.6613   -0.7553 H   0  0  0  0  0  0  0  0  0  0  0  0
    0.2542   -3.4843   -0.1182 H   0  0  0  0  0  0  0  0  0  0  0  0
   -0.7257   -4.8930    0.3300 H   0  0  0  0  0  0  0  0  0  0  0  0
   -0.1563   -0.9420    1.1402 N   0  0  0  0  0  0  0  0  0  0  0  0
    0.0261    0.4671    0.9001 C   0  0  2  0  0  0  0  0  0  0  0  0
    0.3364    0.6804   -0.5801 C   0  0  0  0  0  0  0  0  0  0  0  0
    1.2184    1.4394   -0.9768 O   0  0  0  0  0  0  0  0  0  0  0  0
    1.0683    1.0872    1.8342 C   0  0  0  0  0  0  0  0  0  0  0  0
    0.5834    1.0685    3.5912 S   0  0  0  0  0  0  0  0  0  0  0  0
    0.6533   -1.4855    1.4300 H   0  0  0  0  0  0  0  0  0  0  0  0
   -0.9477    0.9294    1.1042 H   0  0  0  0  0  0  0  0  0  0  0  0
    2.0223    0.5562    1.7521 H   0  0  0  0  0  0  0  0  0  0  0  0
    1.2461    2.1311    1.5543 H   0  0  0  0  0  0  0  0  0  0  0  0
    1.6948    1.6628    4.0437 H   0  0  0  0  0  0  0  0  0  0  0  0
   -0.5029   -0.0563   -1.4037 N   0  0  0  0  0  0  0  0  0  0  0  0
   -0.4134   -0.0147   -2.8446 C   0  0  2  0  0  0  0  0  0  0  0  0
   -1.5814   -0.8107   -3.4116 C   0  0  0  0  0  0  0  0  0  0  0  0
   -2.1748   -1.6778   -2.7735 O   0  0  0  0  0  0  0  0  0  0  0  0
    0.9137   -0.5742   -3.3329 C   0  0  0  0  0  0  0  0  0  0  0  0
   -1.1842   -0.6853   -0.9892 H   0  0  0  0  0  0  0  0  0  0  0  0
   -0.5107    1.0365   -3.1373 H   0  0  0  0  0  0  0  0  0  0  0  0
    1.0293   -1.6266   -3.0490 H   0  0  0  0  0  0  0  0  0  0  0  0
    0.9918   -0.5157   -4.4236 H   0  0  0  0  0  0  0  0  0  0  0  0
    1.7534   -0.0193   -2.9007 H   0  0  0  0  0  0  0  0  0  0  0  0
   -1.8553   -0.4693   -4.7286 N   0  0  0  0  0  0  0  0  0  0  0  0
   -2.9104   -1.0932   -5.4925 C   0  0  0  0  0  0  0  0  0  0  0  0
   -1.3247    0.2744   -5.1727 H   0  0  0  0  0  0  0  0  0  0  0  0
   -2.5032   -1.9502   -6.0491 H   0  0  0  0  0  0  0  0  0  0  0  0
   -3.7003   -1.4410   -4.8105 H   0  0  0  0  0  0  0  0  0  0  0  0
   -3.3316   -0.3635   -6.1997 H   0  0  0  0  0  0  0  0  0  0  0  0
  1  3  1  0  0  0  0
  1  7  1  0  0  0  0
  1  2  2  0  0  0  0
 29 30  1  0  0  0  0
 30 38  1  0  0  0  0
 30 31  2  0  0  0  0
  8  9  1  0  0  0  0
  9 17  1  0  0  0  0
  9 10  2  0  0  0  0
 18 19  1  0  0  0  0
 19 28  1  0  0  0  0
 19 20  2  0  0  0  0
 29 32  1  0  0  0  0
  8 11  1  0  0  0  0
 38 39  1  0  0  0  0
 18 21  1  0  0  0  0
 21 22  1  0  0  0  0
 28 29  1  0  0  0  0
  7  8  1  0  0  0  0
 17 18  1  0  0  0  0
  3  4  1  0  0  0  0
  3  5  1  0  0  0  0
  3  6  1  0  0  0  0
 32 35  1  0  0  0  0
 32 36  1  0  0  0  0
 32 37  1  0  0  0  0
 11 14  1  0  0  0  0
 11 15  1  0  0  0  0
 11 16  1  0  0  0  0
 39 41  1  0  0  0  0
 39 42  1  0  0  0  0
 39 43  1  0  0  0  0
 21 25  1  0  0  0  0
 21 26  1  0  0  0  0
 29 34  1  0  0  0  0
  8 13  1  0  0  0  0
 18 24  1  0  0  0  0
 38 40  1  0  0  0  0
  7 12  1  0  0  0  0
 28 33  1  0  0  0  0
 17 23  1  0  0  0  0
 22 27  1  0  0  0  0
M  END
$$$$

  -OEChem-05262214473D

 43 42  0     1  0  0  0  0  0999 V2000
   -2.8661   -4.7415    2.2943 C   0  0  0  0  0  0  0  0  0  0  0  0
   -2.0233   -5.5727    2.6109 O   0  0  0  0  0  0  0  0  0  0  0  0
   -4.3078   -5.0134    2.5698 C   0  0  0  0  0  0  0  0  0  0  0  0
   -4.8057   -5.5295    1.7332 H   0  0  0  0  0  0  0  0  0  0  0  0
   -4.4526   -5.6688    3.4436 H   0  0  0  0  0  0  0  0  0  0  0  0
   -4.9255   -4.1233    2.7700 H   0  0  0  0  0  0  0  0  0  0  0  0
   -2.6241   -3.5219    1.6838 N   0  0  0  0  0  0  0  0  0  0  0  0
   -1.3070   -3.0608    1.3315 C   0  0  2  0  0  0  0  0  0  0  0  0
   -1.3931   -1.5680    1.0422 C   0  0  0  0  0  0  0  0  0  0  0  0
   -2.4385   -1.0059    0.7226 O   0  0  0  0  0  0  0  0  0  0  0  0
   -0.7590   -3.8164    0.1309 C   0  0  0  0  0  0  0  0  0  0  0  0
   -3.4188   -2.9207    1.4735 H   0  0  0  0  0  0  0  0  0  0  0  0
   -0.6690   -3.2277    2.2062 H   0  0  0  0  0  0  0  0  0  0  0  0
   -1.3852   -3.6613   -0.7553 H   0  0  0  0  0  0  0  0  0  0  0  0
    0.2542   -3.4843   -0.1182 H   0  0  0  0  0  0  0  0  0  0  0  0
   -0.7257   -4.8930    0.3300 H   0  0  0  0  0  0  0  0  0  0  0  0
   -0.1563   -0.9420    1.1402 N   0  0  0  0  0  0  0  0  0  0  0  0
    0.0261    0.4671    0.9001 C   0  0  2  0  0  0  0  0  0  0  0  0
    0.3364    0.6804   -0.5801 C   0  0  0  0  0  0  0  0  0  0  0  0
    1.3690    1.2163   -0.9773 O   0  0  0  0  0  0  0  0  0  0  0  0
    1.0683    1.0872    1.8342 C   0  0  0  0  0  0  0  0  0  0  0  0
    0.5834    1.0685    3.5912 S   0  0  0  0  0  0  0  0  0  0  0  0
    0.6533   -1.4855    1.4300 H   0  0  0  0  0  0  0  0  0  0  0  0
   -0.9477    0.9294    1.1042 H   0  0  0  0  0  0  0  0  0  0  0  0
    2.0223    0.5562    1.7521 H   0  0  0  0  0  0  0  0  0  0  0  0
    1.2461    2.1311    1.5543 H   0  0  0  0  0  0  0  0  0  0  0  0
    1.6948    1.6628    4.0437 H   0  0  0  0  0  0  0  0  0  0  0  0
   -0.6852    0.2251   -1.4014 N   0  0  0  0  0  0  0  0  0  0  0  0
   -0.6306    0.3254   -2.8411 C   0  0  2  0  0  0  0  0  0  0  0  0
   -1.9776   -0.1198   -3.3950 C   0  0  0  0  0  0  0  0  0  0  0  0
   -2.7512   -0.8461   -2.7744 O   0  0  0  0  0  0  0  0  0  0  0  0
    0.4979   -0.5191   -3.4121 C   0  0  0  0  0  0  0  0  0  0  0  0
   -1.4905   -0.2363   -0.9887 H   0  0  0  0  0  0  0  0  0  0  0  0
   -0.4687    1.3825   -3.0786 H   0  0  0  0  0  0  0  0  0  0  0  0
    0.3530   -1.5815   -3.1842 H   0  0  0  0  0  0  0  0  0  0  0  0
    0.5560   -0.4197   -4.5011 H   0  0  0  0  0  0  0  0  0  0  0  0
    1.4626   -0.2172   -2.9902 H   0  0  0  0  0  0  0  0  0  0  0  0
   -2.1954    0.3540   -4.6812 N   0  0  0  0  0  0  0  0  0  0  0  0
   -3.3955    0.0582   -5.4282 C   0  0  0  0  0  0  0  0  0  0  0  0
   -1.5079    0.9656   -5.1115 H   0  0  0  0  0  0  0  0  0  0  0  0
   -3.2339   -0.8400   -6.0423 H   0  0  0  0  0  0  0  0  0  0  0  0
   -4.2271   -0.1195   -4.7305 H   0  0  0  0  0  0  0  0  0  0  0  0
   -3.6401    0.9093   -6.0809 H   0  0  0  0  0  0  0  0  0  0  0  0
  1  3  1  0  0  0  0
  1  7  1  0  0  0  0
  1  2  2  0  0  0  0
 29 30  1  0  0  0  0
 30 38  1  0  0  0  0
 30 31  2  0  0  0  0
  8  9  1  0  0  0  0
  9 17  1  0  0  0  0
  9 10  2  0  0  0  0
 18 19  1  0  0  0  0
 19 28  1  0  0  0  0
 19 20  2  0  0  0  0
 29 32  1  0  0  0  0
  8 11  1  0  0  0  0
 38 39  1  0  0  0  0
 18 21  1  0  0  0  0
 21 22  1  0  0  0  0
 28 29  1  0  0  0  0
  7  8  1  0  0  0  0
 17 18  1  0  0  0  0
  3  4  1  0  0  0  0
  3  5  1  0  0  0  0
  3  6  1  0  0  0  0
 32 35  1  0  0  0  0
 32 36  1  0  0  0  0
 32 37  1  0  0  0  0
 11 14  1  0  0  0  0
 11 15  1  0  0  0  0
 11 16  1  0  0  0  0
 39 41  1  0  0  0  0
 39 42  1  0  0  0  0
 39 43  1  0  0  0  0
 21 25  1  0  0  0  0
 21 26  1  0  0  0  0
 29 34  1  0  0  0  0
  8 13  1  0  0  0  0
 18 24  1  0  0  0  0
 38 40  1  0  0  0  0
  7 12  1  0  0  0  0
 28 33  1  0  0  0  0
 17 23  1  0  0  0  0
 22 27  1  0  0  0  0
M  END
$$$$

  -OEChem-05262214473D

 43 42  0     1  0  0  0  0  0999 V2000
   -2.8661   -4.7415    2.2943 C   0  0  0  0  0  0  0  0  0  0  0  0
   -2.0233   -5.5727    2.6109 O   0  0  0  0  0  0  0  0  0  0  0  0
   -4.3078   -5.0134    2.5698 C   0  0  0  0  0  0  0  0  0  0  0  0
   -4.8057   -5.5295    1.7332 H   0  0  0  0  0  0  0  0  0  0  0  0
   -4.4526   -5.6688    3.4436 H   0  0  0  0  0  0  0  0  0  0  0  0
   -4.9255   -4.1233    2.7700 H   0  0  0  0  0  0  0  0  0  0  0  0
   -2.6241   -3.5219    1.6838 N   0  0  0  0  0  0  0  0  0  0  0  0
   -1.3070   -3.0608    1.3315 C   0  0  2  0  0  0  0  0  0  0  0  0
   -1.3931   -1.5680    1.0422 C   0  0  0  0  0  0  0  0  0  0  0  0
   -2.4385   -1.0059    0.7226 O   0  0  0  0  0  0  0  0  0  0  0  0
   -0.7590   -3.8164    0.1309 C   0  0  0  0  0  0  0  0  0  0  0  0
   -3.4188   -2.9207    1.4735 H   0  0  0  0  0  0  0  0  0  0  0  0
   -0.6690   -3.2277    2.2062 H   0  0  0  0  0  0  0  0  0  0  0  0
   -1.3852   -3.6613   -0.7553 H   0  0  0  0  0  0  0  0  0  0  0  0
    0.2542   -3.4843   -0.1182 H   0  0  0  0  0  0  0  0  0  0  0  0
   -0.7257   -4.8930    0.3300 H   0  0  0  0  0  0  0  0  0  0  0  0
   -0.1563   -0.9420    1.1402 N   0  0  0  0  0  0  0  0  0  0  0  0
    0.0261    0.4671    0.9001 C   0  0  2  0  0  0  0  0  0  0  0  0
    0.3364    0.6804   -0.5801 C   0  0  0  0  0  0  0  0  0  0  0  0
    1.4586    0.9631   -0.9951 O   0  0  0  0  0  0  0  0  0  0  0  0
    1.0683    1.0872    1.8342 C   0  0  0  0  0  0  0  0  0  0  0  0
    0.5834    1.0685    3.5912 S   0  0  0  0  0  0  0  0  0  0  0  0
    0.6533   -1.4855    1.4300 H   0  0  0  0  0  0  0  0  0  0  0  0
   -0.9477    0.9294    1.1042 H   0  0  0  0  0  0  0  0  0  0  0  0
    2.0223    0.5562    1.7521 H   0  0  0  0  0  0  0  0  0  0  0  0
    1.2461    2.1311    1.5543 H   0  0  0  0  0  0  0  0  0  0  0  0
    1.6948    1.6628    4.0437 H   0  0  0  0  0  0  0  0  0  0  0  0
   -0.7907    0.5426   -1.3778 N   0  0  0  0  0  0  0  0  0  0  0  0
   -0.7549    0.7082   -2.8120 C   0  0  2  0  0  0  0  0  0  0  0  0
   -2.1864    0.6461   -3.3284 C   0  0  0  0  0  0  0  0  0  0  0  0
   -3.0993    0.1019   -2.7108 O   0  0  0  0  0  0  0  0  0  0  0  0
    0.1072   -0.3575   -3.4707 C   0  0  0  0  0  0  0  0  0  0  0  0
   -1.6737    0.2742   -0.9535 H   0  0  0  0  0  0  0  0  0  0  0  0
   -0.3392    1.7030   -3.0053 H   0  0  0  0  0  0  0  0  0  0  0  0
   -0.2937   -1.3611   -3.2880 H   0  0  0  0  0  0  0  0  0  0  0  0
    0.1564   -0.2136   -4.5551 H   0  0  0  0  0  0  0  0  0  0  0  0
    1.1288   -0.3308   -3.0765 H   0  0  0  0  0  0  0  0  0  0  0  0
   -2.3156    1.2321   -4.5799 N   0  0  0  0  0  0  0  0  0  0  0  0
   -3.5730    1.2888   -5.2881 C   0  0  0  0  0  0  0  0  0  0  0  0
   -1.5093    1.6761   -5.0094 H   0  0  0  0  0  0  0  0  0  0  0  0
   -3.6609    0.4153   -5.9509 H   0  0  0  0  0  0  0  0  0  0  0  0
   -4.4017    1.2848   -4.5647 H   0  0  0  0  0  0  0  0  0  0  0  0
   -3.6145    2.2098   -5.8881 H   0  0  0  0  0  0  0  0  0  0  0  0
  1  3  1  0  0  0  0
  1  7  1  0  0  0  0
  1  2  2  0  0  0  0
 29 30  1  0  0  0  0
 30 38  1  0  0  0  0
 30 31  2  0  0  0  0
  8  9  1  0  0  0  0
  9 17  1  0  0  0  0
  9 10  2  0  0  0  0
 18 19  1  0  0  0  0
 19 28  1  0  0  0  0
 19 20  2  0  0  0  0
 29 32  1  0  0  0  0
  8 11  1  0  0  0  0
 38 39  1  0  0  0  0
 18 21  1  0  0  0  0
 21 22  1  0  0  0  0
 28 29  1  0  0  0  0
  7  8  1  0  0  0  0
 17 18  1  0  0  0  0
  3  4  1  0  0  0  0
  3  5  1  0  0  0  0
  3  6  1  0  0  0  0
 32 35  1  0  0  0  0
 32 36  1  0  0  0  0
 32 37  1  0  0  0  0
 11 14  1  0  0  0  0
 11 15  1  0  0  0  0
 11 16  1  0  0  0  0
 39 41  1  0  0  0  0
 39 42  1  0  0  0  0
 39 43  1  0  0  0  0
 21 25  1  0  0  0  0
 21 26  1  0  0  0  0
 29 34  1  0  0  0  0
  8 13  1  0  0  0  0
 18 24  1  0  0  0  0
 38 40  1  0  0  0  0
  7 12  1  0  0  0  0
 28 33  1  0  0  0  0
 17 23  1  0  0  0  0
 22 27  1  0  0  0  0
M  END
$$$$

  -OEChem-05262214473D

 43 42  0     1  0  0  0  0  0999 V2000
   -2.8661   -4.7415    2.2943 C   0  0  0  0  0  0  0  0  0  0  0  0
   -2.0233   -5.5727    2.6109 O   0  0  0  0  0  0  0  0  0  0  0  0
   -4.3078   -5.0134    2.5698 C   0  0  0  0  0  0  0  0  0  0  0  0
   -4.8057   -5.5295    1.7332 H   0  0  0  0  0  0  0  0  0  0  0  0
   -4.4526   -5.6688    3.4436 H   0  0  0  0  0  0  0  0  0  0  0  0
   -4.9255   -4.1233    2.7700 H   0  0  0  0  0  0  0  0  0  0  0  0
   -2.6241   -3.5219    1.6838 N   0  0  0  0  0  0  0  0  0  0  0  0
   -1.3070   -3.0608    1.3315 C   0  0  2  0  0  0  0  0  0  0  0  0
   -1.3931   -1.5680    1.0422 C   0  0  0  0  0  0  0  0  0  0  0  0
   -2.4385   -1.0059    0.7226 O   0  0  0  0  0  0  0  0  0  0  0  0
   -0.7590   -3.8164    0.1309 C   0  0  0  0  0  0  0  0  0  0  0  0
   -3.4188   -2.9207    1.4735 H   0  0  0  0  0  0  0  0  0  0  0  0
   -0.6690   -3.2277    2.2062 H   0  0  0  0  0  0  0  0  0  0  0  0
   -1.3852   -3.6613   -0.7553 H   0  0  0  0  0  0  0  0  0  0  0  0
    0.2542   -3.4843   -0.1182 H   0  0  0  0  0  0  0  0  0  0  0  0
   -0.7257   -4.8930    0.3300 H   0  0  0  0  0  0  0  0  0  0  0  0
   -0.1563   -0.9420    1.1402 N   0  0  0  0  0  0  0  0  0  0  0  0
    0.0261    0.4671    0.9001 C   0  0  2  0  0  0  0  0  0  0  0  0
    0.3364    0.6804   -0.5801 C   0  0  0  0  0  0  0  0  0  0  0  0
    1.4808    0.6970   -1.0287 O   0  0  0  0  0  0  0  0  0  0  0  0
    1.0683    1.0872    1.8342 C   0  0  0  0  0  0  0  0  0  0  0  0
    0.5834    1.0685    3.5912 S   0  0  0  0  0  0  0  0  0  0  0  0
    0.6533   -1.4855    1.4300 H   0  0  0  0  0  0  0  0  0  0  0  0
   -0.9477    0.9294    1.1042 H   0  0  0  0  0  0  0  0  0  0  0  0
    2.0223    0.5562    1.7521 H   0  0  0  0  0  0  0  0  0  0  0  0
    1.2461    2.1311    1.5543 H   0  0  0  0  0  0  0  0  0  0  0  0
    1.6948    1.6628    4.0437 H   0  0  0  0  0  0  0  0  0  0  0  0
   -0.8121    0.8744   -1.3344 N   0  0  0  0  0  0  0  0  0  0  0  0
   -0.7780    1.1076   -2.7593 C   0  0  2  0  0  0  0  0  0  0  0  0
   -2.1935    1.4348   -3.2163 C   0  0  0  0  0  0  0  0  0  0  0  0
   -3.1955    1.1015   -2.5869 O   0  0  0  0  0  0  0  0  0  0  0  0
   -0.2318   -0.1002   -3.5047 C   0  0  0  0  0  0  0  0  0  0  0  0
   -1.7213    0.8113   -0.8861 H   0  0  0  0  0  0  0  0  0  0  0  0
   -0.1310    1.9764   -2.9223 H   0  0  0  0  0  0  0  0  0  0  0  0
   -0.8669   -0.9806   -3.3533 H   0  0  0  0  0  0  0  0  0  0  0  0
   -0.1799    0.0886   -4.5821 H   0  0  0  0  0  0  0  0  0  0  0  0
    0.7748   -0.3523   -3.1538 H   0  0  0  0  0  0  0  0  0  0  0  0
   -2.2078    2.1050   -4.4315 N   0  0  0  0  0  0  0  0  0  0  0  0
   -3.4307    2.5145   -5.0816 C   0  0  0  0  0  0  0  0  0  0  0  0
   -1.3287    2.3573   -4.8733 H   0  0  0  0  0  0  0  0  0  0  0  0
   -3.7552    1.7300   -5.7812 H   0  0  0  0  0  0  0  0  0  0  0  0
   -4.2120    2.6763   -4.3244 H   0  0  0  0  0  0  0  0  0  0  0  0
   -3.2567    3.4494   -5.6345 H   0  0  0  0  0  0  0  0  0  0  0  0
  1  3  1  0  0  0  0
  1  7  1  0  0  0  0
  1  2  2  0  0  0  0
 29 30  1  0  0  0  0
 30 38  1  0  0  0  0
 30 31  2  0  0  0  0
  8  9  1  0  0  0  0
  9 17  1  0  0  0  0
  9 10  2  0  0  0  0
 18 19  1  0  0  0  0
 19 28  1  0  0  0  0
 19 20  2  0  0  0  0
 29 32  1  0  0  0  0
  8 11  1  0  0  0  0
 38 39  1  0  0  0  0
 18 21  1  0  0  0  0
 21 22  1  0  0  0  0
 28 29  1  0  0  0  0
  7  8  1  0  0  0  0
 17 18  1  0  0  0  0
  3  4  1  0  0  0  0
  3  5  1  0  0  0  0
  3  6  1  0  0  0  0
 32 35  1  0  0  0  0
 32 36  1  0  0  0  0
 32 37  1  0  0  0  0
 11 14  1  0  0  0  0
 11 15  1  0  0  0  0
 11 16  1  0  0  0  0
 39 41  1  0  0  0  0
 39 42  1  0  0  0  0
 39 43  1  0  0  0  0
 21 25  1  0  0  0  0
 21 26  1  0  0  0  0
 29 34  1  0  0  0  0
  8 13  1  0  0  0  0
 18 24  1  0  0  0  0
 38 40  1  0  0  0  0
  7 12  1  0  0  0  0
 28 33  1  0  0  0  0
 17 23  1  0  0  0  0
 22 27  1  0  0  0  0
M  END
$$$$

  -OEChem-05262214473D

 43 42  0     1  0  0  0  0  0999 V2000
   -2.8661   -4.7415    2.2943 C   0  0  0  0  0  0  0  0  0  0  0  0
   -2.0233   -5.5727    2.6109 O   0  0  0  0  0  0  0  0  0  0  0  0
   -4.3078   -5.0134    2.5698 C   0  0  0  0  0  0  0  0  0  0  0  0
   -4.8057   -5.5295    1.7332 H   0  0  0  0  0  0  0  0  0  0  0  0
   -4.4526   -5.6688    3.4436 H   0  0  0  0  0  0  0  0  0  0  0  0
   -4.9255   -4.1233    2.7700 H   0  0  0  0  0  0  0  0  0  0  0  0
   -2.6241   -3.5219    1.6838 N   0  0  0  0  0  0  0  0  0  0  0  0
   -1.3070   -3.0608    1.3315 C   0  0  2  0  0  0  0  0  0  0  0  0
   -1.3931   -1.5680    1.0422 C   0  0  0  0  0  0  0  0  0  0  0  0
   -2.4385   -1.0059    0.7226 O   0  0  0  0  0  0  0  0  0  0  0  0
   -0.7590   -3.8164    0.1309 C   0  0  0  0  0  0  0  0  0  0  0  0
   -3.4188   -2.9207    1.4735 H   0  0  0  0  0  0  0  0  0  0  0  0
   -0.6690   -3.2277    2.2062 H   0  0  0  0  0  0  0  0  0  0  0  0
   -1.3852   -3.6613   -0.7553 H   0  0  0  0  0  0  0  0  0  0  0  0
    0.2542   -3.4843   -0.1182 H   0  0  0  0  0  0  0  0  0  0  0  0
   -0.7257   -4.8930    0.3300 H   0  0  0  0  0  0  0  0  0  0  0  0
   -0.1563   -0.9420    1.1402 N   0  0  0  0  0  0  0  0  0  0  0  0
    0.0261    0.4671    0.9001 C   0  0  2  0  0  0  0  0  0  0  0  0
    0.3364    0.6804   -0.5801 C   0  0  0  0  0  0  0  0  0  0  0  0
    1.4344    0.4362   -1.0761 O   0  0  0  0  0  0  0  0  0  0  0  0
    1.0683    1.0872    1.8342 C   0  0  0  0  0  0  0  0  0  0  0  0
    0.5834    1.0685    3.5912 S   0  0  0  0  0  0  0  0  0  0  0  0
    0.6533   -1.4855    1.4300 H   0  0  0  0  0  0  0  0  0  0  0  0
   -0.9477    0.9294    1.1042 H   0  0  0  0  0  0  0  0  0  0  0  0
    2.0223    0.5562    1.7521 H   0  0  0  0  0  0  0  0  0  0  0  0
    1.2461    2.1311    1.5543 H   0  0  0  0  0  0  0  0  0  0  0  0
    1.6948    1.6628    4.0437 H   0  0  0  0  0  0  0  0  0  0  0  0
   -0.7479    1.1980   -1.2743 N   0  0  0  0  0  0  0  0  0  0  0  0
   -0.6982    1.4964   -2.6866 C   0  0  2  0  0  0  0  0  0  0  0  0
   -1.9985    2.1924   -3.0662 C   0  0  0  0  0  0  0  0  0  0  0  0
   -3.0331    2.0847   -2.4111 O   0  0  0  0  0  0  0  0  0  0  0  0
   -0.4959    0.2351   -3.5117 C   0  0  0  0  0  0  0  0  0  0  0  0
   -1.6301    1.3386   -0.7910 H   0  0  0  0  0  0  0  0  0  0  0  0
    0.1416    2.1838   -2.8352 H   0  0  0  0  0  0  0  0  0  0  0  0
   -1.3275   -0.4659   -3.3757 H   0  0  0  0  0  0  0  0  0  0  0  0
   -0.4298    0.4662   -4.5800 H   0  0  0  0  0  0  0  0  0  0  0  0
    0.4246   -0.2801   -3.2168 H   0  0  0  0  0  0  0  0  0  0  0  0
   -1.8794    2.9134   -4.2461 N   0  0  0  0  0  0  0  0  0  0  0  0
   -2.9784    3.6519   -4.8229 C   0  0  0  0  0  0  0  0  0  0  0  0
   -0.9785    2.9628   -4.7127 H   0  0  0  0  0  0  0  0  0  0  0  0
   -3.5104    3.0147   -5.5447 H   0  0  0  0  0  0  0  0  0  0  0  0
   -3.6711    3.9603   -4.0260 H   0  0  0  0  0  0  0  0  0  0  0  0
   -2.5909    4.5437   -5.3372 H   0  0  0  0  0  0  0  0  0  0  0  0
  1  3  1  0  0  0  0
  1  7  1  0  0  0  0
  1  2  2  0  0  0  0
 29 30  1  0  0  0  0
 30 38  1  0  0  0  0
 30 31  2  0  0  0  0
  8  9  1  0  0  0  0
  9 17  1  0  0  0  0
  9 10  2  0  0  0  0
 18 19  1  0  0  0  0
 19 28  1  0  0  0  0
 19 20  2  0  0  0  0
 29 32  1  0  0  0  0
  8 11  1  0  0  0  0
 38 39  1  0  0  0  0
 18 21  1  0  0  0  0
 21 22  1  0  0  0  0
 28 29  1  0  0  0  0
  7  8  1  0  0  0  0
 17 18  1  0  0  0  0
  3  4  1  0  0  0  0
  3  5  1  0  0  0  0
  3  6  1  0  0  0  0
 32 35  1  0  0  0  0
 32 36  1  0  0  0  0
 32 37  1  0  0  0  0
 11 14  1  0  0  0  0
 11 15  1  0  0  0  0
 11 16  1  0  0  0  0
 39 41  1  0  0  0  0
 39 42  1  0  0  0  0
 39 43  1  0  0  0  0
 21 25  1  0  0  0  0
 21 26  1  0  0  0  0
 29 34  1  0  0  0  0
  8 13  1  0  0  0  0
 18 24  1  0  0  0  0
 38 40  1  0  0  0  0
  7 12  1  0  0  0  0
 28 33  1  0  0  0  0
 17 23  1  0  0  0  0
 22 27  1  0  0  0  0
M  END
$$$$

  -OEChem-05262214473D

 43 42  0     1  0  0  0  0  0999 V2000
   -2.8661   -4.7415    2.2943 C   0  0  0  0  0  0  0  0  0  0  0  0
   -2.0233   -5.5727    2.6109 O   0  0  0  0  0  0  0  0  0  0  0  0
   -4.3078   -5.0134    2.5698 C   0  0  0  0  0  0  0  0  0  0  0  0
   -4.8057   -5.5295    1.7332 H   0  0  0  0  0  0  0  0  0  0  0  0
   -4.4526   -5.6688    3.4436 H   0  0  0  0  0  0  0  0  0  0  0  0
   -4.9255   -4.1233    2.7700 H   0  0  0  0  0  0  0  0  0  0  0  0
   -2.6241   -3.5219    1.6838 N   0  0  0  0  0  0  0  0  0  0  0  0
   -1.3070   -3.0608    1.3315 C   0  0  2  0  0  0  0  0  0  0  0  0
   -1.3931   -1.5680    1.0422 C   0  0  0  0  0  0  0  0  0  0  0  0
   -2.4385   -1.0059    0.7226 O   0  0  0  0  0  0  0  0  0  0  0  0
   -0.7590   -3.8164    0.1309 C   0  0  0  0  0  0  0  0  0  0  0  0
   -3.4188   -2.9207    1.4735 H   0  0  0  0  0  0  0  0  0  0  0  0
   -0.6690   -3.2277    2.2062 H   0  0  0  0  0  0  0  0  0  0  0  0
   -1.3852   -3.6613   -0.7553 H   0  0  0  0  0  0  0  0  0  0  0  0
    0.2542   -3.4843   -0.1182 H   0  0  0  0  0  0  0  0  0  0  0  0
   -0.7257   -4.8930    0.3300 H   0  0  0  0  0  0  0  0  0  0  0  0
   -0.1563   -0.9420    1.1402 N   0  0  0  0  0  0  0  0  0  0  0  0
    0.0261    0.4671    0.9001 C   0  0  2  0  0  0  0  0  0  0  0  0
    0.3364    0.6804   -0.5801 C   0  0  0  0  0  0  0  0  0  0  0  0
    1.3224    0.1983   -1.1338 O   0  0  0  0  0  0  0  0  0  0  0  0
    1.0683    1.0872    1.8342 C   0  0  0  0  0  0  0  0  0  0  0  0
    0.5834    1.0685    3.5912 S   0  0  0  0  0  0  0  0  0  0  0  0
    0.6533   -1.4855    1.4300 H   0  0  0  0  0  0  0  0  0  0  0  0
   -0.9477    0.9294    1.1042 H   0  0  0  0  0  0  0  0  0  0  0  0
    2.0223    0.5562    1.7521 H   0  0  0  0  0  0  0  0  0  0  0  0
    1.2461    2.1311    1.5543 H   0  0  0  0  0  0  0  0  0  0  0  0
    1.6948    1.6628    4.0437 H   0  0  0  0  0  0  0  0  0  0  0  0
   -0.6026    1.4914   -1.2016 N   0  0  0  0  0  0  0  0  0  0  0  0
   -0.5210    1.8481   -2.5987 C   0  0  2  0  0  0  0  0  0  0  0  0
   -1.6147    2.8675   -2.8885 C   0  0  0  0  0  0  0  0  0  0  0  0
   -2.6234    2.9844   -2.1956 O   0  0  0  0  0  0  0  0  0  0  0  0
   -0.6671    0.6256   -3.4914 C   0  0  0  0  0  0  0  0  0  0  0  0
   -1.4064    1.8200   -0.6747 H   0  0  0  0  0  0  0  0  0  0  0  0
    0.4601    2.3112   -2.7501 H   0  0  0  0  0  0  0  0  0  0  0  0
   -1.6441    0.1481   -3.3536 H   0  0  0  0  0  0  0  0  0  0  0  0
   -0.5765    0.8936   -4.5492 H   0  0  0  0  0  0  0  0  0  0  0  0
    0.1023   -0.1193   -3.2612 H   0  0  0  0  0  0  0  0  0  0  0  0
   -1.3527    3.6020   -4.0365 N   0  0  0  0  0  0  0  0  0  0  0  0
   -2.2468    4.6235   -4.5295 C   0  0  0  0  0  0  0  0  0  0  0  0
   -0.4825    3.4514   -4.5383 H   0  0  0  0  0  0  0  0  0  0  0  0
   -2.9431    4.1818   -5.2576 H   0  0  0  0  0  0  0  0  0  0  0  0
   -2.8158    5.0491   -3.6898 H   0  0  0  0  0  0  0  0  0  0  0  0
   -1.6625    5.4181   -5.0166 H   0  0  0  0  0  0  0  0  0  0  0  0
  1  3  1  0  0  0  0
  1  7  1  0  0  0  0
  1  2  2  0  0  0  0
 29 30  1  0  0  0  0
 30 38  1  0  0  0  0
 30 31  2  0  0  0  0
  8  9  1  0  0  0  0
  9 17  1  0  0  0  0
  9 10  2  0  0  0  0
 18 19  1  0  0  0  0
 19 28  1  0  0  0  0
 19 20  2  0  0  0  0
 29 32  1  0  0  0  0
  8 11  1  0  0  0  0
 38 39  1  0  0  0  0
 18 21  1  0  0  0  0
 21 22  1  0  0  0  0
 28 29  1  0  0  0  0
  7  8  1  0  0  0  0
 17 18  1  0  0  0  0
  3  4  1  0  0  0  0
  3  5  1  0  0  0  0
  3  6  1  0  0  0  0
 32 35  1  0  0  0  0
 32 36  1  0  0  0  0
 32 37  1  0  0  0  0
 11 14  1  0  0  0  0
 11 15  1  0  0  0  0
 11 16  1  0  0  0  0
 39 41  1  0  0  0  0
 39 42  1  0  0  0  0
 39 43  1  0  0  0  0
 21 25  1  0  0  0  0
 21 26  1  0  0  0  0
 29 34  1  0  0  0  0
  8 13  1  0  0  0  0
 18 24  1  0  0  0  0
 38 40  1  0  0  0  0
  7 12  1  0  0  0  0
 28 33  1  0  0  0  0
 17 23  1  0  0  0  0
 22 27  1  0  0  0  0
M  END
$$$$

  -OEChem-05262214473D

 43 42  0     1  0  0  0  0  0999 V2000
   -2.8661   -4.7415    2.2943 C   0  0  0  0  0  0  0  0  0  0  0  0
   -2.0233   -5.5727    2.6109 O   0  0  0  0  0  0  0  0  0  0  0  0
   -4.3078   -5.0134    2.5698 C   0  0  0  0  0  0  0  0  0  0  0  0
   -4.8057   -5.5295    1.7332 H   0  0  0  0  0  0  0  0  0  0  0  0
   -4.4526   -5.6688    3.4436 H   0  0  0  0  0  0  0  0  0  0  0  0
   -4.9255   -4.1233    2.7700 H   0  0  0  0  0  0  0  0  0  0  0  0
   -2.6241   -3.5219    1.6838 N   0  0  0  0  0  0  0  0  0  0  0  0
   -1.3070   -3.0608    1.3315 C   0  0  2  0  0  0  0  0  0  0  0  0
   -1.3931   -1.5680    1.0422 C   0  0  0  0  0  0  0  0  0  0  0  0
   -2.4385   -1.0059    0.7226 O   0  0  0  0  0  0  0  0  0  0  0  0
   -0.7590   -3.8164    0.1309 C   0  0  0  0  0  0  0  0  0  0  0  0
   -3.4188   -2.9207    1.4735 H   0  0  0  0  0  0  0  0  0  0  0  0
   -0.6690   -3.2277    2.2062 H   0  0  0  0  0  0  0  0  0  0  0  0
   -1.3852   -3.6613   -0.7553 H   0  0  0  0  0  0  0  0  0  0  0  0
    0.2542   -3.4843   -0.1182 H   0  0  0  0  0  0  0  0  0  0  0  0
   -0.7257   -4.8930    0.3300 H   0  0  0  0  0  0  0  0  0  0  0  0
   -0.1563   -0.9420    1.1402 N   0  0  0  0  0  0  0  0  0  0  0  0
    0.0261    0.4671    0.9001 C   0  0  2  0  0  0  0  0  0  0  0  0
    0.3364    0.6804   -0.5801 C   0  0  0  0  0  0  0  0  0  0  0  0
    1.1525   -0.0003   -1.1980 O   0  0  0  0  0  0  0  0  0  0  0  0
    1.0683    1.0872    1.8342 C   0  0  0  0  0  0  0  0  0  0  0  0
    0.5834    1.0685    3.5912 S   0  0  0  0  0  0  0  0  0  0  0  0
    0.6533   -1.4855    1.4300 H   0  0  0  0  0  0  0  0  0  0  0  0
   -0.9477    0.9294    1.1042 H   0  0  0  0  0  0  0  0  0  0  0  0
    2.0223    0.5562    1.7521 H   0  0  0  0  0  0  0  0  0  0  0  0
    1.2461    2.1311    1.5543 H   0  0  0  0  0  0  0  0  0  0  0  0
    1.6948    1.6628    4.0437 H   0  0  0  0  0  0  0  0  0  0  0  0
   -0.3860    1.7344   -1.1212 N   0  0  0  0  0  0  0  0  0  0  0  0
   -0.2584    2.1387   -2.5018 C   0  0  2  0  0  0  0  0  0  0  0  0
   -1.0683    3.4140   -2.6952 C   0  0  0  0  0  0  0  0  0  0  0  0
   -1.9941    3.7394   -1.9549 O   0  0  0  0  0  0  0  0  0  0  0  0
   -0.7339    1.0446   -3.4450 C   0  0  0  0  0  0  0  0  0  0  0  0
   -1.0653    2.2228   -0.5452 H   0  0  0  0  0  0  0  0  0  0  0  0
    0.8028    2.3499   -2.6727 H   0  0  0  0  0  0  0  0  0  0  0  0
   -1.7951    0.8193   -3.2885 H   0  0  0  0  0  0  0  0  0  0  0  0
   -0.6099    1.3415   -4.4916 H   0  0  0  0  0  0  0  0  0  0  0  0
   -0.1704    0.1192   -3.2839 H   0  0  0  0  0  0  0  0  0  0  0  0
   -0.6636    4.1241   -3.8168 N   0  0  0  0  0  0  0  0  0  0  0  0
   -1.2858    5.3631   -4.2215 C   0  0  0  0  0  0  0  0  0  0  0  0
    0.1255    3.7898   -4.3621 H   0  0  0  0  0  0  0  0  0  0  0  0
   -2.0920    5.1518   -4.9394 H   0  0  0  0  0  0  0  0  0  0  0  0
   -1.7043    5.8686   -3.3387 H   0  0  0  0  0  0  0  0  0  0  0  0
   -0.5349    6.0130   -4.6945 H   0  0  0  0  0  0  0  0  0  0  0  0
  1  3  1  0  0  0  0
  1  7  1  0  0  0  0
  1  2  2  0  0  0  0
 29 30  1  0  0  0  0
 30 38  1  0  0  0  0
 30 31  2  0  0  0  0
  8  9  1  0  0  0  0
  9 17  1  0  0  0  0
  9 10  2  0  0  0  0
 18 19  1  0  0  0  0
 19 28  1  0  0  0  0
 19 20  2  0  0  0  0
 29 32  1  0  0  0  0
  8 11  1  0  0  0  0
 38 39  1  0  0  0  0
 18 21  1  0  0  0  0
 21 22  1  0  0  0  0
 28 29  1  0  0  0  0
  7  8  1  0  0  0  0
 17 18  1  0  0  0  0
  3  4  1  0  0  0  0
  3  5  1  0  0  0  0
  3  6  1  0  0  0  0
 32 35  1  0  0  0  0
 32 36  1  0  0  0  0
 32 37  1  0  0  0  0
 11 14  1  0  0  0  0
 11 15  1  0  0  0  0
 11 16  1  0  0  0  0
 39 41  1  0  0  0  0
 39 42  1  0  0  0  0
 39 43  1  0  0  0  0
 21 25  1  0  0  0  0
 21 26  1  0  0  0  0
 29 34  1  0  0  0  0
  8 13  1  0  0  0  0
 18 24  1  0  0  0  0
 38 40  1  0  0  0  0
  7 12  1  0  0  0  0
 28 33  1  0  0  0  0
 17 23  1  0  0  0  0
 22 27  1  0  0  0  0
M  END
$$$$

  -OEChem-05262214473D

 43 42  0     1  0  0  0  0  0999 V2000
   -2.8661   -4.7415    2.2943 C   0  0  0  0  0  0  0  0  0  0  0  0
   -2.0233   -5.5727    2.6109 O   0  0  0  0  0  0  0  0  0  0  0  0
   -4.3078   -5.0134    2.5698 C   0  0  0  0  0  0  0  0  0  0  0  0
   -4.8057   -5.5295    1.7332 H   0  0  0  0  0  0  0  0  0  0  0  0
   -4.4526   -5.6688    3.4436 H   0  0  0  0  0  0  0  0  0  0  0  0
   -4.9255   -4.1233    2.7700 H   0  0  0  0  0  0  0  0  0  0  0  0
   -2.6241   -3.5219    1.6838 N   0  0  0  0  0  0  0  0  0  0  0  0
   -1.3070   -3.0608    1.3315 C   0  0  2  0  0  0  0  0  0  0  0  0
   -1.3931   -1.5680    1.0422 C   0  0  0  0  0  0  0  0  0  0  0  0
   -2.4385   -1.0059    0.7226 O   0  0  0  0  0  0  0  0  0  0  0  0
   -0.7590   -3.8164    0.1309 C   0  0  0  0  0  0  0  0  0  0  0  0
   -3.4188   -2.9207    1.4735 H   0  0  0  0  0  0  0  0  0  0  0  0
   -0.6690   -3.2277    2.2062 H   0  0  0  0  0  0  0  0  0  0  0  0
   -1.3852   -3.6613   -0.7553 H   0  0  0  0  0  0  0  0  0  0  0  0
    0.2542   -3.4843   -0.1182 H   0  0  0  0  0  0  0  0  0  0  0  0
   -0.7257   -4.8930    0.3300 H   0  0  0  0  0  0  0  0  0  0  0  0
   -0.1563   -0.9420    1.1402 N   0  0  0  0  0  0  0  0  0  0  0  0
    0.0261    0.4671    0.9001 C   0  0  2  0  0  0  0  0  0  0  0  0
    0.3364    0.6804   -0.5801 C   0  0  0  0  0  0  0  0  0  0  0  0
    0.9363   -0.1461   -1.2644 O   0  0  0  0  0  0  0  0  0  0  0  0
    1.0683    1.0872    1.8342 C   0  0  0  0  0  0  0  0  0  0  0  0
    0.5834    1.0685    3.5912 S   0  0  0  0  0  0  0  0  0  0  0  0
    0.6533   -1.4855    1.4300 H   0  0  0  0  0  0  0  0  0  0  0  0
   -0.9477    0.9294    1.1042 H   0  0  0  0  0  0  0  0  0  0  0  0
    2.0223    0.5562    1.7521 H   0  0  0  0  0  0  0  0  0  0  0  0
    1.2461    2.1311    1.5543 H   0  0  0  0  0  0  0  0  0  0  0  0
    1.6948    1.6628    4.0437 H   0  0  0  0  0  0  0  0  0  0  0  0
   -0.1130    1.9107   -1.0386 N   0  0  0  0  0  0  0  0  0  0  0  0
    0.0716    2.3485   -2.4024 C   0  0  2  0  0  0  0  0  0  0  0  0
   -0.3963    3.7946   -2.4995 C   0  0  0  0  0  0  0  0  0  0  0  0
   -1.1882    4.2981   -1.7055 O   0  0  0  0  0  0  0  0  0  0  0  0
   -0.6916    1.4637   -3.3757 C   0  0  0  0  0  0  0  0  0  0  0  0
   -0.6301    2.5195   -0.4112 H   0  0  0  0  0  0  0  0  0  0  0  0
    1.1463    2.2973   -2.6083 H   0  0  0  0  0  0  0  0  0  0  0  0
   -1.7703    1.5021   -3.1849 H   0  0  0  0  0  0  0  0  0  0  0  0
   -0.5277    1.7796   -4.4113 H   0  0  0  0  0  0  0  0  0  0  0  0
   -0.3747    0.4192   -3.2835 H   0  0  0  0  0  0  0  0  0  0  0  0
    0.1409    4.4440   -3.6021 N   0  0  0  0  0  0  0  0  0  0  0  0
   -0.1609    5.8202   -3.9199 C   0  0  0  0  0  0  0  0  0  0  0  0
    0.8039    3.9549   -4.1961 H   0  0  0  0  0  0  0  0  0  0  0  0
   -1.0152    5.8585   -4.6119 H   0  0  0  0  0  0  0  0  0  0  0  0
   -0.4125    6.3629   -2.9967 H   0  0  0  0  0  0  0  0  0  0  0  0
    0.7152    6.2878   -4.3929 H   0  0  0  0  0  0  0  0  0  0  0  0
  1  3  1  0  0  0  0
  1  7  1  0  0  0  0
  1  2  2  0  0  0  0
 29 30  1  0  0  0  0
 30 38  1  0  0  0  0
 30 31  2  0  0  0  0
  8  9  1  0  0  0  0
  9 17  1  0  0  0  0
  9 10  2  0  0  0  0
 18 19  1  0  0  0  0
 19 28  1  0  0  0  0
 19 20  2  0  0  0  0
 29 32  1  0  0  0  0
  8 11  1  0  0  0  0
 38 39  1  0  0  0  0
 18 21  1  0  0  0  0
 21 22  1  0  0  0  0
 28 29  1  0  0  0  0
  7  8  1  0  0  0  0
 17 18  1  0  0  0  0
  3  4  1  0  0  0  0
  3  5  1  0  0  0  0
  3  6  1  0  0  0  0
 32 35  1  0  0  0  0
 32 36  1  0  0  0  0
 32 37  1  0  0  0  0
 11 14  1  0  0  0  0
 11 15  1  0  0  0  0
 11 16  1  0  0  0  0
 39 41  1  0  0  0  0
 39 42  1  0  0  0  0
 39 43  1  0  0  0  0
 21 25  1  0  0  0  0
 21 26  1  0  0  0  0
 29 34  1  0  0  0  0
  8 13  1  0  0  0  0
 18 24  1  0  0  0  0
 38 40  1  0  0  0  0
  7 12  1  0  0  0  0
 28 33  1  0  0  0  0
 17 23  1  0  0  0  0
 22 27  1  0  0  0  0
M  END
$$$$

  -OEChem-05262214473D

 43 42  0     1  0  0  0  0  0999 V2000
   -2.8661   -4.7415    2.2943 C   0  0  0  0  0  0  0  0  0  0  0  0
   -2.0233   -5.5727    2.6109 O   0  0  0  0  0  0  0  0  0  0  0  0
   -4.3078   -5.0134    2.5698 C   0  0  0  0  0  0  0  0  0  0  0  0
   -4.8057   -5.5295    1.7332 H   0  0  0  0  0  0  0  0  0  0  0  0
   -4.4526   -5.6688    3.4436 H   0  0  0  0  0  0  0  0  0  0  0  0
   -4.9255   -4.1233    2.7700 H   0  0  0  0  0  0  0  0  0  0  0  0
   -2.6241   -3.5219    1.6838 N   0  0  0  0  0  0  0  0  0  0  0  0
   -1.3070   -3.0608    1.3315 C   0  0  2  0  0  0  0  0  0  0  0  0
   -1.3931   -1.5680    1.0422 C   0  0  0  0  0  0  0  0  0  0  0  0
   -2.4385   -1.0059    0.7226 O   0  0  0  0  0  0  0  0  0  0  0  0
   -0.7590   -3.8164    0.1309 C   0  0  0  0  0  0  0  0  0  0  0  0
   -3.4188   -2.9207    1.4735 H   0  0  0  0  0  0  0  0  0  0  0  0
   -0.6690   -3.2277    2.2062 H   0  0  0  0  0  0  0  0  0  0  0  0
   -1.3852   -3.6613   -0.7553 H   0  0  0  0  0  0  0  0  0  0  0  0
    0.2542   -3.4843   -0.1182 H   0  0  0  0  0  0  0  0  0  0  0  0
   -0.7257   -4.8930    0.3300 H   0  0  0  0  0  0  0  0  0  0  0  0
   -0.1563   -0.9420    1.1402 N   0  0  0  0  0  0  0  0  0  0  0  0
    0.0261    0.4671    0.9001 C   0  0  2  0  0  0  0  0  0  0  0  0
    0.3364    0.6804   -0.5801 C   0  0  0  0  0  0  0  0  0  0  0  0
    0.6884   -0.2293   -1.3283 O   0  0  0  0  0  0  0  0  0  0  0  0
    1.0683    1.0872    1.8342 C   0  0  0  0  0  0  0  0  0  0  0  0
    0.5834    1.0685    3.5912 S   0  0  0  0  0  0  0  0  0  0  0  0
    0.6533   -1.4855    1.4300 H   0  0  0  0  0  0  0  0  0  0  0  0
   -0.9477    0.9294    1.1042 H   0  0  0  0  0  0  0  0  0  0  0  0
    2.0223    0.5562    1.7521 H   0  0  0  0  0  0  0  0  0  0  0  0
    1.2461    2.1311    1.5543 H   0  0  0  0  0  0  0  0  0  0  0  0
    1.6948    1.6628    4.0437 H   0  0  0  0  0  0  0  0  0  0  0  0
    0.1980    2.0081   -0.9593 N   0  0  0  0  0  0  0  0  0  0  0  0
    0.4467    2.4632   -2.3073 C   0  0  2  0  0  0  0  0  0  0  0  0
    0.3552    3.9834   -2.3148 C   0  0  0  0  0  0  0  0  0  0  0  0
   -0.2606    4.6225   -1.4643 O   0  0  0  0  0  0  0  0  0  0  0  0
   -0.5431    1.8543   -3.2883 C   0  0  0  0  0  0  0  0  0  0  0  0
   -0.1305    2.6899   -0.2819 H   0  0  0  0  0  0  0  0  0  0  0  0
    1.4673    2.1568   -2.5613 H   0  0  0  0  0  0  0  0  0  0  0  0
   -1.5712    2.1500   -3.0498 H   0  0  0  0  0  0  0  0  0  0  0  0
   -0.3355    2.1778   -4.3136 H   0  0  0  0  0  0  0  0  0  0  0  0
   -0.4969    0.7603   -3.2600 H   0  0  0  0  0  0  0  0  0  0  0  0
    1.0060    4.5400   -3.4069 N   0  0  0  0  0  0  0  0  0  0  0  0
    1.0512    5.9638   -3.6451 C   0  0  0  0  0  0  0  0  0  0  0  0
    1.5067    3.9355   -4.0516 H   0  0  0  0  0  0  0  0  0  0  0  0
    0.2141    6.2537   -4.2973 H   0  0  0  0  0  0  0  0  0  0  0  0
    0.9716    6.4984   -2.6871 H   0  0  0  0  0  0  0  0  0  0  0  0
    2.0025    6.2239   -4.1323 H   0  0  0  0  0  0  0  0  0  0  0  0
  1  3  1  0  0  0  0
  1  7  1  0  0  0  0
  1  2  2  0  0  0  0
 29 30  1  0  0  0  0
 30 38  1  0  0  0  0
 30 31  2  0  0  0  0
  8  9  1  0  0  0  0
  9 17  1  0  0  0  0
  9 10  2  0  0  0  0
 18 19  1  0  0  0  0
 19 28  1  0  0  0  0
 19 20  2  0  0  0  0
 29 32  1  0  0  0  0
  8 11  1  0  0  0  0
 38 39  1  0  0  0  0
 18 21  1  0  0  0  0
 21 22  1  0  0  0  0
 28 29  1  0  0  0  0
  7  8  1  0  0  0  0
 17 18  1  0  0  0  0
  3  4  1  0  0  0  0
  3  5  1  0  0  0  0
  3  6  1  0  0  0  0
 32 35  1  0  0  0  0
 32 36  1  0  0  0  0
 32 37  1  0  0  0  0
 11 14  1  0  0  0  0
 11 15  1  0  0  0  0
 11 16  1  0  0  0  0
 39 41  1  0  0  0  0
 39 42  1  0  0  0  0
 39 43  1  0  0  0  0
 21 25  1  0  0  0  0
 21 26  1  0  0  0  0
 29 34  1  0  0  0  0
  8 13  1  0  0  0  0
 18 24  1  0  0  0  0
 38 40  1  0  0  0  0
  7 12  1  0  0  0  0
 28 33  1  0  0  0  0
 17 23  1  0  0  0  0
 22 27  1  0  0  0  0
M  END
$$$$

  -OEChem-05262214473D

 43 42  0     1  0  0  0  0  0999 V2000
   -2.8661   -4.7415    2.2943 C   0  0  0  0  0  0  0  0  0  0  0  0
   -2.0233   -5.5727    2.6109 O   0  0  0  0  0  0  0  0  0  0  0  0
   -4.3078   -5.0134    2.5698 C   0  0  0  0  0  0  0  0  0  0  0  0
   -4.8057   -5.5295    1.7332 H   0  0  0  0  0  0  0  0  0  0  0  0
   -4.4526   -5.6688    3.4436 H   0  0  0  0  0  0  0  0  0  0  0  0
   -4.9255   -4.1233    2.7700 H   0  0  0  0  0  0  0  0  0  0  0  0
   -2.6241   -3.5219    1.6838 N   0  0  0  0  0  0  0  0  0  0  0  0
   -1.3070   -3.0608    1.3315 C   0  0  2  0  0  0  0  0  0  0  0  0
   -1.3931   -1.5680    1.0422 C   0  0  0  0  0  0  0  0  0  0  0  0
   -2.4385   -1.0059    0.7226 O   0  0  0  0  0  0  0  0  0  0  0  0
   -0.7590   -3.8164    0.1309 C   0  0  0  0  0  0  0  0  0  0  0  0
   -3.4188   -2.9207    1.4735 H   0  0  0  0  0  0  0  0  0  0  0  0
   -0.6690   -3.2277    2.2062 H   0  0  0  0  0  0  0  0  0  0  0  0
   -1.3852   -3.6613   -0.7553 H   0  0  0  0  0  0  0  0  0  0  0  0
    0.2542   -3.4843   -0.1182 H   0  0  0  0  0  0  0  0  0  0  0  0
   -0.7257   -4.8930    0.3300 H   0  0  0  0  0  0  0  0  0  0  0  0
   -0.1563   -0.9420    1.1402 N   0  0  0  0  0  0  0  0  0  0  0  0
    0.0261    0.4671    0.9001 C   0  0  2  0  0  0  0  0  0  0  0  0
   -0.0375    0.7248   -0.6040 C   0  0  0  0  0  0  0  0  0  0  0  0
   -0.1981   -0.1709   -1.4306 O   0  0  0  0  0  0  0  0  0  0  0  0
    1.2984    1.0099    1.5556 C   0  0  0  0  0  0  0  0  0  0  0  0
    1.2723    0.9428    3.3770 S   0  0  0  0  0  0  0  0  0  0  0  0
    0.6533   -1.4855    1.4300 H   0  0  0  0  0  0  0  0  0  0  0  0
   -0.8416    0.9587    1.3572 H   0  0  0  0  0  0  0  0  0  0  0  0
    2.1746    0.4457    1.2197 H   0  0  0  0  0  0  0  0  0  0  0  0
    1.4491    2.0561    1.2683 H   0  0  0  0  0  0  0  0  0  0  0  0
    2.4888    1.4756    3.5486 H   0  0  0  0  0  0  0  0  0  0  0  0
    0.1309    2.0668   -0.9142 N   0  0  0  0  0  0  0  0  0  0  0  0
    0.1207    2.5598   -2.2716 C   0  0  2  0  0  0  0  0  0  0  0  0
    0.4931    4.0362   -2.2386 C   0  0  0  0  0  0  0  0  0  0  0  0
    0.3599    4.7394   -1.2392 O   0  0  0  0  0  0  0  0  0  0  0  0
   -1.2379    2.3564   -2.9240 C   0  0  0  0  0  0  0  0  0  0  0  0
    0.2247    2.7453   -0.1642 H   0  0  0  0  0  0  0  0  0  0  0  0
    0.8890    2.0009   -2.8169 H   0  0  0  0  0  0  0  0  0  0  0  0
   -2.0206    2.9090   -2.3914 H   0  0  0  0  0  0  0  0  0  0  0  0
   -1.2357    2.7046   -3.9621 H   0  0  0  0  0  0  0  0  0  0  0  0
   -1.5175    1.2974   -2.9201 H   0  0  0  0  0  0  0  0  0  0  0  0
    0.9512    4.4865   -3.4688 N   0  0  0  0  0  0  0  0  0  0  0  0
    1.3552    5.8542   -3.6973 C   0  0  0  0  0  0  0  0  0  0  0  0
    1.0470    3.8294   -4.2374 H   0  0  0  0  0  0  0  0  0  0  0  0
    0.4979    6.4326   -4.0722 H   0  0  0  0  0  0  0  0  0  0  0  0
    1.7097    6.2942   -2.7535 H   0  0  0  0  0  0  0  0  0  0  0  0
    2.1662    5.8777   -4.4401 H   0  0  0  0  0  0  0  0  0  0  0  0
  1  3  1  0  0  0  0
  1  7  1  0  0  0  0
  1  2  2  0  0  0  0
 29 30  1  0  0  0  0
 30 38  1  0  0  0  0
 30 31  2  0  0  0  0
  8  9  1  0  0  0  0
  9 17  1  0  0  0  0
  9 10  2  0  0  0  0
 18 19  1  0  0  0  0
 19 28  1  0  0  0  0
 19 20  2  0  0  0  0
 29 32  1  0  0  0  0
  8 11  1  0  0  0  0
 38 39  1  0  0  0  0
 18 21  1  0  0  0  0
 21 22  1  0  0  0  0
 28 29  1  0  0  0  0
  7  8  1  0  0  0  0
 17 18  1  0  0  0  0
  3  4  1  0  0  0  0
  3  5  1  0  0  0  0
  3  6  1  0  0  0  0
 32 35  1  0  0  0  0
 32 36  1  0  0  0  0
 32 37  1  0  0  0  0
 11 14  1  0  0  0  0
 11 15  1  0  0  0  0
 11 16  1  0  0  0  0
 39 41  1  0  0  0  0
 39 42  1  0  0  0  0
 39 43  1  0  0  0  0
 21 25  1  0  0  0  0
 21 26  1  0  0  0  0
 29 34  1  0  0  0  0
  8 13  1  0  0  0  0
 18 24  1  0  0  0  0
 38 40  1  0  0  0  0
  7 12  1  0  0  0  0
 28 33  1  0  0  0  0
 17 23  1  0  0  0  0
 22 27  1  0  0  0  0
M  END
$$$$

  -OEChem-05262214473D

 43 42  0     1  0  0  0  0  0999 V2000
   -2.8661   -4.7415    2.2943 C   0  0  0  0  0  0  0  0  0  0  0  0
   -2.0233   -5.5727    2.6109 O   0  0  0  0  0  0  0  0  0  0  0  0
   -4.3078   -5.0134    2.5698 C   0  0  0  0  0  0  0  0  0  0  0  0
   -4.8057   -5.5295    1.7332 H   0  0  0  0  0  0  0  0  0  0  0  0
   -4.4526   -5.6688    3.4436 H   0  0  0  0  0  0  0  0  0  0  0  0
   -4.9255   -4.1233    2.7700 H   0  0  0  0  0  0  0  0  0  0  0  0
   -2.6241   -3.5219    1.6838 N   0  0  0  0  0  0  0  0  0  0  0  0
   -1.3070   -3.0608    1.3315 C   0  0  2  0  0  0  0  0  0  0  0  0
   -1.3931   -1.5680    1.0422 C   0  0  0  0  0  0  0  0  0  0  0  0
   -2.4385   -1.0059    0.7226 O   0  0  0  0  0  0  0  0  0  0  0  0
   -0.7590   -3.8164    0.1309 C   0  0  0  0  0  0  0  0  0  0  0  0
   -3.4188   -2.9207    1.4735 H   0  0  0  0  0  0  0  0  0  0  0  0
   -0.6690   -3.2277    2.2062 H   0  0  0  0  0  0  0  0  0  0  0  0
   -1.3852   -3.6613   -0.7553 H   0  0  0  0  0  0  0  0  0  0  0  0
    0.2542   -3.4843   -0.1182 H   0  0  0  0  0  0  0  0  0  0  0  0
   -0.7257   -4.8930    0.3300 H   0  0  0  0  0  0  0  0  0  0  0  0
   -0.1563   -0.9420    1.1402 N   0  0  0  0  0  0  0  0  0  0  0  0
    0.0261    0.4671    0.9001 C   0  0  2  0  0  0  0  0  0  0  0  0
   -0.0375    0.7248   -0.6040 C   0  0  0  0  0  0  0  0  0  0  0  0
   -0.4580   -0.1045   -1.4082 O   0  0  0  0  0  0  0  0  0  0  0  0
    1.2984    1.0099    1.5556 C   0  0  0  0  0  0  0  0  0  0  0  0
    1.2723    0.9428    3.3770 S   0  0  0  0  0  0  0  0  0  0  0  0
    0.6533   -1.4855    1.4300 H   0  0  0  0  0  0  0  0  0  0  0  0
   -0.8416    0.9587    1.3572 H   0  0  0  0  0  0  0  0  0  0  0  0
    2.1746    0.4457    1.2197 H   0  0  0  0  0  0  0  0  0  0  0  0
    1.4491    2.0561    1.2683 H   0  0  0  0  0  0  0  0  0  0  0  0
    2.4888    1.4756    3.5486 H   0  0  0  0  0  0  0  0  0  0  0  0
    0.4529    1.9778   -0.9430 N   0  0  0  0  0  0  0  0  0  0  0  0
    0.5074    2.4502   -2.3068 C   0  0  2  0  0  0  0  0  0  0  0  0
    1.2446    3.7828   -2.3138 C   0  0  0  0  0  0  0  0  0  0  0  0
    1.3401    4.5019   -1.3213 O   0  0  0  0  0  0  0  0  0  0  0  0
   -0.8862    2.5968   -2.8976 C   0  0  0  0  0  0  0  0  0  0  0  0
    0.7501    2.6138   -0.2090 H   0  0  0  0  0  0  0  0  0  0  0  0
    1.0827    1.7109   -2.8748 H   0  0  0  0  0  0  0  0  0  0  0  0
   -1.4775    3.3334   -2.3416 H   0  0  0  0  0  0  0  0  0  0  0  0
   -0.8421    2.9276   -3.9406 H   0  0  0  0  0  0  0  0  0  0  0  0
   -1.4257    1.6441   -2.8645 H   0  0  0  0  0  0  0  0  0  0  0  0
    1.7464    4.0951   -3.5695 N   0  0  0  0  0  0  0  0  0  0  0  0
    2.4746    5.3133   -3.8373 C   0  0  0  0  0  0  0  0  0  0  0  0
    1.6369    3.4313   -4.3305 H   0  0  0  0  0  0  0  0  0  0  0  0
    1.7769    6.0893   -4.1851 H   0  0  0  0  0  0  0  0  0  0  0  0
    2.9716    5.6531   -2.9166 H   0  0  0  0  0  0  0  0  0  0  0  0
    3.2305    5.1252   -4.6140 H   0  0  0  0  0  0  0  0  0  0  0  0
  1  3  1  0  0  0  0
  1  7  1  0  0  0  0
  1  2  2  0  0  0  0
 29 30  1  0  0  0  0
 30 38  1  0  0  0  0
 30 31  2  0  0  0  0
  8  9  1  0  0  0  0
  9 17  1  0  0  0  0
  9 10  2  0  0  0  0
 18 19  1  0  0  0  0
 19 28  1  0  0  0  0
 19 20  2  0  0  0  0
 29 32  1  0  0  0  0
  8 11  1  0  0  0  0
 38 39  1  0  0  0  0
 18 21  1  0  0  0  0
 21 22  1  0  0  0  0
 28 29  1  0  0  0  0
  7  8  1  0  0  0  0
 17 18  1  0  0  0  0
  3  4  1  0  0  0  0
  3  5  1  0  0  0  0
  3  6  1  0  0  0  0
 32 35  1  0  0  0  0
 32 36  1  0  0  0  0
 32 37  1  0  0  0  0
 11 14  1  0  0  0  0
 11 15  1  0  0  0  0
 11 16  1  0  0  0  0
 39 41  1  0  0  0  0
 39 42  1  0  0  0  0
 39 43  1  0  0  0  0
 21 25  1  0  0  0  0
 21 26  1  0  0  0  0
 29 34  1  0  0  0  0
  8 13  1  0  0  0  0
 18 24  1  0  0  0  0
 38 40  1  0  0  0  0
  7 12  1  0  0  0  0
 28 33  1  0  0  0  0
 17 23  1  0  0  0  0
 22 27  1  0  0  0  0
M  END
$$$$

  -OEChem-05262214473D

 43 42  0     1  0  0  0  0  0999 V2000
   -2.8661   -4.7415    2.2943 C   0  0  0  0  0  0  0  0  0  0  0  0
   -2.0233   -5.5727    2.6109 O   0  0  0  0  0  0  0  0  0  0  0  0
   -4.3078   -5.0134    2.5698 C   0  0  0  0  0  0  0  0  0  0  0  0
   -4.8057   -5.5295    1.7332 H   0  0  0  0  0  0  0  0  0  0  0  0
   -4.4526   -5.6688    3.4436 H   0  0  0  0  0  0  0  0  0  0  0  0
   -4.9255   -4.1233    2.7700 H   0  0  0  0  0  0  0  0  0  0  0  0
   -2.6241   -3.5219    1.6838 N   0  0  0  0  0  0  0  0  0  0  0  0
   -1.3070   -3.0608    1.3315 C   0  0  2  0  0  0  0  0  0  0  0  0
   -1.3931   -1.5680    1.0422 C   0  0  0  0  0  0  0  0  0  0  0  0
   -2.4385   -1.0059    0.7226 O   0  0  0  0  0  0  0  0  0  0  0  0
   -0.7590   -3.8164    0.1309 C   0  0  0  0  0  0  0  0  0  0  0  0
   -3.4188   -2.9207    1.4735 H   0  0  0  0  0  0  0  0  0  0  0  0
   -0.6690   -3.2277    2.2062 H   0  0  0  0  0  0  0  0  0  0  0  0
   -1.3852   -3.6613   -0.7553 H   0  0  0  0  0  0  0  0  0  0  0  0
    0.2542   -3.4843   -0.1182 H   0  0  0  0  0  0  0  0  0  0  0  0
   -0.7257   -4.8930    0.3300 H   0  0  0  0  0  0  0  0  0  0  0  0
   -0.1563   -0.9420    1.1402 N   0  0  0  0  0  0  0  0  0  0  0  0
    0.0261    0.4671    0.9001 C   0  0  2  0  0  0  0  0  0  0  0  0
   -0.0375    0.7248   -0.6040 C   0  0  0  0  0  0  0  0  0  0  0  0
   -0.6911    0.0261   -1.3760 O   0  0  0  0  0  0  0  0  0  0  0  0
    1.2984    1.0099    1.5556 C   0  0  0  0  0  0  0  0  0  0  0  0
    1.2723    0.9428    3.3770 S   0  0  0  0  0  0  0  0  0  0  0  0
    0.6533   -1.4855    1.4300 H   0  0  0  0  0  0  0  0  0  0  0  0
   -0.8416    0.9587    1.3572 H   0  0  0  0  0  0  0  0  0  0  0  0
    2.1746    0.4457    1.2197 H   0  0  0  0  0  0  0  0  0  0  0  0
    1.4491    2.0561    1.2683 H   0  0  0  0  0  0  0  0  0  0  0  0
    2.4888    1.4756    3.5486 H   0  0  0  0  0  0  0  0  0  0  0  0
    0.7401    1.8095   -0.9840 N   0  0  0  0  0  0  0  0  0  0  0  0
    0.8515    2.2453   -2.3564 C   0  0  2  0  0  0  0  0  0  0  0  0
    1.9027    3.3458   -2.4165 C   0  0  0  0  0  0  0  0  0  0  0  0
    2.2227    4.0217   -1.4409 O   0  0  0  0  0  0  0  0  0  0  0  0
   -0.4839    2.7396   -2.8902 C   0  0  0  0  0  0  0  0  0  0  0  0
    1.2222    2.3524   -0.2737 H   0  0  0  0  0  0  0  0  0  0  0  0
    1.1934    1.3809   -2.9360 H   0  0  0  0  0  0  0  0  0  0  0  0
   -0.8425    3.6056   -2.3218 H   0  0  0  0  0  0  0  0  0  0  0  0
   -0.4042    3.0429   -3.9393 H   0  0  0  0  0  0  0  0  0  0  0  0
   -1.2463    1.9563   -2.8187 H   0  0  0  0  0  0  0  0  0  0  0  0
    2.4103    3.5132   -3.6973 N   0  0  0  0  0  0  0  0  0  0  0  0
    3.4119    4.5039   -4.0155 C   0  0  0  0  0  0  0  0  0  0  0  0
    2.1013    2.8955   -4.4420 H   0  0  0  0  0  0  0  0  0  0  0  0
    2.9199    5.4305   -4.3462 H   0  0  0  0  0  0  0  0  0  0  0  0
    4.0200    4.7105   -3.1225 H   0  0  0  0  0  0  0  0  0  0  0  0
    4.0592    4.1253   -4.8203 H   0  0  0  0  0  0  0  0  0  0  0  0
  1  3  1  0  0  0  0
  1  7  1  0  0  0  0
  1  2  2  0  0  0  0
 29 30  1  0  0  0  0
 30 38  1  0  0  0  0
 30 31  2  0  0  0  0
  8  9  1  0  0  0  0
  9 17  1  0  0  0  0
  9 10  2  0  0  0  0
 18 19  1  0  0  0  0
 19 28  1  0  0  0  0
 19 20  2  0  0  0  0
 29 32  1  0  0  0  0
  8 11  1  0  0  0  0
 38 39  1  0  0  0  0
 18 21  1  0  0  0  0
 21 22  1  0  0  0  0
 28 29  1  0  0  0  0
  7  8  1  0  0  0  0
 17 18  1  0  0  0  0
  3  4  1  0  0  0  0
  3  5  1  0  0  0  0
  3  6  1  0  0  0  0
 32 35  1  0  0  0  0
 32 36  1  0  0  0  0
 32 37  1  0  0  0  0
 11 14  1  0  0  0  0
 11 15  1  0  0  0  0
 11 16  1  0  0  0  0
 39 41  1  0  0  0  0
 39 42  1  0  0  0  0
 39 43  1  0  0  0  0
 21 25  1  0  0  0  0
 21 26  1  0  0  0  0
 29 34  1  0  0  0  0
  8 13  1  0  0  0  0
 18 24  1  0  0  0  0
 38 40  1  0  0  0  0
  7 12  1  0  0  0  0
 28 33  1  0  0  0  0
 17 23  1  0  0  0  0
 22 27  1  0  0  0  0
M  END
$$$$

  -OEChem-05262214473D

 43 42  0     1  0  0  0  0  0999 V2000
   -2.8661   -4.7415    2.2943 C   0  0  0  0  0  0  0  0  0  0  0  0
   -2.0233   -5.5727    2.6109 O   0  0  0  0  0  0  0  0  0  0  0  0
   -4.3078   -5.0134    2.5698 C   0  0  0  0  0  0  0  0  0  0  0  0
   -4.8057   -5.5295    1.7332 H   0  0  0  0  0  0  0  0  0  0  0  0
   -4.4526   -5.6688    3.4436 H   0  0  0  0  0  0  0  0  0  0  0  0
   -4.9255   -4.1233    2.7700 H   0  0  0  0  0  0  0  0  0  0  0  0
   -2.6241   -3.5219    1.6838 N   0  0  0  0  0  0  0  0  0  0  0  0
   -1.3070   -3.0608    1.3315 C   0  0  2  0  0  0  0  0  0  0  0  0
   -1.3931   -1.5680    1.0422 C   0  0  0  0  0  0  0  0  0  0  0  0
   -2.4385   -1.0059    0.7226 O   0  0  0  0  0  0  0  0  0  0  0  0
   -0.7590   -3.8164    0.1309 C   0  0  0  0  0  0  0  0  0  0  0  0
   -3.4188   -2.9207    1.4735 H   0  0  0  0  0  0  0  0  0  0  0  0
   -0.6690   -3.2277    2.2062 H   0  0  0  0  0  0  0  0  0  0  0  0
   -1.3852   -3.6613   -0.7553 H   0  0  0  0  0  0  0  0  0  0  0  0
    0.2542   -3.4843   -0.1182 H   0  0  0  0  0  0  0  0  0  0  0  0
   -0.7257   -4.8930    0.3300 H   0  0  0  0  0  0  0  0  0  0  0  0
   -0.1563   -0.9420    1.1402 N   0  0  0  0  0  0  0  0  0  0  0  0
    0.0261    0.4671    0.9001 C   0  0  2  0  0  0  0  0  0  0  0  0
   -0.0375    0.7248   -0.6040 C   0  0  0  0  0  0  0  0  0  0  0  0
   -0.8815    0.2120   -1.3361 O   0  0  0  0  0  0  0  0  0  0  0  0
    1.2984    1.0099    1.5556 C   0  0  0  0  0  0  0  0  0  0  0  0
    1.2723    0.9428    3.3770 S   0  0  0  0  0  0  0  0  0  0  0  0
    0.6533   -1.4855    1.4300 H   0  0  0  0  0  0  0  0  0  0  0  0
   -0.8416    0.9587    1.3572 H   0  0  0  0  0  0  0  0  0  0  0  0
    2.1746    0.4457    1.2197 H   0  0  0  0  0  0  0  0  0  0  0  0
    1.4491    2.0561    1.2683 H   0  0  0  0  0  0  0  0  0  0  0  0
    2.4888    1.4756    3.5486 H   0  0  0  0  0  0  0  0  0  0  0  0
    0.9727    1.5733   -1.0343 N   0  0  0  0  0  0  0  0  0  0  0  0
    1.1295    1.9592   -2.4172 C   0  0  2  0  0  0  0  0  0  0  0  0
    2.4224    2.7547   -2.5397 C   0  0  0  0  0  0  0  0  0  0  0  0
    2.9476    3.3317   -1.5897 O   0  0  0  0  0  0  0  0  0  0  0  0
   -0.0587    2.7751   -2.9021 C   0  0  0  0  0  0  0  0  0  0  0  0
    1.6087    1.9788   -0.3541 H   0  0  0  0  0  0  0  0  0  0  0  0
    1.2135    1.0332   -2.9964 H   0  0  0  0  0  0  0  0  0  0  0  0
   -0.1590    3.7068   -2.3334 H   0  0  0  0  0  0  0  0  0  0  0  0
    0.0483    3.0426   -3.9585 H   0  0  0  0  0  0  0  0  0  0  0  0
   -0.9913    2.2126   -2.7855 H   0  0  0  0  0  0  0  0  0  0  0  0
    2.8977    2.7806   -3.8434 N   0  0  0  0  0  0  0  0  0  0  0  0
    4.1032    3.4813   -4.2200 C   0  0  0  0  0  0  0  0  0  0  0  0
    2.4083    2.2583   -4.5641 H   0  0  0  0  0  0  0  0  0  0  0  0
    3.8489    4.5011   -4.5447 H   0  0  0  0  0  0  0  0  0  0  0  0
    4.7834    3.5305   -3.3569 H   0  0  0  0  0  0  0  0  0  0  0  0
    4.5958    2.9460   -5.0450 H   0  0  0  0  0  0  0  0  0  0  0  0
  1  3  1  0  0  0  0
  1  7  1  0  0  0  0
  1  2  2  0  0  0  0
 29 30  1  0  0  0  0
 30 38  1  0  0  0  0
 30 31  2  0  0  0  0
  8  9  1  0  0  0  0
  9 17  1  0  0  0  0
  9 10  2  0  0  0  0
 18 19  1  0  0  0  0
 19 28  1  0  0  0  0
 19 20  2  0  0  0  0
 29 32  1  0  0  0  0
  8 11  1  0  0  0  0
 38 39  1  0  0  0  0
 18 21  1  0  0  0  0
 21 22  1  0  0  0  0
 28 29  1  0  0  0  0
  7  8  1  0  0  0  0
 17 18  1  0  0  0  0
  3  4  1  0  0  0  0
  3  5  1  0  0  0  0
  3  6  1  0  0  0  0
 32 35  1  0  0  0  0
 32 36  1  0  0  0  0
 32 37  1  0  0  0  0
 11 14  1  0  0  0  0
 11 15  1  0  0  0  0
 11 16  1  0  0  0  0
 39 41  1  0  0  0  0
 39 42  1  0  0  0  0
 39 43  1  0  0  0  0
 21 25  1  0  0  0  0
 21 26  1  0  0  0  0
 29 34  1  0  0  0  0
  8 13  1  0  0  0  0
 18 24  1  0  0  0  0
 38 40  1  0  0  0  0
  7 12  1  0  0  0  0
 28 33  1  0  0  0  0
 17 23  1  0  0  0  0
 22 27  1  0  0  0  0
M  END
$$$$

  -OEChem-05262214473D

 43 42  0     1  0  0  0  0  0999 V2000
   -2.8661   -4.7415    2.2943 C   0  0  0  0  0  0  0  0  0  0  0  0
   -2.0233   -5.5727    2.6109 O   0  0  0  0  0  0  0  0  0  0  0  0
   -4.3078   -5.0134    2.5698 C   0  0  0  0  0  0  0  0  0  0  0  0
   -4.8057   -5.5295    1.7332 H   0  0  0  0  0  0  0  0  0  0  0  0
   -4.4526   -5.6688    3.4436 H   0  0  0  0  0  0  0  0  0  0  0  0
   -4.9255   -4.1233    2.7700 H   0  0  0  0  0  0  0  0  0  0  0  0
   -2.6241   -3.5219    1.6838 N   0  0  0  0  0  0  0  0  0  0  0  0
   -1.3070   -3.0608    1.3315 C   0  0  2  0  0  0  0  0  0  0  0  0
   -1.3931   -1.5680    1.0422 C   0  0  0  0  0  0  0  0  0  0  0  0
   -2.4385   -1.0059    0.7226 O   0  0  0  0  0  0  0  0  0  0  0  0
   -0.7590   -3.8164    0.1309 C   0  0  0  0  0  0  0  0  0  0  0  0
   -3.4188   -2.9207    1.4735 H   0  0  0  0  0  0  0  0  0  0  0  0
   -0.6690   -3.2277    2.2062 H   0  0  0  0  0  0  0  0  0  0  0  0
   -1.3852   -3.6613   -0.7553 H   0  0  0  0  0  0  0  0  0  0  0  0
    0.2542   -3.4843   -0.1182 H   0  0  0  0  0  0  0  0  0  0  0  0
   -0.7257   -4.8930    0.3300 H   0  0  0  0  0  0  0  0  0  0  0  0
   -0.1563   -0.9420    1.1402 N   0  0  0  0  0  0  0  0  0  0  0  0
    0.0261    0.4671    0.9001 C   0  0  2  0  0  0  0  0  0  0  0  0
   -0.0375    0.7248   -0.6040 C   0  0  0  0  0  0  0  0  0  0  0  0
   -1.0164    0.4406   -1.2912 O   0  0  0  0  0  0  0  0  0  0  0  0
    1.2984    1.0099    1.5556 C   0  0  0  0  0  0  0  0  0  0  0  0
    1.2723    0.9428    3.3770 S   0  0  0  0  0  0  0  0  0  0  0  0
    0.6533   -1.4855    1.4300 H   0  0  0  0  0  0  0  0  0  0  0  0
   -0.8416    0.9587    1.3572 H   0  0  0  0  0  0  0  0  0  0  0  0
    2.1746    0.4457    1.2197 H   0  0  0  0  0  0  0  0  0  0  0  0
    1.4491    2.0561    1.2683 H   0  0  0  0  0  0  0  0  0  0  0  0
    2.4888    1.4756    3.5486 H   0  0  0  0  0  0  0  0  0  0  0  0
    1.1350    1.2853   -1.0905 N   0  0  0  0  0  0  0  0  0  0  0  0
    1.3225    1.6114   -2.4849 C   0  0  2  0  0  0  0  0  0  0  0  0
    2.7685    2.0501   -2.6750 C   0  0  0  0  0  0  0  0  0  0  0  0
    3.4655    2.4788   -1.7577 O   0  0  0  0  0  0  0  0  0  0  0  0
    0.3606    2.7009   -2.9325 C   0  0  0  0  0  0  0  0  0  0  0  0
    1.8833    1.5186   -0.4445 H   0  0  0  0  0  0  0  0  0  0  0  0
    1.1417    0.6916   -3.0519 H   0  0  0  0  0  0  0  0  0  0  0  0
    0.5266    3.6302   -2.3755 H   0  0  0  0  0  0  0  0  0  0  0  0
    0.4845    2.9269   -3.9968 H   0  0  0  0  0  0  0  0  0  0  0  0
   -0.6783    2.3955   -2.7674 H   0  0  0  0  0  0  0  0  0  0  0  0
    3.1754    1.9471   -3.9979 N   0  0  0  0  0  0  0  0  0  0  0  0
    4.5014    2.3152   -4.4366 C   0  0  0  0  0  0  0  0  0  0  0  0
    2.5372    1.5633   -4.6886 H   0  0  0  0  0  0  0  0  0  0  0  0
    4.5007    3.3644   -4.7670 H   0  0  0  0  0  0  0  0  0  0  0  0
    5.2098    2.1936   -3.6039 H   0  0  0  0  0  0  0  0  0  0  0  0
    4.8037    1.6677   -5.2728 H   0  0  0  0  0  0  0  0  0  0  0  0
  1  3  1  0  0  0  0
  1  7  1  0  0  0  0
  1  2  2  0  0  0  0
 29 30  1  0  0  0  0
 30 38  1  0  0  0  0
 30 31  2  0  0  0  0
  8  9  1  0  0  0  0
  9 17  1  0  0  0  0
  9 10  2  0  0  0  0
 18 19  1  0  0  0  0
 19 28  1  0  0  0  0
 19 20  2  0  0  0  0
 29 32  1  0  0  0  0
  8 11  1  0  0  0  0
 38 39  1  0  0  0  0
 18 21  1  0  0  0  0
 21 22  1  0  0  0  0
 28 29  1  0  0  0  0
  7  8  1  0  0  0  0
 17 18  1  0  0  0  0
  3  4  1  0  0  0  0
  3  5  1  0  0  0  0
  3  6  1  0  0  0  0
 32 35  1  0  0  0  0
 32 36  1  0  0  0  0
 32 37  1  0  0  0  0
 11 14  1  0  0  0  0
 11 15  1  0  0  0  0
 11 16  1  0  0  0  0
 39 41  1  0  0  0  0
 39 42  1  0  0  0  0
 39 43  1  0  0  0  0
 21 25  1  0  0  0  0
 21 26  1  0  0  0  0
 29 34  1  0  0  0  0
  8 13  1  0  0  0  0
 18 24  1  0  0  0  0
 38 40  1  0  0  0  0
  7 12  1  0  0  0  0
 28 33  1  0  0  0  0
 17 23  1  0  0  0  0
 22 27  1  0  0  0  0
M  END
$$$$

  -OEChem-05262214473D

 43 42  0     1  0  0  0  0  0999 V2000
   -2.8661   -4.7415    2.2943 C   0  0  0  0  0  0  0  0  0  0  0  0
   -2.0233   -5.5727    2.6109 O   0  0  0  0  0  0  0  0  0  0  0  0
   -4.3078   -5.0134    2.5698 C   0  0  0  0  0  0  0  0  0  0  0  0
   -4.8057   -5.5295    1.7332 H   0  0  0  0  0  0  0  0  0  0  0  0
   -4.4526   -5.6688    3.4436 H   0  0  0  0  0  0  0  0  0  0  0  0
   -4.9255   -4.1233    2.7700 H   0  0  0  0  0  0  0  0  0  0  0  0
   -2.6241   -3.5219    1.6838 N   0  0  0  0  0  0  0  0  0  0  0  0
   -1.3070   -3.0608    1.3315 C   0  0  2  0  0  0  0  0  0  0  0  0
   -1.3931   -1.5680    1.0422 C   0  0  0  0  0  0  0  0  0  0  0  0
   -2.4385   -1.0059    0.7226 O   0  0  0  0  0  0  0  0  0  0  0  0
   -0.7590   -3.8164    0.1309 C   0  0  0  0  0  0  0  0  0  0  0  0
   -3.4188   -2.9207    1.4735 H   0  0  0  0  0  0  0  0  0  0  0  0
   -0.6690   -3.2277    2.2062 H   0  0  0  0  0  0  0  0  0  0  0  0
   -1.3852   -3.6613   -0.7553 H   0  0  0  0  0  0  0  0  0  0  0  0
    0.2542   -3.4843   -0.1182 H   0  0  0  0  0  0  0  0  0  0  0  0
   -0.7257   -4.8930    0.3300 H   0  0  0  0  0  0  0  0  0  0  0  0
   -0.1563   -0.9420    1.1402 N   0  0  0  0  0  0  0  0  0  0  0  0
    0.0261    0.4671    0.9001 C   0  0  2  0  0  0  0  0  0  0  0  0
   -0.0375    0.7248   -0.6040 C   0  0  0  0  0  0  0  0  0  0  0  0
   -1.0864    0.6962   -1.2445 O   0  0  0  0  0  0  0  0  0  0  0  0
    1.2984    1.0099    1.5556 C   0  0  0  0  0  0  0  0  0  0  0  0
    1.2723    0.9428    3.3770 S   0  0  0  0  0  0  0  0  0  0  0  0
    0.6533   -1.4855    1.4300 H   0  0  0  0  0  0  0  0  0  0  0  0
   -0.8416    0.9587    1.3572 H   0  0  0  0  0  0  0  0  0  0  0  0
    2.1746    0.4457    1.2197 H   0  0  0  0  0  0  0  0  0  0  0  0
    1.4491    2.0561    1.2683 H   0  0  0  0  0  0  0  0  0  0  0  0
    2.4888    1.4756    3.5486 H   0  0  0  0  0  0  0  0  0  0  0  0
    1.2159    0.9651   -1.1488 N   0  0  0  0  0  0  0  0  0  0  0  0
    1.4172    1.2254   -2.5550 C   0  0  2  0  0  0  0  0  0  0  0  0
    2.9172    1.2797   -2.8133 C   0  0  0  0  0  0  0  0  0  0  0  0
    3.7410    1.5211   -1.9334 O   0  0  0  0  0  0  0  0  0  0  0  0
    0.7453    2.5220   -2.9795 C   0  0  0  0  0  0  0  0  0  0  0  0
    2.0272    1.0031   -0.5389 H   0  0  0  0  0  0  0  0  0  0  0  0
    0.9828    0.3794   -3.0986 H   0  0  0  0  0  0  0  0  0  0  0  0
    1.1674    3.3811   -2.4453 H   0  0  0  0  0  0  0  0  0  0  0  0
    0.8746    2.7034   -4.0516 H   0  0  0  0  0  0  0  0  0  0  0  0
   -0.3286    2.4926   -2.7656 H   0  0  0  0  0  0  0  0  0  0  0  0
    3.2245    1.0696   -4.1503 N   0  0  0  0  0  0  0  0  0  0  0  0
    4.5793    1.0850   -4.6506 C   0  0  0  0  0  0  0  0  0  0  0  0
    2.4791    0.8578   -4.8070 H   0  0  0  0  0  0  0  0  0  0  0  0
    4.8309    2.0979   -4.9979 H   0  0  0  0  0  0  0  0  0  0  0  0
    5.2702    0.7909   -3.8468 H   0  0  0  0  0  0  0  0  0  0  0  0
    4.6688    0.3775   -5.4881 H   0  0  0  0  0  0  0  0  0  0  0  0
  1  3  1  0  0  0  0
  1  7  1  0  0  0  0
  1  2  2  0  0  0  0
 29 30  1  0  0  0  0
 30 38  1  0  0  0  0
 30 31  2  0  0  0  0
  8  9  1  0  0  0  0
  9 17  1  0  0  0  0
  9 10  2  0  0  0  0
 18 19  1  0  0  0  0
 19 28  1  0  0  0  0
 19 20  2  0  0  0  0
 29 32  1  0  0  0  0
  8 11  1  0  0  0  0
 38 39  1  0  0  0  0
 18 21  1  0  0  0  0
 21 22  1  0  0  0  0
 28 29  1  0  0  0  0
  7  8  1  0  0  0  0
 17 18  1  0  0  0  0
  3  4  1  0  0  0  0
  3  5  1  0  0  0  0
  3  6  1  0  0  0  0
 32 35  1  0  0  0  0
 32 36  1  0  0  0  0
 32 37  1  0  0  0  0
 11 14  1  0  0  0  0
 11 15  1  0  0  0  0
 11 16  1  0  0  0  0
 39 41  1  0  0  0  0
 39 42  1  0  0  0  0
 39 43  1  0  0  0  0
 21 25  1  0  0  0  0
 21 26  1  0  0  0  0
 29 34  1  0  0  0  0
  8 13  1  0  0  0  0
 18 24  1  0  0  0  0
 38 40  1  0  0  0  0
  7 12  1  0  0  0  0
 28 33  1  0  0  0  0
 17 23  1  0  0  0  0
 22 27  1  0  0  0  0
M  END
$$$$

  -OEChem-05262214473D

 43 42  0     1  0  0  0  0  0999 V2000
   -2.8661   -4.7415    2.2943 C   0  0  0  0  0  0  0  0  0  0  0  0
   -2.0233   -5.5727    2.6109 O   0  0  0  0  0  0  0  0  0  0  0  0
   -4.3078   -5.0134    2.5698 C   0  0  0  0  0  0  0  0  0  0  0  0
   -4.8057   -5.5295    1.7332 H   0  0  0  0  0  0  0  0  0  0  0  0
   -4.4526   -5.6688    3.4436 H   0  0  0  0  0  0  0  0  0  0  0  0
   -4.9255   -4.1233    2.7700 H   0  0  0  0  0  0  0  0  0  0  0  0
   -2.6241   -3.5219    1.6838 N   0  0  0  0  0  0  0  0  0  0  0  0
   -1.3070   -3.0608    1.3315 C   0  0  2  0  0  0  0  0  0  0  0  0
   -1.3931   -1.5680    1.0422 C   0  0  0  0  0  0  0  0  0  0  0  0
   -2.4385   -1.0059    0.7226 O   0  0  0  0  0  0  0  0  0  0  0  0
   -0.7590   -3.8164    0.1309 C   0  0  0  0  0  0  0  0  0  0  0  0
   -3.4188   -2.9207    1.4735 H   0  0  0  0  0  0  0  0  0  0  0  0
   -0.6690   -3.2277    2.2062 H   0  0  0  0  0  0  0  0  0  0  0  0
   -1.3852   -3.6613   -0.7553 H   0  0  0  0  0  0  0  0  0  0  0  0
    0.2542   -3.4843   -0.1182 H   0  0  0  0  0  0  0  0  0  0  0  0
   -0.7257   -4.8930    0.3300 H   0  0  0  0  0  0  0  0  0  0  0  0
   -0.1563   -0.9420    1.1402 N   0  0  0  0  0  0  0  0  0  0  0  0
    0.0261    0.4671    0.9001 C   0  0  2  0  0  0  0  0  0  0  0  0
   -0.0375    0.7248   -0.6040 C   0  0  0  0  0  0  0  0  0  0  0  0
   -1.0869    0.9615   -1.1990 O   0  0  0  0  0  0  0  0  0  0  0  0
    1.2984    1.0099    1.5556 C   0  0  0  0  0  0  0  0  0  0  0  0
    1.2723    0.9428    3.3770 S   0  0  0  0  0  0  0  0  0  0  0  0
    0.6533   -1.4855    1.4300 H   0  0  0  0  0  0  0  0  0  0  0  0
   -0.8416    0.9587    1.3572 H   0  0  0  0  0  0  0  0  0  0  0  0
    2.1746    0.4457    1.2197 H   0  0  0  0  0  0  0  0  0  0  0  0
    1.4491    2.0561    1.2683 H   0  0  0  0  0  0  0  0  0  0  0  0
    2.4888    1.4756    3.5486 H   0  0  0  0  0  0  0  0  0  0  0  0
    1.2099    0.6346   -1.2052 N   0  0  0  0  0  0  0  0  0  0  0  0
    1.4073    0.8278   -2.6227 C   0  0  2  0  0  0  0  0  0  0  0  0
    2.8584    0.4963   -2.9450 C   0  0  0  0  0  0  0  0  0  0  0  0
    3.7553    0.5240   -2.1049 O   0  0  0  0  0  0  0  0  0  0  0  0
    1.0693    2.2507   -3.0396 C   0  0  0  0  0  0  0  0  0  0  0  0
    2.0308    0.4675   -0.6308 H   0  0  0  0  0  0  0  0  0  0  0  0
    0.7478    0.1177   -3.1335 H   0  0  0  0  0  0  0  0  0  0  0  0
    1.7199    2.9763   -2.5380 H   0  0  0  0  0  0  0  0  0  0  0  0
    1.1920    2.3876   -4.1191 H   0  0  0  0  0  0  0  0  0  0  0  0
    0.0341    2.4973   -2.7801 H   0  0  0  0  0  0  0  0  0  0  0  0
    3.0415    0.2079   -4.2902 N   0  0  0  0  0  0  0  0  0  0  0  0
    4.3316   -0.1255   -4.8475 C   0  0  0  0  0  0  0  0  0  0  0  0
    2.2380    0.1899   -4.9112 H   0  0  0  0  0  0  0  0  0  0  0  0
    4.8170    0.7879   -5.2218 H   0  0  0  0  0  0  0  0  0  0  0  0
    4.9604   -0.5820   -4.0688 H   0  0  0  0  0  0  0  0  0  0  0  0
    4.2002   -0.8366   -5.6763 H   0  0  0  0  0  0  0  0  0  0  0  0
  1  3  1  0  0  0  0
  1  7  1  0  0  0  0
  1  2  2  0  0  0  0
 29 30  1  0  0  0  0
 30 38  1  0  0  0  0
 30 31  2  0  0  0  0
  8  9  1  0  0  0  0
  9 17  1  0  0  0  0
  9 10  2  0  0  0  0
 18 19  1  0  0  0  0
 19 28  1  0  0  0  0
 19 20  2  0  0  0  0
 29 32  1  0  0  0  0
  8 11  1  0  0  0  0
 38 39  1  0  0  0  0
 18 21  1  0  0  0  0
 21 22  1  0  0  0  0
 28 29  1  0  0  0  0
  7  8  1  0  0  0  0
 17 18  1  0  0  0  0
  3  4  1  0  0  0  0
  3  5  1  0  0  0  0
  3  6  1  0  0  0  0
 32 35  1  0  0  0  0
 32 36  1  0  0  0  0
 32 37  1  0  0  0  0
 11 14  1  0  0  0  0
 11 15  1  0  0  0  0
 11 16  1  0  0  0  0
 39 41  1  0  0  0  0
 39 42  1  0  0  0  0
 39 43  1  0  0  0  0
 21 25  1  0  0  0  0
 21 26  1  0  0  0  0
 29 34  1  0  0  0  0
  8 13  1  0  0  0  0
 18 24  1  0  0  0  0
 38 40  1  0  0  0  0
  7 12  1  0  0  0  0
 28 33  1  0  0  0  0
 17 23  1  0  0  0  0
 22 27  1  0  0  0  0
M  END
$$$$

  -OEChem-05262214473D

 43 42  0     1  0  0  0  0  0999 V2000
   -2.8661   -4.7415    2.2943 C   0  0  0  0  0  0  0  0  0  0  0  0
   -2.0233   -5.5727    2.6109 O   0  0  0  0  0  0  0  0  0  0  0  0
   -4.3078   -5.0134    2.5698 C   0  0  0  0  0  0  0  0  0  0  0  0
   -4.8057   -5.5295    1.7332 H   0  0  0  0  0  0  0  0  0  0  0  0
   -4.4526   -5.6688    3.4436 H   0  0  0  0  0  0  0  0  0  0  0  0
   -4.9255   -4.1233    2.7700 H   0  0  0  0  0  0  0  0  0  0  0  0
   -2.6241   -3.5219    1.6838 N   0  0  0  0  0  0  0  0  0  0  0  0
   -1.3070   -3.0608    1.3315 C   0  0  2  0  0  0  0  0  0  0  0  0
   -1.3931   -1.5680    1.0422 C   0  0  0  0  0  0  0  0  0  0  0  0
   -2.4385   -1.0059    0.7226 O   0  0  0  0  0  0  0  0  0  0  0  0
   -0.7590   -3.8164    0.1309 C   0  0  0  0  0  0  0  0  0  0  0  0
   -3.4188   -2.9207    1.4735 H   0  0  0  0  0  0  0  0  0  0  0  0
   -0.6690   -3.2277    2.2062 H   0  0  0  0  0  0  0  0  0  0  0  0
   -1.3852   -3.6613   -0.7553 H   0  0  0  0  0  0  0  0  0  0  0  0
    0.2542   -3.4843   -0.1182 H   0  0  0  0  0  0  0  0  0  0  0  0
   -0.7257   -4.8930    0.3300 H   0  0  0  0  0  0  0  0  0  0  0  0
   -0.1563   -0.9420    1.1402 N   0  0  0  0  0  0  0  0  0  0  0  0
    0.0261    0.4671    0.9001 C   0  0  2  0  0  0  0  0  0  0  0  0
   -0.0375    0.7248   -0.6040 C   0  0  0  0  0  0  0  0  0  0  0  0
   -1.0177    1.2184   -1.1579 O   0  0  0  0  0  0  0  0  0  0  0  0
    1.2984    1.0099    1.5556 C   0  0  0  0  0  0  0  0  0  0  0  0
    1.2723    0.9428    3.3770 S   0  0  0  0  0  0  0  0  0  0  0  0
    0.6533   -1.4855    1.4300 H   0  0  0  0  0  0  0  0  0  0  0  0
   -0.8416    0.9587    1.3572 H   0  0  0  0  0  0  0  0  0  0  0  0
    2.1746    0.4457    1.2197 H   0  0  0  0  0  0  0  0  0  0  0  0
    1.4491    2.0561    1.2683 H   0  0  0  0  0  0  0  0  0  0  0  0
    2.4888    1.4756    3.5486 H   0  0  0  0  0  0  0  0  0  0  0  0
    1.1175    0.3163   -1.2558 N   0  0  0  0  0  0  0  0  0  0  0  0
    1.2934    0.4454   -2.6834 C   0  0  2  0  0  0  0  0  0  0  0  0
    2.5962   -0.2469   -3.0612 C   0  0  0  0  0  0  0  0  0  0  0  0
    3.5076   -0.4447   -2.2603 O   0  0  0  0  0  0  0  0  0  0  0  0
    1.3104    1.9053   -3.1090 C   0  0  0  0  0  0  0  0  0  0  0  0
    1.8938   -0.0518   -0.7140 H   0  0  0  0  0  0  0  0  0  0  0  0
    0.4525   -0.0754   -3.1541 H   0  0  0  0  0  0  0  0  0  0  0  0
    2.1463    2.4436   -2.6473 H   0  0  0  0  0  0  0  0  0  0  0  0
    1.4153    2.0009   -4.1948 H   0  0  0  0  0  0  0  0  0  0  0  0
    0.3850    2.4093   -2.8101 H   0  0  0  0  0  0  0  0  0  0  0  0
    2.6391   -0.5794   -4.4080 N   0  0  0  0  0  0  0  0  0  0  0  0
    3.7753   -1.2337   -5.0138 C   0  0  0  0  0  0  0  0  0  0  0  0
    1.8303   -0.3950   -4.9942 H   0  0  0  0  0  0  0  0  0  0  0  0
    4.4599   -0.4763   -5.4232 H   0  0  0  0  0  0  0  0  0  0  0  0
    4.3015   -1.8315   -4.2550 H   0  0  0  0  0  0  0  0  0  0  0  0
    3.4299   -1.8920   -5.8245 H   0  0  0  0  0  0  0  0  0  0  0  0
  1  3  1  0  0  0  0
  1  7  1  0  0  0  0
  1  2  2  0  0  0  0
 29 30  1  0  0  0  0
 30 38  1  0  0  0  0
 30 31  2  0  0  0  0
  8  9  1  0  0  0  0
  9 17  1  0  0  0  0
  9 10  2  0  0  0  0
 18 19  1  0  0  0  0
 19 28  1  0  0  0  0
 19 20  2  0  0  0  0
 29 32  1  0  0  0  0
  8 11  1  0  0  0  0
 38 39  1  0  0  0  0
 18 21  1  0  0  0  0
 21 22  1  0  0  0  0
 28 29  1  0  0  0  0
  7  8  1  0  0  0  0
 17 18  1  0  0  0  0
  3  4  1  0  0  0  0
  3  5  1  0  0  0  0
  3  6  1  0  0  0  0
 32 35  1  0  0  0  0
 32 36  1  0  0  0  0
 32 37  1  0  0  0  0
 11 14  1  0  0  0  0
 11 15  1  0  0  0  0
 11 16  1  0  0  0  0
 39 41  1  0  0  0  0
 39 42  1  0  0  0  0
 39 43  1  0  0  0  0
 21 25  1  0  0  0  0
 21 26  1  0  0  0  0
 29 34  1  0  0  0  0
  8 13  1  0  0  0  0
 18 24  1  0  0  0  0
 38 40  1  0  0  0  0
  7 12  1  0  0  0  0
 28 33  1  0  0  0  0
 17 23  1  0  0  0  0
 22 27  1  0  0  0  0
M  END
$$$$

  -OEChem-05262214473D

 43 42  0     1  0  0  0  0  0999 V2000
   -2.8661   -4.7415    2.2943 C   0  0  0  0  0  0  0  0  0  0  0  0
   -2.0233   -5.5727    2.6109 O   0  0  0  0  0  0  0  0  0  0  0  0
   -4.3078   -5.0134    2.5698 C   0  0  0  0  0  0  0  0  0  0  0  0
   -4.8057   -5.5295    1.7332 H   0  0  0  0  0  0  0  0  0  0  0  0
   -4.4526   -5.6688    3.4436 H   0  0  0  0  0  0  0  0  0  0  0  0
   -4.9255   -4.1233    2.7700 H   0  0  0  0  0  0  0  0  0  0  0  0
   -2.6241   -3.5219    1.6838 N   0  0  0  0  0  0  0  0  0  0  0  0
   -1.3070   -3.0608    1.3315 C   0  0  2  0  0  0  0  0  0  0  0  0
   -1.3931   -1.5680    1.0422 C   0  0  0  0  0  0  0  0  0  0  0  0
   -2.4385   -1.0059    0.7226 O   0  0  0  0  0  0  0  0  0  0  0  0
   -0.7590   -3.8164    0.1309 C   0  0  0  0  0  0  0  0  0  0  0  0
   -3.4188   -2.9207    1.4735 H   0  0  0  0  0  0  0  0  0  0  0  0
   -0.6690   -3.2277    2.2062 H   0  0  0  0  0  0  0  0  0  0  0  0
   -1.3852   -3.6613   -0.7553 H   0  0  0  0  0  0  0  0  0  0  0  0
    0.2542   -3.4843   -0.1182 H   0  0  0  0  0  0  0  0  0  0  0  0
   -0.7257   -4.8930    0.3300 H   0  0  0  0  0  0  0  0  0  0  0  0
   -0.1563   -0.9420    1.1402 N   0  0  0  0  0  0  0  0  0  0  0  0
    0.0261    0.4671    0.9001 C   0  0  2  0  0  0  0  0  0  0  0  0
   -0.0375    0.7248   -0.6040 C   0  0  0  0  0  0  0  0  0  0  0  0
   -0.8837    1.4493   -1.1240 O   0  0  0  0  0  0  0  0  0  0  0  0
    1.2984    1.0099    1.5556 C   0  0  0  0  0  0  0  0  0  0  0  0
    1.2723    0.9428    3.3770 S   0  0  0  0  0  0  0  0  0  0  0  0
    0.6533   -1.4855    1.4300 H   0  0  0  0  0  0  0  0  0  0  0  0
   -0.8416    0.9587    1.3572 H   0  0  0  0  0  0  0  0  0  0  0  0
    2.1746    0.4457    1.2197 H   0  0  0  0  0  0  0  0  0  0  0  0
    1.4491    2.0561    1.2683 H   0  0  0  0  0  0  0  0  0  0  0  0
    2.4888    1.4756    3.5486 H   0  0  0  0  0  0  0  0  0  0  0  0
    0.9448    0.0318   -1.2972 N   0  0  0  0  0  0  0  0  0  0  0  0
    1.0833    0.1045   -2.7329 C   0  0  2  0  0  0  0  0  0  0  0  0
    2.1485   -0.8993   -3.1541 C   0  0  0  0  0  0  0  0  0  0  0  0
    3.0145   -1.3189   -2.3892 O   0  0  0  0  0  0  0  0  0  0  0  0
    1.4523    1.5095   -3.1828 C   0  0  0  0  0  0  0  0  0  0  0  0
    1.6254   -0.5193   -0.7827 H   0  0  0  0  0  0  0  0  0  0  0  0
    0.1171   -0.1870   -3.1591 H   0  0  0  0  0  0  0  0  0  0  0  0
    2.4176    1.8191   -2.7657 H   0  0  0  0  0  0  0  0  0  0  0  0
    1.5290    1.5697   -4.2735 H   0  0  0  0  0  0  0  0  0  0  0  0
    0.7001    2.2344   -2.8533 H   0  0  0  0  0  0  0  0  0  0  0  0
    2.0445   -1.2385   -4.4958 N   0  0  0  0  0  0  0  0  0  0  0  0
    2.9482   -2.1641   -5.1382 C   0  0  0  0  0  0  0  0  0  0  0  0
    1.2838   -0.8569   -5.0502 H   0  0  0  0  0  0  0  0  0  0  0  0
    3.7839   -1.6085   -5.5886 H   0  0  0  0  0  0  0  0  0  0  0  0
    3.3385   -2.8725   -4.3926 H   0  0  0  0  0  0  0  0  0  0  0  0
    2.4103   -2.7167   -5.9227 H   0  0  0  0  0  0  0  0  0  0  0  0
  1  3  1  0  0  0  0
  1  7  1  0  0  0  0
  1  2  2  0  0  0  0
 29 30  1  0  0  0  0
 30 38  1  0  0  0  0
 30 31  2  0  0  0  0
  8  9  1  0  0  0  0
  9 17  1  0  0  0  0
  9 10  2  0  0  0  0
 18 19  1  0  0  0  0
 19 28  1  0  0  0  0
 19 20  2  0  0  0  0
 29 32  1  0  0  0  0
  8 11  1  0  0  0  0
 38 39  1  0  0  0  0
 18 21  1  0  0  0  0
 21 22  1  0  0  0  0
 28 29  1  0  0  0  0
  7  8  1  0  0  0  0
 17 18  1  0  0  0  0
  3  4  1  0  0  0  0
  3  5  1  0  0  0  0
  3  6  1  0  0  0  0
 32 35  1  0  0  0  0
 32 36  1  0  0  0  0
 32 37  1  0  0  0  0
 11 14  1  0  0  0  0
 11 15  1  0  0  0  0
 11 16  1  0  0  0  0
 39 41  1  0  0  0  0
 39 42  1  0  0  0  0
 39 43  1  0  0  0  0
 21 25  1  0  0  0  0
 21 26  1  0  0  0  0
 29 34  1  0  0  0  0
  8 13  1  0  0  0  0
 18 24  1  0  0  0  0
 38 40  1  0  0  0  0
  7 12  1  0  0  0  0
 28 33  1  0  0  0  0
 17 23  1  0  0  0  0
 22 27  1  0  0  0  0
M  END
$$$$

  -OEChem-05262214473D

 43 42  0     1  0  0  0  0  0999 V2000
   -2.8661   -4.7415    2.2943 C   0  0  0  0  0  0  0  0  0  0  0  0
   -2.0233   -5.5727    2.6109 O   0  0  0  0  0  0  0  0  0  0  0  0
   -4.3078   -5.0134    2.5698 C   0  0  0  0  0  0  0  0  0  0  0  0
   -4.8057   -5.5295    1.7332 H   0  0  0  0  0  0  0  0  0  0  0  0
   -4.4526   -5.6688    3.4436 H   0  0  0  0  0  0  0  0  0  0  0  0
   -4.9255   -4.1233    2.7700 H   0  0  0  0  0  0  0  0  0  0  0  0
   -2.6241   -3.5219    1.6838 N   0  0  0  0  0  0  0  0  0  0  0  0
   -1.3070   -3.0608    1.3315 C   0  0  2  0  0  0  0  0  0  0  0  0
   -1.3931   -1.5680    1.0422 C   0  0  0  0  0  0  0  0  0  0  0  0
   -2.4385   -1.0059    0.7226 O   0  0  0  0  0  0  0  0  0  0  0  0
   -0.7590   -3.8164    0.1309 C   0  0  0  0  0  0  0  0  0  0  0  0
   -3.4188   -2.9207    1.4735 H   0  0  0  0  0  0  0  0  0  0  0  0
   -0.6690   -3.2277    2.2062 H   0  0  0  0  0  0  0  0  0  0  0  0
   -1.3852   -3.6613   -0.7553 H   0  0  0  0  0  0  0  0  0  0  0  0
    0.2542   -3.4843   -0.1182 H   0  0  0  0  0  0  0  0  0  0  0  0
   -0.7257   -4.8930    0.3300 H   0  0  0  0  0  0  0  0  0  0  0  0
   -0.1563   -0.9420    1.1402 N   0  0  0  0  0  0  0  0  0  0  0  0
    0.0261    0.4671    0.9001 C   0  0  2  0  0  0  0  0  0  0  0  0
   -0.0375    0.7248   -0.6040 C   0  0  0  0  0  0  0  0  0  0  0  0
   -0.6938    1.6385   -1.0997 O   0  0  0  0  0  0  0  0  0  0  0  0
    1.2984    1.0099    1.5556 C   0  0  0  0  0  0  0  0  0  0  0  0
    1.2723    0.9428    3.3770 S   0  0  0  0  0  0  0  0  0  0  0  0
    0.6533   -1.4855    1.4300 H   0  0  0  0  0  0  0  0  0  0  0  0
   -0.8416    0.9587    1.3572 H   0  0  0  0  0  0  0  0  0  0  0  0
    2.1746    0.4457    1.2197 H   0  0  0  0  0  0  0  0  0  0  0  0
    1.4491    2.0561    1.2683 H   0  0  0  0  0  0  0  0  0  0  0  0
    2.4888    1.4756    3.5486 H   0  0  0  0  0  0  0  0  0  0  0  0
    0.7037   -0.1994   -1.3266 N   0  0  0  0  0  0  0  0  0  0  0  0
    0.7913   -0.1718   -2.7679 C   0  0  2  0  0  0  0  0  0  0  0  0
    1.5457   -1.4162   -3.2171 C   0  0  0  0  0  0  0  0  0  0  0  0
    2.3099   -2.0390   -2.4828 O   0  0  0  0  0  0  0  0  0  0  0  0
    1.4853    1.0903   -3.2560 C   0  0  0  0  0  0  0  0  0  0  0  0
    1.2439   -0.9033   -0.8323 H   0  0  0  0  0  0  0  0  0  0  0  0
   -0.2354   -0.2093   -3.1480 H   0  0  0  0  0  0  0  0  0  0  0  0
    2.5153    1.1455   -2.8853 H   0  0  0  0  0  0  0  0  0  0  0  0
    1.5255    1.1233   -4.3498 H   0  0  0  0  0  0  0  0  0  0  0  0
    0.9581    1.9848   -2.9070 H   0  0  0  0  0  0  0  0  0  0  0  0
    1.2984   -1.7246   -4.5475 N   0  0  0  0  0  0  0  0  0  0  0  0
    1.9067   -2.8534   -5.2122 C   0  0  0  0  0  0  0  0  0  0  0  0
    0.6357   -1.1644   -5.0755 H   0  0  0  0  0  0  0  0  0  0  0  0
    2.8352   -2.5317   -5.7066 H   0  0  0  0  0  0  0  0  0  0  0  0
    2.1369   -3.6341   -4.4723 H   0  0  0  0  0  0  0  0  0  0  0  0
    1.2111   -3.2545   -5.9641 H   0  0  0  0  0  0  0  0  0  0  0  0
  1  3  1  0  0  0  0
  1  7  1  0  0  0  0
  1  2  2  0  0  0  0
 29 30  1  0  0  0  0
 30 38  1  0  0  0  0
 30 31  2  0  0  0  0
  8  9  1  0  0  0  0
  9 17  1  0  0  0  0
  9 10  2  0  0  0  0
 18 19  1  0  0  0  0
 19 28  1  0  0  0  0
 19 20  2  0  0  0  0
 29 32  1  0  0  0  0
  8 11  1  0  0  0  0
 38 39  1  0  0  0  0
 18 21  1  0  0  0  0
 21 22  1  0  0  0  0
 28 29  1  0  0  0  0
  7  8  1  0  0  0  0
 17 18  1  0  0  0  0
  3  4  1  0  0  0  0
  3  5  1  0  0  0  0
  3  6  1  0  0  0  0
 32 35  1  0  0  0  0
 32 36  1  0  0  0  0
 32 37  1  0  0  0  0
 11 14  1  0  0  0  0
 11 15  1  0  0  0  0
 11 16  1  0  0  0  0
 39 41  1  0  0  0  0
 39 42  1  0  0  0  0
 39 43  1  0  0  0  0
 21 25  1  0  0  0  0
 21 26  1  0  0  0  0
 29 34  1  0  0  0  0
  8 13  1  0  0  0  0
 18 24  1  0  0  0  0
 38 40  1  0  0  0  0
  7 12  1  0  0  0  0
 28 33  1  0  0  0  0
 17 23  1  0  0  0  0
 22 27  1  0  0  0  0
M  END
$$$$

  -OEChem-05262214473D

 43 42  0     1  0  0  0  0  0999 V2000
   -2.8661   -4.7415    2.2943 C   0  0  0  0  0  0  0  0  0  0  0  0
   -2.0233   -5.5727    2.6109 O   0  0  0  0  0  0  0  0  0  0  0  0
   -4.3078   -5.0134    2.5698 C   0  0  0  0  0  0  0  0  0  0  0  0
   -4.8057   -5.5295    1.7332 H   0  0  0  0  0  0  0  0  0  0  0  0
   -4.4526   -5.6688    3.4436 H   0  0  0  0  0  0  0  0  0  0  0  0
   -4.9255   -4.1233    2.7700 H   0  0  0  0  0  0  0  0  0  0  0  0
   -2.6241   -3.5219    1.6838 N   0  0  0  0  0  0  0  0  0  0  0  0
   -1.3070   -3.0608    1.3315 C   0  0  2  0  0  0  0  0  0  0  0  0
   -1.3931   -1.5680    1.0422 C   0  0  0  0  0  0  0  0  0  0  0  0
   -2.4385   -1.0059    0.7226 O   0  0  0  0  0  0  0  0  0  0  0  0
   -0.7590   -3.8164    0.1309 C   0  0  0  0  0  0  0  0  0  0  0  0
   -3.4188   -2.9207    1.4735 H   0  0  0  0  0  0  0  0  0  0  0  0
   -0.6690   -3.2277    2.2062 H   0  0  0  0  0  0  0  0  0  0  0  0
   -1.3852   -3.6613   -0.7553 H   0  0  0  0  0  0  0  0  0  0  0  0
    0.2542   -3.4843   -0.1182 H   0  0  0  0  0  0  0  0  0  0  0  0
   -0.7257   -4.8930    0.3300 H   0  0  0  0  0  0  0  0  0  0  0  0
   -0.1563   -0.9420    1.1402 N   0  0  0  0  0  0  0  0  0  0  0  0
    0.0261    0.4671    0.9001 C   0  0  2  0  0  0  0  0  0  0  0  0
   -0.0375    0.7248   -0.6040 C   0  0  0  0  0  0  0  0  0  0  0  0
   -0.4612    1.7732   -1.0864 O   0  0  0  0  0  0  0  0  0  0  0  0
    1.2984    1.0099    1.5556 C   0  0  0  0  0  0  0  0  0  0  0  0
    1.2723    0.9428    3.3770 S   0  0  0  0  0  0  0  0  0  0  0  0
    0.6533   -1.4855    1.4300 H   0  0  0  0  0  0  0  0  0  0  0  0
   -0.8416    0.9587    1.3572 H   0  0  0  0  0  0  0  0  0  0  0  0
    2.1746    0.4457    1.2197 H   0  0  0  0  0  0  0  0  0  0  0  0
    1.4491    2.0561    1.2683 H   0  0  0  0  0  0  0  0  0  0  0  0
    2.4888    1.4756    3.5486 H   0  0  0  0  0  0  0  0  0  0  0  0
    0.4106   -0.3616   -1.3420 N   0  0  0  0  0  0  0  0  0  0  0  0
    0.4373   -0.3646   -2.7860 C   0  0  2  0  0  0  0  0  0  0  0  0
    0.8289   -1.7626   -3.2461 C   0  0  0  0  0  0  0  0  0  0  0  0
    1.4416   -2.5560   -2.5346 O   0  0  0  0  0  0  0  0  0  0  0  0
    1.4071    0.6761   -3.3236 C   0  0  0  0  0  0  0  0  0  0  0  0
    0.7755   -1.1775   -0.8595 H   0  0  0  0  0  0  0  0  0  0  0  0
   -0.5812   -0.1409   -3.1216 H   0  0  0  0  0  0  0  0  0  0  0  0
    2.4328    0.4686   -2.9977 H   0  0  0  0  0  0  0  0  0  0  0  0
    1.4050    0.6922   -4.4185 H   0  0  0  0  0  0  0  0  0  0  0  0
    1.1413    1.6773   -2.9674 H   0  0  0  0  0  0  0  0  0  0  0  0
    0.4515   -2.0045   -4.5596 N   0  0  0  0  0  0  0  0  0  0  0  0
    0.7217   -3.2545   -5.2308 C   0  0  0  0  0  0  0  0  0  0  0  0
   -0.0697   -1.2965   -5.0683 H   0  0  0  0  0  0  0  0  0  0  0  0
    1.6783   -3.1829   -5.7692 H   0  0  0  0  0  0  0  0  0  0  0  0
    0.7787   -4.0643   -4.4885 H   0  0  0  0  0  0  0  0  0  0  0  0
   -0.0862   -3.4687   -5.9459 H   0  0  0  0  0  0  0  0  0  0  0  0
  1  3  1  0  0  0  0
  1  7  1  0  0  0  0
  1  2  2  0  0  0  0
 29 30  1  0  0  0  0
 30 38  1  0  0  0  0
 30 31  2  0  0  0  0
  8  9  1  0  0  0  0
  9 17  1  0  0  0  0
  9 10  2  0  0  0  0
 18 19  1  0  0  0  0
 19 28  1  0  0  0  0
 19 20  2  0  0  0  0
 29 32  1  0  0  0  0
  8 11  1  0  0  0  0
 38 39  1  0  0  0  0
 18 21  1  0  0  0  0
 21 22  1  0  0  0  0
 28 29  1  0  0  0  0
  7  8  1  0  0  0  0
 17 18  1  0  0  0  0
  3  4  1  0  0  0  0
  3  5  1  0  0  0  0
  3  6  1  0  0  0  0
 32 35  1  0  0  0  0
 32 36  1  0  0  0  0
 32 37  1  0  0  0  0
 11 14  1  0  0  0  0
 11 15  1  0  0  0  0
 11 16  1  0  0  0  0
 39 41  1  0  0  0  0
 39 42  1  0  0  0  0
 39 43  1  0  0  0  0
 21 25  1  0  0  0  0
 21 26  1  0  0  0  0
 29 34  1  0  0  0  0
  8 13  1  0  0  0  0
 18 24  1  0  0  0  0
 38 40  1  0  0  0  0
  7 12  1  0  0  0  0
 28 33  1  0  0  0  0
 17 23  1  0  0  0  0
 22 27  1  0  0  0  0
M  END
$$$$

  -OEChem-05262214473D

 43 42  0     1  0  0  0  0  0999 V2000
   -2.8661   -4.7415    2.2943 C   0  0  0  0  0  0  0  0  0  0  0  0
   -2.0233   -5.5727    2.6109 O   0  0  0  0  0  0  0  0  0  0  0  0
   -4.3078   -5.0134    2.5698 C   0  0  0  0  0  0  0  0  0  0  0  0
   -4.8057   -5.5295    1.7332 H   0  0  0  0  0  0  0  0  0  0  0  0
   -4.4526   -5.6688    3.4436 H   0  0  0  0  0  0  0  0  0  0  0  0
   -4.9255   -4.1233    2.7700 H   0  0  0  0  0  0  0  0  0  0  0  0
   -2.6241   -3.5219    1.6838 N   0  0  0  0  0  0  0  0  0  0  0  0
   -1.3070   -3.0608    1.3315 C   0  0  2  0  0  0  0  0  0  0  0  0
   -1.3931   -1.5680    1.0422 C   0  0  0  0  0  0  0  0  0  0  0  0
   -2.4385   -1.0059    0.7226 O   0  0  0  0  0  0  0  0  0  0  0  0
   -0.7590   -3.8164    0.1309 C   0  0  0  0  0  0  0  0  0  0  0  0
   -3.4188   -2.9207    1.4735 H   0  0  0  0  0  0  0  0  0  0  0  0
   -0.6690   -3.2277    2.2062 H   0  0  0  0  0  0  0  0  0  0  0  0
   -1.3852   -3.6613   -0.7553 H   0  0  0  0  0  0  0  0  0  0  0  0
    0.2542   -3.4843   -0.1182 H   0  0  0  0  0  0  0  0  0  0  0  0
   -0.7257   -4.8930    0.3300 H   0  0  0  0  0  0  0  0  0  0  0  0
   -0.1563   -0.9420    1.1402 N   0  0  0  0  0  0  0  0  0  0  0  0
    0.0261    0.4671    0.9001 C   0  0  2  0  0  0  0  0  0  0  0  0
   -0.0375    0.7248   -0.6040 C   0  0  0  0  0  0  0  0  0  0  0  0
   -0.2015    1.8441   -1.0853 O   0  0  0  0  0  0  0  0  0  0  0  0
    1.2984    1.0099    1.5556 C   0  0  0  0  0  0  0  0  0  0  0  0
    1.2723    0.9428    3.3770 S   0  0  0  0  0  0  0  0  0  0  0  0
    0.6533   -1.4855    1.4300 H   0  0  0  0  0  0  0  0  0  0  0  0
   -0.8416    0.9587    1.3572 H   0  0  0  0  0  0  0  0  0  0  0  0
    2.1746    0.4457    1.2197 H   0  0  0  0  0  0  0  0  0  0  0  0
    1.4491    2.0561    1.2683 H   0  0  0  0  0  0  0  0  0  0  0  0
    2.4888    1.4756    3.5486 H   0  0  0  0  0  0  0  0  0  0  0  0
    0.0854   -0.4437   -1.3423 N   0  0  0  0  0  0  0  0  0  0  0  0
    0.0454   -0.4609   -2.7859 C   0  0  2  0  0  0  0  0  0  0  0  0
    0.0470   -1.9148   -3.2391 C   0  0  0  0  0  0  0  0  0  0  0  0
    0.4689   -2.8346   -2.5412 O   0  0  0  0  0  0  0  0  0  0  0  0
    1.2230    0.2953   -3.3811 C   0  0  0  0  0  0  0  0  0  0  0  0
    0.2519   -1.3232   -0.8623 H   0  0  0  0  0  0  0  0  0  0  0  0
   -0.8966    0.0136   -3.0818 H   0  0  0  0  0  0  0  0  0  0  0  0
    2.1757   -0.1654   -3.0955 H   0  0  0  0  0  0  0  0  0  0  0  0
    1.1758    0.3057   -4.4750 H   0  0  0  0  0  0  0  0  0  0  0  0
    1.2373    1.3329   -3.0305 H   0  0  0  0  0  0  0  0  0  0  0  0
   -0.4383   -2.0592   -4.5314 N   0  0  0  0  0  0  0  0  0  0  0  0
   -0.5259   -3.3401   -5.1927 C   0  0  0  0  0  0  0  0  0  0  0  0
   -0.7845   -1.2442   -5.0291 H   0  0  0  0  0  0  0  0  0  0  0  0
    0.3921   -3.5177   -5.7722 H   0  0  0  0  0  0  0  0  0  0  0  0
   -0.6436   -4.1339   -4.4403 H   0  0  0  0  0  0  0  0  0  0  0  0
   -1.3931   -3.3448   -5.8694 H   0  0  0  0  0  0  0  0  0  0  0  0
  1  3  1  0  0  0  0
  1  7  1  0  0  0  0
  1  2  2  0  0  0  0
 29 30  1  0  0  0  0
 30 38  1  0  0  0  0
 30 31  2  0  0  0  0
  8  9  1  0  0  0  0
  9 17  1  0  0  0  0
  9 10  2  0  0  0  0
 18 19  1  0  0  0  0
 19 28  1  0  0  0  0
 19 20  2  0  0  0  0
 29 32  1  0  0  0  0
  8 11  1  0  0  0  0
 38 39  1  0  0  0  0
 18 21  1  0  0  0  0
 21 22  1  0  0  0  0
 28 29  1  0  0  0  0
  7  8  1  0  0  0  0
 17 18  1  0  0  0  0
  3  4  1  0  0  0  0
  3  5  1  0  0  0  0
  3  6  1  0  0  0  0
 32 35  1  0  0  0  0
 32 36  1  0  0  0  0
 32 37  1  0  0  0  0
 11 14  1  0  0  0  0
 11 15  1  0  0  0  0
 11 16  1  0  0  0  0
 39 41  1  0  0  0  0
 39 42  1  0  0  0  0
 39 43  1  0  0  0  0
 21 25  1  0  0  0  0
 21 26  1  0  0  0  0
 29 34  1  0  0  0  0
  8 13  1  0  0  0  0
 18 24  1  0  0  0  0
 38 40  1  0  0  0  0
  7 12  1  0  0  0  0
 28 33  1  0  0  0  0
 17 23  1  0  0  0  0
 22 27  1  0  0  0  0
M  END
$$$$

  -OEChem-05262214473D

 43 42  0     1  0  0  0  0  0999 V2000
   -2.8661   -4.7415    2.2943 C   0  0  0  0  0  0  0  0  0  0  0  0
   -2.0233   -5.5727    2.6109 O   0  0  0  0  0  0  0  0  0  0  0  0
   -4.3078   -5.0134    2.5698 C   0  0  0  0  0  0  0  0  0  0  0  0
   -4.8057   -5.5295    1.7332 H   0  0  0  0  0  0  0  0  0  0  0  0
   -4.4526   -5.6688    3.4436 H   0  0  0  0  0  0  0  0  0  0  0  0
   -4.9255   -4.1233    2.7700 H   0  0  0  0  0  0  0  0  0  0  0  0
   -2.6241   -3.5219    1.6838 N   0  0  0  0  0  0  0  0  0  0  0  0
   -1.3070   -3.0608    1.3315 C   0  0  2  0  0  0  0  0  0  0  0  0
   -1.3931   -1.5680    1.0422 C   0  0  0  0  0  0  0  0  0  0  0  0
   -2.4385   -1.0059    0.7226 O   0  0  0  0  0  0  0  0  0  0  0  0
   -0.7590   -3.8164    0.1309 C   0  0  0  0  0  0  0  0  0  0  0  0
   -3.4188   -2.9207    1.4735 H   0  0  0  0  0  0  0  0  0  0  0  0
   -0.6690   -3.2277    2.2062 H   0  0  0  0  0  0  0  0  0  0  0  0
   -1.3852   -3.6613   -0.7553 H   0  0  0  0  0  0  0  0  0  0  0  0
    0.2542   -3.4843   -0.1182 H   0  0  0  0  0  0  0  0  0  0  0  0
   -0.7257   -4.8930    0.3300 H   0  0  0  0  0  0  0  0  0  0  0  0
   -0.1563   -0.9420    1.1402 N   0  0  0  0  0  0  0  0  0  0  0  0
    0.0261    0.4671    0.9001 C   0  0  2  0  0  0  0  0  0  0  0  0
   -0.0375    0.7248   -0.6040 C   0  0  0  0  0  0  0  0  0  0  0  0
    0.0674    1.8464   -1.0962 O   0  0  0  0  0  0  0  0  0  0  0  0
    1.2984    1.0099    1.5556 C   0  0  0  0  0  0  0  0  0  0  0  0
    1.2723    0.9428    3.3770 S   0  0  0  0  0  0  0  0  0  0  0  0
    0.6533   -1.4855    1.4300 H   0  0  0  0  0  0  0  0  0  0  0  0
   -0.8416    0.9587    1.3572 H   0  0  0  0  0  0  0  0  0  0  0  0
    2.1746    0.4457    1.2197 H   0  0  0  0  0  0  0  0  0  0  0  0
    1.4491    2.0561    1.2683 H   0  0  0  0  0  0  0  0  0  0  0  0
    2.4888    1.4756    3.5486 H   0  0  0  0  0  0  0  0  0  0  0  0
   -0.2496   -0.4401   -1.3275 N   0  0  0  0  0  0  0  0  0  0  0  0
   -0.3576   -0.4539   -2.7677 C   0  0  2  0  0  0  0  0  0  0  0  0
   -0.7468   -1.8625   -3.1966 C   0  0  0  0  0  0  0  0  0  0  0  0
   -0.5420   -2.8558   -2.5021 O   0  0  0  0  0  0  0  0  0  0  0  0
    0.9456   -0.0263   -3.4245 C   0  0  0  0  0  0  0  0  0  0  0  0
   -0.2911   -1.3306   -0.8406 H   0  0  0  0  0  0  0  0  0  0  0  0
   -1.1601    0.2436   -3.0313 H   0  0  0  0  0  0  0  0  0  0  0  0
    1.7615   -0.7133   -3.1718 H   0  0  0  0  0  0  0  0  0  0  0  0
    0.8534   -0.0098   -4.5154 H   0  0  0  0  0  0  0  0  0  0  0  0
    1.2394    0.9752   -3.0919 H   0  0  0  0  0  0  0  0  0  0  0  0
   -1.3106   -1.8848   -4.4646 N   0  0  0  0  0  0  0  0  0  0  0  0
   -1.7511   -3.1045   -5.1006 C   0  0  0  0  0  0  0  0  0  0  0  0
   -1.4598   -1.0111   -4.9606 H   0  0  0  0  0  0  0  0  0  0  0  0
   -0.9357   -3.5133   -5.7153 H   0  0  0  0  0  0  0  0  0  0  0  0
   -2.0331   -3.8380   -4.3309 H   0  0  0  0  0  0  0  0  0  0  0  0
   -2.6205   -2.8912   -5.7398 H   0  0  0  0  0  0  0  0  0  0  0  0
  1  3  1  0  0  0  0
  1  7  1  0  0  0  0
  1  2  2  0  0  0  0
 29 30  1  0  0  0  0
 30 38  1  0  0  0  0
 30 31  2  0  0  0  0
  8  9  1  0  0  0  0
  9 17  1  0  0  0  0
  9 10  2  0  0  0  0
 18 19  1  0  0  0  0
 19 28  1  0  0  0  0
 19 20  2  0  0  0  0
 29 32  1  0  0  0  0
  8 11  1  0  0  0  0
 38 39  1  0  0  0  0
 18 21  1  0  0  0  0
 21 22  1  0  0  0  0
 28 29  1  0  0  0  0
  7  8  1  0  0  0  0
 17 18  1  0  0  0  0
  3  4  1  0  0  0  0
  3  5  1  0  0  0  0
  3  6  1  0  0  0  0
 32 35  1  0  0  0  0
 32 36  1  0  0  0  0
 32 37  1  0  0  0  0
 11 14  1  0  0  0  0
 11 15  1  0  0  0  0
 11 16  1  0  0  0  0
 39 41  1  0  0  0  0
 39 42  1  0  0  0  0
 39 43  1  0  0  0  0
 21 25  1  0  0  0  0
 21 26  1  0  0  0  0
 29 34  1  0  0  0  0
  8 13  1  0  0  0  0
 18 24  1  0  0  0  0
 38 40  1  0  0  0  0
  7 12  1  0  0  0  0
 28 33  1  0  0  0  0
 17 23  1  0  0  0  0
 22 27  1  0  0  0  0
M  END
$$$$

  -OEChem-05262214473D

 43 42  0     1  0  0  0  0  0999 V2000
   -2.8661   -4.7415    2.2943 C   0  0  0  0  0  0  0  0  0  0  0  0
   -2.0233   -5.5727    2.6109 O   0  0  0  0  0  0  0  0  0  0  0  0
   -4.3078   -5.0134    2.5698 C   0  0  0  0  0  0  0  0  0  0  0  0
   -4.8057   -5.5295    1.7332 H   0  0  0  0  0  0  0  0  0  0  0  0
   -4.4526   -5.6688    3.4436 H   0  0  0  0  0  0  0  0  0  0  0  0
   -4.9255   -4.1233    2.7700 H   0  0  0  0  0  0  0  0  0  0  0  0
   -2.6241   -3.5219    1.6838 N   0  0  0  0  0  0  0  0  0  0  0  0
   -1.3070   -3.0608    1.3315 C   0  0  2  0  0  0  0  0  0  0  0  0
   -1.3931   -1.5680    1.0422 C   0  0  0  0  0  0  0  0  0  0  0  0
   -2.4385   -1.0059    0.7226 O   0  0  0  0  0  0  0  0  0  0  0  0
   -0.7590   -3.8164    0.1309 C   0  0  0  0  0  0  0  0  0  0  0  0
   -3.4188   -2.9207    1.4735 H   0  0  0  0  0  0  0  0  0  0  0  0
   -0.6690   -3.2277    2.2062 H   0  0  0  0  0  0  0  0  0  0  0  0
   -1.3852   -3.6613   -0.7553 H   0  0  0  0  0  0  0  0  0  0  0  0
    0.2542   -3.4843   -0.1182 H   0  0  0  0  0  0  0  0  0  0  0  0
   -0.7257   -4.8930    0.3300 H   0  0  0  0  0  0  0  0  0  0  0  0
   -0.1563   -0.9420    1.1402 N   0  0  0  0  0  0  0  0  0  0  0  0
    0.0261    0.4671    0.9001 C   0  0  2  0  0  0  0  0  0  0  0  0
   -0.0375    0.7248   -0.6040 C   0  0  0  0  0  0  0  0  0  0  0  0
    0.3273    1.7800   -1.1186 O   0  0  0  0  0  0  0  0  0  0  0  0
    1.2984    1.0099    1.5556 C   0  0  0  0  0  0  0  0  0  0  0  0
    1.2723    0.9428    3.3770 S   0  0  0  0  0  0  0  0  0  0  0  0
    0.6533   -1.4855    1.4300 H   0  0  0  0  0  0  0  0  0  0  0  0
   -0.8416    0.9587    1.3572 H   0  0  0  0  0  0  0  0  0  0  0  0
    2.1746    0.4457    1.2197 H   0  0  0  0  0  0  0  0  0  0  0  0
    1.4491    2.0561    1.2683 H   0  0  0  0  0  0  0  0  0  0  0  0
    2.4888    1.4756    3.5486 H   0  0  0  0  0  0  0  0  0  0  0  0
   -0.5716   -0.3512   -1.2987 N   0  0  0  0  0  0  0  0  0  0  0  0
   -0.7444   -0.3443   -2.7325 C   0  0  2  0  0  0  0  0  0  0  0  0
   -1.4983   -1.6091   -3.1214 C   0  0  0  0  0  0  0  0  0  0  0  0
   -1.5221   -2.6183   -2.4200 O   0  0  0  0  0  0  0  0  0  0  0  0
    0.5938   -0.2667   -3.4508 C   0  0  0  0  0  0  0  0  0  0  0  0
   -0.8165   -1.1990   -0.7959 H   0  0  0  0  0  0  0  0  0  0  0  0
   -1.3538    0.5335   -2.9734 H   0  0  0  0  0  0  0  0  0  0  0  0
    1.2184   -1.1378   -3.2216 H   0  0  0  0  0  0  0  0  0  0  0  0
    0.4598   -0.2327   -4.5370 H   0  0  0  0  0  0  0  0  0  0  0  0
    1.1476    0.6284   -3.1474 H   0  0  0  0  0  0  0  0  0  0  0  0
   -2.1058   -1.4934   -4.3639 N   0  0  0  0  0  0  0  0  0  0  0  0
   -2.8705   -2.5635   -4.9606 C   0  0  0  0  0  0  0  0  0  0  0  0
   -2.0498   -0.6130   -4.8675 H   0  0  0  0  0  0  0  0  0  0  0  0
   -2.2147   -3.1700   -5.6024 H   0  0  0  0  0  0  0  0  0  0  0  0
   -3.2950   -3.1969   -4.1677 H   0  0  0  0  0  0  0  0  0  0  0  0
   -3.6849   -2.1387   -5.5659 H   0  0  0  0  0  0  0  0  0  0  0  0
  1  3  1  0  0  0  0
  1  7  1  0  0  0  0
  1  2  2  0  0  0  0
 29 30  1  0  0  0  0
 30 38  1  0  0  0  0
 30 31  2  0  0  0  0
  8  9  1  0  0  0  0
  9 17  1  0  0  0  0
  9 10  2  0  0  0  0
 18 19  1  0  0  0  0
 19 28  1  0  0  0  0
 19 20  2  0  0  0  0
 29 32  1  0  0  0  0
  8 11  1  0  0  0  0
 38 39  1  0  0  0  0
 18 21  1  0  0  0  0
 21 22  1  0  0  0  0
 28 29  1  0  0  0  0
  7  8  1  0  0  0  0
 17 18  1  0  0  0  0
  3  4  1  0  0  0  0
  3  5  1  0  0  0  0
  3  6  1  0  0  0  0
 32 35  1  0  0  0  0
 32 36  1  0  0  0  0
 32 37  1  0  0  0  0
 11 14  1  0  0  0  0
 11 15  1  0  0  0  0
 11 16  1  0  0  0  0
 39 41  1  0  0  0  0
 39 42  1  0  0  0  0
 39 43  1  0  0  0  0
 21 25  1  0  0  0  0
 21 26  1  0  0  0  0
 29 34  1  0  0  0  0
  8 13  1  0  0  0  0
 18 24  1  0  0  0  0
 38 40  1  0  0  0  0
  7 12  1  0  0  0  0
 28 33  1  0  0  0  0
 17 23  1  0  0  0  0
 22 27  1  0  0  0  0
M  END
$$$$

  -OEChem-05262214473D

 43 42  0     1  0  0  0  0  0999 V2000
   -2.8661   -4.7415    2.2943 C   0  0  0  0  0  0  0  0  0  0  0  0
   -2.0233   -5.5727    2.6109 O   0  0  0  0  0  0  0  0  0  0  0  0
   -4.3078   -5.0134    2.5698 C   0  0  0  0  0  0  0  0  0  0  0  0
   -4.8057   -5.5295    1.7332 H   0  0  0  0  0  0  0  0  0  0  0  0
   -4.4526   -5.6688    3.4436 H   0  0  0  0  0  0  0  0  0  0  0  0
   -4.9255   -4.1233    2.7700 H   0  0  0  0  0  0  0  0  0  0  0  0
   -2.6241   -3.5219    1.6838 N   0  0  0  0  0  0  0  0  0  0  0  0
   -1.3070   -3.0608    1.3315 C   0  0  2  0  0  0  0  0  0  0  0  0
   -1.3931   -1.5680    1.0422 C   0  0  0  0  0  0  0  0  0  0  0  0
   -2.4385   -1.0059    0.7226 O   0  0  0  0  0  0  0  0  0  0  0  0
   -0.7590   -3.8164    0.1309 C   0  0  0  0  0  0  0  0  0  0  0  0
   -3.4188   -2.9207    1.4735 H   0  0  0  0  0  0  0  0  0  0  0  0
   -0.6690   -3.2277    2.2062 H   0  0  0  0  0  0  0  0  0  0  0  0
   -1.3852   -3.6613   -0.7553 H   0  0  0  0  0  0  0  0  0  0  0  0
    0.2542   -3.4843   -0.1182 H   0  0  0  0  0  0  0  0  0  0  0  0
   -0.7257   -4.8930    0.3300 H   0  0  0  0  0  0  0  0  0  0  0  0
   -0.1563   -0.9420    1.1402 N   0  0  0  0  0  0  0  0  0  0  0  0
    0.0261    0.4671    0.9001 C   0  0  2  0  0  0  0  0  0  0  0  0
   -0.0375    0.7248   -0.6040 C   0  0  0  0  0  0  0  0  0  0  0  0
    0.5604    1.6494   -1.1508 O   0  0  0  0  0  0  0  0  0  0  0  0
    1.2984    1.0099    1.5556 C   0  0  0  0  0  0  0  0  0  0  0  0
    1.2723    0.9428    3.3770 S   0  0  0  0  0  0  0  0  0  0  0  0
    0.6533   -1.4855    1.4300 H   0  0  0  0  0  0  0  0  0  0  0  0
   -0.8416    0.9587    1.3572 H   0  0  0  0  0  0  0  0  0  0  0  0
    2.1746    0.4457    1.2197 H   0  0  0  0  0  0  0  0  0  0  0  0
    1.4491    2.0561    1.2683 H   0  0  0  0  0  0  0  0  0  0  0  0
    2.4888    1.4756    3.5486 H   0  0  0  0  0  0  0  0  0  0  0  0
   -0.8587   -0.1828   -1.2577 N   0  0  0  0  0  0  0  0  0  0  0  0
   -1.0885   -0.1394   -2.6829 C   0  0  2  0  0  0  0  0  0  0  0  0
   -2.1564   -1.1720   -3.0187 C   0  0  0  0  0  0  0  0  0  0  0  0
   -2.4048   -2.1382   -2.3004 O   0  0  0  0  0  0  0  0  0  0  0  0
    0.1916   -0.4095   -3.4582 C   0  0  0  0  0  0  0  0  0  0  0  0
   -1.2885   -0.9376   -0.7311 H   0  0  0  0  0  0  0  0  0  0  0  0
   -1.4645    0.8636   -2.9122 H   0  0  0  0  0  0  0  0  0  0  0  0
    0.5834   -1.4099   -3.2413 H   0  0  0  0  0  0  0  0  0  0  0  0
    0.0218   -0.3480   -4.5382 H   0  0  0  0  0  0  0  0  0  0  0  0
    0.9682    0.3162   -3.1933 H   0  0  0  0  0  0  0  0  0  0  0  0
   -2.7697   -0.9115   -4.2362 N   0  0  0  0  0  0  0  0  0  0  0  0
   -3.8078   -1.7542   -4.7823 C   0  0  0  0  0  0  0  0  0  0  0  0
   -2.5141   -0.0772   -4.7560 H   0  0  0  0  0  0  0  0  0  0  0  0
   -3.3576   -2.5112   -5.4412 H   0  0  0  0  0  0  0  0  0  0  0  0
   -4.3434   -2.2542   -3.9619 H   0  0  0  0  0  0  0  0  0  0  0  0
   -4.5136   -1.1388   -5.3596 H   0  0  0  0  0  0  0  0  0  0  0  0
  1  3  1  0  0  0  0
  1  7  1  0  0  0  0
  1  2  2  0  0  0  0
 29 30  1  0  0  0  0
 30 38  1  0  0  0  0
 30 31  2  0  0  0  0
  8  9  1  0  0  0  0
  9 17  1  0  0  0  0
  9 10  2  0  0  0  0
 18 19  1  0  0  0  0
 19 28  1  0  0  0  0
 19 20  2  0  0  0  0
 29 32  1  0  0  0  0
  8 11  1  0  0  0  0
 38 39  1  0  0  0  0
 18 21  1  0  0  0  0
 21 22  1  0  0  0  0
 28 29  1  0  0  0  0
  7  8  1  0  0  0  0
 17 18  1  0  0  0  0
  3  4  1  0  0  0  0
  3  5  1  0  0  0  0
  3  6  1  0  0  0  0
 32 35  1  0  0  0  0
 32 36  1  0  0  0  0
 32 37  1  0  0  0  0
 11 14  1  0  0  0  0
 11 15  1  0  0  0  0
 11 16  1  0  0  0  0
 39 41  1  0  0  0  0
 39 42  1  0  0  0  0
 39 43  1  0  0  0  0
 21 25  1  0  0  0  0
 21 26  1  0  0  0  0
 29 34  1  0  0  0  0
  8 13  1  0  0  0  0
 18 24  1  0  0  0  0
 38 40  1  0  0  0  0
  7 12  1  0  0  0  0
 28 33  1  0  0  0  0
 17 23  1  0  0  0  0
 22 27  1  0  0  0  0
M  END
$$$$

  -OEChem-05262214473D

 43 42  0     1  0  0  0  0  0999 V2000
   -2.8661   -4.7415    2.2943 C   0  0  0  0  0  0  0  0  0  0  0  0
   -2.0233   -5.5727    2.6109 O   0  0  0  0  0  0  0  0  0  0  0  0
   -4.3078   -5.0134    2.5698 C   0  0  0  0  0  0  0  0  0  0  0  0
   -4.8057   -5.5295    1.7332 H   0  0  0  0  0  0  0  0  0  0  0  0
   -4.4526   -5.6688    3.4436 H   0  0  0  0  0  0  0  0  0  0  0  0
   -4.9255   -4.1233    2.7700 H   0  0  0  0  0  0  0  0  0  0  0  0
   -2.6241   -3.5219    1.6838 N   0  0  0  0  0  0  0  0  0  0  0  0
   -1.3070   -3.0608    1.3315 C   0  0  2  0  0  0  0  0  0  0  0  0
   -1.3931   -1.5680    1.0422 C   0  0  0  0  0  0  0  0  0  0  0  0
   -2.4385   -1.0059    0.7226 O   0  0  0  0  0  0  0  0  0  0  0  0
   -0.7590   -3.8164    0.1309 C   0  0  0  0  0  0  0  0  0  0  0  0
   -3.4188   -2.9207    1.4735 H   0  0  0  0  0  0  0  0  0  0  0  0
   -0.6690   -3.2277    2.2062 H   0  0  0  0  0  0  0  0  0  0  0  0
   -1.3852   -3.6613   -0.7553 H   0  0  0  0  0  0  0  0  0  0  0  0
    0.2542   -3.4843   -0.1182 H   0  0  0  0  0  0  0  0  0  0  0  0
   -0.7257   -4.8930    0.3300 H   0  0  0  0  0  0  0  0  0  0  0  0
   -0.1563   -0.9420    1.1402 N   0  0  0  0  0  0  0  0  0  0  0  0
    0.0261    0.4671    0.9001 C   0  0  2  0  0  0  0  0  0  0  0  0
   -0.0375    0.7248   -0.6040 C   0  0  0  0  0  0  0  0  0  0  0  0
    0.7508    1.4635   -1.1907 O   0  0  0  0  0  0  0  0  0  0  0  0
    1.2984    1.0099    1.5556 C   0  0  0  0  0  0  0  0  0  0  0  0
    1.2723    0.9428    3.3770 S   0  0  0  0  0  0  0  0  0  0  0  0
    0.6533   -1.4855    1.4300 H   0  0  0  0  0  0  0  0  0  0  0  0
   -0.8416    0.9587    1.3572 H   0  0  0  0  0  0  0  0  0  0  0  0
    2.1746    0.4457    1.2197 H   0  0  0  0  0  0  0  0  0  0  0  0
    1.4491    2.0561    1.2683 H   0  0  0  0  0  0  0  0  0  0  0  0
    2.4888    1.4756    3.5486 H   0  0  0  0  0  0  0  0  0  0  0  0
   -1.0914    0.0534   -1.2074 N   0  0  0  0  0  0  0  0  0  0  0  0
   -1.3665    0.1467   -2.6221 C   0  0  2  0  0  0  0  0  0  0  0  0
   -2.6761   -0.5810   -2.8955 C   0  0  0  0  0  0  0  0  0  0  0  0
   -3.1297   -1.4481   -2.1515 O   0  0  0  0  0  0  0  0  0  0  0  0
   -0.2336   -0.4450   -3.4463 C   0  0  0  0  0  0  0  0  0  0  0  0
   -1.6750   -0.5640   -0.6508 H   0  0  0  0  0  0  0  0  0  0  0  0
   -1.4847    1.2112   -2.8518 H   0  0  0  0  0  0  0  0  0  0  0  0
   -0.1001   -1.5111   -3.2298 H   0  0  0  0  0  0  0  0  0  0  0  0
   -0.4307   -0.3477   -4.5190 H   0  0  0  0  0  0  0  0  0  0  0  0
    0.7132    0.0599   -3.2264 H   0  0  0  0  0  0  0  0  0  0  0  0
   -3.2571   -0.1789   -4.0901 N   0  0  0  0  0  0  0  0  0  0  0  0
   -4.4991   -0.7316   -4.5779 C   0  0  0  0  0  0  0  0  0  0  0  0
   -2.8212    0.5600   -4.6339 H   0  0  0  0  0  0  0  0  0  0  0  0
   -4.2867   -1.5818   -5.2427 H   0  0  0  0  0  0  0  0  0  0  0  0
   -5.1069   -1.0743   -3.7274 H   0  0  0  0  0  0  0  0  0  0  0  0
   -5.0501    0.0405   -5.1348 H   0  0  0  0  0  0  0  0  0  0  0  0
  1  3  1  0  0  0  0
  1  7  1  0  0  0  0
  1  2  2  0  0  0  0
 29 30  1  0  0  0  0
 30 38  1  0  0  0  0
 30 31  2  0  0  0  0
  8  9  1  0  0  0  0
  9 17  1  0  0  0  0
  9 10  2  0  0  0  0
 18 19  1  0  0  0  0
 19 28  1  0  0  0  0
 19 20  2  0  0  0  0
 29 32  1  0  0  0  0
  8 11  1  0  0  0  0
 38 39  1  0  0  0  0
 18 21  1  0  0  0  0
 21 22  1  0  0  0  0
 28 29  1  0  0  0  0
  7  8  1  0  0  0  0
 17 18  1  0  0  0  0
  3  4  1  0  0  0  0
  3  5  1  0  0  0  0
  3  6  1  0  0  0  0
 32 35  1  0  0  0  0
 32 36  1  0  0  0  0
 32 37  1  0  0  0  0
 11 14  1  0  0  0  0
 11 15  1  0  0  0  0
 11 16  1  0  0  0  0
 39 41  1  0  0  0  0
 39 42  1  0  0  0  0
 39 43  1  0  0  0  0
 21 25  1  0  0  0  0
 21 26  1  0  0  0  0
 29 34  1  0  0  0  0
  8 13  1  0  0  0  0
 18 24  1  0  0  0  0
 38 40  1  0  0  0  0
  7 12  1  0  0  0  0
 28 33  1  0  0  0  0
 17 23  1  0  0  0  0
 22 27  1  0  0  0  0
M  END
$$$$

  -OEChem-05262214473D

 43 42  0     1  0  0  0  0  0999 V2000
   -2.8661   -4.7415    2.2943 C   0  0  0  0  0  0  0  0  0  0  0  0
   -2.0233   -5.5727    2.6109 O   0  0  0  0  0  0  0  0  0  0  0  0
   -4.3078   -5.0134    2.5698 C   0  0  0  0  0  0  0  0  0  0  0  0
   -4.8057   -5.5295    1.7332 H   0  0  0  0  0  0  0  0  0  0  0  0
   -4.4526   -5.6688    3.4436 H   0  0  0  0  0  0  0  0  0  0  0  0
   -4.9255   -4.1233    2.7700 H   0  0  0  0  0  0  0  0  0  0  0  0
   -2.6241   -3.5219    1.6838 N   0  0  0  0  0  0  0  0  0  0  0  0
   -1.3070   -3.0608    1.3315 C   0  0  2  0  0  0  0  0  0  0  0  0
   -1.3931   -1.5680    1.0422 C   0  0  0  0  0  0  0  0  0  0  0  0
   -2.4385   -1.0059    0.7226 O   0  0  0  0  0  0  0  0  0  0  0  0
   -0.7590   -3.8164    0.1309 C   0  0  0  0  0  0  0  0  0  0  0  0
   -3.4188   -2.9207    1.4735 H   0  0  0  0  0  0  0  0  0  0  0  0
   -0.6690   -3.2277    2.2062 H   0  0  0  0  0  0  0  0  0  0  0  0
   -1.3852   -3.6613   -0.7553 H   0  0  0  0  0  0  0  0  0  0  0  0
    0.2542   -3.4843   -0.1182 H   0  0  0  0  0  0  0  0  0  0  0  0
   -0.7257   -4.8930    0.3300 H   0  0  0  0  0  0  0  0  0  0  0  0
   -0.1563   -0.9420    1.1402 N   0  0  0  0  0  0  0  0  0  0  0  0
    0.0261    0.4671    0.9001 C   0  0  2  0  0  0  0  0  0  0  0  0
   -0.0375    0.7248   -0.6040 C   0  0  0  0  0  0  0  0  0  0  0  0
    0.8857    1.2349   -1.2356 O   0  0  0  0  0  0  0  0  0  0  0  0
    1.2984    1.0099    1.5556 C   0  0  0  0  0  0  0  0  0  0  0  0
    1.2723    0.9428    3.3770 S   0  0  0  0  0  0  0  0  0  0  0  0
    0.6533   -1.4855    1.4300 H   0  0  0  0  0  0  0  0  0  0  0  0
   -0.8416    0.9587    1.3572 H   0  0  0  0  0  0  0  0  0  0  0  0
    2.1746    0.4457    1.2197 H   0  0  0  0  0  0  0  0  0  0  0  0
    1.4491    2.0561    1.2683 H   0  0  0  0  0  0  0  0  0  0  0  0
    2.4888    1.4756    3.5486 H   0  0  0  0  0  0  0  0  0  0  0  0
   -1.2537    0.3414   -1.1512 N   0  0  0  0  0  0  0  0  0  0  0  0
   -1.5594    0.4945   -2.5544 C   0  0  2  0  0  0  0  0  0  0  0  0
   -3.0222    0.1237   -2.7602 C   0  0  0  0  0  0  0  0  0  0  0  0
   -3.6476   -0.5952   -1.9835 O   0  0  0  0  0  0  0  0  0  0  0  0
   -0.6529   -0.3707   -3.4159 C   0  0  0  0  0  0  0  0  0  0  0  0
   -1.9496   -0.1038   -0.5603 H   0  0  0  0  0  0  0  0  0  0  0  0
   -1.4129    1.5528   -2.7963 H   0  0  0  0  0  0  0  0  0  0  0  0
   -0.7857   -1.4346   -3.1876 H   0  0  0  0  0  0  0  0  0  0  0  0
   -0.8668   -0.2320   -4.4808 H   0  0  0  0  0  0  0  0  0  0  0  0
    0.4002   -0.1230   -3.2445 H   0  0  0  0  0  0  0  0  0  0  0  0
   -3.5348    0.6545   -3.9355 N   0  0  0  0  0  0  0  0  0  0  0  0
   -4.8973    0.4345   -4.3613 C   0  0  0  0  0  0  0  0  0  0  0  0
   -2.9500    1.2550   -4.5094 H   0  0  0  0  0  0  0  0  0  0  0  0
   -4.9385   -0.4451   -5.0204 H   0  0  0  0  0  0  0  0  0  0  0  0
   -5.5333    0.2626   -3.4804 H   0  0  0  0  0  0  0  0  0  0  0  0
   -5.2580    1.3188   -4.9071 H   0  0  0  0  0  0  0  0  0  0  0  0
  1  3  1  0  0  0  0
  1  7  1  0  0  0  0
  1  2  2  0  0  0  0
 29 30  1  0  0  0  0
 30 38  1  0  0  0  0
 30 31  2  0  0  0  0
  8  9  1  0  0  0  0
  9 17  1  0  0  0  0
  9 10  2  0  0  0  0
 18 19  1  0  0  0  0
 19 28  1  0  0  0  0
 19 20  2  0  0  0  0
 29 32  1  0  0  0  0
  8 11  1  0  0  0  0
 38 39  1  0  0  0  0
 18 21  1  0  0  0  0
 21 22  1  0  0  0  0
 28 29  1  0  0  0  0
  7  8  1  0  0  0  0
 17 18  1  0  0  0  0
  3  4  1  0  0  0  0
  3  5  1  0  0  0  0
  3  6  1  0  0  0  0
 32 35  1  0  0  0  0
 32 36  1  0  0  0  0
 32 37  1  0  0  0  0
 11 14  1  0  0  0  0
 11 15  1  0  0  0  0
 11 16  1  0  0  0  0
 39 41  1  0  0  0  0
 39 42  1  0  0  0  0
 39 43  1  0  0  0  0
 21 25  1  0  0  0  0
 21 26  1  0  0  0  0
 29 34  1  0  0  0  0
  8 13  1  0  0  0  0
 18 24  1  0  0  0  0
 38 40  1  0  0  0  0
  7 12  1  0  0  0  0
 28 33  1  0  0  0  0
 17 23  1  0  0  0  0
 22 27  1  0  0  0  0
M  END
$$$$

  -OEChem-05262214473D

 43 42  0     1  0  0  0  0  0999 V2000
   -2.8661   -4.7415    2.2943 C   0  0  0  0  0  0  0  0  0  0  0  0
   -2.0233   -5.5727    2.6109 O   0  0  0  0  0  0  0  0  0  0  0  0
   -4.3078   -5.0134    2.5698 C   0  0  0  0  0  0  0  0  0  0  0  0
   -4.8057   -5.5295    1.7332 H   0  0  0  0  0  0  0  0  0  0  0  0
   -4.4526   -5.6688    3.4436 H   0  0  0  0  0  0  0  0  0  0  0  0
   -4.9255   -4.1233    2.7700 H   0  0  0  0  0  0  0  0  0  0  0  0
   -2.6241   -3.5219    1.6838 N   0  0  0  0  0  0  0  0  0  0  0  0
   -1.3070   -3.0608    1.3315 C   0  0  2  0  0  0  0  0  0  0  0  0
   -1.3931   -1.5680    1.0422 C   0  0  0  0  0  0  0  0  0  0  0  0
   -2.4385   -1.0059    0.7226 O   0  0  0  0  0  0  0  0  0  0  0  0
   -0.7590   -3.8164    0.1309 C   0  0  0  0  0  0  0  0  0  0  0  0
   -3.4188   -2.9207    1.4735 H   0  0  0  0  0  0  0  0  0  0  0  0
   -0.6690   -3.2277    2.2062 H   0  0  0  0  0  0  0  0  0  0  0  0
   -1.3852   -3.6613   -0.7553 H   0  0  0  0  0  0  0  0  0  0  0  0
    0.2542   -3.4843   -0.1182 H   0  0  0  0  0  0  0  0  0  0  0  0
   -0.7257   -4.8930    0.3300 H   0  0  0  0  0  0  0  0  0  0  0  0
   -0.1563   -0.9420    1.1402 N   0  0  0  0  0  0  0  0  0  0  0  0
    0.0261    0.4671    0.9001 C   0  0  2  0  0  0  0  0  0  0  0  0
   -0.0375    0.7248   -0.6040 C   0  0  0  0  0  0  0  0  0  0  0  0
    0.9557    0.9793   -1.2823 O   0  0  0  0  0  0  0  0  0  0  0  0
    1.2984    1.0099    1.5556 C   0  0  0  0  0  0  0  0  0  0  0  0
    1.2723    0.9428    3.3770 S   0  0  0  0  0  0  0  0  0  0  0  0
    0.6533   -1.4855    1.4300 H   0  0  0  0  0  0  0  0  0  0  0  0
   -0.8416    0.9587    1.3572 H   0  0  0  0  0  0  0  0  0  0  0  0
    2.1746    0.4457    1.2197 H   0  0  0  0  0  0  0  0  0  0  0  0
    1.4491    2.0561    1.2683 H   0  0  0  0  0  0  0  0  0  0  0  0
    2.4888    1.4756    3.5486 H   0  0  0  0  0  0  0  0  0  0  0  0
   -1.3346    0.6616   -1.0929 N   0  0  0  0  0  0  0  0  0  0  0  0
   -1.6542    0.8805   -2.4842 C   0  0  2  0  0  0  0  0  0  0  0  0
   -3.1709    0.8940   -2.6219 C   0  0  0  0  0  0  0  0  0  0  0  0
   -3.9231    0.3624   -1.8078 O   0  0  0  0  0  0  0  0  0  0  0  0
   -1.0376   -0.1919   -3.3690 C   0  0  0  0  0  0  0  0  0  0  0  0
   -2.0936    0.4116   -0.4660 H   0  0  0  0  0  0  0  0  0  0  0  0
   -1.2540    1.8651   -2.7495 H   0  0  0  0  0  0  0  0  0  0  0  0
   -1.4265   -1.1854   -3.1179 H   0  0  0  0  0  0  0  0  0  0  0  0
   -1.2569   -0.0086   -4.4260 H   0  0  0  0  0  0  0  0  0  0  0  0
    0.0505   -0.2201   -3.2463 H   0  0  0  0  0  0  0  0  0  0  0  0
   -3.5838    1.5321   -3.7832 N   0  0  0  0  0  0  0  0  0  0  0  0
   -4.9752    1.6648   -4.1472 C   0  0  0  0  0  0  0  0  0  0  0  0
   -2.8919    1.9605   -4.3910 H   0  0  0  0  0  0  0  0  0  0  0  0
   -5.2687    0.8214   -4.7895 H   0  0  0  0  0  0  0  0  0  0  0  0
   -5.5936    1.6653   -3.2376 H   0  0  0  0  0  0  0  0  0  0  0  0
   -5.1231    2.6090   -4.6918 H   0  0  0  0  0  0  0  0  0  0  0  0
  1  3  1  0  0  0  0
  1  7  1  0  0  0  0
  1  2  2  0  0  0  0
 29 30  1  0  0  0  0
 30 38  1  0  0  0  0
 30 31  2  0  0  0  0
  8  9  1  0  0  0  0
  9 17  1  0  0  0  0
  9 10  2  0  0  0  0
 18 19  1  0  0  0  0
 19 28  1  0  0  0  0
 19 20  2  0  0  0  0
 29 32  1  0  0  0  0
  8 11  1  0  0  0  0
 38 39  1  0  0  0  0
 18 21  1  0  0  0  0
 21 22  1  0  0  0  0
 28 29  1  0  0  0  0
  7  8  1  0  0  0  0
 17 18  1  0  0  0  0
  3  4  1  0  0  0  0
  3  5  1  0  0  0  0
  3  6  1  0  0  0  0
 32 35  1  0  0  0  0
 32 36  1  0  0  0  0
 32 37  1  0  0  0  0
 11 14  1  0  0  0  0
 11 15  1  0  0  0  0
 11 16  1  0  0  0  0
 39 41  1  0  0  0  0
 39 42  1  0  0  0  0
 39 43  1  0  0  0  0
 21 25  1  0  0  0  0
 21 26  1  0  0  0  0
 29 34  1  0  0  0  0
  8 13  1  0  0  0  0
 18 24  1  0  0  0  0
 38 40  1  0  0  0  0
  7 12  1  0  0  0  0
 28 33  1  0  0  0  0
 17 23  1  0  0  0  0
 22 27  1  0  0  0  0
M  END
$$$$

  -OEChem-05262214473D

 43 42  0     1  0  0  0  0  0999 V2000
   -2.8661   -4.7415    2.2943 C   0  0  0  0  0  0  0  0  0  0  0  0
   -2.0233   -5.5727    2.6109 O   0  0  0  0  0  0  0  0  0  0  0  0
   -4.3078   -5.0134    2.5698 C   0  0  0  0  0  0  0  0  0  0  0  0
   -4.8057   -5.5295    1.7332 H   0  0  0  0  0  0  0  0  0  0  0  0
   -4.4526   -5.6688    3.4436 H   0  0  0  0  0  0  0  0  0  0  0  0
   -4.9255   -4.1233    2.7700 H   0  0  0  0  0  0  0  0  0  0  0  0
   -2.6241   -3.5219    1.6838 N   0  0  0  0  0  0  0  0  0  0  0  0
   -1.3070   -3.0608    1.3315 C   0  0  2  0  0  0  0  0  0  0  0  0
   -1.3931   -1.5680    1.0422 C   0  0  0  0  0  0  0  0  0  0  0  0
   -2.4385   -1.0059    0.7226 O   0  0  0  0  0  0  0  0  0  0  0  0
   -0.7590   -3.8164    0.1309 C   0  0  0  0  0  0  0  0  0  0  0  0
   -3.4188   -2.9207    1.4735 H   0  0  0  0  0  0  0  0  0  0  0  0
   -0.6690   -3.2277    2.2062 H   0  0  0  0  0  0  0  0  0  0  0  0
   -1.3852   -3.6613   -0.7553 H   0  0  0  0  0  0  0  0  0  0  0  0
    0.2542   -3.4843   -0.1182 H   0  0  0  0  0  0  0  0  0  0  0  0
   -0.7257   -4.8930    0.3300 H   0  0  0  0  0  0  0  0  0  0  0  0
   -0.1563   -0.9420    1.1402 N   0  0  0  0  0  0  0  0  0  0  0  0
    0.0261    0.4671    0.9001 C   0  0  2  0  0  0  0  0  0  0  0  0
   -0.0375    0.7248   -0.6040 C   0  0  0  0  0  0  0  0  0  0  0  0
    0.9562    0.7140   -1.3278 O   0  0  0  0  0  0  0  0  0  0  0  0
    1.2984    1.0099    1.5556 C   0  0  0  0  0  0  0  0  0  0  0  0
    1.2723    0.9428    3.3770 S   0  0  0  0  0  0  0  0  0  0  0  0
    0.6533   -1.4855    1.4300 H   0  0  0  0  0  0  0  0  0  0  0  0
   -0.8416    0.9587    1.3572 H   0  0  0  0  0  0  0  0  0  0  0  0
    2.1746    0.4457    1.2197 H   0  0  0  0  0  0  0  0  0  0  0  0
    1.4491    2.0561    1.2683 H   0  0  0  0  0  0  0  0  0  0  0  0
    2.4888    1.4756    3.5486 H   0  0  0  0  0  0  0  0  0  0  0  0
   -1.3286    0.9921   -1.0366 N   0  0  0  0  0  0  0  0  0  0  0  0
   -1.6443    1.2781   -2.4165 C   0  0  2  0  0  0  0  0  0  0  0  0
   -3.1121    1.6774   -2.4902 C   0  0  0  0  0  0  0  0  0  0  0  0
   -3.9374    1.3596   -1.6364 O   0  0  0  0  0  0  0  0  0  0  0  0
   -1.3616    0.0795   -3.3088 C   0  0  0  0  0  0  0  0  0  0  0  0
   -2.0972    0.9473   -0.3740 H   0  0  0  0  0  0  0  0  0  0  0  0
   -1.0189    2.1267   -2.7147 H   0  0  0  0  0  0  0  0  0  0  0  0
   -1.9790   -0.7807   -3.0252 H   0  0  0  0  0  0  0  0  0  0  0  0
   -1.5744    0.3073   -4.3585 H   0  0  0  0  0  0  0  0  0  0  0  0
   -0.3122   -0.2248   -3.2318 H   0  0  0  0  0  0  0  0  0  0  0  0
   -3.4009    2.3938   -3.6433 N   0  0  0  0  0  0  0  0  0  0  0  0
   -4.7275    2.8752   -3.9503 C   0  0  0  0  0  0  0  0  0  0  0  0
   -2.6508    2.6284   -4.2868 H   0  0  0  0  0  0  0  0  0  0  0  0
   -5.2548    2.1313   -4.5657 H   0  0  0  0  0  0  0  0  0  0  0  0
   -5.2838    3.0382   -3.0155 H   0  0  0  0  0  0  0  0  0  0  0  0
   -4.6545    3.8232   -4.5036 H   0  0  0  0  0  0  0  0  0  0  0  0
  1  3  1  0  0  0  0
  1  7  1  0  0  0  0
  1  2  2  0  0  0  0
 29 30  1  0  0  0  0
 30 38  1  0  0  0  0
 30 31  2  0  0  0  0
  8  9  1  0  0  0  0
  9 17  1  0  0  0  0
  9 10  2  0  0  0  0
 18 19  1  0  0  0  0
 19 28  1  0  0  0  0
 19 20  2  0  0  0  0
 29 32  1  0  0  0  0
  8 11  1  0  0  0  0
 38 39  1  0  0  0  0
 18 21  1  0  0  0  0
 21 22  1  0  0  0  0
 28 29  1  0  0  0  0
  7  8  1  0  0  0  0
 17 18  1  0  0  0  0
  3  4  1  0  0  0  0
  3  5  1  0  0  0  0
  3  6  1  0  0  0  0
 32 35  1  0  0  0  0
 32 36  1  0  0  0  0
 32 37  1  0  0  0  0
 11 14  1  0  0  0  0
 11 15  1  0  0  0  0
 11 16  1  0  0  0  0
 39 41  1  0  0  0  0
 39 42  1  0  0  0  0
 39 43  1  0  0  0  0
 21 25  1  0  0  0  0
 21 26  1  0  0  0  0
 29 34  1  0  0  0  0
  8 13  1  0  0  0  0
 18 24  1  0  0  0  0
 38 40  1  0  0  0  0
  7 12  1  0  0  0  0
 28 33  1  0  0  0  0
 17 23  1  0  0  0  0
 22 27  1  0  0  0  0
M  END
$$$$

  -OEChem-05262214473D

 43 42  0     1  0  0  0  0  0999 V2000
   -2.8661   -4.7415    2.2943 C   0  0  0  0  0  0  0  0  0  0  0  0
   -2.0233   -5.5727    2.6109 O   0  0  0  0  0  0  0  0  0  0  0  0
   -4.3078   -5.0134    2.5698 C   0  0  0  0  0  0  0  0  0  0  0  0
   -4.8057   -5.5295    1.7332 H   0  0  0  0  0  0  0  0  0  0  0  0
   -4.4526   -5.6688    3.4436 H   0  0  0  0  0  0  0  0  0  0  0  0
   -4.9255   -4.1233    2.7700 H   0  0  0  0  0  0  0  0  0  0  0  0
   -2.6241   -3.5219    1.6838 N   0  0  0  0  0  0  0  0  0  0  0  0
   -1.3070   -3.0608    1.3315 C   0  0  2  0  0  0  0  0  0  0  0  0
   -1.3931   -1.5680    1.0422 C   0  0  0  0  0  0  0  0  0  0  0  0
   -2.4385   -1.0059    0.7226 O   0  0  0  0  0  0  0  0  0  0  0  0
   -0.7590   -3.8164    0.1309 C   0  0  0  0  0  0  0  0  0  0  0  0
   -3.4188   -2.9207    1.4735 H   0  0  0  0  0  0  0  0  0  0  0  0
   -0.6690   -3.2277    2.2062 H   0  0  0  0  0  0  0  0  0  0  0  0
   -1.3852   -3.6613   -0.7553 H   0  0  0  0  0  0  0  0  0  0  0  0
    0.2542   -3.4843   -0.1182 H   0  0  0  0  0  0  0  0  0  0  0  0
   -0.7257   -4.8930    0.3300 H   0  0  0  0  0  0  0  0  0  0  0  0
   -0.1563   -0.9420    1.1402 N   0  0  0  0  0  0  0  0  0  0  0  0
    0.0261    0.4671    0.9001 C   0  0  2  0  0  0  0  0  0  0  0  0
   -0.0375    0.7248   -0.6040 C   0  0  0  0  0  0  0  0  0  0  0  0
    0.8870    0.4571   -1.3689 O   0  0  0  0  0  0  0  0  0  0  0  0
    1.2984    1.0099    1.5556 C   0  0  0  0  0  0  0  0  0  0  0  0
    1.2723    0.9428    3.3770 S   0  0  0  0  0  0  0  0  0  0  0  0
    0.6533   -1.4855    1.4300 H   0  0  0  0  0  0  0  0  0  0  0  0
   -0.8416    0.9587    1.3572 H   0  0  0  0  0  0  0  0  0  0  0  0
    2.1746    0.4457    1.2197 H   0  0  0  0  0  0  0  0  0  0  0  0
    1.4491    2.0561    1.2683 H   0  0  0  0  0  0  0  0  0  0  0  0
    2.4888    1.4756    3.5486 H   0  0  0  0  0  0  0  0  0  0  0  0
   -1.2361    1.3104   -0.9859 N   0  0  0  0  0  0  0  0  0  0  0  0
   -1.5304    1.6605   -2.3559 C   0  0  2  0  0  0  0  0  0  0  0  0
   -2.8499    2.4207   -2.3740 C   0  0  0  0  0  0  0  0  0  0  0  0
   -3.6896    2.3282   -1.4810 O   0  0  0  0  0  0  0  0  0  0  0  0
   -1.6028    0.4248   -3.2394 C   0  0  0  0  0  0  0  0  0  0  0  0
   -1.9601    1.4666   -0.2909 H   0  0  0  0  0  0  0  0  0  0  0  0
   -0.7237    2.3199   -2.6941 H   0  0  0  0  0  0  0  0  0  0  0  0
   -2.4054   -0.2479   -2.9159 H   0  0  0  0  0  0  0  0  0  0  0  0
   -1.7976    0.6940   -4.2828 H   0  0  0  0  0  0  0  0  0  0  0  0
   -0.6631   -0.1367   -3.2019 H   0  0  0  0  0  0  0  0  0  0  0  0
   -2.9984    3.1811   -3.5254 N   0  0  0  0  0  0  0  0  0  0  0  0
   -4.1712    3.9834   -3.7840 C   0  0  0  0  0  0  0  0  0  0  0  0
   -2.2431    3.2133   -4.2038 H   0  0  0  0  0  0  0  0  0  0  0  0
   -4.8976    3.3955   -4.3642 H   0  0  0  0  0  0  0  0  0  0  0  0
   -4.6249    4.2877   -2.8293 H   0  0  0  0  0  0  0  0  0  0  0  0
   -3.8842    4.8785   -4.3554 H   0  0  0  0  0  0  0  0  0  0  0  0
  1  3  1  0  0  0  0
  1  7  1  0  0  0  0
  1  2  2  0  0  0  0
 29 30  1  0  0  0  0
 30 38  1  0  0  0  0
 30 31  2  0  0  0  0
  8  9  1  0  0  0  0
  9 17  1  0  0  0  0
  9 10  2  0  0  0  0
 18 19  1  0  0  0  0
 19 28  1  0  0  0  0
 19 20  2  0  0  0  0
 29 32  1  0  0  0  0
  8 11  1  0  0  0  0
 38 39  1  0  0  0  0
 18 21  1  0  0  0  0
 21 22  1  0  0  0  0
 28 29  1  0  0  0  0
  7  8  1  0  0  0  0
 17 18  1  0  0  0  0
  3  4  1  0  0  0  0
  3  5  1  0  0  0  0
  3  6  1  0  0  0  0
 32 35  1  0  0  0  0
 32 36  1  0  0  0  0
 32 37  1  0  0  0  0
 11 14  1  0  0  0  0
 11 15  1  0  0  0  0
 11 16  1  0  0  0  0
 39 41  1  0  0  0  0
 39 42  1  0  0  0  0
 39 43  1  0  0  0  0
 21 25  1  0  0  0  0
 21 26  1  0  0  0  0
 29 34  1  0  0  0  0
  8 13  1  0  0  0  0
 18 24  1  0  0  0  0
 38 40  1  0  0  0  0
  7 12  1  0  0  0  0
 28 33  1  0  0  0  0
 17 23  1  0  0  0  0
 22 27  1  0  0  0  0
M  END
$$$$

  -OEChem-05262214473D

 43 42  0     1  0  0  0  0  0999 V2000
   -2.8661   -4.7415    2.2943 C   0  0  0  0  0  0  0  0  0  0  0  0
   -2.0233   -5.5727    2.6109 O   0  0  0  0  0  0  0  0  0  0  0  0
   -4.3078   -5.0134    2.5698 C   0  0  0  0  0  0  0  0  0  0  0  0
   -4.8057   -5.5295    1.7332 H   0  0  0  0  0  0  0  0  0  0  0  0
   -4.4526   -5.6688    3.4436 H   0  0  0  0  0  0  0  0  0  0  0  0
   -4.9255   -4.1233    2.7700 H   0  0  0  0  0  0  0  0  0  0  0  0
   -2.6241   -3.5219    1.6838 N   0  0  0  0  0  0  0  0  0  0  0  0
   -1.3070   -3.0608    1.3315 C   0  0  2  0  0  0  0  0  0  0  0  0
   -1.3931   -1.5680    1.0422 C   0  0  0  0  0  0  0  0  0  0  0  0
   -2.4385   -1.0059    0.7226 O   0  0  0  0  0  0  0  0  0  0  0  0
   -0.7590   -3.8164    0.1309 C   0  0  0  0  0  0  0  0  0  0  0  0
   -3.4188   -2.9207    1.4735 H   0  0  0  0  0  0  0  0  0  0  0  0
   -0.6690   -3.2277    2.2062 H   0  0  0  0  0  0  0  0  0  0  0  0
   -1.3852   -3.6613   -0.7553 H   0  0  0  0  0  0  0  0  0  0  0  0
    0.2542   -3.4843   -0.1182 H   0  0  0  0  0  0  0  0  0  0  0  0
   -0.7257   -4.8930    0.3300 H   0  0  0  0  0  0  0  0  0  0  0  0
   -0.1563   -0.9420    1.1402 N   0  0  0  0  0  0  0  0  0  0  0  0
    0.0261    0.4671    0.9001 C   0  0  2  0  0  0  0  0  0  0  0  0
   -0.0375    0.7248   -0.6040 C   0  0  0  0  0  0  0  0  0  0  0  0
    0.7529    0.2262   -1.4028 O   0  0  0  0  0  0  0  0  0  0  0  0
    1.2984    1.0099    1.5556 C   0  0  0  0  0  0  0  0  0  0  0  0
    1.2723    0.9428    3.3770 S   0  0  0  0  0  0  0  0  0  0  0  0
    0.6533   -1.4855    1.4300 H   0  0  0  0  0  0  0  0  0  0  0  0
   -0.8416    0.9587    1.3572 H   0  0  0  0  0  0  0  0  0  0  0  0
    2.1746    0.4457    1.2197 H   0  0  0  0  0  0  0  0  0  0  0  0
    1.4491    2.0561    1.2683 H   0  0  0  0  0  0  0  0  0  0  0  0
    2.4888    1.4756    3.5486 H   0  0  0  0  0  0  0  0  0  0  0  0
   -1.0634    1.5949   -0.9445 N   0  0  0  0  0  0  0  0  0  0  0  0
   -1.3203    2.0014   -2.3063 C   0  0  2  0  0  0  0  0  0  0  0  0
   -2.4022    3.0730   -2.2811 C   0  0  0  0  0  0  0  0  0  0  0  0
   -3.1966    3.2024   -1.3520 O   0  0  0  0  0  0  0  0  0  0  0  0
   -1.7447    0.8206   -3.1656 C   0  0  0  0  0  0  0  0  0  0  0  0
   -1.6917    1.9341   -0.2221 H   0  0  0  0  0  0  0  0  0  0  0  0
   -0.3883    2.4315   -2.6891 H   0  0  0  0  0  0  0  0  0  0  0  0
   -2.6767    0.3766   -2.7974 H   0  0  0  0  0  0  0  0  0  0  0  0
   -1.9114    1.1252   -4.2041 H   0  0  0  0  0  0  0  0  0  0  0  0
   -0.9782    0.0381   -3.1586 H   0  0  0  0  0  0  0  0  0  0  0  0
   -2.4039    3.8402   -3.4377 N   0  0  0  0  0  0  0  0  0  0  0  0
   -3.3441    4.9139   -3.6596 C   0  0  0  0  0  0  0  0  0  0  0  0
   -1.6966    3.6752   -4.1478 H   0  0  0  0  0  0  0  0  0  0  0  0
   -4.2217    4.5278   -4.1989 H   0  0  0  0  0  0  0  0  0  0  0  0
   -3.6619    5.3287   -2.6917 H   0  0  0  0  0  0  0  0  0  0  0  0
   -2.8647    5.7032   -4.2572 H   0  0  0  0  0  0  0  0  0  0  0  0
  1  3  1  0  0  0  0
  1  7  1  0  0  0  0
  1  2  2  0  0  0  0
 29 30  1  0  0  0  0
 30 38  1  0  0  0  0
 30 31  2  0  0  0  0
  8  9  1  0  0  0  0
  9 17  1  0  0  0  0
  9 10  2  0  0  0  0
 18 19  1  0  0  0  0
 19 28  1  0  0  0  0
 19 20  2  0  0  0  0
 29 32  1  0  0  0  0
  8 11  1  0  0  0  0
 38 39  1  0  0  0  0
 18 21  1  0  0  0  0
 21 22  1  0  0  0  0
 28 29  1  0  0  0  0
  7  8  1  0  0  0  0
 17 18  1  0  0  0  0
  3  4  1  0  0  0  0
  3  5  1  0  0  0  0
  3  6  1  0  0  0  0
 32 35  1  0  0  0  0
 32 36  1  0  0  0  0
 32 37  1  0  0  0  0
 11 14  1  0  0  0  0
 11 15  1  0  0  0  0
 11 16  1  0  0  0  0
 39 41  1  0  0  0  0
 39 42  1  0  0  0  0
 39 43  1  0  0  0  0
 21 25  1  0  0  0  0
 21 26  1  0  0  0  0
 29 34  1  0  0  0  0
  8 13  1  0  0  0  0
 18 24  1  0  0  0  0
 38 40  1  0  0  0  0
  7 12  1  0  0  0  0
 28 33  1  0  0  0  0
 17 23  1  0  0  0  0
 22 27  1  0  0  0  0
M  END
$$$$

  -OEChem-05262214473D

 43 42  0     1  0  0  0  0  0999 V2000
   -2.8661   -4.7415    2.2943 C   0  0  0  0  0  0  0  0  0  0  0  0
   -2.0233   -5.5727    2.6109 O   0  0  0  0  0  0  0  0  0  0  0  0
   -4.3078   -5.0134    2.5698 C   0  0  0  0  0  0  0  0  0  0  0  0
   -4.8057   -5.5295    1.7332 H   0  0  0  0  0  0  0  0  0  0  0  0
   -4.4526   -5.6688    3.4436 H   0  0  0  0  0  0  0  0  0  0  0  0
   -4.9255   -4.1233    2.7700 H   0  0  0  0  0  0  0  0  0  0  0  0
   -2.6241   -3.5219    1.6838 N   0  0  0  0  0  0  0  0  0  0  0  0
   -1.3070   -3.0608    1.3315 C   0  0  2  0  0  0  0  0  0  0  0  0
   -1.3931   -1.5680    1.0422 C   0  0  0  0  0  0  0  0  0  0  0  0
   -2.4385   -1.0059    0.7226 O   0  0  0  0  0  0  0  0  0  0  0  0
   -0.7590   -3.8164    0.1309 C   0  0  0  0  0  0  0  0  0  0  0  0
   -3.4188   -2.9207    1.4735 H   0  0  0  0  0  0  0  0  0  0  0  0
   -0.6690   -3.2277    2.2062 H   0  0  0  0  0  0  0  0  0  0  0  0
   -1.3852   -3.6613   -0.7553 H   0  0  0  0  0  0  0  0  0  0  0  0
    0.2542   -3.4843   -0.1182 H   0  0  0  0  0  0  0  0  0  0  0  0
   -0.7257   -4.8930    0.3300 H   0  0  0  0  0  0  0  0  0  0  0  0
   -0.1563   -0.9420    1.1402 N   0  0  0  0  0  0  0  0  0  0  0  0
    0.0261    0.4671    0.9001 C   0  0  2  0  0  0  0  0  0  0  0  0
   -0.0375    0.7248   -0.6040 C   0  0  0  0  0  0  0  0  0  0  0  0
    0.5631    0.0370   -1.4271 O   0  0  0  0  0  0  0  0  0  0  0  0
    1.2984    1.0099    1.5556 C   0  0  0  0  0  0  0  0  0  0  0  0
    1.2723    0.9428    3.3770 S   0  0  0  0  0  0  0  0  0  0  0  0
    0.6533   -1.4855    1.4300 H   0  0  0  0  0  0  0  0  0  0  0  0
   -0.8416    0.9587    1.3572 H   0  0  0  0  0  0  0  0  0  0  0  0
    2.1746    0.4457    1.2197 H   0  0  0  0  0  0  0  0  0  0  0  0
    1.4491    2.0561    1.2683 H   0  0  0  0  0  0  0  0  0  0  0  0
    2.4888    1.4756    3.5486 H   0  0  0  0  0  0  0  0  0  0  0  0
   -0.8223    1.8261   -0.9151 N   0  0  0  0  0  0  0  0  0  0  0  0
   -1.0283    2.2777   -2.2714 C   0  0  2  0  0  0  0  0  0  0  0  0
   -1.7994    3.5900   -2.2181 C   0  0  0  0  0  0  0  0  0  0  0  0
   -2.4920    3.9225   -1.2585 O   0  0  0  0  0  0  0  0  0  0  0  0
   -1.7776    1.2399   -3.0924 C   0  0  0  0  0  0  0  0  0  0  0  0
   -1.3103    2.3181   -0.1725 H   0  0  0  0  0  0  0  0  0  0  0  0
   -0.0357    2.4538   -2.7002 H   0  0  0  0  0  0  0  0  0  0  0  0
   -2.7744    1.0502   -2.6779 H   0  0  0  0  0  0  0  0  0  0  0  0
   -1.9079    1.5716   -4.1278 H   0  0  0  0  0  0  0  0  0  0  0  0
   -1.2362    0.2878   -3.1049 H   0  0  0  0  0  0  0  0  0  0  0  0
   -1.6577    4.3263   -3.3859 N   0  0  0  0  0  0  0  0  0  0  0  0
   -2.3026    5.6031   -3.5856 C   0  0  0  0  0  0  0  0  0  0  0  0
   -1.0486    3.9827   -4.1225 H   0  0  0  0  0  0  0  0  0  0  0  0
   -3.2729    5.4510   -4.0808 H   0  0  0  0  0  0  0  0  0  0  0  0
   -2.4603    6.0903   -2.6120 H   0  0  0  0  0  0  0  0  0  0  0  0
   -1.6654    6.2410   -4.2158 H   0  0  0  0  0  0  0  0  0  0  0  0
  1  3  1  0  0  0  0
  1  7  1  0  0  0  0
  1  2  2  0  0  0  0
 29 30  1  0  0  0  0
 30 38  1  0  0  0  0
 30 31  2  0  0  0  0
  8  9  1  0  0  0  0
  9 17  1  0  0  0  0
  9 10  2  0  0  0  0
 18 19  1  0  0  0  0
 19 28  1  0  0  0  0
 19 20  2  0  0  0  0
 29 32  1  0  0  0  0
  8 11  1  0  0  0  0
 38 39  1  0  0  0  0
 18 21  1  0  0  0  0
 21 22  1  0  0  0  0
 28 29  1  0  0  0  0
  7  8  1  0  0  0  0
 17 18  1  0  0  0  0
  3  4  1  0  0  0  0
  3  5  1  0  0  0  0
  3  6  1  0  0  0  0
 32 35  1  0  0  0  0
 32 36  1  0  0  0  0
 32 37  1  0  0  0  0
 11 14  1  0  0  0  0
 11 15  1  0  0  0  0
 11 16  1  0  0  0  0
 39 41  1  0  0  0  0
 39 42  1  0  0  0  0
 39 43  1  0  0  0  0
 21 25  1  0  0  0  0
 21 26  1  0  0  0  0
 29 34  1  0  0  0  0
  8 13  1  0  0  0  0
 18 24  1  0  0  0  0
 38 40  1  0  0  0  0
  7 12  1  0  0  0  0
 28 33  1  0  0  0  0
 17 23  1  0  0  0  0
 22 27  1  0  0  0  0
M  END
$$$$

  -OEChem-05262214473D

 43 42  0     1  0  0  0  0  0999 V2000
   -2.8661   -4.7415    2.2943 C   0  0  0  0  0  0  0  0  0  0  0  0
   -2.0233   -5.5727    2.6109 O   0  0  0  0  0  0  0  0  0  0  0  0
   -4.3078   -5.0134    2.5698 C   0  0  0  0  0  0  0  0  0  0  0  0
   -4.8057   -5.5295    1.7332 H   0  0  0  0  0  0  0  0  0  0  0  0
   -4.4526   -5.6688    3.4436 H   0  0  0  0  0  0  0  0  0  0  0  0
   -4.9255   -4.1233    2.7700 H   0  0  0  0  0  0  0  0  0  0  0  0
   -2.6241   -3.5219    1.6838 N   0  0  0  0  0  0  0  0  0  0  0  0
   -1.3070   -3.0608    1.3315 C   0  0  2  0  0  0  0  0  0  0  0  0
   -1.3931   -1.5680    1.0422 C   0  0  0  0  0  0  0  0  0  0  0  0
   -2.4385   -1.0059    0.7226 O   0  0  0  0  0  0  0  0  0  0  0  0
   -0.7590   -3.8164    0.1309 C   0  0  0  0  0  0  0  0  0  0  0  0
   -3.4188   -2.9207    1.4735 H   0  0  0  0  0  0  0  0  0  0  0  0
   -0.6690   -3.2277    2.2062 H   0  0  0  0  0  0  0  0  0  0  0  0
   -1.3852   -3.6613   -0.7553 H   0  0  0  0  0  0  0  0  0  0  0  0
    0.2542   -3.4843   -0.1182 H   0  0  0  0  0  0  0  0  0  0  0  0
   -0.7257   -4.8930    0.3300 H   0  0  0  0  0  0  0  0  0  0  0  0
   -0.1563   -0.9420    1.1402 N   0  0  0  0  0  0  0  0  0  0  0  0
    0.0261    0.4671    0.9001 C   0  0  2  0  0  0  0  0  0  0  0  0
   -0.0375    0.7248   -0.6040 C   0  0  0  0  0  0  0  0  0  0  0  0
    0.3305   -0.0977   -1.4404 O   0  0  0  0  0  0  0  0  0  0  0  0
    1.2984    1.0099    1.5556 C   0  0  0  0  0  0  0  0  0  0  0  0
    1.2723    0.9428    3.3770 S   0  0  0  0  0  0  0  0  0  0  0  0
    0.6533   -1.4855    1.4300 H   0  0  0  0  0  0  0  0  0  0  0  0
   -0.8416    0.9587    1.3572 H   0  0  0  0  0  0  0  0  0  0  0  0
    2.1746    0.4457    1.2197 H   0  0  0  0  0  0  0  0  0  0  0  0
    1.4491    2.0561    1.2683 H   0  0  0  0  0  0  0  0  0  0  0  0
    2.4888    1.4756    3.5486 H   0  0  0  0  0  0  0  0  0  0  0  0
   -0.5292    1.9882   -0.8997 N   0  0  0  0  0  0  0  0  0  0  0  0
   -0.6743    2.4705   -2.2533 C   0  0  2  0  0  0  0  0  0  0  0  0
   -1.0826    3.9363   -2.1891 C   0  0  0  0  0  0  0  0  0  0  0  0
   -1.6237    4.4395   -1.2066 O   0  0  0  0  0  0  0  0  0  0  0  0
   -1.6994    1.6540   -3.0248 C   0  0  0  0  0  0  0  0  0  0  0  0
   -0.8418    2.5923   -0.1453 H   0  0  0  0  0  0  0  0  0  0  0  0
    0.3100    2.3854   -2.7266 H   0  0  0  0  0  0  0  0  0  0  0  0
   -2.6919    1.7271   -2.5654 H   0  0  0  0  0  0  0  0  0  0  0  0
   -1.7874    2.0027   -4.0590 H   0  0  0  0  0  0  0  0  0  0  0  0
   -1.4194    0.5953   -3.0445 H   0  0  0  0  0  0  0  0  0  0  0  0
   -0.8109    4.6062   -3.3738 N   0  0  0  0  0  0  0  0  0  0  0  0
   -1.1176    6.0043   -3.5670 C   0  0  0  0  0  0  0  0  0  0  0  0
   -0.3431    4.1148   -4.1297 H   0  0  0  0  0  0  0  0  0  0  0  0
   -2.1160    6.1022   -4.0182 H   0  0  0  0  0  0  0  0  0  0  0  0
   -1.1021    6.5205   -2.5958 H   0  0  0  0  0  0  0  0  0  0  0  0
   -0.3681    6.4552   -4.2340 H   0  0  0  0  0  0  0  0  0  0  0  0
  1  3  1  0  0  0  0
  1  7  1  0  0  0  0
  1  2  2  0  0  0  0
 29 30  1  0  0  0  0
 30 38  1  0  0  0  0
 30 31  2  0  0  0  0
  8  9  1  0  0  0  0
  9 17  1  0  0  0  0
  9 10  2  0  0  0  0
 18 19  1  0  0  0  0
 19 28  1  0  0  0  0
 19 20  2  0  0  0  0
 29 32  1  0  0  0  0
  8 11  1  0  0  0  0
 38 39  1  0  0  0  0
 18 21  1  0  0  0  0
 21 22  1  0  0  0  0
 28 29  1  0  0  0  0
  7  8  1  0  0  0  0
 17 18  1  0  0  0  0
  3  4  1  0  0  0  0
  3  5  1  0  0  0  0
  3  6  1  0  0  0  0
 32 35  1  0  0  0  0
 32 36  1  0  0  0  0
 32 37  1  0  0  0  0
 11 14  1  0  0  0  0
 11 15  1  0  0  0  0
 11 16  1  0  0  0  0
 39 41  1  0  0  0  0
 39 42  1  0  0  0  0
 39 43  1  0  0  0  0
 21 25  1  0  0  0  0
 21 26  1  0  0  0  0
 29 34  1  0  0  0  0
  8 13  1  0  0  0  0
 18 24  1  0  0  0  0
 38 40  1  0  0  0  0
  7 12  1  0  0  0  0
 28 33  1  0  0  0  0
 17 23  1  0  0  0  0
 22 27  1  0  0  0  0
M  END
$$$$

  -OEChem-05262214473D

 43 42  0     1  0  0  0  0  0999 V2000
   -2.8661   -4.7415    2.2943 C   0  0  0  0  0  0  0  0  0  0  0  0
   -2.0233   -5.5727    2.6109 O   0  0  0  0  0  0  0  0  0  0  0  0
   -4.3078   -5.0134    2.5698 C   0  0  0  0  0  0  0  0  0  0  0  0
   -4.8057   -5.5295    1.7332 H   0  0  0  0  0  0  0  0  0  0  0  0
   -4.4526   -5.6688    3.4436 H   0  0  0  0  0  0  0  0  0  0  0  0
   -4.9255   -4.1233    2.7700 H   0  0  0  0  0  0  0  0  0  0  0  0
   -2.6241   -3.5219    1.6838 N   0  0  0  0  0  0  0  0  0  0  0  0
   -1.3070   -3.0608    1.3315 C   0  0  2  0  0  0  0  0  0  0  0  0
   -1.3931   -1.5680    1.0422 C   0  0  0  0  0  0  0  0  0  0  0  0
   -2.4385   -1.0059    0.7226 O   0  0  0  0  0  0  0  0  0  0  0  0
   -0.7590   -3.8164    0.1309 C   0  0  0  0  0  0  0  0  0  0  0  0
   -3.4188   -2.9207    1.4735 H   0  0  0  0  0  0  0  0  0  0  0  0
   -0.6690   -3.2277    2.2062 H   0  0  0  0  0  0  0  0  0  0  0  0
   -1.3852   -3.6613   -0.7553 H   0  0  0  0  0  0  0  0  0  0  0  0
    0.2542   -3.4843   -0.1182 H   0  0  0  0  0  0  0  0  0  0  0  0
   -0.7257   -4.8930    0.3300 H   0  0  0  0  0  0  0  0  0  0  0  0
   -0.1563   -0.9420    1.1402 N   0  0  0  0  0  0  0  0  0  0  0  0
    0.0261    0.4671    0.9001 C   0  0  2  0  0  0  0  0  0  0  0  0
   -0.0375    0.7248   -0.6040 C   0  0  0  0  0  0  0  0  0  0  0  0
    0.0708   -0.1686   -1.4415 O   0  0  0  0  0  0  0  0  0  0  0  0
    1.2984    1.0099    1.5556 C   0  0  0  0  0  0  0  0  0  0  0  0
    1.2723    0.9428    3.3770 S   0  0  0  0  0  0  0  0  0  0  0  0
    0.6533   -1.4855    1.4300 H   0  0  0  0  0  0  0  0  0  0  0  0
   -0.8416    0.9587    1.3572 H   0  0  0  0  0  0  0  0  0  0  0  0
    2.1746    0.4457    1.2197 H   0  0  0  0  0  0  0  0  0  0  0  0
    1.4491    2.0561    1.2683 H   0  0  0  0  0  0  0  0  0  0  0  0
    2.4888    1.4756    3.5486 H   0  0  0  0  0  0  0  0  0  0  0  0
   -0.2041    2.0704   -0.8994 N   0  0  0  0  0  0  0  0  0  0  0  0
   -0.2824    2.5668   -2.2534 C   0  0  2  0  0  0  0  0  0  0  0  0
   -0.3007    4.0886   -2.1960 C   0  0  0  0  0  0  0  0  0  0  0  0
   -0.6510    4.7181   -1.2001 O   0  0  0  0  0  0  0  0  0  0  0  0
   -1.5153    2.0349   -2.9673 C   0  0  0  0  0  0  0  0  0  0  0  0
   -0.3183    2.7380   -0.1425 H   0  0  0  0  0  0  0  0  0  0  0  0
    0.6254    2.2309   -2.7664 H   0  0  0  0  0  0  0  0  0  0  0  0
   -2.4348    2.3610   -2.4677 H   0  0  0  0  0  0  0  0  0  0  0  0
   -1.5581    2.3892   -4.0025 H   0  0  0  0  0  0  0  0  0  0  0  0
   -1.5153    0.9396   -2.9814 H   0  0  0  0  0  0  0  0  0  0  0  0
    0.0790    4.6609   -3.4021 N   0  0  0  0  0  0  0  0  0  0  0  0
    0.1300    6.0899   -3.6051 C   0  0  0  0  0  0  0  0  0  0  0  0
    0.3716    4.0625   -4.1689 H   0  0  0  0  0  0  0  0  0  0  0  0
   -0.8299    6.4370   -4.0153 H   0  0  0  0  0  0  0  0  0  0  0  0
    0.3202    6.5901   -2.6440 H   0  0  0  0  0  0  0  0  0  0  0  0
    0.9388    6.3313   -4.3105 H   0  0  0  0  0  0  0  0  0  0  0  0
  1  3  1  0  0  0  0
  1  7  1  0  0  0  0
  1  2  2  0  0  0  0
 29 30  1  0  0  0  0
 30 38  1  0  0  0  0
 30 31  2  0  0  0  0
  8  9  1  0  0  0  0
  9 17  1  0  0  0  0
  9 10  2  0  0  0  0
 18 19  1  0  0  0  0
 19 28  1  0  0  0  0
 19 20  2  0  0  0  0
 29 32  1  0  0  0  0
  8 11  1  0  0  0  0
 38 39  1  0  0  0  0
 18 21  1  0  0  0  0
 21 22  1  0  0  0  0
 28 29  1  0  0  0  0
  7  8  1  0  0  0  0
 17 18  1  0  0  0  0
  3  4  1  0  0  0  0
  3  5  1  0  0  0  0
  3  6  1  0  0  0  0
 32 35  1  0  0  0  0
 32 36  1  0  0  0  0
 32 37  1  0  0  0  0
 11 14  1  0  0  0  0
 11 15  1  0  0  0  0
 11 16  1  0  0  0  0
 39 41  1  0  0  0  0
 39 42  1  0  0  0  0
 39 43  1  0  0  0  0
 21 25  1  0  0  0  0
 21 26  1  0  0  0  0
 29 34  1  0  0  0  0
  8 13  1  0  0  0  0
 18 24  1  0  0  0  0
 38 40  1  0  0  0  0
  7 12  1  0  0  0  0
 28 33  1  0  0  0  0
 17 23  1  0  0  0  0
 22 27  1  0  0  0  0
M  END
$$$$

  -OEChem-05262214473D

 43 42  0     1  0  0  0  0  0999 V2000
   -2.8661   -4.7415    2.2943 C   0  0  0  0  0  0  0  0  0  0  0  0
   -2.0233   -5.5727    2.6109 O   0  0  0  0  0  0  0  0  0  0  0  0
   -4.3078   -5.0134    2.5698 C   0  0  0  0  0  0  0  0  0  0  0  0
   -4.8057   -5.5295    1.7332 H   0  0  0  0  0  0  0  0  0  0  0  0
   -4.4526   -5.6688    3.4436 H   0  0  0  0  0  0  0  0  0  0  0  0
   -4.9255   -4.1233    2.7700 H   0  0  0  0  0  0  0  0  0  0  0  0
   -2.6241   -3.5219    1.6838 N   0  0  0  0  0  0  0  0  0  0  0  0
   -1.3070   -3.0608    1.3315 C   0  0  2  0  0  0  0  0  0  0  0  0
   -1.3931   -1.5680    1.0422 C   0  0  0  0  0  0  0  0  0  0  0  0
   -2.4385   -1.0059    0.7226 O   0  0  0  0  0  0  0  0  0  0  0  0
   -0.7590   -3.8164    0.1309 C   0  0  0  0  0  0  0  0  0  0  0  0
   -3.4188   -2.9207    1.4735 H   0  0  0  0  0  0  0  0  0  0  0  0
   -0.6690   -3.2277    2.2062 H   0  0  0  0  0  0  0  0  0  0  0  0
   -1.3852   -3.6613   -0.7553 H   0  0  0  0  0  0  0  0  0  0  0  0
    0.2542   -3.4843   -0.1182 H   0  0  0  0  0  0  0  0  0  0  0  0
   -0.7257   -4.8930    0.3300 H   0  0  0  0  0  0  0  0  0  0  0  0
   -0.1563   -0.9420    1.1402 N   0  0  0  0  0  0  0  0  0  0  0  0
    0.0261    0.4671    0.9001 C   0  0  2  0  0  0  0  0  0  0  0  0
   -0.4027    0.7845   -0.5310 C   0  0  0  0  0  0  0  0  0  0  0  0
   -0.8090   -0.0719   -1.3138 O   0  0  0  0  0  0  0  0  0  0  0  0
    1.4469    0.9344    1.2258 C   0  0  0  0  0  0  0  0  0  0  0  0
    1.8781    0.7987    2.9916 S   0  0  0  0  0  0  0  0  0  0  0  0
    0.6533   -1.4855    1.4300 H   0  0  0  0  0  0  0  0  0  0  0  0
   -0.6739    0.9743    1.5757 H   0  0  0  0  0  0  0  0  0  0  0  0
    2.1822    0.3499    0.6632 H   0  0  0  0  0  0  0  0  0  0  0  0
    1.5695    1.9843    0.9382 H   0  0  0  0  0  0  0  0  0  0  0  0
    3.1224    1.2768    2.8633 H   0  0  0  0  0  0  0  0  0  0  0  0
   -0.2547    2.1299   -0.8371 N   0  0  0  0  0  0  0  0  0  0  0  0
   -0.5839    2.6746   -2.1336 C   0  0  2  0  0  0  0  0  0  0  0  0
   -0.1457    4.1330   -2.1560 C   0  0  0  0  0  0  0  0  0  0  0  0
    0.0111    4.8020   -1.1367 O   0  0  0  0  0  0  0  0  0  0  0  0
   -2.0712    2.5494   -2.4250 C   0  0  0  0  0  0  0  0  0  0  0  0
    0.0573    2.7750   -0.1173 H   0  0  0  0  0  0  0  0  0  0  0  0
   -0.0054    2.1075   -2.8710 H   0  0  0  0  0  0  0  0  0  0  0  0
   -2.6670    3.1111   -1.6964 H   0  0  0  0  0  0  0  0  0  0  0  0
   -2.3145    2.9368   -3.4199 H   0  0  0  0  0  0  0  0  0  0  0  0
   -2.3905    1.5026   -2.3791 H   0  0  0  0  0  0  0  0  0  0  0  0
    0.0079    4.6120   -3.4495 N   0  0  0  0  0  0  0  0  0  0  0  0
    0.4055    5.9707   -3.7356 C   0  0  0  0  0  0  0  0  0  0  0  0
   -0.1246    3.9815   -4.2348 H   0  0  0  0  0  0  0  0  0  0  0  0
   -0.4903    6.5959   -3.8648 H   0  0  0  0  0  0  0  0  0  0  0  0
    1.0071    6.3601   -2.9011 H   0  0  0  0  0  0  0  0  0  0  0  0
    1.0029    5.9910   -4.6590 H   0  0  0  0  0  0  0  0  0  0  0  0
  1  3  1  0  0  0  0
  1  7  1  0  0  0  0
  1  2  2  0  0  0  0
 29 30  1  0  0  0  0
 30 38  1  0  0  0  0
 30 31  2  0  0  0  0
  8  9  1  0  0  0  0
  9 17  1  0  0  0  0
  9 10  2  0  0  0  0
 18 19  1  0  0  0  0
 19 28  1  0  0  0  0
 19 20  2  0  0  0  0
 29 32  1  0  0  0  0
  8 11  1  0  0  0  0
 38 39  1  0  0  0  0
 18 21  1  0  0  0  0
 21 22  1  0  0  0  0
 28 29  1  0  0  0  0
  7  8  1  0  0  0  0
 17 18  1  0  0  0  0
  3  4  1  0  0  0  0
  3  5  1  0  0  0  0
  3  6  1  0  0  0  0
 32 35  1  0  0  0  0
 32 36  1  0  0  0  0
 32 37  1  0  0  0  0
 11 14  1  0  0  0  0
 11 15  1  0  0  0  0
 11 16  1  0  0  0  0
 39 41  1  0  0  0  0
 39 42  1  0  0  0  0
 39 43  1  0  0  0  0
 21 25  1  0  0  0  0
 21 26  1  0  0  0  0
 29 34  1  0  0  0  0
  8 13  1  0  0  0  0
 18 24  1  0  0  0  0
 38 40  1  0  0  0  0
  7 12  1  0  0  0  0
 28 33  1  0  0  0  0
 17 23  1  0  0  0  0
 22 27  1  0  0  0  0
M  END
$$$$

  -OEChem-05262214473D

 43 42  0     1  0  0  0  0  0999 V2000
   -2.8661   -4.7415    2.2943 C   0  0  0  0  0  0  0  0  0  0  0  0
   -2.0233   -5.5727    2.6109 O   0  0  0  0  0  0  0  0  0  0  0  0
   -4.3078   -5.0134    2.5698 C   0  0  0  0  0  0  0  0  0  0  0  0
   -4.8057   -5.5295    1.7332 H   0  0  0  0  0  0  0  0  0  0  0  0
   -4.4526   -5.6688    3.4436 H   0  0  0  0  0  0  0  0  0  0  0  0
   -4.9255   -4.1233    2.7700 H   0  0  0  0  0  0  0  0  0  0  0  0
   -2.6241   -3.5219    1.6838 N   0  0  0  0  0  0  0  0  0  0  0  0
   -1.3070   -3.0608    1.3315 C   0  0  2  0  0  0  0  0  0  0  0  0
   -1.3931   -1.5680    1.0422 C   0  0  0  0  0  0  0  0  0  0  0  0
   -2.4385   -1.0059    0.7226 O   0  0  0  0  0  0  0  0  0  0  0  0
   -0.7590   -3.8164    0.1309 C   0  0  0  0  0  0  0  0  0  0  0  0
   -3.4188   -2.9207    1.4735 H   0  0  0  0  0  0  0  0  0  0  0  0
   -0.6690   -3.2277    2.2062 H   0  0  0  0  0  0  0  0  0  0  0  0
   -1.3852   -3.6613   -0.7553 H   0  0  0  0  0  0  0  0  0  0  0  0
    0.2542   -3.4843   -0.1182 H   0  0  0  0  0  0  0  0  0  0  0  0
   -0.7257   -4.8930    0.3300 H   0  0  0  0  0  0  0  0  0  0  0  0
   -0.1563   -0.9420    1.1402 N   0  0  0  0  0  0  0  0  0  0  0  0
    0.0261    0.4671    0.9001 C   0  0  2  0  0  0  0  0  0  0  0  0
   -0.4027    0.7845   -0.5310 C   0  0  0  0  0  0  0  0  0  0  0  0
   -1.0513    0.0036   -1.2244 O   0  0  0  0  0  0  0  0  0  0  0  0
    1.4469    0.9344    1.2258 C   0  0  0  0  0  0  0  0  0  0  0  0
    1.8781    0.7987    2.9916 S   0  0  0  0  0  0  0  0  0  0  0  0
    0.6533   -1.4855    1.4300 H   0  0  0  0  0  0  0  0  0  0  0  0
   -0.6739    0.9743    1.5757 H   0  0  0  0  0  0  0  0  0  0  0  0
    2.1822    0.3499    0.6632 H   0  0  0  0  0  0  0  0  0  0  0  0
    1.5695    1.9843    0.9382 H   0  0  0  0  0  0  0  0  0  0  0  0
    3.1224    1.2768    2.8633 H   0  0  0  0  0  0  0  0  0  0  0  0
    0.0450    2.0296   -0.9492 N   0  0  0  0  0  0  0  0  0  0  0  0
   -0.2241    2.5514   -2.2687 C   0  0  2  0  0  0  0  0  0  0  0  0
    0.5497    3.8537   -2.4263 C   0  0  0  0  0  0  0  0  0  0  0  0
    0.9264    4.5299   -1.4714 O   0  0  0  0  0  0  0  0  0  0  0  0
   -1.7132    2.7747   -2.4823 C   0  0  0  0  0  0  0  0  0  0  0  0
    0.5476    2.6250   -0.2975 H   0  0  0  0  0  0  0  0  0  0  0  0
    0.1535    1.8127   -2.9840 H   0  0  0  0  0  0  0  0  0  0  0  0
   -2.1095    3.5119   -1.7746 H   0  0  0  0  0  0  0  0  0  0  0  0
   -1.9181    3.1433   -3.4928 H   0  0  0  0  0  0  0  0  0  0  0  0
   -2.2714    1.8432   -2.3393 H   0  0  0  0  0  0  0  0  0  0  0  0
    0.7325    4.1940   -3.7593 N   0  0  0  0  0  0  0  0  0  0  0  0
    1.4264    5.3923   -4.1698 C   0  0  0  0  0  0  0  0  0  0  0  0
    0.4032    3.5647   -4.4854 H   0  0  0  0  0  0  0  0  0  0  0  0
    0.7011    6.2077   -4.3079 H   0  0  0  0  0  0  0  0  0  0  0  0
    2.1551    5.6771   -3.3966 H   0  0  0  0  0  0  0  0  0  0  0  0
    1.9521    5.2050   -5.1178 H   0  0  0  0  0  0  0  0  0  0  0  0
  1  3  1  0  0  0  0
  1  7  1  0  0  0  0
  1  2  2  0  0  0  0
 29 30  1  0  0  0  0
 30 38  1  0  0  0  0
 30 31  2  0  0  0  0
  8  9  1  0  0  0  0
  9 17  1  0  0  0  0
  9 10  2  0  0  0  0
 18 19  1  0  0  0  0
 19 28  1  0  0  0  0
 19 20  2  0  0  0  0
 29 32  1  0  0  0  0
  8 11  1  0  0  0  0
 38 39  1  0  0  0  0
 18 21  1  0  0  0  0
 21 22  1  0  0  0  0
 28 29  1  0  0  0  0
  7  8  1  0  0  0  0
 17 18  1  0  0  0  0
  3  4  1  0  0  0  0
  3  5  1  0  0  0  0
  3  6  1  0  0  0  0
 32 35  1  0  0  0  0
 32 36  1  0  0  0  0
 32 37  1  0  0  0  0
 11 14  1  0  0  0  0
 11 15  1  0  0  0  0
 11 16  1  0  0  0  0
 39 41  1  0  0  0  0
 39 42  1  0  0  0  0
 39 43  1  0  0  0  0
 21 25  1  0  0  0  0
 21 26  1  0  0  0  0
 29 34  1  0  0  0  0
  8 13  1  0  0  0  0
 18 24  1  0  0  0  0
 38 40  1  0  0  0  0
  7 12  1  0  0  0  0
 28 33  1  0  0  0  0
 17 23  1  0  0  0  0
 22 27  1  0  0  0  0
M  END
$$$$

  -OEChem-05262214473D

 43 42  0     1  0  0  0  0  0999 V2000
   -2.8661   -4.7415    2.2943 C   0  0  0  0  0  0  0  0  0  0  0  0
   -2.0233   -5.5727    2.6109 O   0  0  0  0  0  0  0  0  0  0  0  0
   -4.3078   -5.0134    2.5698 C   0  0  0  0  0  0  0  0  0  0  0  0
   -4.8057   -5.5295    1.7332 H   0  0  0  0  0  0  0  0  0  0  0  0
   -4.4526   -5.6688    3.4436 H   0  0  0  0  0  0  0  0  0  0  0  0
   -4.9255   -4.1233    2.7700 H   0  0  0  0  0  0  0  0  0  0  0  0
   -2.6241   -3.5219    1.6838 N   0  0  0  0  0  0  0  0  0  0  0  0
   -1.3070   -3.0608    1.3315 C   0  0  2  0  0  0  0  0  0  0  0  0
   -1.3931   -1.5680    1.0422 C   0  0  0  0  0  0  0  0  0  0  0  0
   -2.4385   -1.0059    0.7226 O   0  0  0  0  0  0  0  0  0  0  0  0
   -0.7590   -3.8164    0.1309 C   0  0  0  0  0  0  0  0  0  0  0  0
   -3.4188   -2.9207    1.4735 H   0  0  0  0  0  0  0  0  0  0  0  0
   -0.6690   -3.2277    2.2062 H   0  0  0  0  0  0  0  0  0  0  0  0
   -1.3852   -3.6613   -0.7553 H   0  0  0  0  0  0  0  0  0  0  0  0
    0.2542   -3.4843   -0.1182 H   0  0  0  0  0  0  0  0  0  0  0  0
   -0.7257   -4.8930    0.3300 H   0  0  0  0  0  0  0  0  0  0  0  0
   -0.1563   -0.9420    1.1402 N   0  0  0  0  0  0  0  0  0  0  0  0
    0.0261    0.4671    0.9001 C   0  0  2  0  0  0  0  0  0  0  0  0
   -0.4027    0.7845   -0.5310 C   0  0  0  0  0  0  0  0  0  0  0  0
   -1.2623    0.1419   -1.1305 O   0  0  0  0  0  0  0  0  0  0  0  0
    1.4469    0.9344    1.2258 C   0  0  0  0  0  0  0  0  0  0  0  0
    1.8781    0.7987    2.9916 S   0  0  0  0  0  0  0  0  0  0  0  0
    0.6533   -1.4855    1.4300 H   0  0  0  0  0  0  0  0  0  0  0  0
   -0.6739    0.9743    1.5757 H   0  0  0  0  0  0  0  0  0  0  0  0
    2.1822    0.3499    0.6632 H   0  0  0  0  0  0  0  0  0  0  0  0
    1.5695    1.9843    0.9382 H   0  0  0  0  0  0  0  0  0  0  0  0
    3.1224    1.2768    2.8633 H   0  0  0  0  0  0  0  0  0  0  0  0
    0.3042    1.8519   -1.0663 N   0  0  0  0  0  0  0  0  0  0  0  0
    0.0862    2.3354   -2.4096 C   0  0  2  0  0  0  0  0  0  0  0  0
    1.1391    3.3956   -2.7045 C   0  0  0  0  0  0  0  0  0  0  0  0
    1.7265    4.0207   -1.8241 O   0  0  0  0  0  0  0  0  0  0  0  0
   -1.3158    2.9013   -2.5733 C   0  0  0  0  0  0  0  0  0  0  0  0
    0.9751    2.3480   -0.4871 H   0  0  0  0  0  0  0  0  0  0  0  0
    0.2294    1.4812   -3.0803 H   0  0  0  0  0  0  0  0  0  0  0  0
   -1.4779    3.7582   -1.9092 H   0  0  0  0  0  0  0  0  0  0  0  0
   -1.4891    3.2413   -3.5997 H   0  0  0  0  0  0  0  0  0  0  0  0
   -2.0716    2.1461   -2.3320 H   0  0  0  0  0  0  0  0  0  0  0  0
    1.3144    3.5921   -4.0672 N   0  0  0  0  0  0  0  0  0  0  0  0
    2.2490    4.5546   -4.6021 C   0  0  0  0  0  0  0  0  0  0  0  0
    0.7985    3.0159   -4.7256 H   0  0  0  0  0  0  0  0  0  0  0  0
    1.7338    5.5116   -4.7718 H   0  0  0  0  0  0  0  0  0  0  0  0
    3.0718    4.7029   -3.8874 H   0  0  0  0  0  0  0  0  0  0  0  0
    2.6535    4.1822   -5.5549 H   0  0  0  0  0  0  0  0  0  0  0  0
  1  3  1  0  0  0  0
  1  7  1  0  0  0  0
  1  2  2  0  0  0  0
 29 30  1  0  0  0  0
 30 38  1  0  0  0  0
 30 31  2  0  0  0  0
  8  9  1  0  0  0  0
  9 17  1  0  0  0  0
  9 10  2  0  0  0  0
 18 19  1  0  0  0  0
 19 28  1  0  0  0  0
 19 20  2  0  0  0  0
 29 32  1  0  0  0  0
  8 11  1  0  0  0  0
 38 39  1  0  0  0  0
 18 21  1  0  0  0  0
 21 22  1  0  0  0  0
 28 29  1  0  0  0  0
  7  8  1  0  0  0  0
 17 18  1  0  0  0  0
  3  4  1  0  0  0  0
  3  5  1  0  0  0  0
  3  6  1  0  0  0  0
 32 35  1  0  0  0  0
 32 36  1  0  0  0  0
 32 37  1  0  0  0  0
 11 14  1  0  0  0  0
 11 15  1  0  0  0  0
 11 16  1  0  0  0  0
 39 41  1  0  0  0  0
 39 42  1  0  0  0  0
 39 43  1  0  0  0  0
 21 25  1  0  0  0  0
 21 26  1  0  0  0  0
 29 34  1  0  0  0  0
  8 13  1  0  0  0  0
 18 24  1  0  0  0  0
 38 40  1  0  0  0  0
  7 12  1  0  0  0  0
 28 33  1  0  0  0  0
 17 23  1  0  0  0  0
 22 27  1  0  0  0  0
M  END
$$$$

  -OEChem-05262214473D

 43 42  0     1  0  0  0  0  0999 V2000
   -2.8661   -4.7415    2.2943 C   0  0  0  0  0  0  0  0  0  0  0  0
   -2.0233   -5.5727    2.6109 O   0  0  0  0  0  0  0  0  0  0  0  0
   -4.3078   -5.0134    2.5698 C   0  0  0  0  0  0  0  0  0  0  0  0
   -4.8057   -5.5295    1.7332 H   0  0  0  0  0  0  0  0  0  0  0  0
   -4.4526   -5.6688    3.4436 H   0  0  0  0  0  0  0  0  0  0  0  0
   -4.9255   -4.1233    2.7700 H   0  0  0  0  0  0  0  0  0  0  0  0
   -2.6241   -3.5219    1.6838 N   0  0  0  0  0  0  0  0  0  0  0  0
   -1.3070   -3.0608    1.3315 C   0  0  2  0  0  0  0  0  0  0  0  0
   -1.3931   -1.5680    1.0422 C   0  0  0  0  0  0  0  0  0  0  0  0
   -2.4385   -1.0059    0.7226 O   0  0  0  0  0  0  0  0  0  0  0  0
   -0.7590   -3.8164    0.1309 C   0  0  0  0  0  0  0  0  0  0  0  0
   -3.4188   -2.9207    1.4735 H   0  0  0  0  0  0  0  0  0  0  0  0
   -0.6690   -3.2277    2.2062 H   0  0  0  0  0  0  0  0  0  0  0  0
   -1.3852   -3.6613   -0.7553 H   0  0  0  0  0  0  0  0  0  0  0  0
    0.2542   -3.4843   -0.1182 H   0  0  0  0  0  0  0  0  0  0  0  0
   -0.7257   -4.8930    0.3300 H   0  0  0  0  0  0  0  0  0  0  0  0
   -0.1563   -0.9420    1.1402 N   0  0  0  0  0  0  0  0  0  0  0  0
    0.0261    0.4671    0.9001 C   0  0  2  0  0  0  0  0  0  0  0  0
   -0.4027    0.7845   -0.5310 C   0  0  0  0  0  0  0  0  0  0  0  0
   -1.4275    0.3334   -1.0386 O   0  0  0  0  0  0  0  0  0  0  0  0
    1.4469    0.9344    1.2258 C   0  0  0  0  0  0  0  0  0  0  0  0
    1.8781    0.7987    2.9916 S   0  0  0  0  0  0  0  0  0  0  0  0
    0.6533   -1.4855    1.4300 H   0  0  0  0  0  0  0  0  0  0  0  0
   -0.6739    0.9743    1.5757 H   0  0  0  0  0  0  0  0  0  0  0  0
    2.1822    0.3499    0.6632 H   0  0  0  0  0  0  0  0  0  0  0  0
    1.5695    1.9843    0.9382 H   0  0  0  0  0  0  0  0  0  0  0  0
    3.1224    1.2768    2.8633 H   0  0  0  0  0  0  0  0  0  0  0  0
    0.5051    1.6089   -1.1804 N   0  0  0  0  0  0  0  0  0  0  0  0
    0.3260    2.0412   -2.5467 C   0  0  2  0  0  0  0  0  0  0  0  0
    1.5823    2.7899   -2.9717 C   0  0  0  0  0  0  0  0  0  0  0  0
    2.3569    3.3092   -2.1708 O   0  0  0  0  0  0  0  0  0  0  0  0
   -0.9061    2.9207   -2.6918 C   0  0  0  0  0  0  0  0  0  0  0  0
    1.3107    1.9631   -0.6730 H   0  0  0  0  0  0  0  0  0  0  0  0
    0.2171    1.1355   -3.1533 H   0  0  0  0  0  0  0  0  0  0  0  0
   -0.8154    3.8331   -2.0911 H   0  0  0  0  0  0  0  0  0  0  0  0
   -1.0567    3.2242   -3.7331 H   0  0  0  0  0  0  0  0  0  0  0  0
   -1.8047    2.3908   -2.3577 H   0  0  0  0  0  0  0  0  0  0  0  0
    1.7139    2.8472   -4.3521 N   0  0  0  0  0  0  0  0  0  0  0  0
    2.8171    3.5145   -5.0031 C   0  0  0  0  0  0  0  0  0  0  0  0
    1.0343    2.3724   -4.9389 H   0  0  0  0  0  0  0  0  0  0  0  0
    2.5376    4.5550   -5.2248 H   0  0  0  0  0  0  0  0  0  0  0  0
    3.6946    3.5040   -4.3399 H   0  0  0  0  0  0  0  0  0  0  0  0
    3.0596    2.9924   -5.9404 H   0  0  0  0  0  0  0  0  0  0  0  0
  1  3  1  0  0  0  0
  1  7  1  0  0  0  0
  1  2  2  0  0  0  0
 29 30  1  0  0  0  0
 30 38  1  0  0  0  0
 30 31  2  0  0  0  0
  8  9  1  0  0  0  0
  9 17  1  0  0  0  0
  9 10  2  0  0  0  0
 18 19  1  0  0  0  0
 19 28  1  0  0  0  0
 19 20  2  0  0  0  0
 29 32  1  0  0  0  0
  8 11  1  0  0  0  0
 38 39  1  0  0  0  0
 18 21  1  0  0  0  0
 21 22  1  0  0  0  0
 28 29  1  0  0  0  0
  7  8  1  0  0  0  0
 17 18  1  0  0  0  0
  3  4  1  0  0  0  0
  3  5  1  0  0  0  0
  3  6  1  0  0  0  0
 32 35  1  0  0  0  0
 32 36  1  0  0  0  0
 32 37  1  0  0  0  0
 11 14  1  0  0  0  0
 11 15  1  0  0  0  0
 11 16  1  0  0  0  0
 39 41  1  0  0  0  0
 39 42  1  0  0  0  0
 39 43  1  0  0  0  0
 21 25  1  0  0  0  0
 21 26  1  0  0  0  0
 29 34  1  0  0  0  0
  8 13  1  0  0  0  0
 18 24  1  0  0  0  0
 38 40  1  0  0  0  0
  7 12  1  0  0  0  0
 28 33  1  0  0  0  0
 17 23  1  0  0  0  0
 22 27  1  0  0  0  0
M  END
$$$$

  -OEChem-05262214473D

 43 42  0     1  0  0  0  0  0999 V2000
   -2.8661   -4.7415    2.2943 C   0  0  0  0  0  0  0  0  0  0  0  0
   -2.0233   -5.5727    2.6109 O   0  0  0  0  0  0  0  0  0  0  0  0
   -4.3078   -5.0134    2.5698 C   0  0  0  0  0  0  0  0  0  0  0  0
   -4.8057   -5.5295    1.7332 H   0  0  0  0  0  0  0  0  0  0  0  0
   -4.4526   -5.6688    3.4436 H   0  0  0  0  0  0  0  0  0  0  0  0
   -4.9255   -4.1233    2.7700 H   0  0  0  0  0  0  0  0  0  0  0  0
   -2.6241   -3.5219    1.6838 N   0  0  0  0  0  0  0  0  0  0  0  0
   -1.3070   -3.0608    1.3315 C   0  0  2  0  0  0  0  0  0  0  0  0
   -1.3931   -1.5680    1.0422 C   0  0  0  0  0  0  0  0  0  0  0  0
   -2.4385   -1.0059    0.7226 O   0  0  0  0  0  0  0  0  0  0  0  0
   -0.7590   -3.8164    0.1309 C   0  0  0  0  0  0  0  0  0  0  0  0
   -3.4188   -2.9207    1.4735 H   0  0  0  0  0  0  0  0  0  0  0  0
   -0.6690   -3.2277    2.2062 H   0  0  0  0  0  0  0  0  0  0  0  0
   -1.3852   -3.6613   -0.7553 H   0  0  0  0  0  0  0  0  0  0  0  0
    0.2542   -3.4843   -0.1182 H   0  0  0  0  0  0  0  0  0  0  0  0
   -0.7257   -4.8930    0.3300 H   0  0  0  0  0  0  0  0  0  0  0  0
   -0.1563   -0.9420    1.1402 N   0  0  0  0  0  0  0  0  0  0  0  0
    0.0261    0.4671    0.9001 C   0  0  2  0  0  0  0  0  0  0  0  0
   -0.4027    0.7845   -0.5310 C   0  0  0  0  0  0  0  0  0  0  0  0
   -1.5357    0.5652   -0.9547 O   0  0  0  0  0  0  0  0  0  0  0  0
    1.4469    0.9344    1.2258 C   0  0  0  0  0  0  0  0  0  0  0  0
    1.8781    0.7987    2.9916 S   0  0  0  0  0  0  0  0  0  0  0  0
    0.6533   -1.4855    1.4300 H   0  0  0  0  0  0  0  0  0  0  0  0
   -0.6739    0.9743    1.5757 H   0  0  0  0  0  0  0  0  0  0  0  0
    2.1822    0.3499    0.6632 H   0  0  0  0  0  0  0  0  0  0  0  0
    1.5695    1.9843    0.9382 H   0  0  0  0  0  0  0  0  0  0  0  0
    3.1224    1.2768    2.8633 H   0  0  0  0  0  0  0  0  0  0  0  0
    0.6342    1.3172   -1.2837 N   0  0  0  0  0  0  0  0  0  0  0  0
    0.4789    1.6890   -2.6706 C   0  0  2  0  0  0  0  0  0  0  0  0
    1.8492    2.0780   -3.2095 C   0  0  0  0  0  0  0  0  0  0  0  0
    2.7747    2.4438   -2.4879 O   0  0  0  0  0  0  0  0  0  0  0  0
   -0.5121    2.8315   -2.8296 C   0  0  0  0  0  0  0  0  0  0  0  0
    1.5314    1.4963   -0.8427 H   0  0  0  0  0  0  0  0  0  0  0  0
    0.1176    0.7994   -3.1980 H   0  0  0  0  0  0  0  0  0  0  0  0
   -0.1671    3.7316   -2.3079 H   0  0  0  0  0  0  0  0  0  0  0  0
   -0.6503    3.0930   -3.8839 H   0  0  0  0  0  0  0  0  0  0  0  0
   -1.4890    2.5606   -2.4146 H   0  0  0  0  0  0  0  0  0  0  0  0
    1.9038    2.0101   -4.5946 N   0  0  0  0  0  0  0  0  0  0  0  0
    3.0920    2.3429   -5.3453 C   0  0  0  0  0  0  0  0  0  0  0  0
    1.0945    1.6782   -5.1110 H   0  0  0  0  0  0  0  0  0  0  0  0
    3.0577    3.4032   -5.6361 H   0  0  0  0  0  0  0  0  0  0  0  0
    3.9811    2.1620   -4.7234 H   0  0  0  0  0  0  0  0  0  0  0  0
    3.1425    1.7166   -6.2482 H   0  0  0  0  0  0  0  0  0  0  0  0
  1  3  1  0  0  0  0
  1  7  1  0  0  0  0
  1  2  2  0  0  0  0
 29 30  1  0  0  0  0
 30 38  1  0  0  0  0
 30 31  2  0  0  0  0
  8  9  1  0  0  0  0
  9 17  1  0  0  0  0
  9 10  2  0  0  0  0
 18 19  1  0  0  0  0
 19 28  1  0  0  0  0
 19 20  2  0  0  0  0
 29 32  1  0  0  0  0
  8 11  1  0  0  0  0
 38 39  1  0  0  0  0
 18 21  1  0  0  0  0
 21 22  1  0  0  0  0
 28 29  1  0  0  0  0
  7  8  1  0  0  0  0
 17 18  1  0  0  0  0
  3  4  1  0  0  0  0
  3  5  1  0  0  0  0
  3  6  1  0  0  0  0
 32 35  1  0  0  0  0
 32 36  1  0  0  0  0
 32 37  1  0  0  0  0
 11 14  1  0  0  0  0
 11 15  1  0  0  0  0
 11 16  1  0  0  0  0
 39 41  1  0  0  0  0
 39 42  1  0  0  0  0
 39 43  1  0  0  0  0
 21 25  1  0  0  0  0
 21 26  1  0  0  0  0
 29 34  1  0  0  0  0
  8 13  1  0  0  0  0
 18 24  1  0  0  0  0
 38 40  1  0  0  0  0
  7 12  1  0  0  0  0
 28 33  1  0  0  0  0
 17 23  1  0  0  0  0
 22 27  1  0  0  0  0
M  END
$$$$

  -OEChem-05262214473D

 43 42  0     1  0  0  0  0  0999 V2000
   -2.8661   -4.7415    2.2943 C   0  0  0  0  0  0  0  0  0  0  0  0
   -2.0233   -5.5727    2.6109 O   0  0  0  0  0  0  0  0  0  0  0  0
   -4.3078   -5.0134    2.5698 C   0  0  0  0  0  0  0  0  0  0  0  0
   -4.8057   -5.5295    1.7332 H   0  0  0  0  0  0  0  0  0  0  0  0
   -4.4526   -5.6688    3.4436 H   0  0  0  0  0  0  0  0  0  0  0  0
   -4.9255   -4.1233    2.7700 H   0  0  0  0  0  0  0  0  0  0  0  0
   -2.6241   -3.5219    1.6838 N   0  0  0  0  0  0  0  0  0  0  0  0
   -1.3070   -3.0608    1.3315 C   0  0  2  0  0  0  0  0  0  0  0  0
   -1.3931   -1.5680    1.0422 C   0  0  0  0  0  0  0  0  0  0  0  0
   -2.4385   -1.0059    0.7226 O   0  0  0  0  0  0  0  0  0  0  0  0
   -0.7590   -3.8164    0.1309 C   0  0  0  0  0  0  0  0  0  0  0  0
   -3.4188   -2.9207    1.4735 H   0  0  0  0  0  0  0  0  0  0  0  0
   -0.6690   -3.2277    2.2062 H   0  0  0  0  0  0  0  0  0  0  0  0
   -1.3852   -3.6613   -0.7553 H   0  0  0  0  0  0  0  0  0  0  0  0
    0.2542   -3.4843   -0.1182 H   0  0  0  0  0  0  0  0  0  0  0  0
   -0.7257   -4.8930    0.3300 H   0  0  0  0  0  0  0  0  0  0  0  0
   -0.1563   -0.9420    1.1402 N   0  0  0  0  0  0  0  0  0  0  0  0
    0.0261    0.4671    0.9001 C   0  0  2  0  0  0  0  0  0  0  0  0
   -0.4027    0.7845   -0.5310 C   0  0  0  0  0  0  0  0  0  0  0  0
   -1.5795    0.8214   -0.8848 O   0  0  0  0  0  0  0  0  0  0  0  0
    1.4469    0.9344    1.2258 C   0  0  0  0  0  0  0  0  0  0  0  0
    1.8781    0.7987    2.9916 S   0  0  0  0  0  0  0  0  0  0  0  0
    0.6533   -1.4855    1.4300 H   0  0  0  0  0  0  0  0  0  0  0  0
   -0.6739    0.9743    1.5757 H   0  0  0  0  0  0  0  0  0  0  0  0
    2.1822    0.3499    0.6632 H   0  0  0  0  0  0  0  0  0  0  0  0
    1.5695    1.9843    0.9382 H   0  0  0  0  0  0  0  0  0  0  0  0
    3.1224    1.2768    2.8633 H   0  0  0  0  0  0  0  0  0  0  0  0
    0.6825    0.9966   -1.3693 N   0  0  0  0  0  0  0  0  0  0  0  0
    0.5345    1.3026   -2.7730 C   0  0  2  0  0  0  0  0  0  0  0  0
    1.9216    1.3084   -3.4019 C   0  0  0  0  0  0  0  0  0  0  0  0
    2.9512    1.4836   -2.7537 O   0  0  0  0  0  0  0  0  0  0  0  0
   -0.1606    2.6397   -2.9775 C   0  0  0  0  0  0  0  0  0  0  0  0
    1.6224    0.9796   -0.9845 H   0  0  0  0  0  0  0  0  0  0  0  0
   -0.0626    0.4955   -3.2114 H   0  0  0  0  0  0  0  0  0  0  0  0
    0.4228    3.4606   -2.5448 H   0  0  0  0  0  0  0  0  0  0  0  0
   -0.2976    2.8569   -4.0420 H   0  0  0  0  0  0  0  0  0  0  0  0
   -1.1459    2.6439   -2.4990 H   0  0  0  0  0  0  0  0  0  0  0  0
    1.8712    1.1379   -4.7783 N   0  0  0  0  0  0  0  0  0  0  0  0
    3.0550    1.1197   -5.6055 C   0  0  0  0  0  0  0  0  0  0  0  0
    0.9751    0.9805   -5.2299 H   0  0  0  0  0  0  0  0  0  0  0  0
    3.2586    2.1346   -5.9776 H   0  0  0  0  0  0  0  0  0  0  0  0
    3.9117    0.7683   -5.0117 H   0  0  0  0  0  0  0  0  0  0  0  0
    2.8967    0.4419   -6.4572 H   0  0  0  0  0  0  0  0  0  0  0  0
  1  3  1  0  0  0  0
  1  7  1  0  0  0  0
  1  2  2  0  0  0  0
 29 30  1  0  0  0  0
 30 38  1  0  0  0  0
 30 31  2  0  0  0  0
  8  9  1  0  0  0  0
  9 17  1  0  0  0  0
  9 10  2  0  0  0  0
 18 19  1  0  0  0  0
 19 28  1  0  0  0  0
 19 20  2  0  0  0  0
 29 32  1  0  0  0  0
  8 11  1  0  0  0  0
 38 39  1  0  0  0  0
 18 21  1  0  0  0  0
 21 22  1  0  0  0  0
 28 29  1  0  0  0  0
  7  8  1  0  0  0  0
 17 18  1  0  0  0  0
  3  4  1  0  0  0  0
  3  5  1  0  0  0  0
  3  6  1  0  0  0  0
 32 35  1  0  0  0  0
 32 36  1  0  0  0  0
 32 37  1  0  0  0  0
 11 14  1  0  0  0  0
 11 15  1  0  0  0  0
 11 16  1  0  0  0  0
 39 41  1  0  0  0  0
 39 42  1  0  0  0  0
 39 43  1  0  0  0  0
 21 25  1  0  0  0  0
 21 26  1  0  0  0  0
 29 34  1  0  0  0  0
  8 13  1  0  0  0  0
 18 24  1  0  0  0  0
 38 40  1  0  0  0  0
  7 12  1  0  0  0  0
 28 33  1  0  0  0  0
 17 23  1  0  0  0  0
 22 27  1  0  0  0  0
M  END
$$$$

  -OEChem-05262214473D

 43 42  0     1  0  0  0  0  0999 V2000
   -2.8661   -4.7415    2.2943 C   0  0  0  0  0  0  0  0  0  0  0  0
   -2.0233   -5.5727    2.6109 O   0  0  0  0  0  0  0  0  0  0  0  0
   -4.3078   -5.0134    2.5698 C   0  0  0  0  0  0  0  0  0  0  0  0
   -4.8057   -5.5295    1.7332 H   0  0  0  0  0  0  0  0  0  0  0  0
   -4.4526   -5.6688    3.4436 H   0  0  0  0  0  0  0  0  0  0  0  0
   -4.9255   -4.1233    2.7700 H   0  0  0  0  0  0  0  0  0  0  0  0
   -2.6241   -3.5219    1.6838 N   0  0  0  0  0  0  0  0  0  0  0  0
   -1.3070   -3.0608    1.3315 C   0  0  2  0  0  0  0  0  0  0  0  0
   -1.3931   -1.5680    1.0422 C   0  0  0  0  0  0  0  0  0  0  0  0
   -2.4385   -1.0059    0.7226 O   0  0  0  0  0  0  0  0  0  0  0  0
   -0.7590   -3.8164    0.1309 C   0  0  0  0  0  0  0  0  0  0  0  0
   -3.4188   -2.9207    1.4735 H   0  0  0  0  0  0  0  0  0  0  0  0
   -0.6690   -3.2277    2.2062 H   0  0  0  0  0  0  0  0  0  0  0  0
   -1.3852   -3.6613   -0.7553 H   0  0  0  0  0  0  0  0  0  0  0  0
    0.2542   -3.4843   -0.1182 H   0  0  0  0  0  0  0  0  0  0  0  0
   -0.7257   -4.8930    0.3300 H   0  0  0  0  0  0  0  0  0  0  0  0
   -0.1563   -0.9420    1.1402 N   0  0  0  0  0  0  0  0  0  0  0  0
    0.0261    0.4671    0.9001 C   0  0  2  0  0  0  0  0  0  0  0  0
   -0.4027    0.7845   -0.5310 C   0  0  0  0  0  0  0  0  0  0  0  0
   -1.5559    1.0845   -0.8335 O   0  0  0  0  0  0  0  0  0  0  0  0
    1.4469    0.9344    1.2258 C   0  0  0  0  0  0  0  0  0  0  0  0
    1.8781    0.7987    2.9916 S   0  0  0  0  0  0  0  0  0  0  0  0
    0.6533   -1.4855    1.4300 H   0  0  0  0  0  0  0  0  0  0  0  0
   -0.6739    0.9743    1.5757 H   0  0  0  0  0  0  0  0  0  0  0  0
    2.1822    0.3499    0.6632 H   0  0  0  0  0  0  0  0  0  0  0  0
    1.5695    1.9843    0.9382 H   0  0  0  0  0  0  0  0  0  0  0  0
    3.1224    1.2768    2.8633 H   0  0  0  0  0  0  0  0  0  0  0  0
    0.6469    0.6690   -1.4313 N   0  0  0  0  0  0  0  0  0  0  0  0
    0.4890    0.9085   -2.8468 C   0  0  2  0  0  0  0  0  0  0  0  0
    1.7945    0.5334   -3.5357 C   0  0  0  0  0  0  0  0  0  0  0  0
    2.8746    0.4940   -2.9503 O   0  0  0  0  0  0  0  0  0  0  0  0
    0.1245    2.3584   -3.1253 C   0  0  0  0  0  0  0  0  0  0  0  0
    1.5773    0.4482   -1.0889 H   0  0  0  0  0  0  0  0  0  0  0  0
   -0.3109    0.2448   -3.1926 H   0  0  0  0  0  0  0  0  0  0  0  0
    0.9142    3.0385   -2.7857 H   0  0  0  0  0  0  0  0  0  0  0  0
   -0.0228    2.5318   -4.1964 H   0  0  0  0  0  0  0  0  0  0  0  0
   -0.7988    2.6350   -2.6050 H   0  0  0  0  0  0  0  0  0  0  0  0
    1.6183    0.2899   -4.8906 N   0  0  0  0  0  0  0  0  0  0  0  0
    2.7087   -0.0718   -5.7660 C   0  0  0  0  0  0  0  0  0  0  0  0
    0.6841    0.3270   -5.2876 H   0  0  0  0  0  0  0  0  0  0  0  0
    3.1266    0.8357   -6.2262 H   0  0  0  0  0  0  0  0  0  0  0  0
    3.4913   -0.5819   -5.1851 H   0  0  0  0  0  0  0  0  0  0  0  0
    2.3388   -0.7450   -6.5533 H   0  0  0  0  0  0  0  0  0  0  0  0
  1  3  1  0  0  0  0
  1  7  1  0  0  0  0
  1  2  2  0  0  0  0
 29 30  1  0  0  0  0
 30 38  1  0  0  0  0
 30 31  2  0  0  0  0
  8  9  1  0  0  0  0
  9 17  1  0  0  0  0
  9 10  2  0  0  0  0
 18 19  1  0  0  0  0
 19 28  1  0  0  0  0
 19 20  2  0  0  0  0
 29 32  1  0  0  0  0
  8 11  1  0  0  0  0
 38 39  1  0  0  0  0
 18 21  1  0  0  0  0
 21 22  1  0  0  0  0
 28 29  1  0  0  0  0
  7  8  1  0  0  0  0
 17 18  1  0  0  0  0
  3  4  1  0  0  0  0
  3  5  1  0  0  0  0
  3  6  1  0  0  0  0
 32 35  1  0  0  0  0
 32 36  1  0  0  0  0
 32 37  1  0  0  0  0
 11 14  1  0  0  0  0
 11 15  1  0  0  0  0
 11 16  1  0  0  0  0
 39 41  1  0  0  0  0
 39 42  1  0  0  0  0
 39 43  1  0  0  0  0
 21 25  1  0  0  0  0
 21 26  1  0  0  0  0
 29 34  1  0  0  0  0
  8 13  1  0  0  0  0
 18 24  1  0  0  0  0
 38 40  1  0  0  0  0
  7 12  1  0  0  0  0
 28 33  1  0  0  0  0
 17 23  1  0  0  0  0
 22 27  1  0  0  0  0
M  END
$$$$

  -OEChem-05262214473D

 43 42  0     1  0  0  0  0  0999 V2000
   -2.8661   -4.7415    2.2943 C   0  0  0  0  0  0  0  0  0  0  0  0
   -2.0233   -5.5727    2.6109 O   0  0  0  0  0  0  0  0  0  0  0  0
   -4.3078   -5.0134    2.5698 C   0  0  0  0  0  0  0  0  0  0  0  0
   -4.8057   -5.5295    1.7332 H   0  0  0  0  0  0  0  0  0  0  0  0
   -4.4526   -5.6688    3.4436 H   0  0  0  0  0  0  0  0  0  0  0  0
   -4.9255   -4.1233    2.7700 H   0  0  0  0  0  0  0  0  0  0  0  0
   -2.6241   -3.5219    1.6838 N   0  0  0  0  0  0  0  0  0  0  0  0
   -1.3070   -3.0608    1.3315 C   0  0  2  0  0  0  0  0  0  0  0  0
   -1.3931   -1.5680    1.0422 C   0  0  0  0  0  0  0  0  0  0  0  0
   -2.4385   -1.0059    0.7226 O   0  0  0  0  0  0  0  0  0  0  0  0
   -0.7590   -3.8164    0.1309 C   0  0  0  0  0  0  0  0  0  0  0  0
   -3.4188   -2.9207    1.4735 H   0  0  0  0  0  0  0  0  0  0  0  0
   -0.6690   -3.2277    2.2062 H   0  0  0  0  0  0  0  0  0  0  0  0
   -1.3852   -3.6613   -0.7553 H   0  0  0  0  0  0  0  0  0  0  0  0
    0.2542   -3.4843   -0.1182 H   0  0  0  0  0  0  0  0  0  0  0  0
   -0.7257   -4.8930    0.3300 H   0  0  0  0  0  0  0  0  0  0  0  0
   -0.1563   -0.9420    1.1402 N   0  0  0  0  0  0  0  0  0  0  0  0
    0.0261    0.4671    0.9001 C   0  0  2  0  0  0  0  0  0  0  0  0
   -0.4027    0.7845   -0.5310 C   0  0  0  0  0  0  0  0  0  0  0  0
   -1.4665    1.3367   -0.8044 O   0  0  0  0  0  0  0  0  0  0  0  0
    1.4469    0.9344    1.2258 C   0  0  0  0  0  0  0  0  0  0  0  0
    1.8781    0.7987    2.9916 S   0  0  0  0  0  0  0  0  0  0  0  0
    0.6533   -1.4855    1.4300 H   0  0  0  0  0  0  0  0  0  0  0  0
   -0.6739    0.9743    1.5757 H   0  0  0  0  0  0  0  0  0  0  0  0
    2.1822    0.3499    0.6632 H   0  0  0  0  0  0  0  0  0  0  0  0
    1.5695    1.9843    0.9382 H   0  0  0  0  0  0  0  0  0  0  0  0
    3.1224    1.2768    2.8633 H   0  0  0  0  0  0  0  0  0  0  0  0
    0.5296    0.3567   -1.4654 N   0  0  0  0  0  0  0  0  0  0  0  0
    0.3455    0.5335   -2.8869 C   0  0  2  0  0  0  0  0  0  0  0  0
    1.4765   -0.1940   -3.6018 C   0  0  0  0  0  0  0  0  0  0  0  0
    2.5501   -0.4576   -3.0640 O   0  0  0  0  0  0  0  0  0  0  0  0
    0.3237    2.0069   -3.2630 C   0  0  0  0  0  0  0  0  0  0  0  0
    1.3992   -0.0618   -1.1486 H   0  0  0  0  0  0  0  0  0  0  0  0
   -0.6107    0.0642   -3.1428 H   0  0  0  0  0  0  0  0  0  0  0  0
    1.2735    2.4941   -3.0141 H   0  0  0  0  0  0  0  0  0  0  0  0
    0.1555    2.1398   -4.3368 H   0  0  0  0  0  0  0  0  0  0  0  0
   -0.4714    2.5346   -2.7253 H   0  0  0  0  0  0  0  0  0  0  0  0
    1.1623   -0.4761   -4.9238 N   0  0  0  0  0  0  0  0  0  0  0  0
    2.0766   -1.1503   -5.8157 C   0  0  0  0  0  0  0  0  0  0  0  0
    0.2414   -0.2380   -5.2803 H   0  0  0  0  0  0  0  0  0  0  0  0
    2.6708   -0.4050   -6.3647 H   0  0  0  0  0  0  0  0  0  0  0  0
    2.7483   -1.7968   -5.2319 H   0  0  0  0  0  0  0  0  0  0  0  0
    1.5070   -1.7632   -6.5298 H   0  0  0  0  0  0  0  0  0  0  0  0
  1  3  1  0  0  0  0
  1  7  1  0  0  0  0
  1  2  2  0  0  0  0
 29 30  1  0  0  0  0
 30 38  1  0  0  0  0
 30 31  2  0  0  0  0
  8  9  1  0  0  0  0
  9 17  1  0  0  0  0
  9 10  2  0  0  0  0
 18 19  1  0  0  0  0
 19 28  1  0  0  0  0
 19 20  2  0  0  0  0
 29 32  1  0  0  0  0
  8 11  1  0  0  0  0
 38 39  1  0  0  0  0
 18 21  1  0  0  0  0
 21 22  1  0  0  0  0
 28 29  1  0  0  0  0
  7  8  1  0  0  0  0
 17 18  1  0  0  0  0
  3  4  1  0  0  0  0
  3  5  1  0  0  0  0
  3  6  1  0  0  0  0
 32 35  1  0  0  0  0
 32 36  1  0  0  0  0
 32 37  1  0  0  0  0
 11 14  1  0  0  0  0
 11 15  1  0  0  0  0
 11 16  1  0  0  0  0
 39 41  1  0  0  0  0
 39 42  1  0  0  0  0
 39 43  1  0  0  0  0
 21 25  1  0  0  0  0
 21 26  1  0  0  0  0
 29 34  1  0  0  0  0
  8 13  1  0  0  0  0
 18 24  1  0  0  0  0
 38 40  1  0  0  0  0
  7 12  1  0  0  0  0
 28 33  1  0  0  0  0
 17 23  1  0  0  0  0
 22 27  1  0  0  0  0
M  END
$$$$

  -OEChem-05262214473D

 43 42  0     1  0  0  0  0  0999 V2000
   -2.8661   -4.7415    2.2943 C   0  0  0  0  0  0  0  0  0  0  0  0
   -2.0233   -5.5727    2.6109 O   0  0  0  0  0  0  0  0  0  0  0  0
   -4.3078   -5.0134    2.5698 C   0  0  0  0  0  0  0  0  0  0  0  0
   -4.8057   -5.5295    1.7332 H   0  0  0  0  0  0  0  0  0  0  0  0
   -4.4526   -5.6688    3.4436 H   0  0  0  0  0  0  0  0  0  0  0  0
   -4.9255   -4.1233    2.7700 H   0  0  0  0  0  0  0  0  0  0  0  0
   -2.6241   -3.5219    1.6838 N   0  0  0  0  0  0  0  0  0  0  0  0
   -1.3070   -3.0608    1.3315 C   0  0  2  0  0  0  0  0  0  0  0  0
   -1.3931   -1.5680    1.0422 C   0  0  0  0  0  0  0  0  0  0  0  0
   -2.4385   -1.0059    0.7226 O   0  0  0  0  0  0  0  0  0  0  0  0
   -0.7590   -3.8164    0.1309 C   0  0  0  0  0  0  0  0  0  0  0  0
   -3.4188   -2.9207    1.4735 H   0  0  0  0  0  0  0  0  0  0  0  0
   -0.6690   -3.2277    2.2062 H   0  0  0  0  0  0  0  0  0  0  0  0
   -1.3852   -3.6613   -0.7553 H   0  0  0  0  0  0  0  0  0  0  0  0
    0.2542   -3.4843   -0.1182 H   0  0  0  0  0  0  0  0  0  0  0  0
   -0.7257   -4.8930    0.3300 H   0  0  0  0  0  0  0  0  0  0  0  0
   -0.1563   -0.9420    1.1402 N   0  0  0  0  0  0  0  0  0  0  0  0
    0.0261    0.4671    0.9001 C   0  0  2  0  0  0  0  0  0  0  0  0
   -0.4027    0.7845   -0.5310 C   0  0  0  0  0  0  0  0  0  0  0  0
   -1.3175    1.5608   -0.7993 O   0  0  0  0  0  0  0  0  0  0  0  0
    1.4469    0.9344    1.2258 C   0  0  0  0  0  0  0  0  0  0  0  0
    1.8781    0.7987    2.9916 S   0  0  0  0  0  0  0  0  0  0  0  0
    0.6533   -1.4855    1.4300 H   0  0  0  0  0  0  0  0  0  0  0  0
   -0.6739    0.9743    1.5757 H   0  0  0  0  0  0  0  0  0  0  0  0
    2.1822    0.3499    0.6632 H   0  0  0  0  0  0  0  0  0  0  0  0
    1.5695    1.9843    0.9382 H   0  0  0  0  0  0  0  0  0  0  0  0
    3.1224    1.2768    2.8633 H   0  0  0  0  0  0  0  0  0  0  0  0
    0.3388    0.0809   -1.4694 N   0  0  0  0  0  0  0  0  0  0  0  0
    0.1138    0.2032   -2.8908 C   0  0  2  0  0  0  0  0  0  0  0  0
    0.9895   -0.8244   -3.5956 C   0  0  0  0  0  0  0  0  0  0  0  0
    1.9997   -1.3064   -3.0873 O   0  0  0  0  0  0  0  0  0  0  0  0
    0.4235    1.6090   -3.3811 C   0  0  0  0  0  0  0  0  0  0  0  0
    1.1003   -0.5156   -1.1597 H   0  0  0  0  0  0  0  0  0  0  0  0
   -0.9413   -0.0340   -3.0655 H   0  0  0  0  0  0  0  0  0  0  0  0
    1.4763    1.8645   -3.2145 H   0  0  0  0  0  0  0  0  0  0  0  0
    0.2252    1.7078   -4.4535 H   0  0  0  0  0  0  0  0  0  0  0  0
   -0.1860    2.3494   -2.8519 H   0  0  0  0  0  0  0  0  0  0  0  0
    0.5343   -1.1077   -4.8757 N   0  0  0  0  0  0  0  0  0  0  0  0
    1.2017   -2.0424   -5.7514 C   0  0  0  0  0  0  0  0  0  0  0  0
   -0.3227   -0.6758   -5.2083 H   0  0  0  0  0  0  0  0  0  0  0  0
    1.9221   -1.5030   -6.3839 H   0  0  0  0  0  0  0  0  0  0  0  0
    1.7336   -2.7935   -5.1489 H   0  0  0  0  0  0  0  0  0  0  0  0
    0.4578   -2.5432   -6.3884 H   0  0  0  0  0  0  0  0  0  0  0  0
  1  3  1  0  0  0  0
  1  7  1  0  0  0  0
  1  2  2  0  0  0  0
 29 30  1  0  0  0  0
 30 38  1  0  0  0  0
 30 31  2  0  0  0  0
  8  9  1  0  0  0  0
  9 17  1  0  0  0  0
  9 10  2  0  0  0  0
 18 19  1  0  0  0  0
 19 28  1  0  0  0  0
 19 20  2  0  0  0  0
 29 32  1  0  0  0  0
  8 11  1  0  0  0  0
 38 39  1  0  0  0  0
 18 21  1  0  0  0  0
 21 22  1  0  0  0  0
 28 29  1  0  0  0  0
  7  8  1  0  0  0  0
 17 18  1  0  0  0  0
  3  4  1  0  0  0  0
  3  5  1  0  0  0  0
  3  6  1  0  0  0  0
 32 35  1  0  0  0  0
 32 36  1  0  0  0  0
 32 37  1  0  0  0  0
 11 14  1  0  0  0  0
 11 15  1  0  0  0  0
 11 16  1  0  0  0  0
 39 41  1  0  0  0  0
 39 42  1  0  0  0  0
 39 43  1  0  0  0  0
 21 25  1  0  0  0  0
 21 26  1  0  0  0  0
 29 34  1  0  0  0  0
  8 13  1  0  0  0  0
 18 24  1  0  0  0  0
 38 40  1  0  0  0  0
  7 12  1  0  0  0  0
 28 33  1  0  0  0  0
 17 23  1  0  0  0  0
 22 27  1  0  0  0  0
M  END
$$$$

  -OEChem-05262214473D

 43 42  0     1  0  0  0  0  0999 V2000
   -2.8661   -4.7415    2.2943 C   0  0  0  0  0  0  0  0  0  0  0  0
   -2.0233   -5.5727    2.6109 O   0  0  0  0  0  0  0  0  0  0  0  0
   -4.3078   -5.0134    2.5698 C   0  0  0  0  0  0  0  0  0  0  0  0
   -4.8057   -5.5295    1.7332 H   0  0  0  0  0  0  0  0  0  0  0  0
   -4.4526   -5.6688    3.4436 H   0  0  0  0  0  0  0  0  0  0  0  0
   -4.9255   -4.1233    2.7700 H   0  0  0  0  0  0  0  0  0  0  0  0
   -2.6241   -3.5219    1.6838 N   0  0  0  0  0  0  0  0  0  0  0  0
   -1.3070   -3.0608    1.3315 C   0  0  2  0  0  0  0  0  0  0  0  0
   -1.3931   -1.5680    1.0422 C   0  0  0  0  0  0  0  0  0  0  0  0
   -2.4385   -1.0059    0.7226 O   0  0  0  0  0  0  0  0  0  0  0  0
   -0.7590   -3.8164    0.1309 C   0  0  0  0  0  0  0  0  0  0  0  0
   -3.4188   -2.9207    1.4735 H   0  0  0  0  0  0  0  0  0  0  0  0
   -0.6690   -3.2277    2.2062 H   0  0  0  0  0  0  0  0  0  0  0  0
   -1.3852   -3.6613   -0.7553 H   0  0  0  0  0  0  0  0  0  0  0  0
    0.2542   -3.4843   -0.1182 H   0  0  0  0  0  0  0  0  0  0  0  0
   -0.7257   -4.8930    0.3300 H   0  0  0  0  0  0  0  0  0  0  0  0
   -0.1563   -0.9420    1.1402 N   0  0  0  0  0  0  0  0  0  0  0  0
    0.0261    0.4671    0.9001 C   0  0  2  0  0  0  0  0  0  0  0  0
   -0.4027    0.7845   -0.5310 C   0  0  0  0  0  0  0  0  0  0  0  0
   -1.1189    1.7414   -0.8188 O   0  0  0  0  0  0  0  0  0  0  0  0
    1.4469    0.9344    1.2258 C   0  0  0  0  0  0  0  0  0  0  0  0
    1.8781    0.7987    2.9916 S   0  0  0  0  0  0  0  0  0  0  0  0
    0.6533   -1.4855    1.4300 H   0  0  0  0  0  0  0  0  0  0  0  0
   -0.6739    0.9743    1.5757 H   0  0  0  0  0  0  0  0  0  0  0  0
    2.1822    0.3499    0.6632 H   0  0  0  0  0  0  0  0  0  0  0  0
    1.5695    1.9843    0.9382 H   0  0  0  0  0  0  0  0  0  0  0  0
    3.1224    1.2768    2.8633 H   0  0  0  0  0  0  0  0  0  0  0  0
    0.0874   -0.1394   -1.4429 N   0  0  0  0  0  0  0  0  0  0  0  0
   -0.1903   -0.0600   -2.8580 C   0  0  2  0  0  0  0  0  0  0  0  0
    0.3665   -1.3147   -3.5177 C   0  0  0  0  0  0  0  0  0  0  0  0
    1.2609   -1.9944   -3.0186 O   0  0  0  0  0  0  0  0  0  0  0  0
    0.4170    1.1919   -3.4717 C   0  0  0  0  0  0  0  0  0  0  0  0
    0.7010   -0.8822   -1.1213 H   0  0  0  0  0  0  0  0  0  0  0  0
   -1.2803   -0.0430   -2.9659 H   0  0  0  0  0  0  0  0  0  0  0  0
    1.5087    1.1927   -3.3732 H   0  0  0  0  0  0  0  0  0  0  0  0
    0.1814    1.2652   -4.5385 H   0  0  0  0  0  0  0  0  0  0  0  0
    0.0379    2.0921   -2.9761 H   0  0  0  0  0  0  0  0  0  0  0  0
   -0.2228   -1.5621   -4.7496 N   0  0  0  0  0  0  0  0  0  0  0  0
    0.1438   -2.6873   -5.5774 C   0  0  0  0  0  0  0  0  0  0  0  0
   -0.9700   -0.9566   -5.0766 H   0  0  0  0  0  0  0  0  0  0  0  0
    0.9317   -2.3833   -6.2823 H   0  0  0  0  0  0  0  0  0  0  0  0
    0.5161   -3.5042   -4.9417 H   0  0  0  0  0  0  0  0  0  0  0  0
   -0.7372   -3.0319   -6.1387 H   0  0  0  0  0  0  0  0  0  0  0  0
  1  3  1  0  0  0  0
  1  7  1  0  0  0  0
  1  2  2  0  0  0  0
 29 30  1  0  0  0  0
 30 38  1  0  0  0  0
 30 31  2  0  0  0  0
  8  9  1  0  0  0  0
  9 17  1  0  0  0  0
  9 10  2  0  0  0  0
 18 19  1  0  0  0  0
 19 28  1  0  0  0  0
 19 20  2  0  0  0  0
 29 32  1  0  0  0  0
  8 11  1  0  0  0  0
 38 39  1  0  0  0  0
 18 21  1  0  0  0  0
 21 22  1  0  0  0  0
 28 29  1  0  0  0  0
  7  8  1  0  0  0  0
 17 18  1  0  0  0  0
  3  4  1  0  0  0  0
  3  5  1  0  0  0  0
  3  6  1  0  0  0  0
 32 35  1  0  0  0  0
 32 36  1  0  0  0  0
 32 37  1  0  0  0  0
 11 14  1  0  0  0  0
 11 15  1  0  0  0  0
 11 16  1  0  0  0  0
 39 41  1  0  0  0  0
 39 42  1  0  0  0  0
 39 43  1  0  0  0  0
 21 25  1  0  0  0  0
 21 26  1  0  0  0  0
 29 34  1  0  0  0  0
  8 13  1  0  0  0  0
 18 24  1  0  0  0  0
 38 40  1  0  0  0  0
  7 12  1  0  0  0  0
 28 33  1  0  0  0  0
 17 23  1  0  0  0  0
 22 27  1  0  0  0  0
M  END
$$$$

  -OEChem-05262214473D

 43 42  0     1  0  0  0  0  0999 V2000
   -2.8661   -4.7415    2.2943 C   0  0  0  0  0  0  0  0  0  0  0  0
   -2.0233   -5.5727    2.6109 O   0  0  0  0  0  0  0  0  0  0  0  0
   -4.3078   -5.0134    2.5698 C   0  0  0  0  0  0  0  0  0  0  0  0
   -4.8057   -5.5295    1.7332 H   0  0  0  0  0  0  0  0  0  0  0  0
   -4.4526   -5.6688    3.4436 H   0  0  0  0  0  0  0  0  0  0  0  0
   -4.9255   -4.1233    2.7700 H   0  0  0  0  0  0  0  0  0  0  0  0
   -2.6241   -3.5219    1.6838 N   0  0  0  0  0  0  0  0  0  0  0  0
   -1.3070   -3.0608    1.3315 C   0  0  2  0  0  0  0  0  0  0  0  0
   -1.3931   -1.5680    1.0422 C   0  0  0  0  0  0  0  0  0  0  0  0
   -2.4385   -1.0059    0.7226 O   0  0  0  0  0  0  0  0  0  0  0  0
   -0.7590   -3.8164    0.1309 C   0  0  0  0  0  0  0  0  0  0  0  0
   -3.4188   -2.9207    1.4735 H   0  0  0  0  0  0  0  0  0  0  0  0
   -0.6690   -3.2277    2.2062 H   0  0  0  0  0  0  0  0  0  0  0  0
   -1.3852   -3.6613   -0.7553 H   0  0  0  0  0  0  0  0  0  0  0  0
    0.2542   -3.4843   -0.1182 H   0  0  0  0  0  0  0  0  0  0  0  0
   -0.7257   -4.8930    0.3300 H   0  0  0  0  0  0  0  0  0  0  0  0
   -0.1563   -0.9420    1.1402 N   0  0  0  0  0  0  0  0  0  0  0  0
    0.0261    0.4671    0.9001 C   0  0  2  0  0  0  0  0  0  0  0  0
   -0.4027    0.7845   -0.5310 C   0  0  0  0  0  0  0  0  0  0  0  0
   -0.8843    1.8663   -0.8614 O   0  0  0  0  0  0  0  0  0  0  0  0
    1.4469    0.9344    1.2258 C   0  0  0  0  0  0  0  0  0  0  0  0
    1.8781    0.7987    2.9916 S   0  0  0  0  0  0  0  0  0  0  0  0
    0.6533   -1.4855    1.4300 H   0  0  0  0  0  0  0  0  0  0  0  0
   -0.6739    0.9743    1.5757 H   0  0  0  0  0  0  0  0  0  0  0  0
    2.1822    0.3499    0.6632 H   0  0  0  0  0  0  0  0  0  0  0  0
    1.5695    1.9843    0.9382 H   0  0  0  0  0  0  0  0  0  0  0  0
    3.1224    1.2768    2.8633 H   0  0  0  0  0  0  0  0  0  0  0  0
   -0.2074   -0.2894   -1.3878 N   0  0  0  0  0  0  0  0  0  0  0  0
   -0.5461   -0.2381   -2.7909 C   0  0  2  0  0  0  0  0  0  0  0  0
   -0.3500   -1.6316   -3.3732 C   0  0  0  0  0  0  0  0  0  0  0  0
    0.3842   -2.4749   -2.8624 O   0  0  0  0  0  0  0  0  0  0  0  0
    0.3047    0.7840   -3.5285 C   0  0  0  0  0  0  0  0  0  0  0  0
    0.2284   -1.1367   -1.0362 H   0  0  0  0  0  0  0  0  0  0  0  0
   -1.6046    0.0378   -2.8508 H   0  0  0  0  0  0  0  0  0  0  0  0
    1.3685    0.5243   -3.4794 H   0  0  0  0  0  0  0  0  0  0  0  0
    0.0272    0.8420   -4.5862 H   0  0  0  0  0  0  0  0  0  0  0  0
    0.1852    1.7803   -3.0894 H   0  0  0  0  0  0  0  0  0  0  0  0
   -1.0576   -1.8081   -4.5540 N   0  0  0  0  0  0  0  0  0  0  0  0
   -1.0251   -3.0410   -5.3056 C   0  0  0  0  0  0  0  0  0  0  0  0
   -1.6562   -1.0613   -4.8942 H   0  0  0  0  0  0  0  0  0  0  0  0
   -0.2331   -2.9861   -6.0670 H   0  0  0  0  0  0  0  0  0  0  0  0
   -0.8210   -3.8803   -4.6244 H   0  0  0  0  0  0  0  0  0  0  0  0
   -1.9965   -3.1961   -5.7977 H   0  0  0  0  0  0  0  0  0  0  0  0
  1  3  1  0  0  0  0
  1  7  1  0  0  0  0
  1  2  2  0  0  0  0
 29 30  1  0  0  0  0
 30 38  1  0  0  0  0
 30 31  2  0  0  0  0
  8  9  1  0  0  0  0
  9 17  1  0  0  0  0
  9 10  2  0  0  0  0
 18 19  1  0  0  0  0
 19 28  1  0  0  0  0
 19 20  2  0  0  0  0
 29 32  1  0  0  0  0
  8 11  1  0  0  0  0
 38 39  1  0  0  0  0
 18 21  1  0  0  0  0
 21 22  1  0  0  0  0
 28 29  1  0  0  0  0
  7  8  1  0  0  0  0
 17 18  1  0  0  0  0
  3  4  1  0  0  0  0
  3  5  1  0  0  0  0
  3  6  1  0  0  0  0
 32 35  1  0  0  0  0
 32 36  1  0  0  0  0
 32 37  1  0  0  0  0
 11 14  1  0  0  0  0
 11 15  1  0  0  0  0
 11 16  1  0  0  0  0
 39 41  1  0  0  0  0
 39 42  1  0  0  0  0
 39 43  1  0  0  0  0
 21 25  1  0  0  0  0
 21 26  1  0  0  0  0
 29 34  1  0  0  0  0
  8 13  1  0  0  0  0
 18 24  1  0  0  0  0
 38 40  1  0  0  0  0
  7 12  1  0  0  0  0
 28 33  1  0  0  0  0
 17 23  1  0  0  0  0
 22 27  1  0  0  0  0
M  END
$$$$

  -OEChem-05262214473D

 43 42  0     1  0  0  0  0  0999 V2000
   -2.8661   -4.7415    2.2943 C   0  0  0  0  0  0  0  0  0  0  0  0
   -2.0233   -5.5727    2.6109 O   0  0  0  0  0  0  0  0  0  0  0  0
   -4.3078   -5.0134    2.5698 C   0  0  0  0  0  0  0  0  0  0  0  0
   -4.8057   -5.5295    1.7332 H   0  0  0  0  0  0  0  0  0  0  0  0
   -4.4526   -5.6688    3.4436 H   0  0  0  0  0  0  0  0  0  0  0  0
   -4.9255   -4.1233    2.7700 H   0  0  0  0  0  0  0  0  0  0  0  0
   -2.6241   -3.5219    1.6838 N   0  0  0  0  0  0  0  0  0  0  0  0
   -1.3070   -3.0608    1.3315 C   0  0  2  0  0  0  0  0  0  0  0  0
   -1.3931   -1.5680    1.0422 C   0  0  0  0  0  0  0  0  0  0  0  0
   -2.4385   -1.0059    0.7226 O   0  0  0  0  0  0  0  0  0  0  0  0
   -0.7590   -3.8164    0.1309 C   0  0  0  0  0  0  0  0  0  0  0  0
   -3.4188   -2.9207    1.4735 H   0  0  0  0  0  0  0  0  0  0  0  0
   -0.6690   -3.2277    2.2062 H   0  0  0  0  0  0  0  0  0  0  0  0
   -1.3852   -3.6613   -0.7553 H   0  0  0  0  0  0  0  0  0  0  0  0
    0.2542   -3.4843   -0.1182 H   0  0  0  0  0  0  0  0  0  0  0  0
   -0.7257   -4.8930    0.3300 H   0  0  0  0  0  0  0  0  0  0  0  0
   -0.1563   -0.9420    1.1402 N   0  0  0  0  0  0  0  0  0  0  0  0
    0.0261    0.4671    0.9001 C   0  0  2  0  0  0  0  0  0  0  0  0
   -0.4027    0.7845   -0.5310 C   0  0  0  0  0  0  0  0  0  0  0  0
   -0.6297    1.9270   -0.9242 O   0  0  0  0  0  0  0  0  0  0  0  0
    1.4469    0.9344    1.2258 C   0  0  0  0  0  0  0  0  0  0  0  0
    1.8781    0.7987    2.9916 S   0  0  0  0  0  0  0  0  0  0  0  0
    0.6533   -1.4855    1.4300 H   0  0  0  0  0  0  0  0  0  0  0  0
   -0.6739    0.9743    1.5757 H   0  0  0  0  0  0  0  0  0  0  0  0
    2.1822    0.3499    0.6632 H   0  0  0  0  0  0  0  0  0  0  0  0
    1.5695    1.9843    0.9382 H   0  0  0  0  0  0  0  0  0  0  0  0
    3.1224    1.2768    2.8633 H   0  0  0  0  0  0  0  0  0  0  0  0
   -0.5256   -0.3587   -1.3079 N   0  0  0  0  0  0  0  0  0  0  0  0
   -0.9294   -0.3189   -2.6939 C   0  0  2  0  0  0  0  0  0  0  0  0
   -1.1111   -1.7534   -3.1722 C   0  0  0  0  0  0  0  0  0  0  0  0
   -0.5708   -2.7150   -2.6295 O   0  0  0  0  0  0  0  0  0  0  0  0
    0.0943    0.4131   -3.5477 C   0  0  0  0  0  0  0  0  0  0  0  0
   -0.2852   -1.2618   -0.9100 H   0  0  0  0  0  0  0  0  0  0  0  0
   -1.8920    0.2028   -2.7281 H   0  0  0  0  0  0  0  0  0  0  0  0
    1.0653   -0.0950   -3.5259 H   0  0  0  0  0  0  0  0  0  0  0  0
   -0.2269    0.4672   -4.5931 H   0  0  0  0  0  0  0  0  0  0  0  0
    0.2457    1.4351   -3.1841 H   0  0  0  0  0  0  0  0  0  0  0  0
   -1.9131   -1.8292   -4.3023 N   0  0  0  0  0  0  0  0  0  0  0  0
   -2.2253   -3.0795   -4.9544 C   0  0  0  0  0  0  0  0  0  0  0  0
   -2.3346   -0.9828   -4.6735 H   0  0  0  0  0  0  0  0  0  0  0  0
   -1.4927   -3.2703   -5.7525 H   0  0  0  0  0  0  0  0  0  0  0  0
   -2.1868   -3.8962   -4.2187 H   0  0  0  0  0  0  0  0  0  0  0  0
   -3.2344   -3.0244   -5.3887 H   0  0  0  0  0  0  0  0  0  0  0  0
  1  3  1  0  0  0  0
  1  7  1  0  0  0  0
  1  2  2  0  0  0  0
 29 30  1  0  0  0  0
 30 38  1  0  0  0  0
 30 31  2  0  0  0  0
  8  9  1  0  0  0  0
  9 17  1  0  0  0  0
  9 10  2  0  0  0  0
 18 19  1  0  0  0  0
 19 28  1  0  0  0  0
 19 20  2  0  0  0  0
 29 32  1  0  0  0  0
  8 11  1  0  0  0  0
 38 39  1  0  0  0  0
 18 21  1  0  0  0  0
 21 22  1  0  0  0  0
 28 29  1  0  0  0  0
  7  8  1  0  0  0  0
 17 18  1  0  0  0  0
  3  4  1  0  0  0  0
  3  5  1  0  0  0  0
  3  6  1  0  0  0  0
 32 35  1  0  0  0  0
 32 36  1  0  0  0  0
 32 37  1  0  0  0  0
 11 14  1  0  0  0  0
 11 15  1  0  0  0  0
 11 16  1  0  0  0  0
 39 41  1  0  0  0  0
 39 42  1  0  0  0  0
 39 43  1  0  0  0  0
 21 25  1  0  0  0  0
 21 26  1  0  0  0  0
 29 34  1  0  0  0  0
  8 13  1  0  0  0  0
 18 24  1  0  0  0  0
 38 40  1  0  0  0  0
  7 12  1  0  0  0  0
 28 33  1  0  0  0  0
 17 23  1  0  0  0  0
 22 27  1  0  0  0  0
M  END
$$$$

  -OEChem-05262214473D

 43 42  0     1  0  0  0  0  0999 V2000
   -2.8661   -4.7415    2.2943 C   0  0  0  0  0  0  0  0  0  0  0  0
   -2.0233   -5.5727    2.6109 O   0  0  0  0  0  0  0  0  0  0  0  0
   -4.3078   -5.0134    2.5698 C   0  0  0  0  0  0  0  0  0  0  0  0
   -4.8057   -5.5295    1.7332 H   0  0  0  0  0  0  0  0  0  0  0  0
   -4.4526   -5.6688    3.4436 H   0  0  0  0  0  0  0  0  0  0  0  0
   -4.9255   -4.1233    2.7700 H   0  0  0  0  0  0  0  0  0  0  0  0
   -2.6241   -3.5219    1.6838 N   0  0  0  0  0  0  0  0  0  0  0  0
   -1.3070   -3.0608    1.3315 C   0  0  2  0  0  0  0  0  0  0  0  0
   -1.3931   -1.5680    1.0422 C   0  0  0  0  0  0  0  0  0  0  0  0
   -2.4385   -1.0059    0.7226 O   0  0  0  0  0  0  0  0  0  0  0  0
   -0.7590   -3.8164    0.1309 C   0  0  0  0  0  0  0  0  0  0  0  0
   -3.4188   -2.9207    1.4735 H   0  0  0  0  0  0  0  0  0  0  0  0
   -0.6690   -3.2277    2.2062 H   0  0  0  0  0  0  0  0  0  0  0  0
   -1.3852   -3.6613   -0.7553 H   0  0  0  0  0  0  0  0  0  0  0  0
    0.2542   -3.4843   -0.1182 H   0  0  0  0  0  0  0  0  0  0  0  0
   -0.7257   -4.8930    0.3300 H   0  0  0  0  0  0  0  0  0  0  0  0
   -0.1563   -0.9420    1.1402 N   0  0  0  0  0  0  0  0  0  0  0  0
    0.0261    0.4671    0.9001 C   0  0  2  0  0  0  0  0  0  0  0  0
   -0.4027    0.7845   -0.5310 C   0  0  0  0  0  0  0  0  0  0  0  0
   -0.3725    1.9193   -1.0030 O   0  0  0  0  0  0  0  0  0  0  0  0
    1.4469    0.9344    1.2258 C   0  0  0  0  0  0  0  0  0  0  0  0
    1.8781    0.7987    2.9916 S   0  0  0  0  0  0  0  0  0  0  0  0
    0.6533   -1.4855    1.4300 H   0  0  0  0  0  0  0  0  0  0  0  0
   -0.6739    0.9743    1.5757 H   0  0  0  0  0  0  0  0  0  0  0  0
    2.1822    0.3499    0.6632 H   0  0  0  0  0  0  0  0  0  0  0  0
    1.5695    1.9843    0.9382 H   0  0  0  0  0  0  0  0  0  0  0  0
    3.1224    1.2768    2.8633 H   0  0  0  0  0  0  0  0  0  0  0  0
   -0.8455   -0.3427   -1.2085 N   0  0  0  0  0  0  0  0  0  0  0  0
   -1.3140   -0.2970   -2.5738 C   0  0  2  0  0  0  0  0  0  0  0  0
   -1.8651   -1.6719   -2.9281 C   0  0  0  0  0  0  0  0  0  0  0  0
   -1.5389   -2.6984   -2.3357 O   0  0  0  0  0  0  0  0  0  0  0  0
   -0.2000    0.1044   -3.5280 C   0  0  0  0  0  0  0  0  0  0  0  0
   -0.8049   -1.2488   -0.7514 H   0  0  0  0  0  0  0  0  0  0  0  0
   -2.1231    0.4408   -2.6060 H   0  0  0  0  0  0  0  0  0  0  0  0
    0.6198   -0.6230   -3.5095 H   0  0  0  0  0  0  0  0  0  0  0  0
   -0.5637    0.1663   -4.5590 H   0  0  0  0  0  0  0  0  0  0  0  0
    0.2153    1.0802   -3.2537 H   0  0  0  0  0  0  0  0  0  0  0  0
   -2.7310   -1.6237   -4.0116 N   0  0  0  0  0  0  0  0  0  0  0  0
   -3.3750   -2.8000   -4.5479 C   0  0  0  0  0  0  0  0  0  0  0  0
   -2.9590   -0.7264   -4.4295 H   0  0  0  0  0  0  0  0  0  0  0  0
   -2.7614   -3.2164   -5.3604 H   0  0  0  0  0  0  0  0  0  0  0  0
   -3.4880   -3.5510   -3.7521 H   0  0  0  0  0  0  0  0  0  0  0  0
   -4.3665   -2.5287   -4.9395 H   0  0  0  0  0  0  0  0  0  0  0  0
  1  3  1  0  0  0  0
  1  7  1  0  0  0  0
  1  2  2  0  0  0  0
 29 30  1  0  0  0  0
 30 38  1  0  0  0  0
 30 31  2  0  0  0  0
  8  9  1  0  0  0  0
  9 17  1  0  0  0  0
  9 10  2  0  0  0  0
 18 19  1  0  0  0  0
 19 28  1  0  0  0  0
 19 20  2  0  0  0  0
 29 32  1  0  0  0  0
  8 11  1  0  0  0  0
 38 39  1  0  0  0  0
 18 21  1  0  0  0  0
 21 22  1  0  0  0  0
 28 29  1  0  0  0  0
  7  8  1  0  0  0  0
 17 18  1  0  0  0  0
  3  4  1  0  0  0  0
  3  5  1  0  0  0  0
  3  6  1  0  0  0  0
 32 35  1  0  0  0  0
 32 36  1  0  0  0  0
 32 37  1  0  0  0  0
 11 14  1  0  0  0  0
 11 15  1  0  0  0  0
 11 16  1  0  0  0  0
 39 41  1  0  0  0  0
 39 42  1  0  0  0  0
 39 43  1  0  0  0  0
 21 25  1  0  0  0  0
 21 26  1  0  0  0  0
 29 34  1  0  0  0  0
  8 13  1  0  0  0  0
 18 24  1  0  0  0  0
 38 40  1  0  0  0  0
  7 12  1  0  0  0  0
 28 33  1  0  0  0  0
 17 23  1  0  0  0  0
 22 27  1  0  0  0  0
M  END
$$$$

  -OEChem-05262214473D

 43 42  0     1  0  0  0  0  0999 V2000
   -2.8661   -4.7415    2.2943 C   0  0  0  0  0  0  0  0  0  0  0  0
   -2.0233   -5.5727    2.6109 O   0  0  0  0  0  0  0  0  0  0  0  0
   -4.3078   -5.0134    2.5698 C   0  0  0  0  0  0  0  0  0  0  0  0
   -4.8057   -5.5295    1.7332 H   0  0  0  0  0  0  0  0  0  0  0  0
   -4.4526   -5.6688    3.4436 H   0  0  0  0  0  0  0  0  0  0  0  0
   -4.9255   -4.1233    2.7700 H   0  0  0  0  0  0  0  0  0  0  0  0
   -2.6241   -3.5219    1.6838 N   0  0  0  0  0  0  0  0  0  0  0  0
   -1.3070   -3.0608    1.3315 C   0  0  2  0  0  0  0  0  0  0  0  0
   -1.3931   -1.5680    1.0422 C   0  0  0  0  0  0  0  0  0  0  0  0
   -2.4385   -1.0059    0.7226 O   0  0  0  0  0  0  0  0  0  0  0  0
   -0.7590   -3.8164    0.1309 C   0  0  0  0  0  0  0  0  0  0  0  0
   -3.4188   -2.9207    1.4735 H   0  0  0  0  0  0  0  0  0  0  0  0
   -0.6690   -3.2277    2.2062 H   0  0  0  0  0  0  0  0  0  0  0  0
   -1.3852   -3.6613   -0.7553 H   0  0  0  0  0  0  0  0  0  0  0  0
    0.2542   -3.4843   -0.1182 H   0  0  0  0  0  0  0  0  0  0  0  0
   -0.7257   -4.8930    0.3300 H   0  0  0  0  0  0  0  0  0  0  0  0
   -0.1563   -0.9420    1.1402 N   0  0  0  0  0  0  0  0  0  0  0  0
    0.0261    0.4671    0.9001 C   0  0  2  0  0  0  0  0  0  0  0  0
   -0.4027    0.7845   -0.5310 C   0  0  0  0  0  0  0  0  0  0  0  0
   -0.1301    1.8437   -1.0924 O   0  0  0  0  0  0  0  0  0  0  0  0
    1.4469    0.9344    1.2258 C   0  0  0  0  0  0  0  0  0  0  0  0
    1.8781    0.7987    2.9916 S   0  0  0  0  0  0  0  0  0  0  0  0
    0.6533   -1.4855    1.4300 H   0  0  0  0  0  0  0  0  0  0  0  0
   -0.6739    0.9743    1.5757 H   0  0  0  0  0  0  0  0  0  0  0  0
    2.1822    0.3499    0.6632 H   0  0  0  0  0  0  0  0  0  0  0  0
    1.5695    1.9843    0.9382 H   0  0  0  0  0  0  0  0  0  0  0  0
    3.1224    1.2768    2.8633 H   0  0  0  0  0  0  0  0  0  0  0  0
   -1.1452   -0.2424   -1.0964 N   0  0  0  0  0  0  0  0  0  0  0  0
   -1.6737   -0.1739   -2.4387 C   0  0  2  0  0  0  0  0  0  0  0  0
   -2.5604   -1.3926   -2.6578 C   0  0  0  0  0  0  0  0  0  0  0  0
   -2.4542   -2.4262   -2.0010 O   0  0  0  0  0  0  0  0  0  0  0  0
   -0.5580   -0.1209   -3.4707 C   0  0  0  0  0  0  0  0  0  0  0  0
   -1.2951   -1.0988   -0.5712 H   0  0  0  0  0  0  0  0  0  0  0  0
   -2.2820    0.7356   -2.4930 H   0  0  0  0  0  0  0  0  0  0  0  0
    0.0622   -1.0238   -3.4313 H   0  0  0  0  0  0  0  0  0  0  0  0
   -0.9601   -0.0402   -4.4860 H   0  0  0  0  0  0  0  0  0  0  0  0
    0.0962    0.7396   -3.2935 H   0  0  0  0  0  0  0  0  0  0  0  0
   -3.4556   -1.2058   -3.7018 N   0  0  0  0  0  0  0  0  0  0  0  0
   -4.3960   -2.2217   -4.1137 C   0  0  0  0  0  0  0  0  0  0  0  0
   -3.4869   -0.3096   -4.1789 H   0  0  0  0  0  0  0  0  0  0  0  0
   -3.9528   -2.8282   -4.9173 H   0  0  0  0  0  0  0  0  0  0  0  0
   -4.6361   -2.8680   -3.2566 H   0  0  0  0  0  0  0  0  0  0  0  0
   -5.3156   -1.7426   -4.4808 H   0  0  0  0  0  0  0  0  0  0  0  0
  1  3  1  0  0  0  0
  1  7  1  0  0  0  0
  1  2  2  0  0  0  0
 29 30  1  0  0  0  0
 30 38  1  0  0  0  0
 30 31  2  0  0  0  0
  8  9  1  0  0  0  0
  9 17  1  0  0  0  0
  9 10  2  0  0  0  0
 18 19  1  0  0  0  0
 19 28  1  0  0  0  0
 19 20  2  0  0  0  0
 29 32  1  0  0  0  0
  8 11  1  0  0  0  0
 38 39  1  0  0  0  0
 18 21  1  0  0  0  0
 21 22  1  0  0  0  0
 28 29  1  0  0  0  0
  7  8  1  0  0  0  0
 17 18  1  0  0  0  0
  3  4  1  0  0  0  0
  3  5  1  0  0  0  0
  3  6  1  0  0  0  0
 32 35  1  0  0  0  0
 32 36  1  0  0  0  0
 32 37  1  0  0  0  0
 11 14  1  0  0  0  0
 11 15  1  0  0  0  0
 11 16  1  0  0  0  0
 39 41  1  0  0  0  0
 39 42  1  0  0  0  0
 39 43  1  0  0  0  0
 21 25  1  0  0  0  0
 21 26  1  0  0  0  0
 29 34  1  0  0  0  0
  8 13  1  0  0  0  0
 18 24  1  0  0  0  0
 38 40  1  0  0  0  0
  7 12  1  0  0  0  0
 28 33  1  0  0  0  0
 17 23  1  0  0  0  0
 22 27  1  0  0  0  0
M  END
$$$$

  -OEChem-05262214473D

 43 42  0     1  0  0  0  0  0999 V2000
   -2.8661   -4.7415    2.2943 C   0  0  0  0  0  0  0  0  0  0  0  0
   -2.0233   -5.5727    2.6109 O   0  0  0  0  0  0  0  0  0  0  0  0
   -4.3078   -5.0134    2.5698 C   0  0  0  0  0  0  0  0  0  0  0  0
   -4.8057   -5.5295    1.7332 H   0  0  0  0  0  0  0  0  0  0  0  0
   -4.4526   -5.6688    3.4436 H   0  0  0  0  0  0  0  0  0  0  0  0
   -4.9255   -4.1233    2.7700 H   0  0  0  0  0  0  0  0  0  0  0  0
   -2.6241   -3.5219    1.6838 N   0  0  0  0  0  0  0  0  0  0  0  0
   -1.3070   -3.0608    1.3315 C   0  0  2  0  0  0  0  0  0  0  0  0
   -1.3931   -1.5680    1.0422 C   0  0  0  0  0  0  0  0  0  0  0  0
   -2.4385   -1.0059    0.7226 O   0  0  0  0  0  0  0  0  0  0  0  0
   -0.7590   -3.8164    0.1309 C   0  0  0  0  0  0  0  0  0  0  0  0
   -3.4188   -2.9207    1.4735 H   0  0  0  0  0  0  0  0  0  0  0  0
   -0.6690   -3.2277    2.2062 H   0  0  0  0  0  0  0  0  0  0  0  0
   -1.3852   -3.6613   -0.7553 H   0  0  0  0  0  0  0  0  0  0  0  0
    0.2542   -3.4843   -0.1182 H   0  0  0  0  0  0  0  0  0  0  0  0
   -0.7257   -4.8930    0.3300 H   0  0  0  0  0  0  0  0  0  0  0  0
   -0.1563   -0.9420    1.1402 N   0  0  0  0  0  0  0  0  0  0  0  0
    0.0261    0.4671    0.9001 C   0  0  2  0  0  0  0  0  0  0  0  0
   -0.4027    0.7845   -0.5310 C   0  0  0  0  0  0  0  0  0  0  0  0
    0.0808    1.7055   -1.1863 O   0  0  0  0  0  0  0  0  0  0  0  0
    1.4469    0.9344    1.2258 C   0  0  0  0  0  0  0  0  0  0  0  0
    1.8781    0.7987    2.9916 S   0  0  0  0  0  0  0  0  0  0  0  0
    0.6533   -1.4855    1.4300 H   0  0  0  0  0  0  0  0  0  0  0  0
   -0.6739    0.9743    1.5757 H   0  0  0  0  0  0  0  0  0  0  0  0
    2.1822    0.3499    0.6632 H   0  0  0  0  0  0  0  0  0  0  0  0
    1.5695    1.9843    0.9382 H   0  0  0  0  0  0  0  0  0  0  0  0
    3.1224    1.2768    2.8633 H   0  0  0  0  0  0  0  0  0  0  0  0
   -1.4044   -0.0647   -0.9793 N   0  0  0  0  0  0  0  0  0  0  0  0
   -1.9841    0.0422   -2.2978 C   0  0  2  0  0  0  0  0  0  0  0  0
   -3.1498   -0.9345   -2.3796 C   0  0  0  0  0  0  0  0  0  0  0  0
   -3.2543   -1.9170   -1.6483 O   0  0  0  0  0  0  0  0  0  0  0  0
   -0.9553   -0.2475   -3.3797 C   0  0  0  0  0  0  0  0  0  0  0  0
   -1.7226   -0.8218   -0.3817 H   0  0  0  0  0  0  0  0  0  0  0  0
   -2.3579    1.0671   -2.3968 H   0  0  0  0  0  0  0  0  0  0  0  0
   -0.5693   -1.2701   -3.2967 H   0  0  0  0  0  0  0  0  0  0  0  0
   -1.3891   -0.1382   -4.3792 H   0  0  0  0  0  0  0  0  0  0  0  0
   -0.1036    0.4367   -3.3009 H   0  0  0  0  0  0  0  0  0  0  0  0
   -4.0375   -0.6039   -3.3940 N   0  0  0  0  0  0  0  0  0  0  0  0
   -5.2185   -1.3839   -3.6814 C   0  0  0  0  0  0  0  0  0  0  0  0
   -3.8821    0.2393   -3.9387 H   0  0  0  0  0  0  0  0  0  0  0  0
   -4.9855   -2.1321   -4.4534 H   0  0  0  0  0  0  0  0  0  0  0  0
   -5.5528   -1.8938   -2.7659 H   0  0  0  0  0  0  0  0  0  0  0  0
   -6.0171   -0.7199   -4.0437 H   0  0  0  0  0  0  0  0  0  0  0  0
  1  3  1  0  0  0  0
  1  7  1  0  0  0  0
  1  2  2  0  0  0  0
 29 30  1  0  0  0  0
 30 38  1  0  0  0  0
 30 31  2  0  0  0  0
  8  9  1  0  0  0  0
  9 17  1  0  0  0  0
  9 10  2  0  0  0  0
 18 19  1  0  0  0  0
 19 28  1  0  0  0  0
 19 20  2  0  0  0  0
 29 32  1  0  0  0  0
  8 11  1  0  0  0  0
 38 39  1  0  0  0  0
 18 21  1  0  0  0  0
 21 22  1  0  0  0  0
 28 29  1  0  0  0  0
  7  8  1  0  0  0  0
 17 18  1  0  0  0  0
  3  4  1  0  0  0  0
  3  5  1  0  0  0  0
  3  6  1  0  0  0  0
 32 35  1  0  0  0  0
 32 36  1  0  0  0  0
 32 37  1  0  0  0  0
 11 14  1  0  0  0  0
 11 15  1  0  0  0  0
 11 16  1  0  0  0  0
 39 41  1  0  0  0  0
 39 42  1  0  0  0  0
 39 43  1  0  0  0  0
 21 25  1  0  0  0  0
 21 26  1  0  0  0  0
 29 34  1  0  0  0  0
  8 13  1  0  0  0  0
 18 24  1  0  0  0  0
 38 40  1  0  0  0  0
  7 12  1  0  0  0  0
 28 33  1  0  0  0  0
 17 23  1  0  0  0  0
 22 27  1  0  0  0  0
M  END
$$$$

  -OEChem-05262214473D

 43 42  0     1  0  0  0  0  0999 V2000
   -2.8661   -4.7415    2.2943 C   0  0  0  0  0  0  0  0  0  0  0  0
   -2.0233   -5.5727    2.6109 O   0  0  0  0  0  0  0  0  0  0  0  0
   -4.3078   -5.0134    2.5698 C   0  0  0  0  0  0  0  0  0  0  0  0
   -4.8057   -5.5295    1.7332 H   0  0  0  0  0  0  0  0  0  0  0  0
   -4.4526   -5.6688    3.4436 H   0  0  0  0  0  0  0  0  0  0  0  0
   -4.9255   -4.1233    2.7700 H   0  0  0  0  0  0  0  0  0  0  0  0
   -2.6241   -3.5219    1.6838 N   0  0  0  0  0  0  0  0  0  0  0  0
   -1.3070   -3.0608    1.3315 C   0  0  2  0  0  0  0  0  0  0  0  0
   -1.3931   -1.5680    1.0422 C   0  0  0  0  0  0  0  0  0  0  0  0
   -2.4385   -1.0059    0.7226 O   0  0  0  0  0  0  0  0  0  0  0  0
   -0.7590   -3.8164    0.1309 C   0  0  0  0  0  0  0  0  0  0  0  0
   -3.4188   -2.9207    1.4735 H   0  0  0  0  0  0  0  0  0  0  0  0
   -0.6690   -3.2277    2.2062 H   0  0  0  0  0  0  0  0  0  0  0  0
   -1.3852   -3.6613   -0.7553 H   0  0  0  0  0  0  0  0  0  0  0  0
    0.2542   -3.4843   -0.1182 H   0  0  0  0  0  0  0  0  0  0  0  0
   -0.7257   -4.8930    0.3300 H   0  0  0  0  0  0  0  0  0  0  0  0
   -0.1563   -0.9420    1.1402 N   0  0  0  0  0  0  0  0  0  0  0  0
    0.0261    0.4671    0.9001 C   0  0  2  0  0  0  0  0  0  0  0  0
   -0.4027    0.7845   -0.5310 C   0  0  0  0  0  0  0  0  0  0  0  0
    0.2461    1.5139   -1.2783 O   0  0  0  0  0  0  0  0  0  0  0  0
    1.4469    0.9344    1.2258 C   0  0  0  0  0  0  0  0  0  0  0  0
    1.8781    0.7987    2.9916 S   0  0  0  0  0  0  0  0  0  0  0  0
    0.6533   -1.4855    1.4300 H   0  0  0  0  0  0  0  0  0  0  0  0
   -0.6739    0.9743    1.5757 H   0  0  0  0  0  0  0  0  0  0  0  0
    2.1822    0.3499    0.6632 H   0  0  0  0  0  0  0  0  0  0  0  0
    1.5695    1.9843    0.9382 H   0  0  0  0  0  0  0  0  0  0  0  0
    3.1224    1.2768    2.8633 H   0  0  0  0  0  0  0  0  0  0  0  0
   -1.6053    0.1783   -0.8652 N   0  0  0  0  0  0  0  0  0  0  0  0
   -2.2239    0.3363   -2.1607 C   0  0  2  0  0  0  0  0  0  0  0  0
   -3.5931   -0.3288   -2.1124 C   0  0  0  0  0  0  0  0  0  0  0  0
   -3.8847   -1.2055   -1.3016 O   0  0  0  0  0  0  0  0  0  0  0  0
   -1.3650   -0.2669   -3.2612 C   0  0  0  0  0  0  0  0  0  0  0  0
   -2.0582   -0.4369   -0.1957 H   0  0  0  0  0  0  0  0  0  0  0  0
   -2.3457    1.4127   -2.3238 H   0  0  0  0  0  0  0  0  0  0  0  0
   -1.2318   -1.3450   -3.1147 H   0  0  0  0  0  0  0  0  0  0  0  0
   -1.8216   -0.1211   -4.2458 H   0  0  0  0  0  0  0  0  0  0  0  0
   -0.3705    0.1920   -3.2752 H   0  0  0  0  0  0  0  0  0  0  0  0
   -4.4370    0.1410   -3.1090 N   0  0  0  0  0  0  0  0  0  0  0  0
   -5.7866   -0.3438   -3.2805 C   0  0  0  0  0  0  0  0  0  0  0  0
   -4.1179    0.8827   -3.7254 H   0  0  0  0  0  0  0  0  0  0  0  0
   -5.7893   -1.1755   -4.0004 H   0  0  0  0  0  0  0  0  0  0  0  0
   -6.1756   -0.6949   -2.3133 H   0  0  0  0  0  0  0  0  0  0  0  0
   -6.4232    0.4699   -3.6581 H   0  0  0  0  0  0  0  0  0  0  0  0
  1  3  1  0  0  0  0
  1  7  1  0  0  0  0
  1  2  2  0  0  0  0
 29 30  1  0  0  0  0
 30 38  1  0  0  0  0
 30 31  2  0  0  0  0
  8  9  1  0  0  0  0
  9 17  1  0  0  0  0
  9 10  2  0  0  0  0
 18 19  1  0  0  0  0
 19 28  1  0  0  0  0
 19 20  2  0  0  0  0
 29 32  1  0  0  0  0
  8 11  1  0  0  0  0
 38 39  1  0  0  0  0
 18 21  1  0  0  0  0
 21 22  1  0  0  0  0
 28 29  1  0  0  0  0
  7  8  1  0  0  0  0
 17 18  1  0  0  0  0
  3  4  1  0  0  0  0
  3  5  1  0  0  0  0
  3  6  1  0  0  0  0
 32 35  1  0  0  0  0
 32 36  1  0  0  0  0
 32 37  1  0  0  0  0
 11 14  1  0  0  0  0
 11 15  1  0  0  0  0
 11 16  1  0  0  0  0
 39 41  1  0  0  0  0
 39 42  1  0  0  0  0
 39 43  1  0  0  0  0
 21 25  1  0  0  0  0
 21 26  1  0  0  0  0
 29 34  1  0  0  0  0
  8 13  1  0  0  0  0
 18 24  1  0  0  0  0
 38 40  1  0  0  0  0
  7 12  1  0  0  0  0
 28 33  1  0  0  0  0
 17 23  1  0  0  0  0
 22 27  1  0  0  0  0
M  END
$$$$

  -OEChem-05262214473D

 43 42  0     1  0  0  0  0  0999 V2000
   -2.8661   -4.7415    2.2943 C   0  0  0  0  0  0  0  0  0  0  0  0
   -2.0233   -5.5727    2.6109 O   0  0  0  0  0  0  0  0  0  0  0  0
   -4.3078   -5.0134    2.5698 C   0  0  0  0  0  0  0  0  0  0  0  0
   -4.8057   -5.5295    1.7332 H   0  0  0  0  0  0  0  0  0  0  0  0
   -4.4526   -5.6688    3.4436 H   0  0  0  0  0  0  0  0  0  0  0  0
   -4.9255   -4.1233    2.7700 H   0  0  0  0  0  0  0  0  0  0  0  0
   -2.6241   -3.5219    1.6838 N   0  0  0  0  0  0  0  0  0  0  0  0
   -1.3070   -3.0608    1.3315 C   0  0  2  0  0  0  0  0  0  0  0  0
   -1.3931   -1.5680    1.0422 C   0  0  0  0  0  0  0  0  0  0  0  0
   -2.4385   -1.0059    0.7226 O   0  0  0  0  0  0  0  0  0  0  0  0
   -0.7590   -3.8164    0.1309 C   0  0  0  0  0  0  0  0  0  0  0  0
   -3.4188   -2.9207    1.4735 H   0  0  0  0  0  0  0  0  0  0  0  0
   -0.6690   -3.2277    2.2062 H   0  0  0  0  0  0  0  0  0  0  0  0
   -1.3852   -3.6613   -0.7553 H   0  0  0  0  0  0  0  0  0  0  0  0
    0.2542   -3.4843   -0.1182 H   0  0  0  0  0  0  0  0  0  0  0  0
   -0.7257   -4.8930    0.3300 H   0  0  0  0  0  0  0  0  0  0  0  0
   -0.1563   -0.9420    1.1402 N   0  0  0  0  0  0  0  0  0  0  0  0
    0.0261    0.4671    0.9001 C   0  0  2  0  0  0  0  0  0  0  0  0
   -0.4027    0.7845   -0.5310 C   0  0  0  0  0  0  0  0  0  0  0  0
    0.3542    1.2822   -1.3621 O   0  0  0  0  0  0  0  0  0  0  0  0
    1.4469    0.9344    1.2258 C   0  0  0  0  0  0  0  0  0  0  0  0
    1.8781    0.7987    2.9916 S   0  0  0  0  0  0  0  0  0  0  0  0
    0.6533   -1.4855    1.4300 H   0  0  0  0  0  0  0  0  0  0  0  0
   -0.6739    0.9743    1.5757 H   0  0  0  0  0  0  0  0  0  0  0  0
    2.1822    0.3499    0.6632 H   0  0  0  0  0  0  0  0  0  0  0  0
    1.5695    1.9843    0.9382 H   0  0  0  0  0  0  0  0  0  0  0  0
    3.1224    1.2768    2.8633 H   0  0  0  0  0  0  0  0  0  0  0  0
   -1.7344    0.4700   -0.7618 N   0  0  0  0  0  0  0  0  0  0  0  0
   -2.3768    0.6886   -2.0368 C   0  0  2  0  0  0  0  0  0  0  0  0
   -3.8600    0.3831   -1.8746 C   0  0  0  0  0  0  0  0  0  0  0  0
   -4.3024   -0.3402   -0.9845 O   0  0  0  0  0  0  0  0  0  0  0  0
   -1.7590   -0.1777   -3.1234 C   0  0  0  0  0  0  0  0  0  0  0  0
   -2.2790    0.0299   -0.0261 H   0  0  0  0  0  0  0  0  0  0  0  0
   -2.2461    1.7489   -2.2791 H   0  0  0  0  0  0  0  0  0  0  0  0
   -1.8801   -1.2435   -2.8980 H   0  0  0  0  0  0  0  0  0  0  0  0
   -2.2279    0.0101   -4.0949 H   0  0  0  0  0  0  0  0  0  0  0  0
   -0.6862    0.0222   -3.2182 H   0  0  0  0  0  0  0  0  0  0  0  0
   -4.6269    0.9782   -2.8665 N   0  0  0  0  0  0  0  0  0  0  0  0
   -6.0615    0.8278   -2.9383 C   0  0  0  0  0  0  0  0  0  0  0  0
   -4.1781    1.5769   -3.5534 H   0  0  0  0  0  0  0  0  0  0  0  0
   -6.3094   -0.0237   -3.5891 H   0  0  0  0  0  0  0  0  0  0  0  0
   -6.4621    0.6471   -1.9298 H   0  0  0  0  0  0  0  0  0  0  0  0
   -6.5061    1.7457   -3.3504 H   0  0  0  0  0  0  0  0  0  0  0  0
  1  3  1  0  0  0  0
  1  7  1  0  0  0  0
  1  2  2  0  0  0  0
 29 30  1  0  0  0  0
 30 38  1  0  0  0  0
 30 31  2  0  0  0  0
  8  9  1  0  0  0  0
  9 17  1  0  0  0  0
  9 10  2  0  0  0  0
 18 19  1  0  0  0  0
 19 28  1  0  0  0  0
 19 20  2  0  0  0  0
 29 32  1  0  0  0  0
  8 11  1  0  0  0  0
 38 39  1  0  0  0  0
 18 21  1  0  0  0  0
 21 22  1  0  0  0  0
 28 29  1  0  0  0  0
  7  8  1  0  0  0  0
 17 18  1  0  0  0  0
  3  4  1  0  0  0  0
  3  5  1  0  0  0  0
  3  6  1  0  0  0  0
 32 35  1  0  0  0  0
 32 36  1  0  0  0  0
 32 37  1  0  0  0  0
 11 14  1  0  0  0  0
 11 15  1  0  0  0  0
 11 16  1  0  0  0  0
 39 41  1  0  0  0  0
 39 42  1  0  0  0  0
 39 43  1  0  0  0  0
 21 25  1  0  0  0  0
 21 26  1  0  0  0  0
 29 34  1  0  0  0  0
  8 13  1  0  0  0  0
 18 24  1  0  0  0  0
 38 40  1  0  0  0  0
  7 12  1  0  0  0  0
 28 33  1  0  0  0  0
 17 23  1  0  0  0  0
 22 27  1  0  0  0  0
M  END
$$$$

  -OEChem-05262214473D

 43 42  0     1  0  0  0  0  0999 V2000
   -2.8661   -4.7415    2.2943 C   0  0  0  0  0  0  0  0  0  0  0  0
   -2.0233   -5.5727    2.6109 O   0  0  0  0  0  0  0  0  0  0  0  0
   -4.3078   -5.0134    2.5698 C   0  0  0  0  0  0  0  0  0  0  0  0
   -4.8057   -5.5295    1.7332 H   0  0  0  0  0  0  0  0  0  0  0  0
   -4.4526   -5.6688    3.4436 H   0  0  0  0  0  0  0  0  0  0  0  0
   -4.9255   -4.1233    2.7700 H   0  0  0  0  0  0  0  0  0  0  0  0
   -2.6241   -3.5219    1.6838 N   0  0  0  0  0  0  0  0  0  0  0  0
   -1.3070   -3.0608    1.3315 C   0  0  2  0  0  0  0  0  0  0  0  0
   -1.3931   -1.5680    1.0422 C   0  0  0  0  0  0  0  0  0  0  0  0
   -2.4385   -1.0059    0.7226 O   0  0  0  0  0  0  0  0  0  0  0  0
   -0.7590   -3.8164    0.1309 C   0  0  0  0  0  0  0  0  0  0  0  0
   -3.4188   -2.9207    1.4735 H   0  0  0  0  0  0  0  0  0  0  0  0
   -0.6690   -3.2277    2.2062 H   0  0  0  0  0  0  0  0  0  0  0  0
   -1.3852   -3.6613   -0.7553 H   0  0  0  0  0  0  0  0  0  0  0  0
    0.2542   -3.4843   -0.1182 H   0  0  0  0  0  0  0  0  0  0  0  0
   -0.7257   -4.8930    0.3300 H   0  0  0  0  0  0  0  0  0  0  0  0
   -0.1563   -0.9420    1.1402 N   0  0  0  0  0  0  0  0  0  0  0  0
    0.0261    0.4671    0.9001 C   0  0  2  0  0  0  0  0  0  0  0  0
   -0.4027    0.7845   -0.5310 C   0  0  0  0  0  0  0  0  0  0  0  0
    0.3980    1.0260   -1.4320 O   0  0  0  0  0  0  0  0  0  0  0  0
    1.4469    0.9344    1.2258 C   0  0  0  0  0  0  0  0  0  0  0  0
    1.8781    0.7987    2.9916 S   0  0  0  0  0  0  0  0  0  0  0  0
    0.6533   -1.4855    1.4300 H   0  0  0  0  0  0  0  0  0  0  0  0
   -0.6739    0.9743    1.5757 H   0  0  0  0  0  0  0  0  0  0  0  0
    2.1822    0.3499    0.6632 H   0  0  0  0  0  0  0  0  0  0  0  0
    1.5695    1.9843    0.9382 H   0  0  0  0  0  0  0  0  0  0  0  0
    3.1224    1.2768    2.8633 H   0  0  0  0  0  0  0  0  0  0  0  0
   -1.7827    0.7906   -0.6763 N   0  0  0  0  0  0  0  0  0  0  0  0
   -2.4324    1.0749   -1.9344 C   0  0  2  0  0  0  0  0  0  0  0  0
   -3.9323    1.1527   -1.6822 C   0  0  0  0  0  0  0  0  0  0  0  0
   -4.4790    0.6200   -0.7186 O   0  0  0  0  0  0  0  0  0  0  0  0
   -2.1105    0.0141   -2.9755 C   0  0  0  0  0  0  0  0  0  0  0  0
   -2.3699    0.5466    0.1158 H   0  0  0  0  0  0  0  0  0  0  0  0
   -2.0660    2.0527   -2.2657 H   0  0  0  0  0  0  0  0  0  0  0  0
   -2.4701   -0.9724   -2.6611 H   0  0  0  0  0  0  0  0  0  0  0  0
   -2.5806    0.2462   -3.9369 H   0  0  0  0  0  0  0  0  0  0  0  0
   -1.0293   -0.0611   -3.1339 H   0  0  0  0  0  0  0  0  0  0  0  0
   -4.5943    1.8504   -2.6828 N   0  0  0  0  0  0  0  0  0  0  0  0
   -6.0246    2.0510   -2.6781 C   0  0  0  0  0  0  0  0  0  0  0  0
   -4.0587    2.2746   -3.4344 H   0  0  0  0  0  0  0  0  0  0  0  0
   -6.5103    1.2449   -3.2475 H   0  0  0  0  0  0  0  0  0  0  0  0
   -6.3927    2.0408   -1.6415 H   0  0  0  0  0  0  0  0  0  0  0  0
   -6.2603    3.0205   -3.1413 H   0  0  0  0  0  0  0  0  0  0  0  0
  1  3  1  0  0  0  0
  1  7  1  0  0  0  0
  1  2  2  0  0  0  0
 29 30  1  0  0  0  0
 30 38  1  0  0  0  0
 30 31  2  0  0  0  0
  8  9  1  0  0  0  0
  9 17  1  0  0  0  0
  9 10  2  0  0  0  0
 18 19  1  0  0  0  0
 19 28  1  0  0  0  0
 19 20  2  0  0  0  0
 29 32  1  0  0  0  0
  8 11  1  0  0  0  0
 38 39  1  0  0  0  0
 18 21  1  0  0  0  0
 21 22  1  0  0  0  0
 28 29  1  0  0  0  0
  7  8  1  0  0  0  0
 17 18  1  0  0  0  0
  3  4  1  0  0  0  0
  3  5  1  0  0  0  0
  3  6  1  0  0  0  0
 32 35  1  0  0  0  0
 32 36  1  0  0  0  0
 32 37  1  0  0  0  0
 11 14  1  0  0  0  0
 11 15  1  0  0  0  0
 11 16  1  0  0  0  0
 39 41  1  0  0  0  0
 39 42  1  0  0  0  0
 39 43  1  0  0  0  0
 21 25  1  0  0  0  0
 21 26  1  0  0  0  0
 29 34  1  0  0  0  0
  8 13  1  0  0  0  0
 18 24  1  0  0  0  0
 38 40  1  0  0  0  0
  7 12  1  0  0  0  0
 28 33  1  0  0  0  0
 17 23  1  0  0  0  0
 22 27  1  0  0  0  0
M  END
$$$$

  -OEChem-05262214473D

 43 42  0     1  0  0  0  0  0999 V2000
   -2.8661   -4.7415    2.2943 C   0  0  0  0  0  0  0  0  0  0  0  0
   -2.0233   -5.5727    2.6109 O   0  0  0  0  0  0  0  0  0  0  0  0
   -4.3078   -5.0134    2.5698 C   0  0  0  0  0  0  0  0  0  0  0  0
   -4.8057   -5.5295    1.7332 H   0  0  0  0  0  0  0  0  0  0  0  0
   -4.4526   -5.6688    3.4436 H   0  0  0  0  0  0  0  0  0  0  0  0
   -4.9255   -4.1233    2.7700 H   0  0  0  0  0  0  0  0  0  0  0  0
   -2.6241   -3.5219    1.6838 N   0  0  0  0  0  0  0  0  0  0  0  0
   -1.3070   -3.0608    1.3315 C   0  0  2  0  0  0  0  0  0  0  0  0
   -1.3931   -1.5680    1.0422 C   0  0  0  0  0  0  0  0  0  0  0  0
   -2.4385   -1.0059    0.7226 O   0  0  0  0  0  0  0  0  0  0  0  0
   -0.7590   -3.8164    0.1309 C   0  0  0  0  0  0  0  0  0  0  0  0
   -3.4188   -2.9207    1.4735 H   0  0  0  0  0  0  0  0  0  0  0  0
   -0.6690   -3.2277    2.2062 H   0  0  0  0  0  0  0  0  0  0  0  0
   -1.3852   -3.6613   -0.7553 H   0  0  0  0  0  0  0  0  0  0  0  0
    0.2542   -3.4843   -0.1182 H   0  0  0  0  0  0  0  0  0  0  0  0
   -0.7257   -4.8930    0.3300 H   0  0  0  0  0  0  0  0  0  0  0  0
   -0.1563   -0.9420    1.1402 N   0  0  0  0  0  0  0  0  0  0  0  0
    0.0261    0.4671    0.9001 C   0  0  2  0  0  0  0  0  0  0  0  0
   -0.4027    0.7845   -0.5310 C   0  0  0  0  0  0  0  0  0  0  0  0
    0.3744    0.7628   -1.4833 O   0  0  0  0  0  0  0  0  0  0  0  0
    1.4469    0.9344    1.2258 C   0  0  0  0  0  0  0  0  0  0  0  0
    1.8781    0.7987    2.9916 S   0  0  0  0  0  0  0  0  0  0  0  0
    0.6533   -1.4855    1.4300 H   0  0  0  0  0  0  0  0  0  0  0  0
   -0.6739    0.9743    1.5757 H   0  0  0  0  0  0  0  0  0  0  0  0
    2.1822    0.3499    0.6632 H   0  0  0  0  0  0  0  0  0  0  0  0
    1.5695    1.9843    0.9382 H   0  0  0  0  0  0  0  0  0  0  0  0
    3.1224    1.2768    2.8633 H   0  0  0  0  0  0  0  0  0  0  0  0
   -1.7471    1.1182   -0.6143 N   0  0  0  0  0  0  0  0  0  0  0  0
   -2.3869    1.4690   -1.8606 C   0  0  2  0  0  0  0  0  0  0  0  0
   -3.8052    1.9277   -1.5484 C   0  0  0  0  0  0  0  0  0  0  0  0
   -4.4024    1.6097   -0.5221 O   0  0  0  0  0  0  0  0  0  0  0  0
   -2.3956    0.2954   -2.8277 C   0  0  0  0  0  0  0  0  0  0  0  0
   -2.3248    1.0780    0.2201 H   0  0  0  0  0  0  0  0  0  0  0  0
   -1.8176    2.3035   -2.2845 H   0  0  0  0  0  0  0  0  0  0  0  0
   -2.9614   -0.5504   -2.4202 H   0  0  0  0  0  0  0  0  0  0  0  0
   -2.8554    0.5713   -3.7824 H   0  0  0  0  0  0  0  0  0  0  0  0
   -1.3764   -0.0522   -3.0279 H   0  0  0  0  0  0  0  0  0  0  0  0
   -4.3414    2.6984   -2.5705 N   0  0  0  0  0  0  0  0  0  0  0  0
   -5.6782    3.2425   -2.5176 C   0  0  0  0  0  0  0  0  0  0  0  0
   -3.7677    2.9282   -3.3767 H   0  0  0  0  0  0  0  0  0  0  0  0
   -6.3783    2.5438   -2.9990 H   0  0  0  0  0  0  0  0  0  0  0  0
   -5.9722    3.3910   -1.4681 H   0  0  0  0  0  0  0  0  0  0  0  0
   -5.7024    4.2074   -3.0452 H   0  0  0  0  0  0  0  0  0  0  0  0
  1  3  1  0  0  0  0
  1  7  1  0  0  0  0
  1  2  2  0  0  0  0
 29 30  1  0  0  0  0
 30 38  1  0  0  0  0
 30 31  2  0  0  0  0
  8  9  1  0  0  0  0
  9 17  1  0  0  0  0
  9 10  2  0  0  0  0
 18 19  1  0  0  0  0
 19 28  1  0  0  0  0
 19 20  2  0  0  0  0
 29 32  1  0  0  0  0
  8 11  1  0  0  0  0
 38 39  1  0  0  0  0
 18 21  1  0  0  0  0
 21 22  1  0  0  0  0
 28 29  1  0  0  0  0
  7  8  1  0  0  0  0
 17 18  1  0  0  0  0
  3  4  1  0  0  0  0
  3  5  1  0  0  0  0
  3  6  1  0  0  0  0
 32 35  1  0  0  0  0
 32 36  1  0  0  0  0
 32 37  1  0  0  0  0
 11 14  1  0  0  0  0
 11 15  1  0  0  0  0
 11 16  1  0  0  0  0
 39 41  1  0  0  0  0
 39 42  1  0  0  0  0
 39 43  1  0  0  0  0
 21 25  1  0  0  0  0
 21 26  1  0  0  0  0
 29 34  1  0  0  0  0
  8 13  1  0  0  0  0
 18 24  1  0  0  0  0
 38 40  1  0  0  0  0
  7 12  1  0  0  0  0
 28 33  1  0  0  0  0
 17 23  1  0  0  0  0
 22 27  1  0  0  0  0
M  END
$$$$

  -OEChem-05262214473D

 43 42  0     1  0  0  0  0  0999 V2000
   -2.8661   -4.7415    2.2943 C   0  0  0  0  0  0  0  0  0  0  0  0
   -2.0233   -5.5727    2.6109 O   0  0  0  0  0  0  0  0  0  0  0  0
   -4.3078   -5.0134    2.5698 C   0  0  0  0  0  0  0  0  0  0  0  0
   -4.8057   -5.5295    1.7332 H   0  0  0  0  0  0  0  0  0  0  0  0
   -4.4526   -5.6688    3.4436 H   0  0  0  0  0  0  0  0  0  0  0  0
   -4.9255   -4.1233    2.7700 H   0  0  0  0  0  0  0  0  0  0  0  0
   -2.6241   -3.5219    1.6838 N   0  0  0  0  0  0  0  0  0  0  0  0
   -1.3070   -3.0608    1.3315 C   0  0  2  0  0  0  0  0  0  0  0  0
   -1.3931   -1.5680    1.0422 C   0  0  0  0  0  0  0  0  0  0  0  0
   -2.4385   -1.0059    0.7226 O   0  0  0  0  0  0  0  0  0  0  0  0
   -0.7590   -3.8164    0.1309 C   0  0  0  0  0  0  0  0  0  0  0  0
   -3.4188   -2.9207    1.4735 H   0  0  0  0  0  0  0  0  0  0  0  0
   -0.6690   -3.2277    2.2062 H   0  0  0  0  0  0  0  0  0  0  0  0
   -1.3852   -3.6613   -0.7553 H   0  0  0  0  0  0  0  0  0  0  0  0
    0.2542   -3.4843   -0.1182 H   0  0  0  0  0  0  0  0  0  0  0  0
   -0.7257   -4.8930    0.3300 H   0  0  0  0  0  0  0  0  0  0  0  0
   -0.1563   -0.9420    1.1402 N   0  0  0  0  0  0  0  0  0  0  0  0
    0.0261    0.4671    0.9001 C   0  0  2  0  0  0  0  0  0  0  0  0
   -0.4027    0.7845   -0.5310 C   0  0  0  0  0  0  0  0  0  0  0  0
    0.2851    0.5106   -1.5125 O   0  0  0  0  0  0  0  0  0  0  0  0
    1.4469    0.9344    1.2258 C   0  0  0  0  0  0  0  0  0  0  0  0
    1.8781    0.7987    2.9916 S   0  0  0  0  0  0  0  0  0  0  0  0
    0.6533   -1.4855    1.4300 H   0  0  0  0  0  0  0  0  0  0  0  0
   -0.6739    0.9743    1.5757 H   0  0  0  0  0  0  0  0  0  0  0  0
    2.1822    0.3499    0.6632 H   0  0  0  0  0  0  0  0  0  0  0  0
    1.5695    1.9843    0.9382 H   0  0  0  0  0  0  0  0  0  0  0  0
    3.1224    1.2768    2.8633 H   0  0  0  0  0  0  0  0  0  0  0  0
   -1.6298    1.4305   -0.5801 N   0  0  0  0  0  0  0  0  0  0  0  0
   -2.2434    1.8440   -1.8205 C   0  0  2  0  0  0  0  0  0  0  0  0
   -3.4873    2.6551   -1.4823 C   0  0  0  0  0  0  0  0  0  0  0  0
   -4.0778    2.5613   -0.4083 O   0  0  0  0  0  0  0  0  0  0  0  0
   -2.5948    0.6469   -2.6900 C   0  0  0  0  0  0  0  0  0  0  0  0
   -2.1468    1.5880    0.2799 H   0  0  0  0  0  0  0  0  0  0  0  0
   -1.5179    2.4841   -2.3343 H   0  0  0  0  0  0  0  0  0  0  0  0
   -3.3208   -0.0060   -2.1918 H   0  0  0  0  0  0  0  0  0  0  0  0
   -3.0337    0.9633   -3.6420 H   0  0  0  0  0  0  0  0  0  0  0  0
   -1.7038    0.0482   -2.9075 H   0  0  0  0  0  0  0  0  0  0  0  0
   -3.8854    3.4643   -2.5373 N   0  0  0  0  0  0  0  0  0  0  0  0
   -5.0461    4.3210   -2.4678 C   0  0  0  0  0  0  0  0  0  0  0  0
   -3.3251    3.4931   -3.3840 H   0  0  0  0  0  0  0  0  0  0  0  0
   -5.9225    3.7845   -2.8604 H   0  0  0  0  0  0  0  0  0  0  0  0
   -5.2293    4.6059   -1.4213 H   0  0  0  0  0  0  0  0  0  0  0  0
   -4.8706    5.2255   -3.0687 H   0  0  0  0  0  0  0  0  0  0  0  0
  1  3  1  0  0  0  0
  1  7  1  0  0  0  0
  1  2  2  0  0  0  0
 29 30  1  0  0  0  0
 30 38  1  0  0  0  0
 30 31  2  0  0  0  0
  8  9  1  0  0  0  0
  9 17  1  0  0  0  0
  9 10  2  0  0  0  0
 18 19  1  0  0  0  0
 19 28  1  0  0  0  0
 19 20  2  0  0  0  0
 29 32  1  0  0  0  0
  8 11  1  0  0  0  0
 38 39  1  0  0  0  0
 18 21  1  0  0  0  0
 21 22  1  0  0  0  0
 28 29  1  0  0  0  0
  7  8  1  0  0  0  0
 17 18  1  0  0  0  0
  3  4  1  0  0  0  0
  3  5  1  0  0  0  0
  3  6  1  0  0  0  0
 32 35  1  0  0  0  0
 32 36  1  0  0  0  0
 32 37  1  0  0  0  0
 11 14  1  0  0  0  0
 11 15  1  0  0  0  0
 11 16  1  0  0  0  0
 39 41  1  0  0  0  0
 39 42  1  0  0  0  0
 39 43  1  0  0  0  0
 21 25  1  0  0  0  0
 21 26  1  0  0  0  0
 29 34  1  0  0  0  0
  8 13  1  0  0  0  0
 18 24  1  0  0  0  0
 38 40  1  0  0  0  0
  7 12  1  0  0  0  0
 28 33  1  0  0  0  0
 17 23  1  0  0  0  0
 22 27  1  0  0  0  0
M  END
$$$$

  -OEChem-05262214473D

 43 42  0     1  0  0  0  0  0999 V2000
   -2.8661   -4.7415    2.2943 C   0  0  0  0  0  0  0  0  0  0  0  0
   -2.0233   -5.5727    2.6109 O   0  0  0  0  0  0  0  0  0  0  0  0
   -4.3078   -5.0134    2.5698 C   0  0  0  0  0  0  0  0  0  0  0  0
   -4.8057   -5.5295    1.7332 H   0  0  0  0  0  0  0  0  0  0  0  0
   -4.4526   -5.6688    3.4436 H   0  0  0  0  0  0  0  0  0  0  0  0
   -4.9255   -4.1233    2.7700 H   0  0  0  0  0  0  0  0  0  0  0  0
   -2.6241   -3.5219    1.6838 N   0  0  0  0  0  0  0  0  0  0  0  0
   -1.3070   -3.0608    1.3315 C   0  0  2  0  0  0  0  0  0  0  0  0
   -1.3931   -1.5680    1.0422 C   0  0  0  0  0  0  0  0  0  0  0  0
   -2.4385   -1.0059    0.7226 O   0  0  0  0  0  0  0  0  0  0  0  0
   -0.7590   -3.8164    0.1309 C   0  0  0  0  0  0  0  0  0  0  0  0
   -3.4188   -2.9207    1.4735 H   0  0  0  0  0  0  0  0  0  0  0  0
   -0.6690   -3.2277    2.2062 H   0  0  0  0  0  0  0  0  0  0  0  0
   -1.3852   -3.6613   -0.7553 H   0  0  0  0  0  0  0  0  0  0  0  0
    0.2542   -3.4843   -0.1182 H   0  0  0  0  0  0  0  0  0  0  0  0
   -0.7257   -4.8930    0.3300 H   0  0  0  0  0  0  0  0  0  0  0  0
   -0.1563   -0.9420    1.1402 N   0  0  0  0  0  0  0  0  0  0  0  0
    0.0261    0.4671    0.9001 C   0  0  2  0  0  0  0  0  0  0  0  0
   -0.4027    0.7845   -0.5310 C   0  0  0  0  0  0  0  0  0  0  0  0
    0.1360    0.2866   -1.5175 O   0  0  0  0  0  0  0  0  0  0  0  0
    1.4469    0.9344    1.2258 C   0  0  0  0  0  0  0  0  0  0  0  0
    1.8781    0.7987    2.9916 S   0  0  0  0  0  0  0  0  0  0  0  0
    0.6533   -1.4855    1.4300 H   0  0  0  0  0  0  0  0  0  0  0  0
   -0.6739    0.9743    1.5757 H   0  0  0  0  0  0  0  0  0  0  0  0
    2.1822    0.3499    0.6632 H   0  0  0  0  0  0  0  0  0  0  0  0
    1.5695    1.9843    0.9382 H   0  0  0  0  0  0  0  0  0  0  0  0
    3.1224    1.2768    2.8633 H   0  0  0  0  0  0  0  0  0  0  0  0
   -1.4390    1.7063   -0.5762 N   0  0  0  0  0  0  0  0  0  0  0  0
   -2.0117    2.1744   -1.8166 C   0  0  2  0  0  0  0  0  0  0  0  0
   -3.0002    3.2855   -1.4885 C   0  0  0  0  0  0  0  0  0  0  0  0
   -3.5274    3.4100   -0.3850 O   0  0  0  0  0  0  0  0  0  0  0  0
   -2.6946    1.0448   -2.5719 C   0  0  0  0  0  0  0  0  0  0  0  0
   -1.8479    2.0418    0.2910 H   0  0  0  0  0  0  0  0  0  0  0  0
   -1.1872    2.5822   -2.4116 H   0  0  0  0  0  0  0  0  0  0  0  0
   -3.5235    0.6236   -1.9914 H   0  0  0  0  0  0  0  0  0  0  0  0
   -3.1034    1.3953   -3.5253 H   0  0  0  0  0  0  0  0  0  0  0  0
   -1.9892    0.2334   -2.7809 H   0  0  0  0  0  0  0  0  0  0  0  0
   -3.2574    4.0960   -2.5854 N   0  0  0  0  0  0  0  0  0  0  0  0
   -4.1713    5.2131   -2.5321 C   0  0  0  0  0  0  0  0  0  0  0  0
   -2.7609    3.9309   -3.4560 H   0  0  0  0  0  0  0  0  0  0  0  0
   -5.1738    4.8825   -2.8413 H   0  0  0  0  0  0  0  0  0  0  0  0
   -4.2145    5.6026   -1.5043 H   0  0  0  0  0  0  0  0  0  0  0  0
   -3.8214    6.0055   -3.2101 H   0  0  0  0  0  0  0  0  0  0  0  0
  1  3  1  0  0  0  0
  1  7  1  0  0  0  0
  1  2  2  0  0  0  0
 29 30  1  0  0  0  0
 30 38  1  0  0  0  0
 30 31  2  0  0  0  0
  8  9  1  0  0  0  0
  9 17  1  0  0  0  0
  9 10  2  0  0  0  0
 18 19  1  0  0  0  0
 19 28  1  0  0  0  0
 19 20  2  0  0  0  0
 29 32  1  0  0  0  0
  8 11  1  0  0  0  0
 38 39  1  0  0  0  0
 18 21  1  0  0  0  0
 21 22  1  0  0  0  0
 28 29  1  0  0  0  0
  7  8  1  0  0  0  0
 17 18  1  0  0  0  0
  3  4  1  0  0  0  0
  3  5  1  0  0  0  0
  3  6  1  0  0  0  0
 32 35  1  0  0  0  0
 32 36  1  0  0  0  0
 32 37  1  0  0  0  0
 11 14  1  0  0  0  0
 11 15  1  0  0  0  0
 11 16  1  0  0  0  0
 39 41  1  0  0  0  0
 39 42  1  0  0  0  0
 39 43  1  0  0  0  0
 21 25  1  0  0  0  0
 21 26  1  0  0  0  0
 29 34  1  0  0  0  0
  8 13  1  0  0  0  0
 18 24  1  0  0  0  0
 38 40  1  0  0  0  0
  7 12  1  0  0  0  0
 28 33  1  0  0  0  0
 17 23  1  0  0  0  0
 22 27  1  0  0  0  0
M  END
$$$$

  -OEChem-05262214473D

 43 42  0     1  0  0  0  0  0999 V2000
   -2.8661   -4.7415    2.2943 C   0  0  0  0  0  0  0  0  0  0  0  0
   -2.0233   -5.5727    2.6109 O   0  0  0  0  0  0  0  0  0  0  0  0
   -4.3078   -5.0134    2.5698 C   0  0  0  0  0  0  0  0  0  0  0  0
   -4.8057   -5.5295    1.7332 H   0  0  0  0  0  0  0  0  0  0  0  0
   -4.4526   -5.6688    3.4436 H   0  0  0  0  0  0  0  0  0  0  0  0
   -4.9255   -4.1233    2.7700 H   0  0  0  0  0  0  0  0  0  0  0  0
   -2.6241   -3.5219    1.6838 N   0  0  0  0  0  0  0  0  0  0  0  0
   -1.3070   -3.0608    1.3315 C   0  0  2  0  0  0  0  0  0  0  0  0
   -1.3931   -1.5680    1.0422 C   0  0  0  0  0  0  0  0  0  0  0  0
   -2.4385   -1.0059    0.7226 O   0  0  0  0  0  0  0  0  0  0  0  0
   -0.7590   -3.8164    0.1309 C   0  0  0  0  0  0  0  0  0  0  0  0
   -3.4188   -2.9207    1.4735 H   0  0  0  0  0  0  0  0  0  0  0  0
   -0.6690   -3.2277    2.2062 H   0  0  0  0  0  0  0  0  0  0  0  0
   -1.3852   -3.6613   -0.7553 H   0  0  0  0  0  0  0  0  0  0  0  0
    0.2542   -3.4843   -0.1182 H   0  0  0  0  0  0  0  0  0  0  0  0
   -0.7257   -4.8930    0.3300 H   0  0  0  0  0  0  0  0  0  0  0  0
   -0.1563   -0.9420    1.1402 N   0  0  0  0  0  0  0  0  0  0  0  0
    0.0261    0.4671    0.9001 C   0  0  2  0  0  0  0  0  0  0  0  0
   -0.4027    0.7845   -0.5310 C   0  0  0  0  0  0  0  0  0  0  0  0
   -0.0626    0.1060   -1.4980 O   0  0  0  0  0  0  0  0  0  0  0  0
    1.4469    0.9344    1.2258 C   0  0  0  0  0  0  0  0  0  0  0  0
    1.8781    0.7987    2.9916 S   0  0  0  0  0  0  0  0  0  0  0  0
    0.6533   -1.4855    1.4300 H   0  0  0  0  0  0  0  0  0  0  0  0
   -0.6739    0.9743    1.5757 H   0  0  0  0  0  0  0  0  0  0  0  0
    2.1822    0.3499    0.6632 H   0  0  0  0  0  0  0  0  0  0  0  0
    1.5695    1.9843    0.9382 H   0  0  0  0  0  0  0  0  0  0  0  0
    3.1224    1.2768    2.8633 H   0  0  0  0  0  0  0  0  0  0  0  0
   -1.1876    1.9266   -0.6026 N   0  0  0  0  0  0  0  0  0  0  0  0
   -1.7076    2.4376   -1.8494 C   0  0  2  0  0  0  0  0  0  0  0  0
   -2.3773    3.7758   -1.5664 C   0  0  0  0  0  0  0  0  0  0  0  0
   -2.7887    4.0981   -0.4538 O   0  0  0  0  0  0  0  0  0  0  0  0
   -2.6881    1.4619   -2.4813 C   0  0  0  0  0  0  0  0  0  0  0  0
   -1.4485    2.4084    0.2526 H   0  0  0  0  0  0  0  0  0  0  0  0
   -0.8482    2.5912   -2.5112 H   0  0  0  0  0  0  0  0  0  0  0  0
   -3.5559    1.2954   -1.8327 H   0  0  0  0  0  0  0  0  0  0  0  0
   -3.0596    1.8379   -3.4403 H   0  0  0  0  0  0  0  0  0  0  0  0
   -2.2131    0.4906   -2.6567 H   0  0  0  0  0  0  0  0  0  0  0  0
   -2.5002    4.5503   -2.7115 N   0  0  0  0  0  0  0  0  0  0  0  0
   -3.1134    5.8580   -2.7061 C   0  0  0  0  0  0  0  0  0  0  0  0
   -2.1136    4.2117   -3.5877 H   0  0  0  0  0  0  0  0  0  0  0  0
   -4.1834    5.7628   -2.9428 H   0  0  0  0  0  0  0  0  0  0  0  0
   -2.9971    6.3133   -1.7115 H   0  0  0  0  0  0  0  0  0  0  0  0
   -2.6264    6.4943   -3.4598 H   0  0  0  0  0  0  0  0  0  0  0  0
  1  3  1  0  0  0  0
  1  7  1  0  0  0  0
  1  2  2  0  0  0  0
 29 30  1  0  0  0  0
 30 38  1  0  0  0  0
 30 31  2  0  0  0  0
  8  9  1  0  0  0  0
  9 17  1  0  0  0  0
  9 10  2  0  0  0  0
 18 19  1  0  0  0  0
 19 28  1  0  0  0  0
 19 20  2  0  0  0  0
 29 32  1  0  0  0  0
  8 11  1  0  0  0  0
 38 39  1  0  0  0  0
 18 21  1  0  0  0  0
 21 22  1  0  0  0  0
 28 29  1  0  0  0  0
  7  8  1  0  0  0  0
 17 18  1  0  0  0  0
  3  4  1  0  0  0  0
  3  5  1  0  0  0  0
  3  6  1  0  0  0  0
 32 35  1  0  0  0  0
 32 36  1  0  0  0  0
 32 37  1  0  0  0  0
 11 14  1  0  0  0  0
 11 15  1  0  0  0  0
 11 16  1  0  0  0  0
 39 41  1  0  0  0  0
 39 42  1  0  0  0  0
 39 43  1  0  0  0  0
 21 25  1  0  0  0  0
 21 26  1  0  0  0  0
 29 34  1  0  0  0  0
  8 13  1  0  0  0  0
 18 24  1  0  0  0  0
 38 40  1  0  0  0  0
  7 12  1  0  0  0  0
 28 33  1  0  0  0  0
 17 23  1  0  0  0  0
 22 27  1  0  0  0  0
M  END
$$$$

  -OEChem-05262214473D

 43 42  0     1  0  0  0  0  0999 V2000
   -2.8661   -4.7415    2.2943 C   0  0  0  0  0  0  0  0  0  0  0  0
   -2.0233   -5.5727    2.6109 O   0  0  0  0  0  0  0  0  0  0  0  0
   -4.3078   -5.0134    2.5698 C   0  0  0  0  0  0  0  0  0  0  0  0
   -4.8057   -5.5295    1.7332 H   0  0  0  0  0  0  0  0  0  0  0  0
   -4.4526   -5.6688    3.4436 H   0  0  0  0  0  0  0  0  0  0  0  0
   -4.9255   -4.1233    2.7700 H   0  0  0  0  0  0  0  0  0  0  0  0
   -2.6241   -3.5219    1.6838 N   0  0  0  0  0  0  0  0  0  0  0  0
   -1.3070   -3.0608    1.3315 C   0  0  2  0  0  0  0  0  0  0  0  0
   -1.3931   -1.5680    1.0422 C   0  0  0  0  0  0  0  0  0  0  0  0
   -2.4385   -1.0059    0.7226 O   0  0  0  0  0  0  0  0  0  0  0  0
   -0.7590   -3.8164    0.1309 C   0  0  0  0  0  0  0  0  0  0  0  0
   -3.4188   -2.9207    1.4735 H   0  0  0  0  0  0  0  0  0  0  0  0
   -0.6690   -3.2277    2.2062 H   0  0  0  0  0  0  0  0  0  0  0  0
   -1.3852   -3.6613   -0.7553 H   0  0  0  0  0  0  0  0  0  0  0  0
    0.2542   -3.4843   -0.1182 H   0  0  0  0  0  0  0  0  0  0  0  0
   -0.7257   -4.8930    0.3300 H   0  0  0  0  0  0  0  0  0  0  0  0
   -0.1563   -0.9420    1.1402 N   0  0  0  0  0  0  0  0  0  0  0  0
    0.0261    0.4671    0.9001 C   0  0  2  0  0  0  0  0  0  0  0  0
   -0.4027    0.7845   -0.5310 C   0  0  0  0  0  0  0  0  0  0  0  0
   -0.2972   -0.0190   -1.4555 O   0  0  0  0  0  0  0  0  0  0  0  0
    1.4469    0.9344    1.2258 C   0  0  0  0  0  0  0  0  0  0  0  0
    1.8781    0.7987    2.9916 S   0  0  0  0  0  0  0  0  0  0  0  0
    0.6533   -1.4855    1.4300 H   0  0  0  0  0  0  0  0  0  0  0  0
   -0.6739    0.9743    1.5757 H   0  0  0  0  0  0  0  0  0  0  0  0
    2.1822    0.3499    0.6632 H   0  0  0  0  0  0  0  0  0  0  0  0
    1.5695    1.9843    0.9382 H   0  0  0  0  0  0  0  0  0  0  0  0
    3.1224    1.2768    2.8633 H   0  0  0  0  0  0  0  0  0  0  0  0
   -0.8928    2.0766   -0.6577 N   0  0  0  0  0  0  0  0  0  0  0  0
   -1.3517    2.6157   -1.9165 C   0  0  2  0  0  0  0  0  0  0  0  0
   -1.6608    4.0927   -1.7109 C   0  0  0  0  0  0  0  0  0  0  0  0
   -1.9120    4.5785   -0.6100 O   0  0  0  0  0  0  0  0  0  0  0  0
   -2.5759    1.8698   -2.4245 C   0  0  0  0  0  0  0  0  0  0  0  0
   -0.9760    2.6629    0.1674 H   0  0  0  0  0  0  0  0  0  0  0  0
   -0.5239    2.5105   -2.6262 H   0  0  0  0  0  0  0  0  0  0  0  0
   -3.4158    1.9638   -1.7265 H   0  0  0  0  0  0  0  0  0  0  0  0
   -2.9054    2.2611   -3.3926 H   0  0  0  0  0  0  0  0  0  0  0  0
   -2.3604    0.8025   -2.5434 H   0  0  0  0  0  0  0  0  0  0  0  0
   -1.6654    4.7964   -2.9071 N   0  0  0  0  0  0  0  0  0  0  0  0
   -1.9445    6.2117   -2.9780 C   0  0  0  0  0  0  0  0  0  0  0  0
   -1.4274    4.3165   -3.7701 H   0  0  0  0  0  0  0  0  0  0  0  0
   -3.0186    6.3656   -3.1582 H   0  0  0  0  0  0  0  0  0  0  0  0
   -1.6599    6.6894   -2.0288 H   0  0  0  0  0  0  0  0  0  0  0  0
   -1.3671    6.6584   -3.8008 H   0  0  0  0  0  0  0  0  0  0  0  0
  1  3  1  0  0  0  0
  1  7  1  0  0  0  0
  1  2  2  0  0  0  0
 29 30  1  0  0  0  0
 30 38  1  0  0  0  0
 30 31  2  0  0  0  0
  8  9  1  0  0  0  0
  9 17  1  0  0  0  0
  9 10  2  0  0  0  0
 18 19  1  0  0  0  0
 19 28  1  0  0  0  0
 19 20  2  0  0  0  0
 29 32  1  0  0  0  0
  8 11  1  0  0  0  0
 38 39  1  0  0  0  0
 18 21  1  0  0  0  0
 21 22  1  0  0  0  0
 28 29  1  0  0  0  0
  7  8  1  0  0  0  0
 17 18  1  0  0  0  0
  3  4  1  0  0  0  0
  3  5  1  0  0  0  0
  3  6  1  0  0  0  0
 32 35  1  0  0  0  0
 32 36  1  0  0  0  0
 32 37  1  0  0  0  0
 11 14  1  0  0  0  0
 11 15  1  0  0  0  0
 11 16  1  0  0  0  0
 39 41  1  0  0  0  0
 39 42  1  0  0  0  0
 39 43  1  0  0  0  0
 21 25  1  0  0  0  0
 21 26  1  0  0  0  0
 29 34  1  0  0  0  0
  8 13  1  0  0  0  0
 18 24  1  0  0  0  0
 38 40  1  0  0  0  0
  7 12  1  0  0  0  0
 28 33  1  0  0  0  0
 17 23  1  0  0  0  0
 22 27  1  0  0  0  0
M  END
$$$$

  -OEChem-05262214473D

 43 42  0     1  0  0  0  0  0999 V2000
   -2.8661   -4.7415    2.2943 C   0  0  0  0  0  0  0  0  0  0  0  0
   -2.0233   -5.5727    2.6109 O   0  0  0  0  0  0  0  0  0  0  0  0
   -4.3078   -5.0134    2.5698 C   0  0  0  0  0  0  0  0  0  0  0  0
   -4.8057   -5.5295    1.7332 H   0  0  0  0  0  0  0  0  0  0  0  0
   -4.4526   -5.6688    3.4436 H   0  0  0  0  0  0  0  0  0  0  0  0
   -4.9255   -4.1233    2.7700 H   0  0  0  0  0  0  0  0  0  0  0  0
   -2.6241   -3.5219    1.6838 N   0  0  0  0  0  0  0  0  0  0  0  0
   -1.3070   -3.0608    1.3315 C   0  0  2  0  0  0  0  0  0  0  0  0
   -1.3931   -1.5680    1.0422 C   0  0  0  0  0  0  0  0  0  0  0  0
   -2.4385   -1.0059    0.7226 O   0  0  0  0  0  0  0  0  0  0  0  0
   -0.7590   -3.8164    0.1309 C   0  0  0  0  0  0  0  0  0  0  0  0
   -3.4188   -2.9207    1.4735 H   0  0  0  0  0  0  0  0  0  0  0  0
   -0.6690   -3.2277    2.2062 H   0  0  0  0  0  0  0  0  0  0  0  0
   -1.3852   -3.6613   -0.7553 H   0  0  0  0  0  0  0  0  0  0  0  0
    0.2542   -3.4843   -0.1182 H   0  0  0  0  0  0  0  0  0  0  0  0
   -0.7257   -4.8930    0.3300 H   0  0  0  0  0  0  0  0  0  0  0  0
   -0.1563   -0.9420    1.1402 N   0  0  0  0  0  0  0  0  0  0  0  0
    0.0261    0.4671    0.9001 C   0  0  2  0  0  0  0  0  0  0  0  0
   -0.4027    0.7845   -0.5310 C   0  0  0  0  0  0  0  0  0  0  0  0
   -0.5517   -0.0796   -1.3926 O   0  0  0  0  0  0  0  0  0  0  0  0
    1.4469    0.9344    1.2258 C   0  0  0  0  0  0  0  0  0  0  0  0
    1.8781    0.7987    2.9916 S   0  0  0  0  0  0  0  0  0  0  0  0
    0.6533   -1.4855    1.4300 H   0  0  0  0  0  0  0  0  0  0  0  0
   -0.6739    0.9743    1.5757 H   0  0  0  0  0  0  0  0  0  0  0  0
    2.1822    0.3499    0.6632 H   0  0  0  0  0  0  0  0  0  0  0  0
    1.5695    1.9843    0.9382 H   0  0  0  0  0  0  0  0  0  0  0  0
    3.1224    1.2768    2.8633 H   0  0  0  0  0  0  0  0  0  0  0  0
   -0.5746    2.1459   -0.7377 N   0  0  0  0  0  0  0  0  0  0  0  0
   -0.9685    2.6965   -2.0135 C   0  0  2  0  0  0  0  0  0  0  0  0
   -0.8996    4.2145   -1.9119 C   0  0  0  0  0  0  0  0  0  0  0  0
   -0.9570    4.8186   -0.8429 O   0  0  0  0  0  0  0  0  0  0  0  0
   -2.3654    2.2407   -2.4053 C   0  0  0  0  0  0  0  0  0  0  0  0
   -0.4623    2.7880    0.0413 H   0  0  0  0  0  0  0  0  0  0  0  0
   -0.2365    2.3455   -2.7490 H   0  0  0  0  0  0  0  0  0  0  0  0
   -3.1126    2.5831   -1.6800 H   0  0  0  0  0  0  0  0  0  0  0  0
   -2.6513    2.6359   -3.3857 H   0  0  0  0  0  0  0  0  0  0  0  0
   -2.4209    1.1477   -2.4488 H   0  0  0  0  0  0  0  0  0  0  0  0
   -0.8100    4.8174   -3.1588 N   0  0  0  0  0  0  0  0  0  0  0  0
   -0.7443    6.2501   -3.3291 C   0  0  0  0  0  0  0  0  0  0  0  0
   -0.7490    4.2379   -3.9908 H   0  0  0  0  0  0  0  0  0  0  0  0
   -1.7590    6.6498   -3.4726 H   0  0  0  0  0  0  0  0  0  0  0  0
   -0.2942    6.7053   -2.4346 H   0  0  0  0  0  0  0  0  0  0  0  0
   -0.1292    6.4867   -4.2098 H   0  0  0  0  0  0  0  0  0  0  0  0
  1  3  1  0  0  0  0
  1  7  1  0  0  0  0
  1  2  2  0  0  0  0
 29 30  1  0  0  0  0
 30 38  1  0  0  0  0
 30 31  2  0  0  0  0
  8  9  1  0  0  0  0
  9 17  1  0  0  0  0
  9 10  2  0  0  0  0
 18 19  1  0  0  0  0
 19 28  1  0  0  0  0
 19 20  2  0  0  0  0
 29 32  1  0  0  0  0
  8 11  1  0  0  0  0
 38 39  1  0  0  0  0
 18 21  1  0  0  0  0
 21 22  1  0  0  0  0
 28 29  1  0  0  0  0
  7  8  1  0  0  0  0
 17 18  1  0  0  0  0
  3  4  1  0  0  0  0
  3  5  1  0  0  0  0
  3  6  1  0  0  0  0
 32 35  1  0  0  0  0
 32 36  1  0  0  0  0
 32 37  1  0  0  0  0
 11 14  1  0  0  0  0
 11 15  1  0  0  0  0
 11 16  1  0  0  0  0
 39 41  1  0  0  0  0
 39 42  1  0  0  0  0
 39 43  1  0  0  0  0
 21 25  1  0  0  0  0
 21 26  1  0  0  0  0
 29 34  1  0  0  0  0
  8 13  1  0  0  0  0
 18 24  1  0  0  0  0
 38 40  1  0  0  0  0
  7 12  1  0  0  0  0
 28 33  1  0  0  0  0
 17 23  1  0  0  0  0
 22 27  1  0  0  0  0
M  END
$$$$

  -OEChem-05262214473D

 43 42  0     1  0  0  0  0  0999 V2000
   -2.8661   -4.7415    2.2943 C   0  0  0  0  0  0  0  0  0  0  0  0
   -2.0233   -5.5727    2.6109 O   0  0  0  0  0  0  0  0  0  0  0  0
   -4.3078   -5.0134    2.5698 C   0  0  0  0  0  0  0  0  0  0  0  0
   -4.8057   -5.5295    1.7332 H   0  0  0  0  0  0  0  0  0  0  0  0
   -4.4526   -5.6688    3.4436 H   0  0  0  0  0  0  0  0  0  0  0  0
   -4.9255   -4.1233    2.7700 H   0  0  0  0  0  0  0  0  0  0  0  0
   -2.6241   -3.5219    1.6838 N   0  0  0  0  0  0  0  0  0  0  0  0
   -1.3070   -3.0608    1.3315 C   0  0  2  0  0  0  0  0  0  0  0  0
   -1.3931   -1.5680    1.0422 C   0  0  0  0  0  0  0  0  0  0  0  0
   -2.4385   -1.0059    0.7226 O   0  0  0  0  0  0  0  0  0  0  0  0
   -0.7590   -3.8164    0.1309 C   0  0  0  0  0  0  0  0  0  0  0  0
   -3.4188   -2.9207    1.4735 H   0  0  0  0  0  0  0  0  0  0  0  0
   -0.6690   -3.2277    2.2062 H   0  0  0  0  0  0  0  0  0  0  0  0
   -1.3852   -3.6613   -0.7553 H   0  0  0  0  0  0  0  0  0  0  0  0
    0.2542   -3.4843   -0.1182 H   0  0  0  0  0  0  0  0  0  0  0  0
   -0.7257   -4.8930    0.3300 H   0  0  0  0  0  0  0  0  0  0  0  0
   -0.1563   -0.9420    1.1402 N   0  0  0  0  0  0  0  0  0  0  0  0
    0.0261    0.4671    0.9001 C   0  0  2  0  0  0  0  0  0  0  0  0
   -0.7345    0.8556   -0.3661 C   0  0  0  0  0  0  0  0  0  0  0  0
   -1.3652    0.0462   -1.0432 O   0  0  0  0  0  0  0  0  0  0  0  0
    1.5036    0.8660    0.8671 C   0  0  0  0  0  0  0  0  0  0  0  0
    2.3596    0.6460    2.4613 S   0  0  0  0  0  0  0  0  0  0  0  0
    0.6533   -1.4855    1.4300 H   0  0  0  0  0  0  0  0  0  0  0  0
   -0.4559    0.9748    1.7448 H   0  0  0  0  0  0  0  0  0  0  0  0
    2.0445    0.2753    0.1207 H   0  0  0  0  0  0  0  0  0  0  0  0
    1.5992    1.9205    0.5865 H   0  0  0  0  0  0  0  0  0  0  0  0
    3.5524    1.0799    2.0345 H   0  0  0  0  0  0  0  0  0  0  0  0
   -0.6050    2.2049   -0.6630 N   0  0  0  0  0  0  0  0  0  0  0  0
   -1.2245    2.8113   -1.8182 C   0  0  2  0  0  0  0  0  0  0  0  0
   -0.7376    4.2513   -1.9113 C   0  0  0  0  0  0  0  0  0  0  0  0
   -0.2972    4.8742   -0.9474 O   0  0  0  0  0  0  0  0  0  0  0  0
   -2.7414    2.7553   -1.7259 C   0  0  0  0  0  0  0  0  0  0  0  0
   -0.0912    2.8094   -0.0287 H   0  0  0  0  0  0  0  0  0  0  0  0
   -0.8784    2.2508   -2.6934 H   0  0  0  0  0  0  0  0  0  0  0  0
   -3.1068    3.3115   -0.8548 H   0  0  0  0  0  0  0  0  0  0  0  0
   -3.2094    3.1897   -2.6154 H   0  0  0  0  0  0  0  0  0  0  0  0
   -3.0881    1.7208   -1.6289 H   0  0  0  0  0  0  0  0  0  0  0  0
   -0.8929    4.7732   -3.1879 N   0  0  0  0  0  0  0  0  0  0  0  0
   -0.5166    6.1254   -3.5285 C   0  0  0  0  0  0  0  0  0  0  0  0
   -1.2490    4.1790   -3.9307 H   0  0  0  0  0  0  0  0  0  0  0  0
   -1.3853    6.7895   -3.4090 H   0  0  0  0  0  0  0  0  0  0  0  0
    0.2939    6.4588   -2.8637 H   0  0  0  0  0  0  0  0  0  0  0  0
   -0.1713    6.1578   -4.5724 H   0  0  0  0  0  0  0  0  0  0  0  0
  1  3  1  0  0  0  0
  1  7  1  0  0  0  0
  1  2  2  0  0  0  0
 29 30  1  0  0  0  0
 30 38  1  0  0  0  0
 30 31  2  0  0  0  0
  8  9  1  0  0  0  0
  9 17  1  0  0  0  0
  9 10  2  0  0  0  0
 18 19  1  0  0  0  0
 19 28  1  0  0  0  0
 19 20  2  0  0  0  0
 29 32  1  0  0  0  0
  8 11  1  0  0  0  0
 38 39  1  0  0  0  0
 18 21  1  0  0  0  0
 21 22  1  0  0  0  0
 28 29  1  0  0  0  0
  7  8  1  0  0  0  0
 17 18  1  0  0  0  0
  3  4  1  0  0  0  0
  3  5  1  0  0  0  0
  3  6  1  0  0  0  0
 32 35  1  0  0  0  0
 32 36  1  0  0  0  0
 32 37  1  0  0  0  0
 11 14  1  0  0  0  0
 11 15  1  0  0  0  0
 11 16  1  0  0  0  0
 39 41  1  0  0  0  0
 39 42  1  0  0  0  0
 39 43  1  0  0  0  0
 21 25  1  0  0  0  0
 21 26  1  0  0  0  0
 29 34  1  0  0  0  0
  8 13  1  0  0  0  0
 18 24  1  0  0  0  0
 38 40  1  0  0  0  0
  7 12  1  0  0  0  0
 28 33  1  0  0  0  0
 17 23  1  0  0  0  0
 22 27  1  0  0  0  0
M  END
$$$$

  -OEChem-05262214473D

 43 42  0     1  0  0  0  0  0999 V2000
   -2.8661   -4.7415    2.2943 C   0  0  0  0  0  0  0  0  0  0  0  0
   -2.0233   -5.5727    2.6109 O   0  0  0  0  0  0  0  0  0  0  0  0
   -4.3078   -5.0134    2.5698 C   0  0  0  0  0  0  0  0  0  0  0  0
   -4.8057   -5.5295    1.7332 H   0  0  0  0  0  0  0  0  0  0  0  0
   -4.4526   -5.6688    3.4436 H   0  0  0  0  0  0  0  0  0  0  0  0
   -4.9255   -4.1233    2.7700 H   0  0  0  0  0  0  0  0  0  0  0  0
   -2.6241   -3.5219    1.6838 N   0  0  0  0  0  0  0  0  0  0  0  0
   -1.3070   -3.0608    1.3315 C   0  0  2  0  0  0  0  0  0  0  0  0
   -1.3931   -1.5680    1.0422 C   0  0  0  0  0  0  0  0  0  0  0  0
   -2.4385   -1.0059    0.7226 O   0  0  0  0  0  0  0  0  0  0  0  0
   -0.7590   -3.8164    0.1309 C   0  0  0  0  0  0  0  0  0  0  0  0
   -3.4188   -2.9207    1.4735 H   0  0  0  0  0  0  0  0  0  0  0  0
   -0.6690   -3.2277    2.2062 H   0  0  0  0  0  0  0  0  0  0  0  0
   -1.3852   -3.6613   -0.7553 H   0  0  0  0  0  0  0  0  0  0  0  0
    0.2542   -3.4843   -0.1182 H   0  0  0  0  0  0  0  0  0  0  0  0
   -0.7257   -4.8930    0.3300 H   0  0  0  0  0  0  0  0  0  0  0  0
   -0.1563   -0.9420    1.1402 N   0  0  0  0  0  0  0  0  0  0  0  0
    0.0261    0.4671    0.9001 C   0  0  2  0  0  0  0  0  0  0  0  0
   -0.7345    0.8556   -0.3661 C   0  0  0  0  0  0  0  0  0  0  0  0
   -1.5733    0.1277   -0.8932 O   0  0  0  0  0  0  0  0  0  0  0  0
    1.5036    0.8660    0.8671 C   0  0  0  0  0  0  0  0  0  0  0  0
    2.3596    0.6460    2.4613 S   0  0  0  0  0  0  0  0  0  0  0  0
    0.6533   -1.4855    1.4300 H   0  0  0  0  0  0  0  0  0  0  0  0
   -0.4559    0.9748    1.7448 H   0  0  0  0  0  0  0  0  0  0  0  0
    2.0445    0.2753    0.1207 H   0  0  0  0  0  0  0  0  0  0  0  0
    1.5992    1.9205    0.5865 H   0  0  0  0  0  0  0  0  0  0  0  0
    3.5524    1.0799    2.0345 H   0  0  0  0  0  0  0  0  0  0  0  0
   -0.3484    2.0974   -0.8502 N   0  0  0  0  0  0  0  0  0  0  0  0
   -0.9168    2.6795   -2.0435 C   0  0  2  0  0  0  0  0  0  0  0  0
   -0.1470    3.9557   -2.3568 C   0  0  0  0  0  0  0  0  0  0  0  0
    0.4901    4.5797   -1.5107 O   0  0  0  0  0  0  0  0  0  0  0  0
   -2.3992    2.9686   -1.8660 C   0  0  0  0  0  0  0  0  0  0  0  0
    0.3300    2.6473   -0.3315 H   0  0  0  0  0  0  0  0  0  0  0  0
   -0.7673    1.9546   -2.8510 H   0  0  0  0  0  0  0  0  0  0  0  0
   -2.5687    3.6930   -1.0610 H   0  0  0  0  0  0  0  0  0  0  0  0
   -2.8349    3.3833   -2.7810 H   0  0  0  0  0  0  0  0  0  0  0  0
   -2.9467    2.0547   -1.6114 H   0  0  0  0  0  0  0  0  0  0  0  0
   -0.2906    4.3396   -3.6828 N   0  0  0  0  0  0  0  0  0  0  0  0
    0.3332    5.5248   -4.2232 C   0  0  0  0  0  0  0  0  0  0  0  0
   -0.8219    3.7518   -4.3184 H   0  0  0  0  0  0  0  0  0  0  0  0
   -0.3641    6.3725   -4.1504 H   0  0  0  0  0  0  0  0  0  0  0  0
    1.2461    5.7511   -3.6528 H   0  0  0  0  0  0  0  0  0  0  0  0
    0.5931    5.3536   -5.2783 H   0  0  0  0  0  0  0  0  0  0  0  0
  1  3  1  0  0  0  0
  1  7  1  0  0  0  0
  1  2  2  0  0  0  0
 29 30  1  0  0  0  0
 30 38  1  0  0  0  0
 30 31  2  0  0  0  0
  8  9  1  0  0  0  0
  9 17  1  0  0  0  0
  9 10  2  0  0  0  0
 18 19  1  0  0  0  0
 19 28  1  0  0  0  0
 19 20  2  0  0  0  0
 29 32  1  0  0  0  0
  8 11  1  0  0  0  0
 38 39  1  0  0  0  0
 18 21  1  0  0  0  0
 21 22  1  0  0  0  0
 28 29  1  0  0  0  0
  7  8  1  0  0  0  0
 17 18  1  0  0  0  0
  3  4  1  0  0  0  0
  3  5  1  0  0  0  0
  3  6  1  0  0  0  0
 32 35  1  0  0  0  0
 32 36  1  0  0  0  0
 32 37  1  0  0  0  0
 11 14  1  0  0  0  0
 11 15  1  0  0  0  0
 11 16  1  0  0  0  0
 39 41  1  0  0  0  0
 39 42  1  0  0  0  0
 39 43  1  0  0  0  0
 21 25  1  0  0  0  0
 21 26  1  0  0  0  0
 29 34  1  0  0  0  0
  8 13  1  0  0  0  0
 18 24  1  0  0  0  0
 38 40  1  0  0  0  0
  7 12  1  0  0  0  0
 28 33  1  0  0  0  0
 17 23  1  0  0  0  0
 22 27  1  0  0  0  0
M  END
$$$$

  -OEChem-05262214473D

 43 42  0     1  0  0  0  0  0999 V2000
   -2.8661   -4.7415    2.2943 C   0  0  0  0  0  0  0  0  0  0  0  0
   -2.0233   -5.5727    2.6109 O   0  0  0  0  0  0  0  0  0  0  0  0
   -4.3078   -5.0134    2.5698 C   0  0  0  0  0  0  0  0  0  0  0  0
   -4.8057   -5.5295    1.7332 H   0  0  0  0  0  0  0  0  0  0  0  0
   -4.4526   -5.6688    3.4436 H   0  0  0  0  0  0  0  0  0  0  0  0
   -4.9255   -4.1233    2.7700 H   0  0  0  0  0  0  0  0  0  0  0  0
   -2.6241   -3.5219    1.6838 N   0  0  0  0  0  0  0  0  0  0  0  0
   -1.3070   -3.0608    1.3315 C   0  0  2  0  0  0  0  0  0  0  0  0
   -1.3931   -1.5680    1.0422 C   0  0  0  0  0  0  0  0  0  0  0  0
   -2.4385   -1.0059    0.7226 O   0  0  0  0  0  0  0  0  0  0  0  0
   -0.7590   -3.8164    0.1309 C   0  0  0  0  0  0  0  0  0  0  0  0
   -3.4188   -2.9207    1.4735 H   0  0  0  0  0  0  0  0  0  0  0  0
   -0.6690   -3.2277    2.2062 H   0  0  0  0  0  0  0  0  0  0  0  0
   -1.3852   -3.6613   -0.7553 H   0  0  0  0  0  0  0  0  0  0  0  0
    0.2542   -3.4843   -0.1182 H   0  0  0  0  0  0  0  0  0  0  0  0
   -0.7257   -4.8930    0.3300 H   0  0  0  0  0  0  0  0  0  0  0  0
   -0.1563   -0.9420    1.1402 N   0  0  0  0  0  0  0  0  0  0  0  0
    0.0261    0.4671    0.9001 C   0  0  2  0  0  0  0  0  0  0  0  0
   -0.7345    0.8556   -0.3661 C   0  0  0  0  0  0  0  0  0  0  0  0
   -1.7470    0.2703   -0.7451 O   0  0  0  0  0  0  0  0  0  0  0  0
    1.5036    0.8660    0.8671 C   0  0  0  0  0  0  0  0  0  0  0  0
    2.3596    0.6460    2.4613 S   0  0  0  0  0  0  0  0  0  0  0  0
    0.6533   -1.4855    1.4300 H   0  0  0  0  0  0  0  0  0  0  0  0
   -0.4559    0.9748    1.7448 H   0  0  0  0  0  0  0  0  0  0  0  0
    2.0445    0.2753    0.1207 H   0  0  0  0  0  0  0  0  0  0  0  0
    1.5992    1.9205    0.5865 H   0  0  0  0  0  0  0  0  0  0  0  0
    3.5524    1.0799    2.0345 H   0  0  0  0  0  0  0  0  0  0  0  0
   -0.1358    1.9144   -1.0340 N   0  0  0  0  0  0  0  0  0  0  0  0
   -0.6626    2.4571   -2.2643 C   0  0  2  0  0  0  0  0  0  0  0  0
    0.3307    3.4861   -2.7878 C   0  0  0  0  0  0  0  0  0  0  0  0
    1.1503    4.0536   -2.0686 O   0  0  0  0  0  0  0  0  0  0  0  0
   -2.0321    3.0831   -2.0514 C   0  0  0  0  0  0  0  0  0  0  0  0
    0.6822    2.3614   -0.6308 H   0  0  0  0  0  0  0  0  0  0  0  0
   -0.7339    1.6243   -2.9724 H   0  0  0  0  0  0  0  0  0  0  0  0
   -1.9807    3.9195   -1.3448 H   0  0  0  0  0  0  0  0  0  0  0  0
   -2.4426    3.4686   -2.9905 H   0  0  0  0  0  0  0  0  0  0  0  0
   -2.7374    2.3491   -1.6468 H   0  0  0  0  0  0  0  0  0  0  0  0
    0.1656    3.7277   -4.1445 N   0  0  0  0  0  0  0  0  0  0  0  0
    0.9794    4.6729   -4.8728 C   0  0  0  0  0  0  0  0  0  0  0  0
   -0.5265    3.1976   -4.6659 H   0  0  0  0  0  0  0  0  0  0  0  0
    0.4840    5.6550   -4.8800 H   0  0  0  0  0  0  0  0  0  0  0  0
    1.9621    4.7616   -4.3865 H   0  0  0  0  0  0  0  0  0  0  0  0
    1.1123    4.3218   -5.9067 H   0  0  0  0  0  0  0  0  0  0  0  0
  1  3  1  0  0  0  0
  1  7  1  0  0  0  0
  1  2  2  0  0  0  0
 29 30  1  0  0  0  0
 30 38  1  0  0  0  0
 30 31  2  0  0  0  0
  8  9  1  0  0  0  0
  9 17  1  0  0  0  0
  9 10  2  0  0  0  0
 18 19  1  0  0  0  0
 19 28  1  0  0  0  0
 19 20  2  0  0  0  0
 29 32  1  0  0  0  0
  8 11  1  0  0  0  0
 38 39  1  0  0  0  0
 18 21  1  0  0  0  0
 21 22  1  0  0  0  0
 28 29  1  0  0  0  0
  7  8  1  0  0  0  0
 17 18  1  0  0  0  0
  3  4  1  0  0  0  0
  3  5  1  0  0  0  0
  3  6  1  0  0  0  0
 32 35  1  0  0  0  0
 32 36  1  0  0  0  0
 32 37  1  0  0  0  0
 11 14  1  0  0  0  0
 11 15  1  0  0  0  0
 11 16  1  0  0  0  0
 39 41  1  0  0  0  0
 39 42  1  0  0  0  0
 39 43  1  0  0  0  0
 21 25  1  0  0  0  0
 21 26  1  0  0  0  0
 29 34  1  0  0  0  0
  8 13  1  0  0  0  0
 18 24  1  0  0  0  0
 38 40  1  0  0  0  0
  7 12  1  0  0  0  0
 28 33  1  0  0  0  0
 17 23  1  0  0  0  0
 22 27  1  0  0  0  0
M  END
$$$$

  -OEChem-05262214473D

 43 42  0     1  0  0  0  0  0999 V2000
   -2.8661   -4.7415    2.2943 C   0  0  0  0  0  0  0  0  0  0  0  0
   -2.0233   -5.5727    2.6109 O   0  0  0  0  0  0  0  0  0  0  0  0
   -4.3078   -5.0134    2.5698 C   0  0  0  0  0  0  0  0  0  0  0  0
   -4.8057   -5.5295    1.7332 H   0  0  0  0  0  0  0  0  0  0  0  0
   -4.4526   -5.6688    3.4436 H   0  0  0  0  0  0  0  0  0  0  0  0
   -4.9255   -4.1233    2.7700 H   0  0  0  0  0  0  0  0  0  0  0  0
   -2.6241   -3.5219    1.6838 N   0  0  0  0  0  0  0  0  0  0  0  0
   -1.3070   -3.0608    1.3315 C   0  0  2  0  0  0  0  0  0  0  0  0
   -1.3931   -1.5680    1.0422 C   0  0  0  0  0  0  0  0  0  0  0  0
   -2.4385   -1.0059    0.7226 O   0  0  0  0  0  0  0  0  0  0  0  0
   -0.7590   -3.8164    0.1309 C   0  0  0  0  0  0  0  0  0  0  0  0
   -3.4188   -2.9207    1.4735 H   0  0  0  0  0  0  0  0  0  0  0  0
   -0.6690   -3.2277    2.2062 H   0  0  0  0  0  0  0  0  0  0  0  0
   -1.3852   -3.6613   -0.7553 H   0  0  0  0  0  0  0  0  0  0  0  0
    0.2542   -3.4843   -0.1182 H   0  0  0  0  0  0  0  0  0  0  0  0
   -0.7257   -4.8930    0.3300 H   0  0  0  0  0  0  0  0  0  0  0  0
   -0.1563   -0.9420    1.1402 N   0  0  0  0  0  0  0  0  0  0  0  0
    0.0261    0.4671    0.9001 C   0  0  2  0  0  0  0  0  0  0  0  0
   -0.7345    0.8556   -0.3661 C   0  0  0  0  0  0  0  0  0  0  0  0
   -1.8744    0.4645   -0.6090 O   0  0  0  0  0  0  0  0  0  0  0  0
    1.5036    0.8660    0.8671 C   0  0  0  0  0  0  0  0  0  0  0  0
    2.3596    0.6460    2.4613 S   0  0  0  0  0  0  0  0  0  0  0  0
    0.6533   -1.4855    1.4300 H   0  0  0  0  0  0  0  0  0  0  0  0
   -0.4559    0.9748    1.7448 H   0  0  0  0  0  0  0  0  0  0  0  0
    2.0445    0.2753    0.1207 H   0  0  0  0  0  0  0  0  0  0  0  0
    1.5992    1.9205    0.5865 H   0  0  0  0  0  0  0  0  0  0  0  0
    3.5524    1.0799    2.0345 H   0  0  0  0  0  0  0  0  0  0  0  0
    0.0181    1.6683   -1.2019 N   0  0  0  0  0  0  0  0  0  0  0  0
   -0.4794    2.1593   -2.4658 C   0  0  2  0  0  0  0  0  0  0  0  0
    0.6630    2.8743   -3.1751 C   0  0  0  0  0  0  0  0  0  0  0  0
    1.6384    3.3319   -2.5832 O   0  0  0  0  0  0  0  0  0  0  0  0
   -1.6652    3.0910   -2.2694 C   0  0  0  0  0  0  0  0  0  0  0  0
    0.9414    1.9711   -0.9062 H   0  0  0  0  0  0  0  0  0  0  0  0
   -0.7806    1.2825   -3.0493 H   0  0  0  0  0  0  0  0  0  0  0  0
   -1.3827    3.9755   -1.6868 H   0  0  0  0  0  0  0  0  0  0  0  0
   -2.0591    3.4397   -3.2297 H   0  0  0  0  0  0  0  0  0  0  0  0
   -2.4744    2.5841   -1.7327 H   0  0  0  0  0  0  0  0  0  0  0  0
    0.4445    2.9793   -4.5416 N   0  0  0  0  0  0  0  0  0  0  0  0
    1.3780    3.6276   -5.4329 C   0  0  0  0  0  0  0  0  0  0  0  0
   -0.3829    2.5541   -4.9495 H   0  0  0  0  0  0  0  0  0  0  0  0
    1.1012    4.6859   -5.5480 H   0  0  0  0  0  0  0  0  0  0  0  0
    2.3930    3.5575   -5.0147 H   0  0  0  0  0  0  0  0  0  0  0  0
    1.3511    3.1328   -6.4150 H   0  0  0  0  0  0  0  0  0  0  0  0
  1  3  1  0  0  0  0
  1  7  1  0  0  0  0
  1  2  2  0  0  0  0
 29 30  1  0  0  0  0
 30 38  1  0  0  0  0
 30 31  2  0  0  0  0
  8  9  1  0  0  0  0
  9 17  1  0  0  0  0
  9 10  2  0  0  0  0
 18 19  1  0  0  0  0
 19 28  1  0  0  0  0
 19 20  2  0  0  0  0
 29 32  1  0  0  0  0
  8 11  1  0  0  0  0
 38 39  1  0  0  0  0
 18 21  1  0  0  0  0
 21 22  1  0  0  0  0
 28 29  1  0  0  0  0
  7  8  1  0  0  0  0
 17 18  1  0  0  0  0
  3  4  1  0  0  0  0
  3  5  1  0  0  0  0
  3  6  1  0  0  0  0
 32 35  1  0  0  0  0
 32 36  1  0  0  0  0
 32 37  1  0  0  0  0
 11 14  1  0  0  0  0
 11 15  1  0  0  0  0
 11 16  1  0  0  0  0
 39 41  1  0  0  0  0
 39 42  1  0  0  0  0
 39 43  1  0  0  0  0
 21 25  1  0  0  0  0
 21 26  1  0  0  0  0
 29 34  1  0  0  0  0
  8 13  1  0  0  0  0
 18 24  1  0  0  0  0
 38 40  1  0  0  0  0
  7 12  1  0  0  0  0
 28 33  1  0  0  0  0
 17 23  1  0  0  0  0
 22 27  1  0  0  0  0
M  END
$$$$

  -OEChem-05262214473D

 43 42  0     1  0  0  0  0  0999 V2000
   -2.8661   -4.7415    2.2943 C   0  0  0  0  0  0  0  0  0  0  0  0
   -2.0233   -5.5727    2.6109 O   0  0  0  0  0  0  0  0  0  0  0  0
   -4.3078   -5.0134    2.5698 C   0  0  0  0  0  0  0  0  0  0  0  0
   -4.8057   -5.5295    1.7332 H   0  0  0  0  0  0  0  0  0  0  0  0
   -4.4526   -5.6688    3.4436 H   0  0  0  0  0  0  0  0  0  0  0  0
   -4.9255   -4.1233    2.7700 H   0  0  0  0  0  0  0  0  0  0  0  0
   -2.6241   -3.5219    1.6838 N   0  0  0  0  0  0  0  0  0  0  0  0
   -1.3070   -3.0608    1.3315 C   0  0  2  0  0  0  0  0  0  0  0  0
   -1.3931   -1.5680    1.0422 C   0  0  0  0  0  0  0  0  0  0  0  0
   -2.4385   -1.0059    0.7226 O   0  0  0  0  0  0  0  0  0  0  0  0
   -0.7590   -3.8164    0.1309 C   0  0  0  0  0  0  0  0  0  0  0  0
   -3.4188   -2.9207    1.4735 H   0  0  0  0  0  0  0  0  0  0  0  0
   -0.6690   -3.2277    2.2062 H   0  0  0  0  0  0  0  0  0  0  0  0
   -1.3852   -3.6613   -0.7553 H   0  0  0  0  0  0  0  0  0  0  0  0
    0.2542   -3.4843   -0.1182 H   0  0  0  0  0  0  0  0  0  0  0  0
   -0.7257   -4.8930    0.3300 H   0  0  0  0  0  0  0  0  0  0  0  0
   -0.1563   -0.9420    1.1402 N   0  0  0  0  0  0  0  0  0  0  0  0
    0.0261    0.4671    0.9001 C   0  0  2  0  0  0  0  0  0  0  0  0
   -0.7345    0.8556   -0.3661 C   0  0  0  0  0  0  0  0  0  0  0  0
   -1.9468    0.6969   -0.4942 O   0  0  0  0  0  0  0  0  0  0  0  0
    1.5036    0.8660    0.8671 C   0  0  0  0  0  0  0  0  0  0  0  0
    2.3596    0.6460    2.4613 S   0  0  0  0  0  0  0  0  0  0  0  0
    0.6533   -1.4855    1.4300 H   0  0  0  0  0  0  0  0  0  0  0  0
   -0.4559    0.9748    1.7448 H   0  0  0  0  0  0  0  0  0  0  0  0
    2.0445    0.2753    0.1207 H   0  0  0  0  0  0  0  0  0  0  0  0
    1.5992    1.9205    0.5865 H   0  0  0  0  0  0  0  0  0  0  0  0
    3.5524    1.0799    2.0345 H   0  0  0  0  0  0  0  0  0  0  0  0
    0.1029    1.3760   -1.3426 N   0  0  0  0  0  0  0  0  0  0  0  0
   -0.3796    1.8064   -2.6340 C   0  0  2  0  0  0  0  0  0  0  0  0
    0.8272    2.1622   -3.4922 C   0  0  0  0  0  0  0  0  0  0  0  0
    1.9211    2.4638   -3.0194 O   0  0  0  0  0  0  0  0  0  0  0  0
   -1.3234    2.9918   -2.5051 C   0  0  0  0  0  0  0  0  0  0  0  0
    1.0899    1.5030   -1.1390 H   0  0  0  0  0  0  0  0  0  0  0  0
   -0.9040    0.9524   -3.0764 H   0  0  0  0  0  0  0  0  0  0  0  0
   -0.8157    3.8572   -2.0637 H   0  0  0  0  0  0  0  0  0  0  0  0
   -1.7106    3.2988   -3.4823 H   0  0  0  0  0  0  0  0  0  0  0  0
   -2.1756    2.7435   -1.8633 H   0  0  0  0  0  0  0  0  0  0  0  0
    0.5272    2.1454   -4.8472 N   0  0  0  0  0  0  0  0  0  0  0  0
    1.5019    2.4602   -5.8655 C   0  0  0  0  0  0  0  0  0  0  0  0
   -0.4010    1.8652   -5.1500 H   0  0  0  0  0  0  0  0  0  0  0  0
    1.4455    3.5314   -6.1091 H   0  0  0  0  0  0  0  0  0  0  0  0
    2.5096    2.2211   -5.4947 H   0  0  0  0  0  0  0  0  0  0  0  0
    1.2932    1.8675   -6.7683 H   0  0  0  0  0  0  0  0  0  0  0  0
  1  3  1  0  0  0  0
  1  7  1  0  0  0  0
  1  2  2  0  0  0  0
 29 30  1  0  0  0  0
 30 38  1  0  0  0  0
 30 31  2  0  0  0  0
  8  9  1  0  0  0  0
  9 17  1  0  0  0  0
  9 10  2  0  0  0  0
 18 19  1  0  0  0  0
 19 28  1  0  0  0  0
 19 20  2  0  0  0  0
 29 32  1  0  0  0  0
  8 11  1  0  0  0  0
 38 39  1  0  0  0  0
 18 21  1  0  0  0  0
 21 22  1  0  0  0  0
 28 29  1  0  0  0  0
  7  8  1  0  0  0  0
 17 18  1  0  0  0  0
  3  4  1  0  0  0  0
  3  5  1  0  0  0  0
  3  6  1  0  0  0  0
 32 35  1  0  0  0  0
 32 36  1  0  0  0  0
 32 37  1  0  0  0  0
 11 14  1  0  0  0  0
 11 15  1  0  0  0  0
 11 16  1  0  0  0  0
 39 41  1  0  0  0  0
 39 42  1  0  0  0  0
 39 43  1  0  0  0  0
 21 25  1  0  0  0  0
 21 26  1  0  0  0  0
 29 34  1  0  0  0  0
  8 13  1  0  0  0  0
 18 24  1  0  0  0  0
 38 40  1  0  0  0  0
  7 12  1  0  0  0  0
 28 33  1  0  0  0  0
 17 23  1  0  0  0  0
 22 27  1  0  0  0  0
M  END
$$$$

  -OEChem-05262214473D

 43 42  0     1  0  0  0  0  0999 V2000
   -2.8661   -4.7415    2.2943 C   0  0  0  0  0  0  0  0  0  0  0  0
   -2.0233   -5.5727    2.6109 O   0  0  0  0  0  0  0  0  0  0  0  0
   -4.3078   -5.0134    2.5698 C   0  0  0  0  0  0  0  0  0  0  0  0
   -4.8057   -5.5295    1.7332 H   0  0  0  0  0  0  0  0  0  0  0  0
   -4.4526   -5.6688    3.4436 H   0  0  0  0  0  0  0  0  0  0  0  0
   -4.9255   -4.1233    2.7700 H   0  0  0  0  0  0  0  0  0  0  0  0
   -2.6241   -3.5219    1.6838 N   0  0  0  0  0  0  0  0  0  0  0  0
   -1.3070   -3.0608    1.3315 C   0  0  2  0  0  0  0  0  0  0  0  0
   -1.3931   -1.5680    1.0422 C   0  0  0  0  0  0  0  0  0  0  0  0
   -2.4385   -1.0059    0.7226 O   0  0  0  0  0  0  0  0  0  0  0  0
   -0.7590   -3.8164    0.1309 C   0  0  0  0  0  0  0  0  0  0  0  0
   -3.4188   -2.9207    1.4735 H   0  0  0  0  0  0  0  0  0  0  0  0
   -0.6690   -3.2277    2.2062 H   0  0  0  0  0  0  0  0  0  0  0  0
   -1.3852   -3.6613   -0.7553 H   0  0  0  0  0  0  0  0  0  0  0  0
    0.2542   -3.4843   -0.1182 H   0  0  0  0  0  0  0  0  0  0  0  0
   -0.7257   -4.8930    0.3300 H   0  0  0  0  0  0  0  0  0  0  0  0
   -0.1563   -0.9420    1.1402 N   0  0  0  0  0  0  0  0  0  0  0  0
    0.0261    0.4671    0.9001 C   0  0  2  0  0  0  0  0  0  0  0  0
   -0.7345    0.8556   -0.3661 C   0  0  0  0  0  0  0  0  0  0  0  0
   -1.9594    0.9517   -0.4085 O   0  0  0  0  0  0  0  0  0  0  0  0
    1.5036    0.8660    0.8671 C   0  0  0  0  0  0  0  0  0  0  0  0
    2.3596    0.6460    2.4613 S   0  0  0  0  0  0  0  0  0  0  0  0
    0.6533   -1.4855    1.4300 H   0  0  0  0  0  0  0  0  0  0  0  0
   -0.4559    0.9748    1.7448 H   0  0  0  0  0  0  0  0  0  0  0  0
    2.0445    0.2753    0.1207 H   0  0  0  0  0  0  0  0  0  0  0  0
    1.5992    1.9205    0.5865 H   0  0  0  0  0  0  0  0  0  0  0  0
    3.5524    1.0799    2.0345 H   0  0  0  0  0  0  0  0  0  0  0  0
    0.1129    1.0573   -1.4463 N   0  0  0  0  0  0  0  0  0  0  0  0
   -0.3700    1.4224   -2.7576 C   0  0  2  0  0  0  0  0  0  0  0  0
    0.8121    1.3983   -3.7176 C   0  0  0  0  0  0  0  0  0  0  0  0
    1.9792    1.5083   -3.3474 O   0  0  0  0  0  0  0  0  0  0  0  0
   -1.0301    2.7923   -2.7425 C   0  0  0  0  0  0  0  0  0  0  0  0
    1.1175    0.9890   -1.3133 H   0  0  0  0  0  0  0  0  0  0  0  0
   -1.0958    0.6565   -3.0519 H   0  0  0  0  0  0  0  0  0  0  0  0
   -0.3181    3.5727   -2.4499 H   0  0  0  0  0  0  0  0  0  0  0  0
   -1.4209    3.0553   -3.7310 H   0  0  0  0  0  0  0  0  0  0  0  0
   -1.8614    2.8166   -2.0297 H   0  0  0  0  0  0  0  0  0  0  0  0
    0.4080    1.2827   -5.0402 N   0  0  0  0  0  0  0  0  0  0  0  0
    1.3426    1.2502   -6.1410 C   0  0  0  0  0  0  0  0  0  0  0  0
   -0.5795    1.1778   -5.2537 H   0  0  0  0  0  0  0  0  0  0  0  0
    1.4934    2.2699   -6.5248 H   0  0  0  0  0  0  0  0  0  0  0  0
    2.3038    0.8433   -5.7938 H   0  0  0  0  0  0  0  0  0  0  0  0
    0.9425    0.6122   -6.9428 H   0  0  0  0  0  0  0  0  0  0  0  0
  1  3  1  0  0  0  0
  1  7  1  0  0  0  0
  1  2  2  0  0  0  0
 29 30  1  0  0  0  0
 30 38  1  0  0  0  0
 30 31  2  0  0  0  0
  8  9  1  0  0  0  0
  9 17  1  0  0  0  0
  9 10  2  0  0  0  0
 18 19  1  0  0  0  0
 19 28  1  0  0  0  0
 19 20  2  0  0  0  0
 29 32  1  0  0  0  0
  8 11  1  0  0  0  0
 38 39  1  0  0  0  0
 18 21  1  0  0  0  0
 21 22  1  0  0  0  0
 28 29  1  0  0  0  0
  7  8  1  0  0  0  0
 17 18  1  0  0  0  0
  3  4  1  0  0  0  0
  3  5  1  0  0  0  0
  3  6  1  0  0  0  0
 32 35  1  0  0  0  0
 32 36  1  0  0  0  0
 32 37  1  0  0  0  0
 11 14  1  0  0  0  0
 11 15  1  0  0  0  0
 11 16  1  0  0  0  0
 39 41  1  0  0  0  0
 39 42  1  0  0  0  0
 39 43  1  0  0  0  0
 21 25  1  0  0  0  0
 21 26  1  0  0  0  0
 29 34  1  0  0  0  0
  8 13  1  0  0  0  0
 18 24  1  0  0  0  0
 38 40  1  0  0  0  0
  7 12  1  0  0  0  0
 28 33  1  0  0  0  0
 17 23  1  0  0  0  0
 22 27  1  0  0  0  0
M  END
$$$$

  -OEChem-05262214473D

 43 42  0     1  0  0  0  0  0999 V2000
   -2.8661   -4.7415    2.2943 C   0  0  0  0  0  0  0  0  0  0  0  0
   -2.0233   -5.5727    2.6109 O   0  0  0  0  0  0  0  0  0  0  0  0
   -4.3078   -5.0134    2.5698 C   0  0  0  0  0  0  0  0  0  0  0  0
   -4.8057   -5.5295    1.7332 H   0  0  0  0  0  0  0  0  0  0  0  0
   -4.4526   -5.6688    3.4436 H   0  0  0  0  0  0  0  0  0  0  0  0
   -4.9255   -4.1233    2.7700 H   0  0  0  0  0  0  0  0  0  0  0  0
   -2.6241   -3.5219    1.6838 N   0  0  0  0  0  0  0  0  0  0  0  0
   -1.3070   -3.0608    1.3315 C   0  0  2  0  0  0  0  0  0  0  0  0
   -1.3931   -1.5680    1.0422 C   0  0  0  0  0  0  0  0  0  0  0  0
   -2.4385   -1.0059    0.7226 O   0  0  0  0  0  0  0  0  0  0  0  0
   -0.7590   -3.8164    0.1309 C   0  0  0  0  0  0  0  0  0  0  0  0
   -3.4188   -2.9207    1.4735 H   0  0  0  0  0  0  0  0  0  0  0  0
   -0.6690   -3.2277    2.2062 H   0  0  0  0  0  0  0  0  0  0  0  0
   -1.3852   -3.6613   -0.7553 H   0  0  0  0  0  0  0  0  0  0  0  0
    0.2542   -3.4843   -0.1182 H   0  0  0  0  0  0  0  0  0  0  0  0
   -0.7257   -4.8930    0.3300 H   0  0  0  0  0  0  0  0  0  0  0  0
   -0.1563   -0.9420    1.1402 N   0  0  0  0  0  0  0  0  0  0  0  0
    0.0261    0.4671    0.9001 C   0  0  2  0  0  0  0  0  0  0  0  0
   -0.7345    0.8556   -0.3661 C   0  0  0  0  0  0  0  0  0  0  0  0
   -1.9112    1.2116   -0.3577 O   0  0  0  0  0  0  0  0  0  0  0  0
    1.5036    0.8660    0.8671 C   0  0  0  0  0  0  0  0  0  0  0  0
    2.3596    0.6460    2.4613 S   0  0  0  0  0  0  0  0  0  0  0  0
    0.6533   -1.4855    1.4300 H   0  0  0  0  0  0  0  0  0  0  0  0
   -0.4559    0.9748    1.7448 H   0  0  0  0  0  0  0  0  0  0  0  0
    2.0445    0.2753    0.1207 H   0  0  0  0  0  0  0  0  0  0  0  0
    1.5992    1.9205    0.5865 H   0  0  0  0  0  0  0  0  0  0  0  0
    3.5524    1.0799    2.0345 H   0  0  0  0  0  0  0  0  0  0  0  0
    0.0472    0.7339   -1.5061 N   0  0  0  0  0  0  0  0  0  0  0  0
   -0.4512    1.0335   -2.8281 C   0  0  2  0  0  0  0  0  0  0  0  0
    0.6188    0.6345   -3.8357 C   0  0  0  0  0  0  0  0  0  0  0  0
    1.8087    0.5307   -3.5449 O   0  0  0  0  0  0  0  0  0  0  0  0
   -0.8052    2.5061   -2.9654 C   0  0  0  0  0  0  0  0  0  0  0  0
    1.0224    0.4641   -1.4172 H   0  0  0  0  0  0  0  0  0  0  0  0
   -1.3430    0.4151   -2.9775 H   0  0  0  0  0  0  0  0  0  0  0  0
    0.0760    3.1413   -2.8190 H   0  0  0  0  0  0  0  0  0  0  0  0
   -1.2096    2.7259   -3.9590 H   0  0  0  0  0  0  0  0  0  0  0  0
   -1.5531    2.7982   -2.2204 H   0  0  0  0  0  0  0  0  0  0  0  0
    0.0951    0.4501   -5.1077 N   0  0  0  0  0  0  0  0  0  0  0  0
    0.9109    0.0801   -6.2406 C   0  0  0  0  0  0  0  0  0  0  0  0
   -0.9062    0.5387   -5.2535 H   0  0  0  0  0  0  0  0  0  0  0  0
    1.2417    0.9876   -6.7670 H   0  0  0  0  0  0  0  0  0  0  0  0
    1.7897   -0.4819   -5.8916 H   0  0  0  0  0  0  0  0  0  0  0  0
    0.3229   -0.5475   -6.9264 H   0  0  0  0  0  0  0  0  0  0  0  0
  1  3  1  0  0  0  0
  1  7  1  0  0  0  0
  1  2  2  0  0  0  0
 29 30  1  0  0  0  0
 30 38  1  0  0  0  0
 30 31  2  0  0  0  0
  8  9  1  0  0  0  0
  9 17  1  0  0  0  0
  9 10  2  0  0  0  0
 18 19  1  0  0  0  0
 19 28  1  0  0  0  0
 19 20  2  0  0  0  0
 29 32  1  0  0  0  0
  8 11  1  0  0  0  0
 38 39  1  0  0  0  0
 18 21  1  0  0  0  0
 21 22  1  0  0  0  0
 28 29  1  0  0  0  0
  7  8  1  0  0  0  0
 17 18  1  0  0  0  0
  3  4  1  0  0  0  0
  3  5  1  0  0  0  0
  3  6  1  0  0  0  0
 32 35  1  0  0  0  0
 32 36  1  0  0  0  0
 32 37  1  0  0  0  0
 11 14  1  0  0  0  0
 11 15  1  0  0  0  0
 11 16  1  0  0  0  0
 39 41  1  0  0  0  0
 39 42  1  0  0  0  0
 39 43  1  0  0  0  0
 21 25  1  0  0  0  0
 21 26  1  0  0  0  0
 29 34  1  0  0  0  0
  8 13  1  0  0  0  0
 18 24  1  0  0  0  0
 38 40  1  0  0  0  0
  7 12  1  0  0  0  0
 28 33  1  0  0  0  0
 17 23  1  0  0  0  0
 22 27  1  0  0  0  0
M  END
$$$$

  -OEChem-05262214473D

 43 42  0     1  0  0  0  0  0999 V2000
   -2.8661   -4.7415    2.2943 C   0  0  0  0  0  0  0  0  0  0  0  0
   -2.0233   -5.5727    2.6109 O   0  0  0  0  0  0  0  0  0  0  0  0
   -4.3078   -5.0134    2.5698 C   0  0  0  0  0  0  0  0  0  0  0  0
   -4.8057   -5.5295    1.7332 H   0  0  0  0  0  0  0  0  0  0  0  0
   -4.4526   -5.6688    3.4436 H   0  0  0  0  0  0  0  0  0  0  0  0
   -4.9255   -4.1233    2.7700 H   0  0  0  0  0  0  0  0  0  0  0  0
   -2.6241   -3.5219    1.6838 N   0  0  0  0  0  0  0  0  0  0  0  0
   -1.3070   -3.0608    1.3315 C   0  0  2  0  0  0  0  0  0  0  0  0
   -1.3931   -1.5680    1.0422 C   0  0  0  0  0  0  0  0  0  0  0  0
   -2.4385   -1.0059    0.7226 O   0  0  0  0  0  0  0  0  0  0  0  0
   -0.7590   -3.8164    0.1309 C   0  0  0  0  0  0  0  0  0  0  0  0
   -3.4188   -2.9207    1.4735 H   0  0  0  0  0  0  0  0  0  0  0  0
   -0.6690   -3.2277    2.2062 H   0  0  0  0  0  0  0  0  0  0  0  0
   -1.3852   -3.6613   -0.7553 H   0  0  0  0  0  0  0  0  0  0  0  0
    0.2542   -3.4843   -0.1182 H   0  0  0  0  0  0  0  0  0  0  0  0
   -0.7257   -4.8930    0.3300 H   0  0  0  0  0  0  0  0  0  0  0  0
   -0.1563   -0.9420    1.1402 N   0  0  0  0  0  0  0  0  0  0  0  0
    0.0261    0.4671    0.9001 C   0  0  2  0  0  0  0  0  0  0  0  0
   -0.7345    0.8556   -0.3661 C   0  0  0  0  0  0  0  0  0  0  0  0
   -1.8055    1.4588   -0.3454 O   0  0  0  0  0  0  0  0  0  0  0  0
    1.5036    0.8660    0.8671 C   0  0  0  0  0  0  0  0  0  0  0  0
    2.3596    0.6460    2.4613 S   0  0  0  0  0  0  0  0  0  0  0  0
    0.6533   -1.4855    1.4300 H   0  0  0  0  0  0  0  0  0  0  0  0
   -0.4559    0.9748    1.7448 H   0  0  0  0  0  0  0  0  0  0  0  0
    2.0445    0.2753    0.1207 H   0  0  0  0  0  0  0  0  0  0  0  0
    1.5992    1.9205    0.5865 H   0  0  0  0  0  0  0  0  0  0  0  0
    3.5524    1.0799    2.0345 H   0  0  0  0  0  0  0  0  0  0  0  0
   -0.0895    0.4279   -1.5179 N   0  0  0  0  0  0  0  0  0  0  0  0
   -0.6178    0.6661   -2.8407 C   0  0  2  0  0  0  0  0  0  0  0  0
    0.2605   -0.0769   -3.8387 C   0  0  0  0  0  0  0  0  0  0  0  0
    1.4212   -0.4025   -3.5985 O   0  0  0  0  0  0  0  0  0  0  0  0
   -0.6640    2.1526   -3.1587 C   0  0  0  0  0  0  0  0  0  0  0  0
    0.8111   -0.0359   -1.4437 H   0  0  0  0  0  0  0  0  0  0  0  0
   -1.6287    0.2445   -2.8582 H   0  0  0  0  0  0  0  0  0  0  0  0
    0.3398    2.5926   -3.1458 H   0  0  0  0  0  0  0  0  0  0  0  0
   -1.0913    2.3330   -4.1506 H   0  0  0  0  0  0  0  0  0  0  0  0
   -1.2718    2.6898   -2.4227 H   0  0  0  0  0  0  0  0  0  0  0  0
   -0.3902   -0.2956   -5.0449 N   0  0  0  0  0  0  0  0  0  0  0  0
    0.2364   -0.9703   -6.1577 C   0  0  0  0  0  0  0  0  0  0  0  0
   -1.3589   -0.0084   -5.1494 H   0  0  0  0  0  0  0  0  0  0  0  0
    0.7074   -0.2282   -6.8190 H   0  0  0  0  0  0  0  0  0  0  0  0
    1.0023   -1.6643   -5.7813 H   0  0  0  0  0  0  0  0  0  0  0  0
   -0.5234   -1.5327   -6.7203 H   0  0  0  0  0  0  0  0  0  0  0  0
  1  3  1  0  0  0  0
  1  7  1  0  0  0  0
  1  2  2  0  0  0  0
 29 30  1  0  0  0  0
 30 38  1  0  0  0  0
 30 31  2  0  0  0  0
  8  9  1  0  0  0  0
  9 17  1  0  0  0  0
  9 10  2  0  0  0  0
 18 19  1  0  0  0  0
 19 28  1  0  0  0  0
 19 20  2  0  0  0  0
 29 32  1  0  0  0  0
  8 11  1  0  0  0  0
 38 39  1  0  0  0  0
 18 21  1  0  0  0  0
 21 22  1  0  0  0  0
 28 29  1  0  0  0  0
  7  8  1  0  0  0  0
 17 18  1  0  0  0  0
  3  4  1  0  0  0  0
  3  5  1  0  0  0  0
  3  6  1  0  0  0  0
 32 35  1  0  0  0  0
 32 36  1  0  0  0  0
 32 37  1  0  0  0  0
 11 14  1  0  0  0  0
 11 15  1  0  0  0  0
 11 16  1  0  0  0  0
 39 41  1  0  0  0  0
 39 42  1  0  0  0  0
 39 43  1  0  0  0  0
 21 25  1  0  0  0  0
 21 26  1  0  0  0  0
 29 34  1  0  0  0  0
  8 13  1  0  0  0  0
 18 24  1  0  0  0  0
 38 40  1  0  0  0  0
  7 12  1  0  0  0  0
 28 33  1  0  0  0  0
 17 23  1  0  0  0  0
 22 27  1  0  0  0  0
M  END
$$$$

  -OEChem-05262214473D

 43 42  0     1  0  0  0  0  0999 V2000
   -2.8661   -4.7415    2.2943 C   0  0  0  0  0  0  0  0  0  0  0  0
   -2.0233   -5.5727    2.6109 O   0  0  0  0  0  0  0  0  0  0  0  0
   -4.3078   -5.0134    2.5698 C   0  0  0  0  0  0  0  0  0  0  0  0
   -4.8057   -5.5295    1.7332 H   0  0  0  0  0  0  0  0  0  0  0  0
   -4.4526   -5.6688    3.4436 H   0  0  0  0  0  0  0  0  0  0  0  0
   -4.9255   -4.1233    2.7700 H   0  0  0  0  0  0  0  0  0  0  0  0
   -2.6241   -3.5219    1.6838 N   0  0  0  0  0  0  0  0  0  0  0  0
   -1.3070   -3.0608    1.3315 C   0  0  2  0  0  0  0  0  0  0  0  0
   -1.3931   -1.5680    1.0422 C   0  0  0  0  0  0  0  0  0  0  0  0
   -2.4385   -1.0059    0.7226 O   0  0  0  0  0  0  0  0  0  0  0  0
   -0.7590   -3.8164    0.1309 C   0  0  0  0  0  0  0  0  0  0  0  0
   -3.4188   -2.9207    1.4735 H   0  0  0  0  0  0  0  0  0  0  0  0
   -0.6690   -3.2277    2.2062 H   0  0  0  0  0  0  0  0  0  0  0  0
   -1.3852   -3.6613   -0.7553 H   0  0  0  0  0  0  0  0  0  0  0  0
    0.2542   -3.4843   -0.1182 H   0  0  0  0  0  0  0  0  0  0  0  0
   -0.7257   -4.8930    0.3300 H   0  0  0  0  0  0  0  0  0  0  0  0
   -0.1563   -0.9420    1.1402 N   0  0  0  0  0  0  0  0  0  0  0  0
    0.0261    0.4671    0.9001 C   0  0  2  0  0  0  0  0  0  0  0  0
   -0.7345    0.8556   -0.3661 C   0  0  0  0  0  0  0  0  0  0  0  0
   -1.6495    1.6766   -0.3722 O   0  0  0  0  0  0  0  0  0  0  0  0
    1.5036    0.8660    0.8671 C   0  0  0  0  0  0  0  0  0  0  0  0
    2.3596    0.6460    2.4613 S   0  0  0  0  0  0  0  0  0  0  0  0
    0.6533   -1.4855    1.4300 H   0  0  0  0  0  0  0  0  0  0  0  0
   -0.4559    0.9748    1.7448 H   0  0  0  0  0  0  0  0  0  0  0  0
    2.0445    0.2753    0.1207 H   0  0  0  0  0  0  0  0  0  0  0  0
    1.5992    1.9205    0.5865 H   0  0  0  0  0  0  0  0  0  0  0  0
    3.5524    1.0799    2.0345 H   0  0  0  0  0  0  0  0  0  0  0  0
   -0.2879    0.1602   -1.4808 N   0  0  0  0  0  0  0  0  0  0  0  0
   -0.8583    0.3454   -2.7946 C   0  0  2  0  0  0  0  0  0  0  0  0
   -0.2385   -0.6877   -3.7263 C   0  0  0  0  0  0  0  0  0  0  0  0
    0.8432   -1.2277   -3.5044 O   0  0  0  0  0  0  0  0  0  0  0  0
   -0.6162    1.7559   -3.3091 C   0  0  0  0  0  0  0  0  0  0  0  0
    0.4980   -0.4770   -1.3909 H   0  0  0  0  0  0  0  0  0  0  0  0
   -1.9334    0.1564   -2.7022 H   0  0  0  0  0  0  0  0  0  0  0  0
    0.4554    1.9637   -3.4082 H   0  0  0  0  0  0  0  0  0  0  0  0
   -1.0738    1.9034   -4.2929 H   0  0  0  0  0  0  0  0  0  0  0  0
   -1.0367    2.4987   -2.6225 H   0  0  0  0  0  0  0  0  0  0  0  0
   -1.0149   -0.9038   -4.8562 N   0  0  0  0  0  0  0  0  0  0  0  0
   -0.6351   -1.8295   -5.8978 C   0  0  0  0  0  0  0  0  0  0  0  0
   -1.9067   -0.4264   -4.9485 H   0  0  0  0  0  0  0  0  0  0  0  0
   -0.0730   -1.2946   -6.6774 H   0  0  0  0  0  0  0  0  0  0  0  0
   -0.0047   -2.6233   -5.4706 H   0  0  0  0  0  0  0  0  0  0  0  0
   -1.5386   -2.2762   -6.3385 H   0  0  0  0  0  0  0  0  0  0  0  0
  1  3  1  0  0  0  0
  1  7  1  0  0  0  0
  1  2  2  0  0  0  0
 29 30  1  0  0  0  0
 30 38  1  0  0  0  0
 30 31  2  0  0  0  0
  8  9  1  0  0  0  0
  9 17  1  0  0  0  0
  9 10  2  0  0  0  0
 18 19  1  0  0  0  0
 19 28  1  0  0  0  0
 19 20  2  0  0  0  0
 29 32  1  0  0  0  0
  8 11  1  0  0  0  0
 38 39  1  0  0  0  0
 18 21  1  0  0  0  0
 21 22  1  0  0  0  0
 28 29  1  0  0  0  0
  7  8  1  0  0  0  0
 17 18  1  0  0  0  0
  3  4  1  0  0  0  0
  3  5  1  0  0  0  0
  3  6  1  0  0  0  0
 32 35  1  0  0  0  0
 32 36  1  0  0  0  0
 32 37  1  0  0  0  0
 11 14  1  0  0  0  0
 11 15  1  0  0  0  0
 11 16  1  0  0  0  0
 39 41  1  0  0  0  0
 39 42  1  0  0  0  0
 39 43  1  0  0  0  0
 21 25  1  0  0  0  0
 21 26  1  0  0  0  0
 29 34  1  0  0  0  0
  8 13  1  0  0  0  0
 18 24  1  0  0  0  0
 38 40  1  0  0  0  0
  7 12  1  0  0  0  0
 28 33  1  0  0  0  0
 17 23  1  0  0  0  0
 22 27  1  0  0  0  0
M  END
$$$$

  -OEChem-05262214473D

 43 42  0     1  0  0  0  0  0999 V2000
   -2.8661   -4.7415    2.2943 C   0  0  0  0  0  0  0  0  0  0  0  0
   -2.0233   -5.5727    2.6109 O   0  0  0  0  0  0  0  0  0  0  0  0
   -4.3078   -5.0134    2.5698 C   0  0  0  0  0  0  0  0  0  0  0  0
   -4.8057   -5.5295    1.7332 H   0  0  0  0  0  0  0  0  0  0  0  0
   -4.4526   -5.6688    3.4436 H   0  0  0  0  0  0  0  0  0  0  0  0
   -4.9255   -4.1233    2.7700 H   0  0  0  0  0  0  0  0  0  0  0  0
   -2.6241   -3.5219    1.6838 N   0  0  0  0  0  0  0  0  0  0  0  0
   -1.3070   -3.0608    1.3315 C   0  0  2  0  0  0  0  0  0  0  0  0
   -1.3931   -1.5680    1.0422 C   0  0  0  0  0  0  0  0  0  0  0  0
   -2.4385   -1.0059    0.7226 O   0  0  0  0  0  0  0  0  0  0  0  0
   -0.7590   -3.8164    0.1309 C   0  0  0  0  0  0  0  0  0  0  0  0
   -3.4188   -2.9207    1.4735 H   0  0  0  0  0  0  0  0  0  0  0  0
   -0.6690   -3.2277    2.2062 H   0  0  0  0  0  0  0  0  0  0  0  0
   -1.3852   -3.6613   -0.7553 H   0  0  0  0  0  0  0  0  0  0  0  0
    0.2542   -3.4843   -0.1182 H   0  0  0  0  0  0  0  0  0  0  0  0
   -0.7257   -4.8930    0.3300 H   0  0  0  0  0  0  0  0  0  0  0  0
   -0.1563   -0.9420    1.1402 N   0  0  0  0  0  0  0  0  0  0  0  0
    0.0261    0.4671    0.9001 C   0  0  2  0  0  0  0  0  0  0  0  0
   -0.7345    0.8556   -0.3661 C   0  0  0  0  0  0  0  0  0  0  0  0
   -1.4540    1.8499   -0.4365 O   0  0  0  0  0  0  0  0  0  0  0  0
    1.5036    0.8660    0.8671 C   0  0  0  0  0  0  0  0  0  0  0  0
    2.3596    0.6460    2.4613 S   0  0  0  0  0  0  0  0  0  0  0  0
    0.6533   -1.4855    1.4300 H   0  0  0  0  0  0  0  0  0  0  0  0
   -0.4559    0.9748    1.7448 H   0  0  0  0  0  0  0  0  0  0  0  0
    2.0445    0.2753    0.1207 H   0  0  0  0  0  0  0  0  0  0  0  0
    1.5992    1.9205    0.5865 H   0  0  0  0  0  0  0  0  0  0  0  0
    3.5524    1.0799    2.0345 H   0  0  0  0  0  0  0  0  0  0  0  0
   -0.5347   -0.0511   -1.3974 N   0  0  0  0  0  0  0  0  0  0  0  0
   -1.1564    0.0932   -2.6929 C   0  0  2  0  0  0  0  0  0  0  0  0
   -0.8442   -1.1560   -3.5062 C   0  0  0  0  0  0  0  0  0  0  0  0
    0.1140   -1.8886   -3.2692 O   0  0  0  0  0  0  0  0  0  0  0  0
   -0.6651    1.3432   -3.4063 C   0  0  0  0  0  0  0  0  0  0  0  0
    0.1043   -0.8290   -1.2624 H   0  0  0  0  0  0  0  0  0  0  0  0
   -2.2363    0.1568   -2.5201 H   0  0  0  0  0  0  0  0  0  0  0  0
    0.4149    1.2977   -3.5881 H   0  0  0  0  0  0  0  0  0  0  0  0
   -1.1586    1.4664   -4.3761 H   0  0  0  0  0  0  0  0  0  0  0  0
   -0.8638    2.2378   -2.8064 H   0  0  0  0  0  0  0  0  0  0  0  0
   -1.7364   -1.3328   -4.5545 N   0  0  0  0  0  0  0  0  0  0  0  0
   -1.6442   -2.4389   -5.4786 C   0  0  0  0  0  0  0  0  0  0  0  0
   -2.5123   -0.6867   -4.6646 H   0  0  0  0  0  0  0  0  0  0  0  0
   -1.0463   -2.1390   -6.3518 H   0  0  0  0  0  0  0  0  0  0  0  0
   -1.1626   -3.2934   -4.9806 H   0  0  0  0  0  0  0  0  0  0  0  0
   -2.6536   -2.7272   -5.8071 H   0  0  0  0  0  0  0  0  0  0  0  0
  1  3  1  0  0  0  0
  1  7  1  0  0  0  0
  1  2  2  0  0  0  0
 29 30  1  0  0  0  0
 30 38  1  0  0  0  0
 30 31  2  0  0  0  0
  8  9  1  0  0  0  0
  9 17  1  0  0  0  0
  9 10  2  0  0  0  0
 18 19  1  0  0  0  0
 19 28  1  0  0  0  0
 19 20  2  0  0  0  0
 29 32  1  0  0  0  0
  8 11  1  0  0  0  0
 38 39  1  0  0  0  0
 18 21  1  0  0  0  0
 21 22  1  0  0  0  0
 28 29  1  0  0  0  0
  7  8  1  0  0  0  0
 17 18  1  0  0  0  0
  3  4  1  0  0  0  0
  3  5  1  0  0  0  0
  3  6  1  0  0  0  0
 32 35  1  0  0  0  0
 32 36  1  0  0  0  0
 32 37  1  0  0  0  0
 11 14  1  0  0  0  0
 11 15  1  0  0  0  0
 11 16  1  0  0  0  0
 39 41  1  0  0  0  0
 39 42  1  0  0  0  0
 39 43  1  0  0  0  0
 21 25  1  0  0  0  0
 21 26  1  0  0  0  0
 29 34  1  0  0  0  0
  8 13  1  0  0  0  0
 18 24  1  0  0  0  0
 38 40  1  0  0  0  0
  7 12  1  0  0  0  0
 28 33  1  0  0  0  0
 17 23  1  0  0  0  0
 22 27  1  0  0  0  0
M  END
$$$$

  -OEChem-05262214473D

 43 42  0     1  0  0  0  0  0999 V2000
   -2.8661   -4.7415    2.2943 C   0  0  0  0  0  0  0  0  0  0  0  0
   -2.0233   -5.5727    2.6109 O   0  0  0  0  0  0  0  0  0  0  0  0
   -4.3078   -5.0134    2.5698 C   0  0  0  0  0  0  0  0  0  0  0  0
   -4.8057   -5.5295    1.7332 H   0  0  0  0  0  0  0  0  0  0  0  0
   -4.4526   -5.6688    3.4436 H   0  0  0  0  0  0  0  0  0  0  0  0
   -4.9255   -4.1233    2.7700 H   0  0  0  0  0  0  0  0  0  0  0  0
   -2.6241   -3.5219    1.6838 N   0  0  0  0  0  0  0  0  0  0  0  0
   -1.3070   -3.0608    1.3315 C   0  0  2  0  0  0  0  0  0  0  0  0
   -1.3931   -1.5680    1.0422 C   0  0  0  0  0  0  0  0  0  0  0  0
   -2.4385   -1.0059    0.7226 O   0  0  0  0  0  0  0  0  0  0  0  0
   -0.7590   -3.8164    0.1309 C   0  0  0  0  0  0  0  0  0  0  0  0
   -3.4188   -2.9207    1.4735 H   0  0  0  0  0  0  0  0  0  0  0  0
   -0.6690   -3.2277    2.2062 H   0  0  0  0  0  0  0  0  0  0  0  0
   -1.3852   -3.6613   -0.7553 H   0  0  0  0  0  0  0  0  0  0  0  0
    0.2542   -3.4843   -0.1182 H   0  0  0  0  0  0  0  0  0  0  0  0
   -0.7257   -4.8930    0.3300 H   0  0  0  0  0  0  0  0  0  0  0  0
   -0.1563   -0.9420    1.1402 N   0  0  0  0  0  0  0  0  0  0  0  0
    0.0261    0.4671    0.9001 C   0  0  2  0  0  0  0  0  0  0  0  0
   -0.7345    0.8556   -0.3661 C   0  0  0  0  0  0  0  0  0  0  0  0
   -1.2321    1.9672   -0.5338 O   0  0  0  0  0  0  0  0  0  0  0  0
    1.5036    0.8660    0.8671 C   0  0  0  0  0  0  0  0  0  0  0  0
    2.3596    0.6460    2.4613 S   0  0  0  0  0  0  0  0  0  0  0  0
    0.6533   -1.4855    1.4300 H   0  0  0  0  0  0  0  0  0  0  0  0
   -0.4559    0.9748    1.7448 H   0  0  0  0  0  0  0  0  0  0  0  0
    2.0445    0.2753    0.1207 H   0  0  0  0  0  0  0  0  0  0  0  0
    1.5992    1.9205    0.5865 H   0  0  0  0  0  0  0  0  0  0  0  0
    3.5524    1.0799    2.0345 H   0  0  0  0  0  0  0  0  0  0  0  0
   -0.8128   -0.1914   -1.2734 N   0  0  0  0  0  0  0  0  0  0  0  0
   -1.4918   -0.0733   -2.5425 C   0  0  2  0  0  0  0  0  0  0  0  0
   -1.5152   -1.4501   -3.1933 C   0  0  0  0  0  0  0  0  0  0  0  0
   -0.7166   -2.3402   -2.9087 O   0  0  0  0  0  0  0  0  0  0  0  0
   -0.8073    0.9424   -3.4439 C   0  0  0  0  0  0  0  0  0  0  0  0
   -0.3430   -1.0680   -1.0670 H   0  0  0  0  0  0  0  0  0  0  0  0
   -2.5169    0.2456   -2.3244 H   0  0  0  0  0  0  0  0  0  0  0  0
    0.2210    0.6399   -3.6735 H   0  0  0  0  0  0  0  0  0  0  0  0
   -1.3397    1.0517   -4.3945 H   0  0  0  0  0  0  0  0  0  0  0  0
   -0.7648    1.9251   -2.9618 H   0  0  0  0  0  0  0  0  0  0  0  0
   -2.5055   -1.5535   -4.1602 N   0  0  0  0  0  0  0  0  0  0  0  0
   -2.7220   -2.7571   -4.9287 C   0  0  0  0  0  0  0  0  0  0  0  0
   -3.1345   -0.7715   -4.3169 H   0  0  0  0  0  0  0  0  0  0  0  0
   -2.1462   -2.7038   -5.8644 H   0  0  0  0  0  0  0  0  0  0  0  0
   -2.3927   -3.6291   -4.3447 H   0  0  0  0  0  0  0  0  0  0  0  0
   -3.7925   -2.8552   -5.1622 H   0  0  0  0  0  0  0  0  0  0  0  0
  1  3  1  0  0  0  0
  1  7  1  0  0  0  0
  1  2  2  0  0  0  0
 29 30  1  0  0  0  0
 30 38  1  0  0  0  0
 30 31  2  0  0  0  0
  8  9  1  0  0  0  0
  9 17  1  0  0  0  0
  9 10  2  0  0  0  0
 18 19  1  0  0  0  0
 19 28  1  0  0  0  0
 19 20  2  0  0  0  0
 29 32  1  0  0  0  0
  8 11  1  0  0  0  0
 38 39  1  0  0  0  0
 18 21  1  0  0  0  0
 21 22  1  0  0  0  0
 28 29  1  0  0  0  0
  7  8  1  0  0  0  0
 17 18  1  0  0  0  0
  3  4  1  0  0  0  0
  3  5  1  0  0  0  0
  3  6  1  0  0  0  0
 32 35  1  0  0  0  0
 32 36  1  0  0  0  0
 32 37  1  0  0  0  0
 11 14  1  0  0  0  0
 11 15  1  0  0  0  0
 11 16  1  0  0  0  0
 39 41  1  0  0  0  0
 39 42  1  0  0  0  0
 39 43  1  0  0  0  0
 21 25  1  0  0  0  0
 21 26  1  0  0  0  0
 29 34  1  0  0  0  0
  8 13  1  0  0  0  0
 18 24  1  0  0  0  0
 38 40  1  0  0  0  0
  7 12  1  0  0  0  0
 28 33  1  0  0  0  0
 17 23  1  0  0  0  0
 22 27  1  0  0  0  0
M  END
$$$$

  -OEChem-05262214473D

 43 42  0     1  0  0  0  0  0999 V2000
   -2.8661   -4.7415    2.2943 C   0  0  0  0  0  0  0  0  0  0  0  0
   -2.0233   -5.5727    2.6109 O   0  0  0  0  0  0  0  0  0  0  0  0
   -4.3078   -5.0134    2.5698 C   0  0  0  0  0  0  0  0  0  0  0  0
   -4.8057   -5.5295    1.7332 H   0  0  0  0  0  0  0  0  0  0  0  0
   -4.4526   -5.6688    3.4436 H   0  0  0  0  0  0  0  0  0  0  0  0
   -4.9255   -4.1233    2.7700 H   0  0  0  0  0  0  0  0  0  0  0  0
   -2.6241   -3.5219    1.6838 N   0  0  0  0  0  0  0  0  0  0  0  0
   -1.3070   -3.0608    1.3315 C   0  0  2  0  0  0  0  0  0  0  0  0
   -1.3931   -1.5680    1.0422 C   0  0  0  0  0  0  0  0  0  0  0  0
   -2.4385   -1.0059    0.7226 O   0  0  0  0  0  0  0  0  0  0  0  0
   -0.7590   -3.8164    0.1309 C   0  0  0  0  0  0  0  0  0  0  0  0
   -3.4188   -2.9207    1.4735 H   0  0  0  0  0  0  0  0  0  0  0  0
   -0.6690   -3.2277    2.2062 H   0  0  0  0  0  0  0  0  0  0  0  0
   -1.3852   -3.6613   -0.7553 H   0  0  0  0  0  0  0  0  0  0  0  0
    0.2542   -3.4843   -0.1182 H   0  0  0  0  0  0  0  0  0  0  0  0
   -0.7257   -4.8930    0.3300 H   0  0  0  0  0  0  0  0  0  0  0  0
   -0.1563   -0.9420    1.1402 N   0  0  0  0  0  0  0  0  0  0  0  0
    0.0261    0.4671    0.9001 C   0  0  2  0  0  0  0  0  0  0  0  0
   -0.7345    0.8556   -0.3661 C   0  0  0  0  0  0  0  0  0  0  0  0
   -0.9990    2.0202   -0.6576 O   0  0  0  0  0  0  0  0  0  0  0  0
    1.5036    0.8660    0.8671 C   0  0  0  0  0  0  0  0  0  0  0  0
    2.3596    0.6460    2.4613 S   0  0  0  0  0  0  0  0  0  0  0  0
    0.6533   -1.4855    1.4300 H   0  0  0  0  0  0  0  0  0  0  0  0
   -0.4559    0.9748    1.7448 H   0  0  0  0  0  0  0  0  0  0  0  0
    2.0445    0.2753    0.1207 H   0  0  0  0  0  0  0  0  0  0  0  0
    1.5992    1.9205    0.5865 H   0  0  0  0  0  0  0  0  0  0  0  0
    3.5524    1.0799    2.0345 H   0  0  0  0  0  0  0  0  0  0  0  0
   -1.1034   -0.2514   -1.1172 N   0  0  0  0  0  0  0  0  0  0  0  0
   -1.8416   -0.1428   -2.3538 C   0  0  2  0  0  0  0  0  0  0  0  0
   -2.2059   -1.5498   -2.8091 C   0  0  0  0  0  0  0  0  0  0  0  0
   -1.5922   -2.5517   -2.4477 O   0  0  0  0  0  0  0  0  0  0  0  0
   -1.0331    0.5810   -3.4191 C   0  0  0  0  0  0  0  0  0  0  0  0
   -0.8134   -1.1777   -0.8181 H   0  0  0  0  0  0  0  0  0  0  0  0
   -2.7559    0.4168   -2.1282 H   0  0  0  0  0  0  0  0  0  0  0  0
   -0.1131    0.0351   -3.6583 H   0  0  0  0  0  0  0  0  0  0  0  0
   -1.6048    0.6876   -4.3469 H   0  0  0  0  0  0  0  0  0  0  0  0
   -0.7466    1.5817   -3.0782 H   0  0  0  0  0  0  0  0  0  0  0  0
   -3.2697   -1.5509   -3.7003 N   0  0  0  0  0  0  0  0  0  0  0  0
   -3.7952   -2.7622   -4.2856 C   0  0  0  0  0  0  0  0  0  0  0  0
   -3.7308   -0.6752   -3.9292 H   0  0  0  0  0  0  0  0  0  0  0  0
   -3.2977   -2.9506   -5.2484 H   0  0  0  0  0  0  0  0  0  0  0  0
   -3.6110   -3.6074   -3.6062 H   0  0  0  0  0  0  0  0  0  0  0  0
   -4.8775   -2.6513   -4.4479 H   0  0  0  0  0  0  0  0  0  0  0  0
  1  3  1  0  0  0  0
  1  7  1  0  0  0  0
  1  2  2  0  0  0  0
 29 30  1  0  0  0  0
 30 38  1  0  0  0  0
 30 31  2  0  0  0  0
  8  9  1  0  0  0  0
  9 17  1  0  0  0  0
  9 10  2  0  0  0  0
 18 19  1  0  0  0  0
 19 28  1  0  0  0  0
 19 20  2  0  0  0  0
 29 32  1  0  0  0  0
  8 11  1  0  0  0  0
 38 39  1  0  0  0  0
 18 21  1  0  0  0  0
 21 22  1  0  0  0  0
 28 29  1  0  0  0  0
  7  8  1  0  0  0  0
 17 18  1  0  0  0  0
  3  4  1  0  0  0  0
  3  5  1  0  0  0  0
  3  6  1  0  0  0  0
 32 35  1  0  0  0  0
 32 36  1  0  0  0  0
 32 37  1  0  0  0  0
 11 14  1  0  0  0  0
 11 15  1  0  0  0  0
 11 16  1  0  0  0  0
 39 41  1  0  0  0  0
 39 42  1  0  0  0  0
 39 43  1  0  0  0  0
 21 25  1  0  0  0  0
 21 26  1  0  0  0  0
 29 34  1  0  0  0  0
  8 13  1  0  0  0  0
 18 24  1  0  0  0  0
 38 40  1  0  0  0  0
  7 12  1  0  0  0  0
 28 33  1  0  0  0  0
 17 23  1  0  0  0  0
 22 27  1  0  0  0  0
M  END
$$$$

  -OEChem-05262214473D

 43 42  0     1  0  0  0  0  0999 V2000
   -2.8661   -4.7415    2.2943 C   0  0  0  0  0  0  0  0  0  0  0  0
   -2.0233   -5.5727    2.6109 O   0  0  0  0  0  0  0  0  0  0  0  0
   -4.3078   -5.0134    2.5698 C   0  0  0  0  0  0  0  0  0  0  0  0
   -4.8057   -5.5295    1.7332 H   0  0  0  0  0  0  0  0  0  0  0  0
   -4.4526   -5.6688    3.4436 H   0  0  0  0  0  0  0  0  0  0  0  0
   -4.9255   -4.1233    2.7700 H   0  0  0  0  0  0  0  0  0  0  0  0
   -2.6241   -3.5219    1.6838 N   0  0  0  0  0  0  0  0  0  0  0  0
   -1.3070   -3.0608    1.3315 C   0  0  2  0  0  0  0  0  0  0  0  0
   -1.3931   -1.5680    1.0422 C   0  0  0  0  0  0  0  0  0  0  0  0
   -2.4385   -1.0059    0.7226 O   0  0  0  0  0  0  0  0  0  0  0  0
   -0.7590   -3.8164    0.1309 C   0  0  0  0  0  0  0  0  0  0  0  0
   -3.4188   -2.9207    1.4735 H   0  0  0  0  0  0  0  0  0  0  0  0
   -0.6690   -3.2277    2.2062 H   0  0  0  0  0  0  0  0  0  0  0  0
   -1.3852   -3.6613   -0.7553 H   0  0  0  0  0  0  0  0  0  0  0  0
    0.2542   -3.4843   -0.1182 H   0  0  0  0  0  0  0  0  0  0  0  0
   -0.7257   -4.8930    0.3300 H   0  0  0  0  0  0  0  0  0  0  0  0
   -0.1563   -0.9420    1.1402 N   0  0  0  0  0  0  0  0  0  0  0  0
    0.0261    0.4671    0.9001 C   0  0  2  0  0  0  0  0  0  0  0  0
   -0.7345    0.8556   -0.3661 C   0  0  0  0  0  0  0  0  0  0  0  0
   -0.7707    2.0056   -0.7993 O   0  0  0  0  0  0  0  0  0  0  0  0
    1.5036    0.8660    0.8671 C   0  0  0  0  0  0  0  0  0  0  0  0
    2.3596    0.6460    2.4613 S   0  0  0  0  0  0  0  0  0  0  0  0
    0.6533   -1.4855    1.4300 H   0  0  0  0  0  0  0  0  0  0  0  0
   -0.4559    0.9748    1.7448 H   0  0  0  0  0  0  0  0  0  0  0  0
    2.0445    0.2753    0.1207 H   0  0  0  0  0  0  0  0  0  0  0  0
    1.5992    1.9205    0.5865 H   0  0  0  0  0  0  0  0  0  0  0  0
    3.5524    1.0799    2.0345 H   0  0  0  0  0  0  0  0  0  0  0  0
   -1.3867   -0.2267   -0.9394 N   0  0  0  0  0  0  0  0  0  0  0  0
   -2.1820   -0.1106   -2.1394 C   0  0  2  0  0  0  0  0  0  0  0  0
   -2.8691   -1.4484   -2.3795 C   0  0  0  0  0  0  0  0  0  0  0  0
   -2.4529   -2.5087   -1.9174 O   0  0  0  0  0  0  0  0  0  0  0  0
   -1.3271    0.2835   -3.3338 C   0  0  0  0  0  0  0  0  0  0  0  0
   -1.2750   -1.1506   -0.5325 H   0  0  0  0  0  0  0  0  0  0  0  0
   -2.9371    0.6588   -1.9451 H   0  0  0  0  0  0  0  0  0  0  0  0
   -0.5646   -0.4755   -3.5437 H   0  0  0  0  0  0  0  0  0  0  0  0
   -1.9358    0.3990   -4.2366 H   0  0  0  0  0  0  0  0  0  0  0  0
   -0.8103    1.2311   -3.1474 H   0  0  0  0  0  0  0  0  0  0  0  0
   -3.9771   -1.3250   -3.2061 N   0  0  0  0  0  0  0  0  0  0  0  0
   -4.7906   -2.4540   -3.5931 C   0  0  0  0  0  0  0  0  0  0  0  0
   -4.2605   -0.4042   -3.5278 H   0  0  0  0  0  0  0  0  0  0  0  0
   -4.4223   -2.8625   -4.5458 H   0  0  0  0  0  0  0  0  0  0  0  0
   -4.7345   -3.2299   -2.8155 H   0  0  0  0  0  0  0  0  0  0  0  0
   -5.8348   -2.1295   -3.7127 H   0  0  0  0  0  0  0  0  0  0  0  0
  1  3  1  0  0  0  0
  1  7  1  0  0  0  0
  1  2  2  0  0  0  0
 29 30  1  0  0  0  0
 30 38  1  0  0  0  0
 30 31  2  0  0  0  0
  8  9  1  0  0  0  0
  9 17  1  0  0  0  0
  9 10  2  0  0  0  0
 18 19  1  0  0  0  0
 19 28  1  0  0  0  0
 19 20  2  0  0  0  0
 29 32  1  0  0  0  0
  8 11  1  0  0  0  0
 38 39  1  0  0  0  0
 18 21  1  0  0  0  0
 21 22  1  0  0  0  0
 28 29  1  0  0  0  0
  7  8  1  0  0  0  0
 17 18  1  0  0  0  0
  3  4  1  0  0  0  0
  3  5  1  0  0  0  0
  3  6  1  0  0  0  0
 32 35  1  0  0  0  0
 32 36  1  0  0  0  0
 32 37  1  0  0  0  0
 11 14  1  0  0  0  0
 11 15  1  0  0  0  0
 11 16  1  0  0  0  0
 39 41  1  0  0  0  0
 39 42  1  0  0  0  0
 39 43  1  0  0  0  0
 21 25  1  0  0  0  0
 21 26  1  0  0  0  0
 29 34  1  0  0  0  0
  8 13  1  0  0  0  0
 18 24  1  0  0  0  0
 38 40  1  0  0  0  0
  7 12  1  0  0  0  0
 28 33  1  0  0  0  0
 17 23  1  0  0  0  0
 22 27  1  0  0  0  0
M  END
$$$$

  -OEChem-05262214473D

 43 42  0     1  0  0  0  0  0999 V2000
   -2.8661   -4.7415    2.2943 C   0  0  0  0  0  0  0  0  0  0  0  0
   -2.0233   -5.5727    2.6109 O   0  0  0  0  0  0  0  0  0  0  0  0
   -4.3078   -5.0134    2.5698 C   0  0  0  0  0  0  0  0  0  0  0  0
   -4.8057   -5.5295    1.7332 H   0  0  0  0  0  0  0  0  0  0  0  0
   -4.4526   -5.6688    3.4436 H   0  0  0  0  0  0  0  0  0  0  0  0
   -4.9255   -4.1233    2.7700 H   0  0  0  0  0  0  0  0  0  0  0  0
   -2.6241   -3.5219    1.6838 N   0  0  0  0  0  0  0  0  0  0  0  0
   -1.3070   -3.0608    1.3315 C   0  0  2  0  0  0  0  0  0  0  0  0
   -1.3931   -1.5680    1.0422 C   0  0  0  0  0  0  0  0  0  0  0  0
   -2.4385   -1.0059    0.7226 O   0  0  0  0  0  0  0  0  0  0  0  0
   -0.7590   -3.8164    0.1309 C   0  0  0  0  0  0  0  0  0  0  0  0
   -3.4188   -2.9207    1.4735 H   0  0  0  0  0  0  0  0  0  0  0  0
   -0.6690   -3.2277    2.2062 H   0  0  0  0  0  0  0  0  0  0  0  0
   -1.3852   -3.6613   -0.7553 H   0  0  0  0  0  0  0  0  0  0  0  0
    0.2542   -3.4843   -0.1182 H   0  0  0  0  0  0  0  0  0  0  0  0
   -0.7257   -4.8930    0.3300 H   0  0  0  0  0  0  0  0  0  0  0  0
   -0.1563   -0.9420    1.1402 N   0  0  0  0  0  0  0  0  0  0  0  0
    0.0261    0.4671    0.9001 C   0  0  2  0  0  0  0  0  0  0  0  0
   -0.7345    0.8556   -0.3661 C   0  0  0  0  0  0  0  0  0  0  0  0
   -0.5626    1.9241   -0.9492 O   0  0  0  0  0  0  0  0  0  0  0  0
    1.5036    0.8660    0.8671 C   0  0  0  0  0  0  0  0  0  0  0  0
    2.3596    0.6460    2.4613 S   0  0  0  0  0  0  0  0  0  0  0  0
    0.6533   -1.4855    1.4300 H   0  0  0  0  0  0  0  0  0  0  0  0
   -0.4559    0.9748    1.7448 H   0  0  0  0  0  0  0  0  0  0  0  0
    2.0445    0.2753    0.1207 H   0  0  0  0  0  0  0  0  0  0  0  0
    1.5992    1.9205    0.5865 H   0  0  0  0  0  0  0  0  0  0  0  0
    3.5524    1.0799    2.0345 H   0  0  0  0  0  0  0  0  0  0  0  0
   -1.6434   -0.1193   -0.7523 N   0  0  0  0  0  0  0  0  0  0  0  0
   -2.4897    0.0212   -1.9141 C   0  0  2  0  0  0  0  0  0  0  0  0
   -3.4597   -1.1528   -1.9341 C   0  0  0  0  0  0  0  0  0  0  0  0
   -3.2402   -2.2142   -1.3541 O   0  0  0  0  0  0  0  0  0  0  0  0
   -1.6693    0.0702   -3.1936 C   0  0  0  0  0  0  0  0  0  0  0  0
   -1.6963   -0.9886   -0.2297 H   0  0  0  0  0  0  0  0  0  0  0  0
   -3.0482    0.9550   -1.7875 H   0  0  0  0  0  0  0  0  0  0  0  0
   -1.1027   -0.8570   -3.3376 H   0  0  0  0  0  0  0  0  0  0  0  0
   -2.3103    0.2054   -4.0711 H   0  0  0  0  0  0  0  0  0  0  0  0
   -0.9516    0.8972   -3.1650 H   0  0  0  0  0  0  0  0  0  0  0  0
   -4.5794   -0.8914   -2.7112 N   0  0  0  0  0  0  0  0  0  0  0  0
   -5.6403   -1.8534   -2.8984 C   0  0  0  0  0  0  0  0  0  0  0  0
   -4.6876    0.0229   -3.1402 H   0  0  0  0  0  0  0  0  0  0  0  0
   -5.4435   -2.4455   -3.8044 H   0  0  0  0  0  0  0  0  0  0  0  0
   -5.6867   -2.5223   -2.0264 H   0  0  0  0  0  0  0  0  0  0  0  0
   -6.5991   -1.3253   -3.0069 H   0  0  0  0  0  0  0  0  0  0  0  0
  1  3  1  0  0  0  0
  1  7  1  0  0  0  0
  1  2  2  0  0  0  0
 29 30  1  0  0  0  0
 30 38  1  0  0  0  0
 30 31  2  0  0  0  0
  8  9  1  0  0  0  0
  9 17  1  0  0  0  0
  9 10  2  0  0  0  0
 18 19  1  0  0  0  0
 19 28  1  0  0  0  0
 19 20  2  0  0  0  0
 29 32  1  0  0  0  0
  8 11  1  0  0  0  0
 38 39  1  0  0  0  0
 18 21  1  0  0  0  0
 21 22  1  0  0  0  0
 28 29  1  0  0  0  0
  7  8  1  0  0  0  0
 17 18  1  0  0  0  0
  3  4  1  0  0  0  0
  3  5  1  0  0  0  0
  3  6  1  0  0  0  0
 32 35  1  0  0  0  0
 32 36  1  0  0  0  0
 32 37  1  0  0  0  0
 11 14  1  0  0  0  0
 11 15  1  0  0  0  0
 11 16  1  0  0  0  0
 39 41  1  0  0  0  0
 39 42  1  0  0  0  0
 39 43  1  0  0  0  0
 21 25  1  0  0  0  0
 21 26  1  0  0  0  0
 29 34  1  0  0  0  0
  8 13  1  0  0  0  0
 18 24  1  0  0  0  0
 38 40  1  0  0  0  0
  7 12  1  0  0  0  0
 28 33  1  0  0  0  0
 17 23  1  0  0  0  0
 22 27  1  0  0  0  0
M  END
$$$$

  -OEChem-05262214473D

 43 42  0     1  0  0  0  0  0999 V2000
   -2.8661   -4.7415    2.2943 C   0  0  0  0  0  0  0  0  0  0  0  0
   -2.0233   -5.5727    2.6109 O   0  0  0  0  0  0  0  0  0  0  0  0
   -4.3078   -5.0134    2.5698 C   0  0  0  0  0  0  0  0  0  0  0  0
   -4.8057   -5.5295    1.7332 H   0  0  0  0  0  0  0  0  0  0  0  0
   -4.4526   -5.6688    3.4436 H   0  0  0  0  0  0  0  0  0  0  0  0
   -4.9255   -4.1233    2.7700 H   0  0  0  0  0  0  0  0  0  0  0  0
   -2.6241   -3.5219    1.6838 N   0  0  0  0  0  0  0  0  0  0  0  0
   -1.3070   -3.0608    1.3315 C   0  0  2  0  0  0  0  0  0  0  0  0
   -1.3931   -1.5680    1.0422 C   0  0  0  0  0  0  0  0  0  0  0  0
   -2.4385   -1.0059    0.7226 O   0  0  0  0  0  0  0  0  0  0  0  0
   -0.7590   -3.8164    0.1309 C   0  0  0  0  0  0  0  0  0  0  0  0
   -3.4188   -2.9207    1.4735 H   0  0  0  0  0  0  0  0  0  0  0  0
   -0.6690   -3.2277    2.2062 H   0  0  0  0  0  0  0  0  0  0  0  0
   -1.3852   -3.6613   -0.7553 H   0  0  0  0  0  0  0  0  0  0  0  0
    0.2542   -3.4843   -0.1182 H   0  0  0  0  0  0  0  0  0  0  0  0
   -0.7257   -4.8930    0.3300 H   0  0  0  0  0  0  0  0  0  0  0  0
   -0.1563   -0.9420    1.1402 N   0  0  0  0  0  0  0  0  0  0  0  0
    0.0261    0.4671    0.9001 C   0  0  2  0  0  0  0  0  0  0  0  0
   -0.7345    0.8556   -0.3661 C   0  0  0  0  0  0  0  0  0  0  0  0
   -0.3889    1.7815   -1.0973 O   0  0  0  0  0  0  0  0  0  0  0  0
    1.5036    0.8660    0.8671 C   0  0  0  0  0  0  0  0  0  0  0  0
    2.3596    0.6460    2.4613 S   0  0  0  0  0  0  0  0  0  0  0  0
    0.6533   -1.4855    1.4300 H   0  0  0  0  0  0  0  0  0  0  0  0
   -0.4559    0.9748    1.7448 H   0  0  0  0  0  0  0  0  0  0  0  0
    2.0445    0.2753    0.1207 H   0  0  0  0  0  0  0  0  0  0  0  0
    1.5992    1.9205    0.5865 H   0  0  0  0  0  0  0  0  0  0  0  0
    3.5524    1.0799    2.0345 H   0  0  0  0  0  0  0  0  0  0  0  0
   -1.8559    0.0638   -0.5685 N   0  0  0  0  0  0  0  0  0  0  0  0
   -2.7438    0.2436   -1.6932 C   0  0  2  0  0  0  0  0  0  0  0  0
   -3.9374   -0.6831   -1.5030 C   0  0  0  0  0  0  0  0  0  0  0  0
   -3.9004   -1.6882   -0.7962 O   0  0  0  0  0  0  0  0  0  0  0  0
   -2.0364   -0.0443   -3.0083 C   0  0  0  0  0  0  0  0  0  0  0  0
   -2.0485   -0.7027    0.0696 H   0  0  0  0  0  0  0  0  0  0  0  0
   -3.0816    1.2853   -1.6661 H   0  0  0  0  0  0  0  0  0  0  0  0
   -1.6907   -1.0835   -3.0538 H   0  0  0  0  0  0  0  0  0  0  0  0
   -2.7026    0.1201   -3.8615 H   0  0  0  0  0  0  0  0  0  0  0  0
   -1.1609    0.6028   -3.1296 H   0  0  0  0  0  0  0  0  0  0  0  0
   -5.0356   -0.2796   -2.2495 N   0  0  0  0  0  0  0  0  0  0  0  0
   -6.2865   -1.0015   -2.2489 C   0  0  0  0  0  0  0  0  0  0  0  0
   -4.9831    0.5771   -2.7927 H   0  0  0  0  0  0  0  0  0  0  0  0
   -6.2916   -1.7280   -3.0748 H   0  0  0  0  0  0  0  0  0  0  0  0
   -6.4027   -1.5327   -1.2927 H   0  0  0  0  0  0  0  0  0  0  0  0
   -7.1184   -0.2935   -2.3784 H   0  0  0  0  0  0  0  0  0  0  0  0
  1  3  1  0  0  0  0
  1  7  1  0  0  0  0
  1  2  2  0  0  0  0
 29 30  1  0  0  0  0
 30 38  1  0  0  0  0
 30 31  2  0  0  0  0
  8  9  1  0  0  0  0
  9 17  1  0  0  0  0
  9 10  2  0  0  0  0
 18 19  1  0  0  0  0
 19 28  1  0  0  0  0
 19 20  2  0  0  0  0
 29 32  1  0  0  0  0
  8 11  1  0  0  0  0
 38 39  1  0  0  0  0
 18 21  1  0  0  0  0
 21 22  1  0  0  0  0
 28 29  1  0  0  0  0
  7  8  1  0  0  0  0
 17 18  1  0  0  0  0
  3  4  1  0  0  0  0
  3  5  1  0  0  0  0
  3  6  1  0  0  0  0
 32 35  1  0  0  0  0
 32 36  1  0  0  0  0
 32 37  1  0  0  0  0
 11 14  1  0  0  0  0
 11 15  1  0  0  0  0
 11 16  1  0  0  0  0
 39 41  1  0  0  0  0
 39 42  1  0  0  0  0
 39 43  1  0  0  0  0
 21 25  1  0  0  0  0
 21 26  1  0  0  0  0
 29 34  1  0  0  0  0
  8 13  1  0  0  0  0
 18 24  1  0  0  0  0
 38 40  1  0  0  0  0
  7 12  1  0  0  0  0
 28 33  1  0  0  0  0
 17 23  1  0  0  0  0
 22 27  1  0  0  0  0
M  END
$$$$

  -OEChem-05262214473D

 43 42  0     1  0  0  0  0  0999 V2000
   -2.8661   -4.7415    2.2943 C   0  0  0  0  0  0  0  0  0  0  0  0
   -2.0233   -5.5727    2.6109 O   0  0  0  0  0  0  0  0  0  0  0  0
   -4.3078   -5.0134    2.5698 C   0  0  0  0  0  0  0  0  0  0  0  0
   -4.8057   -5.5295    1.7332 H   0  0  0  0  0  0  0  0  0  0  0  0
   -4.4526   -5.6688    3.4436 H   0  0  0  0  0  0  0  0  0  0  0  0
   -4.9255   -4.1233    2.7700 H   0  0  0  0  0  0  0  0  0  0  0  0
   -2.6241   -3.5219    1.6838 N   0  0  0  0  0  0  0  0  0  0  0  0
   -1.3070   -3.0608    1.3315 C   0  0  2  0  0  0  0  0  0  0  0  0
   -1.3931   -1.5680    1.0422 C   0  0  0  0  0  0  0  0  0  0  0  0
   -2.4385   -1.0059    0.7226 O   0  0  0  0  0  0  0  0  0  0  0  0
   -0.7590   -3.8164    0.1309 C   0  0  0  0  0  0  0  0  0  0  0  0
   -3.4188   -2.9207    1.4735 H   0  0  0  0  0  0  0  0  0  0  0  0
   -0.6690   -3.2277    2.2062 H   0  0  0  0  0  0  0  0  0  0  0  0
   -1.3852   -3.6613   -0.7553 H   0  0  0  0  0  0  0  0  0  0  0  0
    0.2542   -3.4843   -0.1182 H   0  0  0  0  0  0  0  0  0  0  0  0
   -0.7257   -4.8930    0.3300 H   0  0  0  0  0  0  0  0  0  0  0  0
   -0.1563   -0.9420    1.1402 N   0  0  0  0  0  0  0  0  0  0  0  0
    0.0261    0.4671    0.9001 C   0  0  2  0  0  0  0  0  0  0  0  0
   -0.7345    0.8556   -0.3661 C   0  0  0  0  0  0  0  0  0  0  0  0
   -0.2615    1.5873   -1.2334 O   0  0  0  0  0  0  0  0  0  0  0  0
    1.5036    0.8660    0.8671 C   0  0  0  0  0  0  0  0  0  0  0  0
    2.3596    0.6460    2.4613 S   0  0  0  0  0  0  0  0  0  0  0  0
    0.6533   -1.4855    1.4300 H   0  0  0  0  0  0  0  0  0  0  0  0
   -0.4559    0.9748    1.7448 H   0  0  0  0  0  0  0  0  0  0  0  0
    2.0445    0.2753    0.1207 H   0  0  0  0  0  0  0  0  0  0  0  0
    1.5992    1.9205    0.5865 H   0  0  0  0  0  0  0  0  0  0  0  0
    3.5524    1.0799    2.0345 H   0  0  0  0  0  0  0  0  0  0  0  0
   -2.0098    0.3098   -0.4005 N   0  0  0  0  0  0  0  0  0  0  0  0
   -2.9271    0.5414   -1.4918 C   0  0  2  0  0  0  0  0  0  0  0  0
   -4.2697   -0.0714   -1.1157 C   0  0  0  0  0  0  0  0  0  0  0  0
   -4.3884   -0.9665   -0.2816 O   0  0  0  0  0  0  0  0  0  0  0  0
   -2.4033   -0.0522   -2.7903 C   0  0  0  0  0  0  0  0  0  0  0  0
   -2.3077   -0.3124    0.3450 H   0  0  0  0  0  0  0  0  0  0  0  0
   -3.0350    1.6271   -1.5893 H   0  0  0  0  0  0  0  0  0  0  0  0
   -2.2887   -1.1395   -2.7118 H   0  0  0  0  0  0  0  0  0  0  0  0
   -3.0861    0.1489   -3.6223 H   0  0  0  0  0  0  0  0  0  0  0  0
   -1.4239    0.3678   -3.0437 H   0  0  0  0  0  0  0  0  0  0  0  0
   -5.3145    0.4688   -1.8523 N   0  0  0  0  0  0  0  0  0  0  0  0
   -6.6852    0.0438   -1.6888 C   0  0  0  0  0  0  0  0  0  0  0  0
   -5.1266    1.2206   -2.5090 H   0  0  0  0  0  0  0  0  0  0  0  0
   -6.9088   -0.7589   -2.4068 H   0  0  0  0  0  0  0  0  0  0  0  0
   -6.8336   -0.3287   -0.6645 H   0  0  0  0  0  0  0  0  0  0  0  0
   -7.3572    0.8956   -1.8702 H   0  0  0  0  0  0  0  0  0  0  0  0
  1  3  1  0  0  0  0
  1  7  1  0  0  0  0
  1  2  2  0  0  0  0
 29 30  1  0  0  0  0
 30 38  1  0  0  0  0
 30 31  2  0  0  0  0
  8  9  1  0  0  0  0
  9 17  1  0  0  0  0
  9 10  2  0  0  0  0
 18 19  1  0  0  0  0
 19 28  1  0  0  0  0
 19 20  2  0  0  0  0
 29 32  1  0  0  0  0
  8 11  1  0  0  0  0
 38 39  1  0  0  0  0
 18 21  1  0  0  0  0
 21 22  1  0  0  0  0
 28 29  1  0  0  0  0
  7  8  1  0  0  0  0
 17 18  1  0  0  0  0
  3  4  1  0  0  0  0
  3  5  1  0  0  0  0
  3  6  1  0  0  0  0
 32 35  1  0  0  0  0
 32 36  1  0  0  0  0
 32 37  1  0  0  0  0
 11 14  1  0  0  0  0
 11 15  1  0  0  0  0
 11 16  1  0  0  0  0
 39 41  1  0  0  0  0
 39 42  1  0  0  0  0
 39 43  1  0  0  0  0
 21 25  1  0  0  0  0
 21 26  1  0  0  0  0
 29 34  1  0  0  0  0
  8 13  1  0  0  0  0
 18 24  1  0  0  0  0
 38 40  1  0  0  0  0
  7 12  1  0  0  0  0
 28 33  1  0  0  0  0
 17 23  1  0  0  0  0
 22 27  1  0  0  0  0
M  END
$$$$

  -OEChem-05262214473D

 43 42  0     1  0  0  0  0  0999 V2000
   -2.8661   -4.7415    2.2943 C   0  0  0  0  0  0  0  0  0  0  0  0
   -2.0233   -5.5727    2.6109 O   0  0  0  0  0  0  0  0  0  0  0  0
   -4.3078   -5.0134    2.5698 C   0  0  0  0  0  0  0  0  0  0  0  0
   -4.8057   -5.5295    1.7332 H   0  0  0  0  0  0  0  0  0  0  0  0
   -4.4526   -5.6688    3.4436 H   0  0  0  0  0  0  0  0  0  0  0  0
   -4.9255   -4.1233    2.7700 H   0  0  0  0  0  0  0  0  0  0  0  0
   -2.6241   -3.5219    1.6838 N   0  0  0  0  0  0  0  0  0  0  0  0
   -1.3070   -3.0608    1.3315 C   0  0  2  0  0  0  0  0  0  0  0  0
   -1.3931   -1.5680    1.0422 C   0  0  0  0  0  0  0  0  0  0  0  0
   -2.4385   -1.0059    0.7226 O   0  0  0  0  0  0  0  0  0  0  0  0
   -0.7590   -3.8164    0.1309 C   0  0  0  0  0  0  0  0  0  0  0  0
   -3.4188   -2.9207    1.4735 H   0  0  0  0  0  0  0  0  0  0  0  0
   -0.6690   -3.2277    2.2062 H   0  0  0  0  0  0  0  0  0  0  0  0
   -1.3852   -3.6613   -0.7553 H   0  0  0  0  0  0  0  0  0  0  0  0
    0.2542   -3.4843   -0.1182 H   0  0  0  0  0  0  0  0  0  0  0  0
   -0.7257   -4.8930    0.3300 H   0  0  0  0  0  0  0  0  0  0  0  0
   -0.1563   -0.9420    1.1402 N   0  0  0  0  0  0  0  0  0  0  0  0
    0.0261    0.4671    0.9001 C   0  0  2  0  0  0  0  0  0  0  0  0
   -0.7345    0.8556   -0.3661 C   0  0  0  0  0  0  0  0  0  0  0  0
   -0.1891    1.3549   -1.3482 O   0  0  0  0  0  0  0  0  0  0  0  0
    1.5036    0.8660    0.8671 C   0  0  0  0  0  0  0  0  0  0  0  0
    2.3596    0.6460    2.4613 S   0  0  0  0  0  0  0  0  0  0  0  0
    0.6533   -1.4855    1.4300 H   0  0  0  0  0  0  0  0  0  0  0  0
   -0.4559    0.9748    1.7448 H   0  0  0  0  0  0  0  0  0  0  0  0
    2.0445    0.2753    0.1207 H   0  0  0  0  0  0  0  0  0  0  0  0
    1.5992    1.9205    0.5865 H   0  0  0  0  0  0  0  0  0  0  0  0
    3.5524    1.0799    2.0345 H   0  0  0  0  0  0  0  0  0  0  0  0
   -2.0947    0.6022   -0.2599 N   0  0  0  0  0  0  0  0  0  0  0  0
   -3.0269    0.8943   -1.3236 C   0  0  2  0  0  0  0  0  0  0  0  0
   -4.4339    0.6407   -0.7986 C   0  0  0  0  0  0  0  0  0  0  0  0
   -4.6711   -0.0983    0.1546 O   0  0  0  0  0  0  0  0  0  0  0  0
   -2.7451    0.0470   -2.5545 C   0  0  0  0  0  0  0  0  0  0  0  0
   -2.4561    0.1557    0.5778 H   0  0  0  0  0  0  0  0  0  0  0  0
   -2.9115    1.9572   -1.5622 H   0  0  0  0  0  0  0  0  0  0  0  0
   -2.8557   -1.0212   -2.3349 H   0  0  0  0  0  0  0  0  0  0  0  0
   -3.4346    0.2899   -3.3698 H   0  0  0  0  0  0  0  0  0  0  0  0
   -1.7227    0.2084   -2.9131 H   0  0  0  0  0  0  0  0  0  0  0  0
   -5.3973    1.3028   -1.5468 N   0  0  0  0  0  0  0  0  0  0  0  0
   -6.8090    1.2112   -1.2562 C   0  0  0  0  0  0  0  0  0  0  0  0
   -5.1085    1.9095   -2.3086 H   0  0  0  0  0  0  0  0  0  0  0  0
   -7.2531    0.3956   -1.8457 H   0  0  0  0  0  0  0  0  0  0  0  0
   -6.9502    1.0078   -0.1844 H   0  0  0  0  0  0  0  0  0  0  0  0
   -7.2992    2.1609   -1.5168 H   0  0  0  0  0  0  0  0  0  0  0  0
  1  3  1  0  0  0  0
  1  7  1  0  0  0  0
  1  2  2  0  0  0  0
 29 30  1  0  0  0  0
 30 38  1  0  0  0  0
 30 31  2  0  0  0  0
  8  9  1  0  0  0  0
  9 17  1  0  0  0  0
  9 10  2  0  0  0  0
 18 19  1  0  0  0  0
 19 28  1  0  0  0  0
 19 20  2  0  0  0  0
 29 32  1  0  0  0  0
  8 11  1  0  0  0  0
 38 39  1  0  0  0  0
 18 21  1  0  0  0  0
 21 22  1  0  0  0  0
 28 29  1  0  0  0  0
  7  8  1  0  0  0  0
 17 18  1  0  0  0  0
  3  4  1  0  0  0  0
  3  5  1  0  0  0  0
  3  6  1  0  0  0  0
 32 35  1  0  0  0  0
 32 36  1  0  0  0  0
 32 37  1  0  0  0  0
 11 14  1  0  0  0  0
 11 15  1  0  0  0  0
 11 16  1  0  0  0  0
 39 41  1  0  0  0  0
 39 42  1  0  0  0  0
 39 43  1  0  0  0  0
 21 25  1  0  0  0  0
 21 26  1  0  0  0  0
 29 34  1  0  0  0  0
  8 13  1  0  0  0  0
 18 24  1  0  0  0  0
 38 40  1  0  0  0  0
  7 12  1  0  0  0  0
 28 33  1  0  0  0  0
 17 23  1  0  0  0  0
 22 27  1  0  0  0  0
M  END
$$$$

  -OEChem-05262214473D

 43 42  0     1  0  0  0  0  0999 V2000
   -2.8661   -4.7415    2.2943 C   0  0  0  0  0  0  0  0  0  0  0  0
   -2.0233   -5.5727    2.6109 O   0  0  0  0  0  0  0  0  0  0  0  0
   -4.3078   -5.0134    2.5698 C   0  0  0  0  0  0  0  0  0  0  0  0
   -4.8057   -5.5295    1.7332 H   0  0  0  0  0  0  0  0  0  0  0  0
   -4.4526   -5.6688    3.4436 H   0  0  0  0  0  0  0  0  0  0  0  0
   -4.9255   -4.1233    2.7700 H   0  0  0  0  0  0  0  0  0  0  0  0
   -2.6241   -3.5219    1.6838 N   0  0  0  0  0  0  0  0  0  0  0  0
   -1.3070   -3.0608    1.3315 C   0  0  2  0  0  0  0  0  0  0  0  0
   -1.3931   -1.5680    1.0422 C   0  0  0  0  0  0  0  0  0  0  0  0
   -2.4385   -1.0059    0.7226 O   0  0  0  0  0  0  0  0  0  0  0  0
   -0.7590   -3.8164    0.1309 C   0  0  0  0  0  0  0  0  0  0  0  0
   -3.4188   -2.9207    1.4735 H   0  0  0  0  0  0  0  0  0  0  0  0
   -0.6690   -3.2277    2.2062 H   0  0  0  0  0  0  0  0  0  0  0  0
   -1.3852   -3.6613   -0.7553 H   0  0  0  0  0  0  0  0  0  0  0  0
    0.2542   -3.4843   -0.1182 H   0  0  0  0  0  0  0  0  0  0  0  0
   -0.7257   -4.8930    0.3300 H   0  0  0  0  0  0  0  0  0  0  0  0
   -0.1563   -0.9420    1.1402 N   0  0  0  0  0  0  0  0  0  0  0  0
    0.0261    0.4671    0.9001 C   0  0  2  0  0  0  0  0  0  0  0  0
   -0.7345    0.8556   -0.3661 C   0  0  0  0  0  0  0  0  0  0  0  0
   -0.1765    1.1001   -1.4339 O   0  0  0  0  0  0  0  0  0  0  0  0
    1.5036    0.8660    0.8671 C   0  0  0  0  0  0  0  0  0  0  0  0
    2.3596    0.6460    2.4613 S   0  0  0  0  0  0  0  0  0  0  0  0
    0.6533   -1.4855    1.4300 H   0  0  0  0  0  0  0  0  0  0  0  0
   -0.4559    0.9748    1.7448 H   0  0  0  0  0  0  0  0  0  0  0  0
    2.0445    0.2753    0.1207 H   0  0  0  0  0  0  0  0  0  0  0  0
    1.5992    1.9205    0.5865 H   0  0  0  0  0  0  0  0  0  0  0  0
    3.5524    1.0799    2.0345 H   0  0  0  0  0  0  0  0  0  0  0  0
   -2.1046    0.9209   -0.1561 N   0  0  0  0  0  0  0  0  0  0  0  0
   -3.0365    1.2783   -1.2000 C   0  0  2  0  0  0  0  0  0  0  0  0
   -4.4188    1.4047   -0.5733 C   0  0  0  0  0  0  0  0  0  0  0  0
   -4.7292    0.8571    0.4826 O   0  0  0  0  0  0  0  0  0  0  0  0
   -3.0384    0.2465   -2.3171 C   0  0  0  0  0  0  0  0  0  0  0  0
   -2.4838    0.6697    0.7521 H   0  0  0  0  0  0  0  0  0  0  0  0
   -2.7197    2.2531   -1.5866 H   0  0  0  0  0  0  0  0  0  0  0  0
   -3.3533   -0.7367   -1.9487 H   0  0  0  0  0  0  0  0  0  0  0  0
   -3.7243    0.5334   -3.1210 H   0  0  0  0  0  0  0  0  0  0  0  0
   -2.0370    0.1353   -2.7467 H   0  0  0  0  0  0  0  0  0  0  0  0
   -5.2781    2.1655   -1.3537 N   0  0  0  0  0  0  0  0  0  0  0  0
   -6.6497    2.4212   -0.9807 C   0  0  0  0  0  0  0  0  0  0  0  0
   -4.9301    2.5970   -2.2049 H   0  0  0  0  0  0  0  0  0  0  0  0
   -7.3010    1.6570   -1.4300 H   0  0  0  0  0  0  0  0  0  0  0  0
   -6.7444    2.3856    0.1146 H   0  0  0  0  0  0  0  0  0  0  0  0
   -6.9485    3.4161   -1.3424 H   0  0  0  0  0  0  0  0  0  0  0  0
  1  3  1  0  0  0  0
  1  7  1  0  0  0  0
  1  2  2  0  0  0  0
 29 30  1  0  0  0  0
 30 38  1  0  0  0  0
 30 31  2  0  0  0  0
  8  9  1  0  0  0  0
  9 17  1  0  0  0  0
  9 10  2  0  0  0  0
 18 19  1  0  0  0  0
 19 28  1  0  0  0  0
 19 20  2  0  0  0  0
 29 32  1  0  0  0  0
  8 11  1  0  0  0  0
 38 39  1  0  0  0  0
 18 21  1  0  0  0  0
 21 22  1  0  0  0  0
 28 29  1  0  0  0  0
  7  8  1  0  0  0  0
 17 18  1  0  0  0  0
  3  4  1  0  0  0  0
  3  5  1  0  0  0  0
  3  6  1  0  0  0  0
 32 35  1  0  0  0  0
 32 36  1  0  0  0  0
 32 37  1  0  0  0  0
 11 14  1  0  0  0  0
 11 15  1  0  0  0  0
 11 16  1  0  0  0  0
 39 41  1  0  0  0  0
 39 42  1  0  0  0  0
 39 43  1  0  0  0  0
 21 25  1  0  0  0  0
 21 26  1  0  0  0  0
 29 34  1  0  0  0  0
  8 13  1  0  0  0  0
 18 24  1  0  0  0  0
 38 40  1  0  0  0  0
  7 12  1  0  0  0  0
 28 33  1  0  0  0  0
 17 23  1  0  0  0  0
 22 27  1  0  0  0  0
M  END
$$$$

  -OEChem-05262214473D

 43 42  0     1  0  0  0  0  0999 V2000
   -2.8661   -4.7415    2.2943 C   0  0  0  0  0  0  0  0  0  0  0  0
   -2.0233   -5.5727    2.6109 O   0  0  0  0  0  0  0  0  0  0  0  0
   -4.3078   -5.0134    2.5698 C   0  0  0  0  0  0  0  0  0  0  0  0
   -4.8057   -5.5295    1.7332 H   0  0  0  0  0  0  0  0  0  0  0  0
   -4.4526   -5.6688    3.4436 H   0  0  0  0  0  0  0  0  0  0  0  0
   -4.9255   -4.1233    2.7700 H   0  0  0  0  0  0  0  0  0  0  0  0
   -2.6241   -3.5219    1.6838 N   0  0  0  0  0  0  0  0  0  0  0  0
   -1.3070   -3.0608    1.3315 C   0  0  2  0  0  0  0  0  0  0  0  0
   -1.3931   -1.5680    1.0422 C   0  0  0  0  0  0  0  0  0  0  0  0
   -2.4385   -1.0059    0.7226 O   0  0  0  0  0  0  0  0  0  0  0  0
   -0.7590   -3.8164    0.1309 C   0  0  0  0  0  0  0  0  0  0  0  0
   -3.4188   -2.9207    1.4735 H   0  0  0  0  0  0  0  0  0  0  0  0
   -0.6690   -3.2277    2.2062 H   0  0  0  0  0  0  0  0  0  0  0  0
   -1.3852   -3.6613   -0.7553 H   0  0  0  0  0  0  0  0  0  0  0  0
    0.2542   -3.4843   -0.1182 H   0  0  0  0  0  0  0  0  0  0  0  0
   -0.7257   -4.8930    0.3300 H   0  0  0  0  0  0  0  0  0  0  0  0
   -0.1563   -0.9420    1.1402 N   0  0  0  0  0  0  0  0  0  0  0  0
    0.0261    0.4671    0.9001 C   0  0  2  0  0  0  0  0  0  0  0  0
   -0.7345    0.8556   -0.3661 C   0  0  0  0  0  0  0  0  0  0  0  0
   -0.2248    0.8402   -1.4847 O   0  0  0  0  0  0  0  0  0  0  0  0
    1.5036    0.8660    0.8671 C   0  0  0  0  0  0  0  0  0  0  0  0
    2.3596    0.6460    2.4613 S   0  0  0  0  0  0  0  0  0  0  0  0
    0.6533   -1.4855    1.4300 H   0  0  0  0  0  0  0  0  0  0  0  0
   -0.4559    0.9748    1.7448 H   0  0  0  0  0  0  0  0  0  0  0  0
    2.0445    0.2753    0.1207 H   0  0  0  0  0  0  0  0  0  0  0  0
    1.5992    1.9205    0.5865 H   0  0  0  0  0  0  0  0  0  0  0  0
    3.5524    1.0799    2.0345 H   0  0  0  0  0  0  0  0  0  0  0  0
   -2.0390    1.2443   -0.0963 N   0  0  0  0  0  0  0  0  0  0  0  0
   -2.9553    1.6672   -1.1295 C   0  0  2  0  0  0  0  0  0  0  0  0
   -4.2255    2.1684   -0.4551 C   0  0  0  0  0  0  0  0  0  0  0  0
   -4.5588    1.8348    0.6801 O   0  0  0  0  0  0  0  0  0  0  0  0
   -3.2633    0.5327   -2.0942 C   0  0  0  0  0  0  0  0  0  0  0  0
   -2.3887    1.1946    0.8560 H   0  0  0  0  0  0  0  0  0  0  0  0
   -2.4725    2.4945   -1.6611 H   0  0  0  0  0  0  0  0  0  0  0  0
   -3.7474   -0.3053   -1.5796 H   0  0  0  0  0  0  0  0  0  0  0  0
   -3.9356    0.8628   -2.8931 H   0  0  0  0  0  0  0  0  0  0  0  0
   -2.3452    0.1537   -2.5559 H   0  0  0  0  0  0  0  0  0  0  0  0
   -4.9652    2.9980   -1.2863 N   0  0  0  0  0  0  0  0  0  0  0  0
   -6.2181    3.5913   -0.8810 C   0  0  0  0  0  0  0  0  0  0  0  0
   -4.6033    3.2360   -2.2051 H   0  0  0  0  0  0  0  0  0  0  0  0
   -7.0493    2.9393   -1.1878 H   0  0  0  0  0  0  0  0  0  0  0  0
   -6.2303    3.7108    0.2124 H   0  0  0  0  0  0  0  0  0  0  0  0
   -6.3289    4.5759   -1.3588 H   0  0  0  0  0  0  0  0  0  0  0  0
  1  3  1  0  0  0  0
  1  7  1  0  0  0  0
  1  2  2  0  0  0  0
 29 30  1  0  0  0  0
 30 38  1  0  0  0  0
 30 31  2  0  0  0  0
  8  9  1  0  0  0  0
  9 17  1  0  0  0  0
  9 10  2  0  0  0  0
 18 19  1  0  0  0  0
 19 28  1  0  0  0  0
 19 20  2  0  0  0  0
 29 32  1  0  0  0  0
  8 11  1  0  0  0  0
 38 39  1  0  0  0  0
 18 21  1  0  0  0  0
 21 22  1  0  0  0  0
 28 29  1  0  0  0  0
  7  8  1  0  0  0  0
 17 18  1  0  0  0  0
  3  4  1  0  0  0  0
  3  5  1  0  0  0  0
  3  6  1  0  0  0  0
 32 35  1  0  0  0  0
 32 36  1  0  0  0  0
 32 37  1  0  0  0  0
 11 14  1  0  0  0  0
 11 15  1  0  0  0  0
 11 16  1  0  0  0  0
 39 41  1  0  0  0  0
 39 42  1  0  0  0  0
 39 43  1  0  0  0  0
 21 25  1  0  0  0  0
 21 26  1  0  0  0  0
 29 34  1  0  0  0  0
  8 13  1  0  0  0  0
 18 24  1  0  0  0  0
 38 40  1  0  0  0  0
  7 12  1  0  0  0  0
 28 33  1  0  0  0  0
 17 23  1  0  0  0  0
 22 27  1  0  0  0  0
M  END
$$$$

  -OEChem-05262214473D

 43 42  0     1  0  0  0  0  0999 V2000
   -2.8661   -4.7415    2.2943 C   0  0  0  0  0  0  0  0  0  0  0  0
   -2.0233   -5.5727    2.6109 O   0  0  0  0  0  0  0  0  0  0  0  0
   -4.3078   -5.0134    2.5698 C   0  0  0  0  0  0  0  0  0  0  0  0
   -4.8057   -5.5295    1.7332 H   0  0  0  0  0  0  0  0  0  0  0  0
   -4.4526   -5.6688    3.4436 H   0  0  0  0  0  0  0  0  0  0  0  0
   -4.9255   -4.1233    2.7700 H   0  0  0  0  0  0  0  0  0  0  0  0
   -2.6241   -3.5219    1.6838 N   0  0  0  0  0  0  0  0  0  0  0  0
   -1.3070   -3.0608    1.3315 C   0  0  2  0  0  0  0  0  0  0  0  0
   -1.3931   -1.5680    1.0422 C   0  0  0  0  0  0  0  0  0  0  0  0
   -2.4385   -1.0059    0.7226 O   0  0  0  0  0  0  0  0  0  0  0  0
   -0.7590   -3.8164    0.1309 C   0  0  0  0  0  0  0  0  0  0  0  0
   -3.4188   -2.9207    1.4735 H   0  0  0  0  0  0  0  0  0  0  0  0
   -0.6690   -3.2277    2.2062 H   0  0  0  0  0  0  0  0  0  0  0  0
   -1.3852   -3.6613   -0.7553 H   0  0  0  0  0  0  0  0  0  0  0  0
    0.2542   -3.4843   -0.1182 H   0  0  0  0  0  0  0  0  0  0  0  0
   -0.7257   -4.8930    0.3300 H   0  0  0  0  0  0  0  0  0  0  0  0
   -0.1563   -0.9420    1.1402 N   0  0  0  0  0  0  0  0  0  0  0  0
    0.0261    0.4671    0.9001 C   0  0  2  0  0  0  0  0  0  0  0  0
   -0.7345    0.8556   -0.3661 C   0  0  0  0  0  0  0  0  0  0  0  0
   -0.3304    0.5930   -1.4971 O   0  0  0  0  0  0  0  0  0  0  0  0
    1.5036    0.8660    0.8671 C   0  0  0  0  0  0  0  0  0  0  0  0
    2.3596    0.6460    2.4613 S   0  0  0  0  0  0  0  0  0  0  0  0
    0.6533   -1.4855    1.4300 H   0  0  0  0  0  0  0  0  0  0  0  0
   -0.4559    0.9748    1.7448 H   0  0  0  0  0  0  0  0  0  0  0  0
    2.0445    0.2753    0.1207 H   0  0  0  0  0  0  0  0  0  0  0  0
    1.5992    1.9205    0.5865 H   0  0  0  0  0  0  0  0  0  0  0  0
    3.5524    1.0799    2.0345 H   0  0  0  0  0  0  0  0  0  0  0  0
   -1.9023    1.5503   -0.0846 N   0  0  0  0  0  0  0  0  0  0  0  0
   -2.7887    2.0346   -1.1168 C   0  0  2  0  0  0  0  0  0  0  0  0
   -3.8672    2.8799   -0.4521 C   0  0  0  0  0  0  0  0  0  0  0  0
   -4.1713    2.7680    0.7336 O   0  0  0  0  0  0  0  0  0  0  0  0
   -3.4045    0.8862   -1.9010 C   0  0  0  0  0  0  0  0  0  0  0  0
   -2.1774    1.6946    0.8825 H   0  0  0  0  0  0  0  0  0  0  0  0
   -2.1868    2.6651   -1.7803 H   0  0  0  0  0  0  0  0  0  0  0  0
   -4.0112    0.2434   -1.2528 H   0  0  0  0  0  0  0  0  0  0  0  0
   -4.0539    1.2557   -2.7014 H   0  0  0  0  0  0  0  0  0  0  0  0
   -2.6265    0.2621   -2.3537 H   0  0  0  0  0  0  0  0  0  0  0  0
   -4.4798    3.7438   -1.3490 N   0  0  0  0  0  0  0  0  0  0  0  0
   -5.5435    4.6417   -0.9640 C   0  0  0  0  0  0  0  0  0  0  0  0
   -4.1506    3.7832   -2.3092 H   0  0  0  0  0  0  0  0  0  0  0  0
   -6.5150    4.1552   -1.1358 H   0  0  0  0  0  0  0  0  0  0  0  0
   -5.4430    4.8932    0.1022 H   0  0  0  0  0  0  0  0  0  0  0  0
   -5.4827    5.5611   -1.5649 H   0  0  0  0  0  0  0  0  0  0  0  0
  1  3  1  0  0  0  0
  1  7  1  0  0  0  0
  1  2  2  0  0  0  0
 29 30  1  0  0  0  0
 30 38  1  0  0  0  0
 30 31  2  0  0  0  0
  8  9  1  0  0  0  0
  9 17  1  0  0  0  0
  9 10  2  0  0  0  0
 18 19  1  0  0  0  0
 19 28  1  0  0  0  0
 19 20  2  0  0  0  0
 29 32  1  0  0  0  0
  8 11  1  0  0  0  0
 38 39  1  0  0  0  0
 18 21  1  0  0  0  0
 21 22  1  0  0  0  0
 28 29  1  0  0  0  0
  7  8  1  0  0  0  0
 17 18  1  0  0  0  0
  3  4  1  0  0  0  0
  3  5  1  0  0  0  0
  3  6  1  0  0  0  0
 32 35  1  0  0  0  0
 32 36  1  0  0  0  0
 32 37  1  0  0  0  0
 11 14  1  0  0  0  0
 11 15  1  0  0  0  0
 11 16  1  0  0  0  0
 39 41  1  0  0  0  0
 39 42  1  0  0  0  0
 39 43  1  0  0  0  0
 21 25  1  0  0  0  0
 21 26  1  0  0  0  0
 29 34  1  0  0  0  0
  8 13  1  0  0  0  0
 18 24  1  0  0  0  0
 38 40  1  0  0  0  0
  7 12  1  0  0  0  0
 28 33  1  0  0  0  0
 17 23  1  0  0  0  0
 22 27  1  0  0  0  0
M  END
$$$$

  -OEChem-05262214473D

 43 42  0     1  0  0  0  0  0999 V2000
   -2.8661   -4.7415    2.2943 C   0  0  0  0  0  0  0  0  0  0  0  0
   -2.0233   -5.5727    2.6109 O   0  0  0  0  0  0  0  0  0  0  0  0
   -4.3078   -5.0134    2.5698 C   0  0  0  0  0  0  0  0  0  0  0  0
   -4.8057   -5.5295    1.7332 H   0  0  0  0  0  0  0  0  0  0  0  0
   -4.4526   -5.6688    3.4436 H   0  0  0  0  0  0  0  0  0  0  0  0
   -4.9255   -4.1233    2.7700 H   0  0  0  0  0  0  0  0  0  0  0  0
   -2.6241   -3.5219    1.6838 N   0  0  0  0  0  0  0  0  0  0  0  0
   -1.3070   -3.0608    1.3315 C   0  0  2  0  0  0  0  0  0  0  0  0
   -1.3931   -1.5680    1.0422 C   0  0  0  0  0  0  0  0  0  0  0  0
   -2.4385   -1.0059    0.7226 O   0  0  0  0  0  0  0  0  0  0  0  0
   -0.7590   -3.8164    0.1309 C   0  0  0  0  0  0  0  0  0  0  0  0
   -3.4188   -2.9207    1.4735 H   0  0  0  0  0  0  0  0  0  0  0  0
   -0.6690   -3.2277    2.2062 H   0  0  0  0  0  0  0  0  0  0  0  0
   -1.3852   -3.6613   -0.7553 H   0  0  0  0  0  0  0  0  0  0  0  0
    0.2542   -3.4843   -0.1182 H   0  0  0  0  0  0  0  0  0  0  0  0
   -0.7257   -4.8930    0.3300 H   0  0  0  0  0  0  0  0  0  0  0  0
   -0.1563   -0.9420    1.1402 N   0  0  0  0  0  0  0  0  0  0  0  0
    0.0261    0.4671    0.9001 C   0  0  2  0  0  0  0  0  0  0  0  0
   -0.7345    0.8556   -0.3661 C   0  0  0  0  0  0  0  0  0  0  0  0
   -0.4864    0.3752   -1.4702 O   0  0  0  0  0  0  0  0  0  0  0  0
    1.5036    0.8660    0.8671 C   0  0  0  0  0  0  0  0  0  0  0  0
    2.3596    0.6460    2.4613 S   0  0  0  0  0  0  0  0  0  0  0  0
    0.6533   -1.4855    1.4300 H   0  0  0  0  0  0  0  0  0  0  0  0
   -0.4559    0.9748    1.7448 H   0  0  0  0  0  0  0  0  0  0  0  0
    2.0445    0.2753    0.1207 H   0  0  0  0  0  0  0  0  0  0  0  0
    1.5992    1.9205    0.5865 H   0  0  0  0  0  0  0  0  0  0  0  0
    3.5524    1.0799    2.0345 H   0  0  0  0  0  0  0  0  0  0  0  0
   -1.7038    1.8180   -0.1217 N   0  0  0  0  0  0  0  0  0  0  0  0
   -2.5482    2.3553   -1.1629 C   0  0  2  0  0  0  0  0  0  0  0  0
   -3.3682    3.4906   -0.5645 C   0  0  0  0  0  0  0  0  0  0  0  0
   -3.5933    3.5932    0.6396 O   0  0  0  0  0  0  0  0  0  0  0  0
   -3.4523    1.2829   -1.7506 C   0  0  0  0  0  0  0  0  0  0  0  0
   -1.8642    2.1357    0.8297 H   0  0  0  0  0  0  0  0  0  0  0  0
   -1.8822    2.7532   -1.9363 H   0  0  0  0  0  0  0  0  0  0  0  0
   -4.1268    0.8723   -0.9904 H   0  0  0  0  0  0  0  0  0  0  0  0
   -4.0714    1.6853   -2.5592 H   0  0  0  0  0  0  0  0  0  0  0  0
   -2.8616    0.4532   -2.1538 H   0  0  0  0  0  0  0  0  0  0  0  0
   -3.8551    4.3519   -1.5377 N   0  0  0  0  0  0  0  0  0  0  0  0
   -4.6720    5.5009   -1.2239 C   0  0  0  0  0  0  0  0  0  0  0  0
   -3.6028    4.2011   -2.5100 H   0  0  0  0  0  0  0  0  0  0  0  0
   -5.7346    5.2216   -1.2774 H   0  0  0  0  0  0  0  0  0  0  0  0
   -4.4360    5.8521   -0.2085 H   0  0  0  0  0  0  0  0  0  0  0  0
   -4.4675    6.3045   -1.9467 H   0  0  0  0  0  0  0  0  0  0  0  0
  1  3  1  0  0  0  0
  1  7  1  0  0  0  0
  1  2  2  0  0  0  0
 29 30  1  0  0  0  0
 30 38  1  0  0  0  0
 30 31  2  0  0  0  0
  8  9  1  0  0  0  0
  9 17  1  0  0  0  0
  9 10  2  0  0  0  0
 18 19  1  0  0  0  0
 19 28  1  0  0  0  0
 19 20  2  0  0  0  0
 29 32  1  0  0  0  0
  8 11  1  0  0  0  0
 38 39  1  0  0  0  0
 18 21  1  0  0  0  0
 21 22  1  0  0  0  0
 28 29  1  0  0  0  0
  7  8  1  0  0  0  0
 17 18  1  0  0  0  0
  3  4  1  0  0  0  0
  3  5  1  0  0  0  0
  3  6  1  0  0  0  0
 32 35  1  0  0  0  0
 32 36  1  0  0  0  0
 32 37  1  0  0  0  0
 11 14  1  0  0  0  0
 11 15  1  0  0  0  0
 11 16  1  0  0  0  0
 39 41  1  0  0  0  0
 39 42  1  0  0  0  0
 39 43  1  0  0  0  0
 21 25  1  0  0  0  0
 21 26  1  0  0  0  0
 29 34  1  0  0  0  0
  8 13  1  0  0  0  0
 18 24  1  0  0  0  0
 38 40  1  0  0  0  0
  7 12  1  0  0  0  0
 28 33  1  0  0  0  0
 17 23  1  0  0  0  0
 22 27  1  0  0  0  0
M  END
$$$$

  -OEChem-05262214473D

 43 42  0     1  0  0  0  0  0999 V2000
   -2.8661   -4.7415    2.2943 C   0  0  0  0  0  0  0  0  0  0  0  0
   -2.0233   -5.5727    2.6109 O   0  0  0  0  0  0  0  0  0  0  0  0
   -4.3078   -5.0134    2.5698 C   0  0  0  0  0  0  0  0  0  0  0  0
   -4.8057   -5.5295    1.7332 H   0  0  0  0  0  0  0  0  0  0  0  0
   -4.4526   -5.6688    3.4436 H   0  0  0  0  0  0  0  0  0  0  0  0
   -4.9255   -4.1233    2.7700 H   0  0  0  0  0  0  0  0  0  0  0  0
   -2.6241   -3.5219    1.6838 N   0  0  0  0  0  0  0  0  0  0  0  0
   -1.3070   -3.0608    1.3315 C   0  0  2  0  0  0  0  0  0  0  0  0
   -1.3931   -1.5680    1.0422 C   0  0  0  0  0  0  0  0  0  0  0  0
   -2.4385   -1.0059    0.7226 O   0  0  0  0  0  0  0  0  0  0  0  0
   -0.7590   -3.8164    0.1309 C   0  0  0  0  0  0  0  0  0  0  0  0
   -3.4188   -2.9207    1.4735 H   0  0  0  0  0  0  0  0  0  0  0  0
   -0.6690   -3.2277    2.2062 H   0  0  0  0  0  0  0  0  0  0  0  0
   -1.3852   -3.6613   -0.7553 H   0  0  0  0  0  0  0  0  0  0  0  0
    0.2542   -3.4843   -0.1182 H   0  0  0  0  0  0  0  0  0  0  0  0
   -0.7257   -4.8930    0.3300 H   0  0  0  0  0  0  0  0  0  0  0  0
   -0.1563   -0.9420    1.1402 N   0  0  0  0  0  0  0  0  0  0  0  0
    0.0261    0.4671    0.9001 C   0  0  2  0  0  0  0  0  0  0  0  0
   -0.7345    0.8556   -0.3661 C   0  0  0  0  0  0  0  0  0  0  0  0
   -0.6819    0.2019   -1.4059 O   0  0  0  0  0  0  0  0  0  0  0  0
    1.5036    0.8660    0.8671 C   0  0  0  0  0  0  0  0  0  0  0  0
    2.3596    0.6460    2.4613 S   0  0  0  0  0  0  0  0  0  0  0  0
    0.6533   -1.4855    1.4300 H   0  0  0  0  0  0  0  0  0  0  0  0
   -0.4559    0.9748    1.7448 H   0  0  0  0  0  0  0  0  0  0  0  0
    2.0445    0.2753    0.1207 H   0  0  0  0  0  0  0  0  0  0  0  0
    1.5992    1.9205    0.5865 H   0  0  0  0  0  0  0  0  0  0  0  0
    3.5524    1.0799    2.0345 H   0  0  0  0  0  0  0  0  0  0  0  0
   -1.4571    2.0293   -0.2051 N   0  0  0  0  0  0  0  0  0  0  0  0
   -2.2500    2.6075   -1.2646 C   0  0  2  0  0  0  0  0  0  0  0  0
   -2.7625    3.9589   -0.7847 C   0  0  0  0  0  0  0  0  0  0  0  0
   -2.8641    4.2541    0.4043 O   0  0  0  0  0  0  0  0  0  0  0  0
   -3.4034    1.6956   -1.6533 C   0  0  0  0  0  0  0  0  0  0  0  0
   -1.4706    2.4877    0.7012 H   0  0  0  0  0  0  0  0  0  0  0  0
   -1.5792    2.7528   -2.1184 H   0  0  0  0  0  0  0  0  0  0  0  0
   -4.0863    1.5383   -0.8105 H   0  0  0  0  0  0  0  0  0  0  0  0
   -3.9866    2.1223   -2.4760 H   0  0  0  0  0  0  0  0  0  0  0  0
   -3.0346    0.7141   -1.9699 H   0  0  0  0  0  0  0  0  0  0  0  0
   -3.1337    4.7810   -1.8395 N   0  0  0  0  0  0  0  0  0  0  0  0
   -3.6630    6.1103   -1.6431 C   0  0  0  0  0  0  0  0  0  0  0  0
   -2.9972    4.4614   -2.7940 H   0  0  0  0  0  0  0  0  0  0  0  0
   -4.7613    6.0660   -1.6030 H   0  0  0  0  0  0  0  0  0  0  0  0
   -3.2780    6.5223   -0.6986 H   0  0  0  0  0  0  0  0  0  0  0  0
   -3.3524    6.7556   -2.4781 H   0  0  0  0  0  0  0  0  0  0  0  0
  1  3  1  0  0  0  0
  1  7  1  0  0  0  0
  1  2  2  0  0  0  0
 29 30  1  0  0  0  0
 30 38  1  0  0  0  0
 30 31  2  0  0  0  0
  8  9  1  0  0  0  0
  9 17  1  0  0  0  0
  9 10  2  0  0  0  0
 18 19  1  0  0  0  0
 19 28  1  0  0  0  0
 19 20  2  0  0  0  0
 29 32  1  0  0  0  0
  8 11  1  0  0  0  0
 38 39  1  0  0  0  0
 18 21  1  0  0  0  0
 21 22  1  0  0  0  0
 28 29  1  0  0  0  0
  7  8  1  0  0  0  0
 17 18  1  0  0  0  0
  3  4  1  0  0  0  0
  3  5  1  0  0  0  0
  3  6  1  0  0  0  0
 32 35  1  0  0  0  0
 32 36  1  0  0  0  0
 32 37  1  0  0  0  0
 11 14  1  0  0  0  0
 11 15  1  0  0  0  0
 11 16  1  0  0  0  0
 39 41  1  0  0  0  0
 39 42  1  0  0  0  0
 39 43  1  0  0  0  0
 21 25  1  0  0  0  0
 21 26  1  0  0  0  0
 29 34  1  0  0  0  0
  8 13  1  0  0  0  0
 18 24  1  0  0  0  0
 38 40  1  0  0  0  0
  7 12  1  0  0  0  0
 28 33  1  0  0  0  0
 17 23  1  0  0  0  0
 22 27  1  0  0  0  0
M  END
$$$$

  -OEChem-05262214473D

 43 42  0     1  0  0  0  0  0999 V2000
   -2.8661   -4.7415    2.2943 C   0  0  0  0  0  0  0  0  0  0  0  0
   -2.0233   -5.5727    2.6109 O   0  0  0  0  0  0  0  0  0  0  0  0
   -4.3078   -5.0134    2.5698 C   0  0  0  0  0  0  0  0  0  0  0  0
   -4.8057   -5.5295    1.7332 H   0  0  0  0  0  0  0  0  0  0  0  0
   -4.4526   -5.6688    3.4436 H   0  0  0  0  0  0  0  0  0  0  0  0
   -4.9255   -4.1233    2.7700 H   0  0  0  0  0  0  0  0  0  0  0  0
   -2.6241   -3.5219    1.6838 N   0  0  0  0  0  0  0  0  0  0  0  0
   -1.3070   -3.0608    1.3315 C   0  0  2  0  0  0  0  0  0  0  0  0
   -1.3931   -1.5680    1.0422 C   0  0  0  0  0  0  0  0  0  0  0  0
   -2.4385   -1.0059    0.7226 O   0  0  0  0  0  0  0  0  0  0  0  0
   -0.7590   -3.8164    0.1309 C   0  0  0  0  0  0  0  0  0  0  0  0
   -3.4188   -2.9207    1.4735 H   0  0  0  0  0  0  0  0  0  0  0  0
   -0.6690   -3.2277    2.2062 H   0  0  0  0  0  0  0  0  0  0  0  0
   -1.3852   -3.6613   -0.7553 H   0  0  0  0  0  0  0  0  0  0  0  0
    0.2542   -3.4843   -0.1182 H   0  0  0  0  0  0  0  0  0  0  0  0
   -0.7257   -4.8930    0.3300 H   0  0  0  0  0  0  0  0  0  0  0  0
   -0.1563   -0.9420    1.1402 N   0  0  0  0  0  0  0  0  0  0  0  0
    0.0261    0.4671    0.9001 C   0  0  2  0  0  0  0  0  0  0  0  0
   -0.7345    0.8556   -0.3661 C   0  0  0  0  0  0  0  0  0  0  0  0
   -0.9038    0.0846   -1.3086 O   0  0  0  0  0  0  0  0  0  0  0  0
    1.5036    0.8660    0.8671 C   0  0  0  0  0  0  0  0  0  0  0  0
    2.3596    0.6460    2.4613 S   0  0  0  0  0  0  0  0  0  0  0  0
    0.6533   -1.4855    1.4300 H   0  0  0  0  0  0  0  0  0  0  0  0
   -0.4559    0.9748    1.7448 H   0  0  0  0  0  0  0  0  0  0  0  0
    2.0445    0.2753    0.1207 H   0  0  0  0  0  0  0  0  0  0  0  0
    1.5992    1.9205    0.5865 H   0  0  0  0  0  0  0  0  0  0  0  0
    3.5524    1.0799    2.0345 H   0  0  0  0  0  0  0  0  0  0  0  0
   -1.1789    2.1696   -0.3291 N   0  0  0  0  0  0  0  0  0  0  0  0
   -1.9147    2.7740   -1.4150 C   0  0  2  0  0  0  0  0  0  0  0  0
   -2.0915    4.2530   -1.0975 C   0  0  0  0  0  0  0  0  0  0  0  0
   -2.0334    4.7057    0.0439 O   0  0  0  0  0  0  0  0  0  0  0  0
   -3.2612    2.0964   -1.6158 C   0  0  0  0  0  0  0  0  0  0  0  0
   -1.0233    2.7267    0.5058 H   0  0  0  0  0  0  0  0  0  0  0  0
   -1.2987    2.6640   -2.3142 H   0  0  0  0  0  0  0  0  0  0  0  0
   -3.8924    2.1961   -0.7251 H   0  0  0  0  0  0  0  0  0  0  0  0
   -3.8055    2.5370   -2.4576 H   0  0  0  0  0  0  0  0  0  0  0  0
   -3.1335    1.0268   -1.8145 H   0  0  0  0  0  0  0  0  0  0  0  0
   -2.3646    5.0017   -2.2338 N   0  0  0  0  0  0  0  0  0  0  0  0
   -2.5851    6.4284   -2.1930 C   0  0  0  0  0  0  0  0  0  0  0  0
   -2.3750    4.5463   -3.1417 H   0  0  0  0  0  0  0  0  0  0  0  0
   -3.6615    6.6308   -2.0904 H   0  0  0  0  0  0  0  0  0  0  0  0
   -2.0480    6.8580   -1.3345 H   0  0  0  0  0  0  0  0  0  0  0  0
   -2.2136    6.8835   -3.1229 H   0  0  0  0  0  0  0  0  0  0  0  0
  1  3  1  0  0  0  0
  1  7  1  0  0  0  0
  1  2  2  0  0  0  0
 29 30  1  0  0  0  0
 30 38  1  0  0  0  0
 30 31  2  0  0  0  0
  8  9  1  0  0  0  0
  9 17  1  0  0  0  0
  9 10  2  0  0  0  0
 18 19  1  0  0  0  0
 19 28  1  0  0  0  0
 19 20  2  0  0  0  0
 29 32  1  0  0  0  0
  8 11  1  0  0  0  0
 38 39  1  0  0  0  0
 18 21  1  0  0  0  0
 21 22  1  0  0  0  0
 28 29  1  0  0  0  0
  7  8  1  0  0  0  0
 17 18  1  0  0  0  0
  3  4  1  0  0  0  0
  3  5  1  0  0  0  0
  3  6  1  0  0  0  0
 32 35  1  0  0  0  0
 32 36  1  0  0  0  0
 32 37  1  0  0  0  0
 11 14  1  0  0  0  0
 11 15  1  0  0  0  0
 11 16  1  0  0  0  0
 39 41  1  0  0  0  0
 39 42  1  0  0  0  0
 39 43  1  0  0  0  0
 21 25  1  0  0  0  0
 21 26  1  0  0  0  0
 29 34  1  0  0  0  0
  8 13  1  0  0  0  0
 18 24  1  0  0  0  0
 38 40  1  0  0  0  0
  7 12  1  0  0  0  0
 28 33  1  0  0  0  0
 17 23  1  0  0  0  0
 22 27  1  0  0  0  0
M  END
$$$$

  -OEChem-05262214473D

 43 42  0     1  0  0  0  0  0999 V2000
   -2.8661   -4.7415    2.2943 C   0  0  0  0  0  0  0  0  0  0  0  0
   -2.0233   -5.5727    2.6109 O   0  0  0  0  0  0  0  0  0  0  0  0
   -4.3078   -5.0134    2.5698 C   0  0  0  0  0  0  0  0  0  0  0  0
   -4.8057   -5.5295    1.7332 H   0  0  0  0  0  0  0  0  0  0  0  0
   -4.4526   -5.6688    3.4436 H   0  0  0  0  0  0  0  0  0  0  0  0
   -4.9255   -4.1233    2.7700 H   0  0  0  0  0  0  0  0  0  0  0  0
   -2.6241   -3.5219    1.6838 N   0  0  0  0  0  0  0  0  0  0  0  0
   -1.3070   -3.0608    1.3315 C   0  0  2  0  0  0  0  0  0  0  0  0
   -1.3931   -1.5680    1.0422 C   0  0  0  0  0  0  0  0  0  0  0  0
   -2.4385   -1.0059    0.7226 O   0  0  0  0  0  0  0  0  0  0  0  0
   -0.7590   -3.8164    0.1309 C   0  0  0  0  0  0  0  0  0  0  0  0
   -3.4188   -2.9207    1.4735 H   0  0  0  0  0  0  0  0  0  0  0  0
   -0.6690   -3.2277    2.2062 H   0  0  0  0  0  0  0  0  0  0  0  0
   -1.3852   -3.6613   -0.7553 H   0  0  0  0  0  0  0  0  0  0  0  0
    0.2542   -3.4843   -0.1182 H   0  0  0  0  0  0  0  0  0  0  0  0
   -0.7257   -4.8930    0.3300 H   0  0  0  0  0  0  0  0  0  0  0  0
   -0.1563   -0.9420    1.1402 N   0  0  0  0  0  0  0  0  0  0  0  0
    0.0261    0.4671    0.9001 C   0  0  2  0  0  0  0  0  0  0  0  0
   -0.7345    0.8556   -0.3661 C   0  0  0  0  0  0  0  0  0  0  0  0
   -1.1369    0.0316   -1.1849 O   0  0  0  0  0  0  0  0  0  0  0  0
    1.5036    0.8660    0.8671 C   0  0  0  0  0  0  0  0  0  0  0  0
    2.3596    0.6460    2.4613 S   0  0  0  0  0  0  0  0  0  0  0  0
    0.6533   -1.4855    1.4300 H   0  0  0  0  0  0  0  0  0  0  0  0
   -0.4559    0.9748    1.7448 H   0  0  0  0  0  0  0  0  0  0  0  0
    2.0445    0.2753    0.1207 H   0  0  0  0  0  0  0  0  0  0  0  0
    1.5992    1.9205    0.5865 H   0  0  0  0  0  0  0  0  0  0  0  0
    3.5524    1.0799    2.0345 H   0  0  0  0  0  0  0  0  0  0  0  0
   -0.8883    2.2295   -0.4853 N   0  0  0  0  0  0  0  0  0  0  0  0
   -1.5649    2.8435   -1.6038 C   0  0  2  0  0  0  0  0  0  0  0  0
   -1.4008    4.3527   -1.4818 C   0  0  0  0  0  0  0  0  0  0  0  0
   -1.1579    4.9172   -0.4172 O   0  0  0  0  0  0  0  0  0  0  0  0
   -3.0354    2.4578   -1.6405 C   0  0  0  0  0  0  0  0  0  0  0  0
   -0.5528    2.8364    0.2569 H   0  0  0  0  0  0  0  0  0  0  0  0
   -1.0596    2.4928   -2.5103 H   0  0  0  0  0  0  0  0  0  0  0  0
   -3.5583    2.8009   -0.7403 H   0  0  0  0  0  0  0  0  0  0  0  0
   -3.5404    2.9011   -2.5051 H   0  0  0  0  0  0  0  0  0  0  0  0
   -3.1518    1.3702   -1.6982 H   0  0  0  0  0  0  0  0  0  0  0  0
   -1.6003    4.9990   -2.6937 N   0  0  0  0  0  0  0  0  0  0  0  0
   -1.5119    6.4336   -2.8360 C   0  0  0  0  0  0  0  0  0  0  0  0
   -1.7788    4.4499   -3.5294 H   0  0  0  0  0  0  0  0  0  0  0  0
   -2.5100    6.8776   -2.7064 H   0  0  0  0  0  0  0  0  0  0  0  0
   -0.8297    6.8363   -2.0730 H   0  0  0  0  0  0  0  0  0  0  0  0
   -1.1285    6.6796   -3.8373 H   0  0  0  0  0  0  0  0  0  0  0  0
  1  3  1  0  0  0  0
  1  7  1  0  0  0  0
  1  2  2  0  0  0  0
 29 30  1  0  0  0  0
 30 38  1  0  0  0  0
 30 31  2  0  0  0  0
  8  9  1  0  0  0  0
  9 17  1  0  0  0  0
  9 10  2  0  0  0  0
 18 19  1  0  0  0  0
 19 28  1  0  0  0  0
 19 20  2  0  0  0  0
 29 32  1  0  0  0  0
  8 11  1  0  0  0  0
 38 39  1  0  0  0  0
 18 21  1  0  0  0  0
 21 22  1  0  0  0  0
 28 29  1  0  0  0  0
  7  8  1  0  0  0  0
 17 18  1  0  0  0  0
  3  4  1  0  0  0  0
  3  5  1  0  0  0  0
  3  6  1  0  0  0  0
 32 35  1  0  0  0  0
 32 36  1  0  0  0  0
 32 37  1  0  0  0  0
 11 14  1  0  0  0  0
 11 15  1  0  0  0  0
 11 16  1  0  0  0  0
 39 41  1  0  0  0  0
 39 42  1  0  0  0  0
 39 43  1  0  0  0  0
 21 25  1  0  0  0  0
 21 26  1  0  0  0  0
 29 34  1  0  0  0  0
  8 13  1  0  0  0  0
 18 24  1  0  0  0  0
 38 40  1  0  0  0  0
  7 12  1  0  0  0  0
 28 33  1  0  0  0  0
 17 23  1  0  0  0  0
 22 27  1  0  0  0  0
M  END
$$$$

  -OEChem-05262214473D

 43 42  0     1  0  0  0  0  0999 V2000
   -2.8661   -4.7415    2.2943 C   0  0  0  0  0  0  0  0  0  0  0  0
   -2.0233   -5.5727    2.6109 O   0  0  0  0  0  0  0  0  0  0  0  0
   -4.3078   -5.0134    2.5698 C   0  0  0  0  0  0  0  0  0  0  0  0
   -4.8057   -5.5295    1.7332 H   0  0  0  0  0  0  0  0  0  0  0  0
   -4.4526   -5.6688    3.4436 H   0  0  0  0  0  0  0  0  0  0  0  0
   -4.9255   -4.1233    2.7700 H   0  0  0  0  0  0  0  0  0  0  0  0
   -2.6241   -3.5219    1.6838 N   0  0  0  0  0  0  0  0  0  0  0  0
   -1.3070   -3.0608    1.3315 C   0  0  2  0  0  0  0  0  0  0  0  0
   -1.3931   -1.5680    1.0422 C   0  0  0  0  0  0  0  0  0  0  0  0
   -2.4385   -1.0059    0.7226 O   0  0  0  0  0  0  0  0  0  0  0  0
   -0.7590   -3.8164    0.1309 C   0  0  0  0  0  0  0  0  0  0  0  0
   -3.4188   -2.9207    1.4735 H   0  0  0  0  0  0  0  0  0  0  0  0
   -0.6690   -3.2277    2.2062 H   0  0  0  0  0  0  0  0  0  0  0  0
   -1.3852   -3.6613   -0.7553 H   0  0  0  0  0  0  0  0  0  0  0  0
    0.2542   -3.4843   -0.1182 H   0  0  0  0  0  0  0  0  0  0  0  0
   -0.7257   -4.8930    0.3300 H   0  0  0  0  0  0  0  0  0  0  0  0
   -0.1563   -0.9420    1.1402 N   0  0  0  0  0  0  0  0  0  0  0  0
    0.0261    0.4671    0.9001 C   0  0  2  0  0  0  0  0  0  0  0  0
   -1.0101    0.9331   -0.1205 C   0  0  0  0  0  0  0  0  0  0  0  0
   -1.8289    0.1755   -0.6371 O   0  0  0  0  0  0  0  0  0  0  0  0
    1.4646    0.8092    0.5041 C   0  0  0  0  0  0  0  0  0  0  0  0
    2.6838    0.4951    1.8222 S   0  0  0  0  0  0  0  0  0  0  0  0
    0.6533   -1.4855    1.4300 H   0  0  0  0  0  0  0  0  0  0  0  0
   -0.2026    0.9605    1.8530 H   0  0  0  0  0  0  0  0  0  0  0  0
    1.7711    0.2269   -0.3710 H   0  0  0  0  0  0  0  0  0  0  0  0
    1.5361    1.8691    0.2372 H   0  0  0  0  0  0  0  0  0  0  0  0
    3.7494    0.8983    1.1186 H   0  0  0  0  0  0  0  0  0  0  0  0
   -0.8961    2.2868   -0.4037 N   0  0  0  0  0  0  0  0  0  0  0  0
   -1.7576    2.9606   -1.3469 C   0  0  2  0  0  0  0  0  0  0  0  0
   -1.2423    4.3832   -1.5213 C   0  0  0  0  0  0  0  0  0  0  0  0
   -0.5439    4.9510   -0.6842 O   0  0  0  0  0  0  0  0  0  0  0  0
   -3.2030    2.9602   -0.8741 C   0  0  0  0  0  0  0  0  0  0  0  0
   -0.2108    2.8460    0.0956 H   0  0  0  0  0  0  0  0  0  0  0  0
   -1.6705    2.4211   -2.2962 H   0  0  0  0  0  0  0  0  0  0  0  0
   -3.3100    3.4964    0.0759 H   0  0  0  0  0  0  0  0  0  0  0  0
   -3.8592    3.4463   -1.6037 H   0  0  0  0  0  0  0  0  0  0  0  0
   -3.5625    1.9370   -0.7206 H   0  0  0  0  0  0  0  0  0  0  0  0
   -1.6899    4.9592   -2.7020 N   0  0  0  0  0  0  0  0  0  0  0  0
   -1.3481    6.3078   -3.0900 C   0  0  0  0  0  0  0  0  0  0  0  0
   -2.2497    4.4082   -3.3460 H   0  0  0  0  0  0  0  0  0  0  0  0
   -2.1261    7.0001   -2.7359 H   0  0  0  0  0  0  0  0  0  0  0  0
   -0.3813    6.5837   -2.6438 H   0  0  0  0  0  0  0  0  0  0  0  0
   -1.2763    6.3667   -4.1861 H   0  0  0  0  0  0  0  0  0  0  0  0
  1  3  1  0  0  0  0
  1  7  1  0  0  0  0
  1  2  2  0  0  0  0
 29 30  1  0  0  0  0
 30 38  1  0  0  0  0
 30 31  2  0  0  0  0
  8  9  1  0  0  0  0
  9 17  1  0  0  0  0
  9 10  2  0  0  0  0
 18 19  1  0  0  0  0
 19 28  1  0  0  0  0
 19 20  2  0  0  0  0
 29 32  1  0  0  0  0
  8 11  1  0  0  0  0
 38 39  1  0  0  0  0
 18 21  1  0  0  0  0
 21 22  1  0  0  0  0
 28 29  1  0  0  0  0
  7  8  1  0  0  0  0
 17 18  1  0  0  0  0
  3  4  1  0  0  0  0
  3  5  1  0  0  0  0
  3  6  1  0  0  0  0
 32 35  1  0  0  0  0
 32 36  1  0  0  0  0
 32 37  1  0  0  0  0
 11 14  1  0  0  0  0
 11 15  1  0  0  0  0
 11 16  1  0  0  0  0
 39 41  1  0  0  0  0
 39 42  1  0  0  0  0
 39 43  1  0  0  0  0
 21 25  1  0  0  0  0
 21 26  1  0  0  0  0
 29 34  1  0  0  0  0
  8 13  1  0  0  0  0
 18 24  1  0  0  0  0
 38 40  1  0  0  0  0
  7 12  1  0  0  0  0
 28 33  1  0  0  0  0
 17 23  1  0  0  0  0
 22 27  1  0  0  0  0
M  END
$$$$

  -OEChem-05262214473D

 43 42  0     1  0  0  0  0  0999 V2000
   -2.8661   -4.7415    2.2943 C   0  0  0  0  0  0  0  0  0  0  0  0
   -2.0233   -5.5727    2.6109 O   0  0  0  0  0  0  0  0  0  0  0  0
   -4.3078   -5.0134    2.5698 C   0  0  0  0  0  0  0  0  0  0  0  0
   -4.8057   -5.5295    1.7332 H   0  0  0  0  0  0  0  0  0  0  0  0
   -4.4526   -5.6688    3.4436 H   0  0  0  0  0  0  0  0  0  0  0  0
   -4.9255   -4.1233    2.7700 H   0  0  0  0  0  0  0  0  0  0  0  0
   -2.6241   -3.5219    1.6838 N   0  0  0  0  0  0  0  0  0  0  0  0
   -1.3070   -3.0608    1.3315 C   0  0  2  0  0  0  0  0  0  0  0  0
   -1.3931   -1.5680    1.0422 C   0  0  0  0  0  0  0  0  0  0  0  0
   -2.4385   -1.0059    0.7226 O   0  0  0  0  0  0  0  0  0  0  0  0
   -0.7590   -3.8164    0.1309 C   0  0  0  0  0  0  0  0  0  0  0  0
   -3.4188   -2.9207    1.4735 H   0  0  0  0  0  0  0  0  0  0  0  0
   -0.6690   -3.2277    2.2062 H   0  0  0  0  0  0  0  0  0  0  0  0
   -1.3852   -3.6613   -0.7553 H   0  0  0  0  0  0  0  0  0  0  0  0
    0.2542   -3.4843   -0.1182 H   0  0  0  0  0  0  0  0  0  0  0  0
   -0.7257   -4.8930    0.3300 H   0  0  0  0  0  0  0  0  0  0  0  0
   -0.1563   -0.9420    1.1402 N   0  0  0  0  0  0  0  0  0  0  0  0
    0.0261    0.4671    0.9001 C   0  0  2  0  0  0  0  0  0  0  0  0
   -1.0101    0.9331   -0.1205 C   0  0  0  0  0  0  0  0  0  0  0  0
   -1.9884    0.2592   -0.4371 O   0  0  0  0  0  0  0  0  0  0  0  0
    1.4646    0.8092    0.5041 C   0  0  0  0  0  0  0  0  0  0  0  0
    2.6838    0.4951    1.8222 S   0  0  0  0  0  0  0  0  0  0  0  0
    0.6533   -1.4855    1.4300 H   0  0  0  0  0  0  0  0  0  0  0  0
   -0.2026    0.9605    1.8530 H   0  0  0  0  0  0  0  0  0  0  0  0
    1.7711    0.2269   -0.3710 H   0  0  0  0  0  0  0  0  0  0  0  0
    1.5361    1.8691    0.2372 H   0  0  0  0  0  0  0  0  0  0  0  0
    3.7494    0.8983    1.1186 H   0  0  0  0  0  0  0  0  0  0  0  0
   -0.7003    2.1766   -0.6528 N   0  0  0  0  0  0  0  0  0  0  0  0
   -1.5233    2.8257   -1.6464 C   0  0  2  0  0  0  0  0  0  0  0  0
   -0.7980    4.0821   -2.1100 C   0  0  0  0  0  0  0  0  0  0  0  0
    0.0609    4.6479   -1.4366 O   0  0  0  0  0  0  0  0  0  0  0  0
   -2.8975    3.1652   -1.0907 C   0  0  0  0  0  0  0  0  0  0  0  0
    0.1123    2.6795   -0.3085 H   0  0  0  0  0  0  0  0  0  0  0  0
   -1.6170    2.1270   -2.4849 H   0  0  0  0  0  0  0  0  0  0  0  0
   -2.8239    3.8643   -0.2497 H   0  0  0  0  0  0  0  0  0  0  0  0
   -3.5299    3.6313   -1.8535 H   0  0  0  0  0  0  0  0  0  0  0  0
   -3.4057    2.2642   -0.7304 H   0  0  0  0  0  0  0  0  0  0  0  0
   -1.2532    4.5218   -3.3451 N   0  0  0  0  0  0  0  0  0  0  0  0
   -0.7306    5.7017   -3.9937 C   0  0  0  0  0  0  0  0  0  0  0  0
   -1.9549    3.9799   -3.8408 H   0  0  0  0  0  0  0  0  0  0  0  0
   -1.3460    6.5724   -3.7233 H   0  0  0  0  0  0  0  0  0  0  0  0
    0.3064    5.8703   -3.6677 H   0  0  0  0  0  0  0  0  0  0  0  0
   -0.7538    5.5611   -5.0845 H   0  0  0  0  0  0  0  0  0  0  0  0
  1  3  1  0  0  0  0
  1  7  1  0  0  0  0
  1  2  2  0  0  0  0
 29 30  1  0  0  0  0
 30 38  1  0  0  0  0
 30 31  2  0  0  0  0
  8  9  1  0  0  0  0
  9 17  1  0  0  0  0
  9 10  2  0  0  0  0
 18 19  1  0  0  0  0
 19 28  1  0  0  0  0
 19 20  2  0  0  0  0
 29 32  1  0  0  0  0
  8 11  1  0  0  0  0
 38 39  1  0  0  0  0
 18 21  1  0  0  0  0
 21 22  1  0  0  0  0
 28 29  1  0  0  0  0
  7  8  1  0  0  0  0
 17 18  1  0  0  0  0
  3  4  1  0  0  0  0
  3  5  1  0  0  0  0
  3  6  1  0  0  0  0
 32 35  1  0  0  0  0
 32 36  1  0  0  0  0
 32 37  1  0  0  0  0
 11 14  1  0  0  0  0
 11 15  1  0  0  0  0
 11 16  1  0  0  0  0
 39 41  1  0  0  0  0
 39 42  1  0  0  0  0
 39 43  1  0  0  0  0
 21 25  1  0  0  0  0
 21 26  1  0  0  0  0
 29 34  1  0  0  0  0
  8 13  1  0  0  0  0
 18 24  1  0  0  0  0
 38 40  1  0  0  0  0
  7 12  1  0  0  0  0
 28 33  1  0  0  0  0
 17 23  1  0  0  0  0
 22 27  1  0  0  0  0
M  END
$$$$

  -OEChem-05262214473D

 43 42  0     1  0  0  0  0  0999 V2000
   -2.8661   -4.7415    2.2943 C   0  0  0  0  0  0  0  0  0  0  0  0
   -2.0233   -5.5727    2.6109 O   0  0  0  0  0  0  0  0  0  0  0  0
   -4.3078   -5.0134    2.5698 C   0  0  0  0  0  0  0  0  0  0  0  0
   -4.8057   -5.5295    1.7332 H   0  0  0  0  0  0  0  0  0  0  0  0
   -4.4526   -5.6688    3.4436 H   0  0  0  0  0  0  0  0  0  0  0  0
   -4.9255   -4.1233    2.7700 H   0  0  0  0  0  0  0  0  0  0  0  0
   -2.6241   -3.5219    1.6838 N   0  0  0  0  0  0  0  0  0  0  0  0
   -1.3070   -3.0608    1.3315 C   0  0  2  0  0  0  0  0  0  0  0  0
   -1.3931   -1.5680    1.0422 C   0  0  0  0  0  0  0  0  0  0  0  0
   -2.4385   -1.0059    0.7226 O   0  0  0  0  0  0  0  0  0  0  0  0
   -0.7590   -3.8164    0.1309 C   0  0  0  0  0  0  0  0  0  0  0  0
   -3.4188   -2.9207    1.4735 H   0  0  0  0  0  0  0  0  0  0  0  0
   -0.6690   -3.2277    2.2062 H   0  0  0  0  0  0  0  0  0  0  0  0
   -1.3852   -3.6613   -0.7553 H   0  0  0  0  0  0  0  0  0  0  0  0
    0.2542   -3.4843   -0.1182 H   0  0  0  0  0  0  0  0  0  0  0  0
   -0.7257   -4.8930    0.3300 H   0  0  0  0  0  0  0  0  0  0  0  0
   -0.1563   -0.9420    1.1402 N   0  0  0  0  0  0  0  0  0  0  0  0
    0.0261    0.4671    0.9001 C   0  0  2  0  0  0  0  0  0  0  0  0
   -1.0101    0.9331   -0.1205 C   0  0  0  0  0  0  0  0  0  0  0  0
   -2.1121    0.4027   -0.2459 O   0  0  0  0  0  0  0  0  0  0  0  0
    1.4646    0.8092    0.5041 C   0  0  0  0  0  0  0  0  0  0  0  0
    2.6838    0.4951    1.8222 S   0  0  0  0  0  0  0  0  0  0  0  0
    0.6533   -1.4855    1.4300 H   0  0  0  0  0  0  0  0  0  0  0  0
   -0.2026    0.9605    1.8530 H   0  0  0  0  0  0  0  0  0  0  0  0
    1.7711    0.2269   -0.3710 H   0  0  0  0  0  0  0  0  0  0  0  0
    1.5361    1.8691    0.2372 H   0  0  0  0  0  0  0  0  0  0  0  0
    3.7494    0.8983    1.1186 H   0  0  0  0  0  0  0  0  0  0  0  0
   -0.5500    1.9927   -0.8894 N   0  0  0  0  0  0  0  0  0  0  0  0
   -1.3439    2.6022   -1.9305 C   0  0  2  0  0  0  0  0  0  0  0  0
   -0.4673    3.6111   -2.6608 C   0  0  0  0  0  0  0  0  0  0  0  0
    0.5332    4.1183   -2.1580 O   0  0  0  0  0  0  0  0  0  0  0  0
   -2.5841    3.2724   -1.3600 C   0  0  0  0  0  0  0  0  0  0  0  0
    0.3636    2.3918   -0.6950 H   0  0  0  0  0  0  0  0  0  0  0  0
   -1.6310    1.8006   -2.6197 H   0  0  0  0  0  0  0  0  0  0  0  0
   -2.3165    4.0784   -0.6671 H   0  0  0  0  0  0  0  0  0  0  0  0
   -3.1996    3.7093   -2.1533 H   0  0  0  0  0  0  0  0  0  0  0  0
   -3.1984    2.5515   -0.8098 H   0  0  0  0  0  0  0  0  0  0  0  0
   -0.9578    3.9108   -3.9240 N   0  0  0  0  0  0  0  0  0  0  0  0
   -0.3103    4.8508   -4.8090 C   0  0  0  0  0  0  0  0  0  0  0  0
   -1.7833    3.4284   -4.2669 H   0  0  0  0  0  0  0  0  0  0  0  0
   -0.7444    5.8510   -4.6635 H   0  0  0  0  0  0  0  0  0  0  0  0
    0.7663    4.8825   -4.5858 H   0  0  0  0  0  0  0  0  0  0  0  0
   -0.4594    4.5347   -5.8520 H   0  0  0  0  0  0  0  0  0  0  0  0
  1  3  1  0  0  0  0
  1  7  1  0  0  0  0
  1  2  2  0  0  0  0
 29 30  1  0  0  0  0
 30 38  1  0  0  0  0
 30 31  2  0  0  0  0
  8  9  1  0  0  0  0
  9 17  1  0  0  0  0
  9 10  2  0  0  0  0
 18 19  1  0  0  0  0
 19 28  1  0  0  0  0
 19 20  2  0  0  0  0
 29 32  1  0  0  0  0
  8 11  1  0  0  0  0
 38 39  1  0  0  0  0
 18 21  1  0  0  0  0
 21 22  1  0  0  0  0
 28 29  1  0  0  0  0
  7  8  1  0  0  0  0
 17 18  1  0  0  0  0
  3  4  1  0  0  0  0
  3  5  1  0  0  0  0
  3  6  1  0  0  0  0
 32 35  1  0  0  0  0
 32 36  1  0  0  0  0
 32 37  1  0  0  0  0
 11 14  1  0  0  0  0
 11 15  1  0  0  0  0
 11 16  1  0  0  0  0
 39 41  1  0  0  0  0
 39 42  1  0  0  0  0
 39 43  1  0  0  0  0
 21 25  1  0  0  0  0
 21 26  1  0  0  0  0
 29 34  1  0  0  0  0
  8 13  1  0  0  0  0
 18 24  1  0  0  0  0
 38 40  1  0  0  0  0
  7 12  1  0  0  0  0
 28 33  1  0  0  0  0
 17 23  1  0  0  0  0
 22 27  1  0  0  0  0
M  END
$$$$

  -OEChem-05262214473D

 43 42  0     1  0  0  0  0  0999 V2000
   -2.8661   -4.7415    2.2943 C   0  0  0  0  0  0  0  0  0  0  0  0
   -2.0233   -5.5727    2.6109 O   0  0  0  0  0  0  0  0  0  0  0  0
   -4.3078   -5.0134    2.5698 C   0  0  0  0  0  0  0  0  0  0  0  0
   -4.8057   -5.5295    1.7332 H   0  0  0  0  0  0  0  0  0  0  0  0
   -4.4526   -5.6688    3.4436 H   0  0  0  0  0  0  0  0  0  0  0  0
   -4.9255   -4.1233    2.7700 H   0  0  0  0  0  0  0  0  0  0  0  0
   -2.6241   -3.5219    1.6838 N   0  0  0  0  0  0  0  0  0  0  0  0
   -1.3070   -3.0608    1.3315 C   0  0  2  0  0  0  0  0  0  0  0  0
   -1.3931   -1.5680    1.0422 C   0  0  0  0  0  0  0  0  0  0  0  0
   -2.4385   -1.0059    0.7226 O   0  0  0  0  0  0  0  0  0  0  0  0
   -0.7590   -3.8164    0.1309 C   0  0  0  0  0  0  0  0  0  0  0  0
   -3.4188   -2.9207    1.4735 H   0  0  0  0  0  0  0  0  0  0  0  0
   -0.6690   -3.2277    2.2062 H   0  0  0  0  0  0  0  0  0  0  0  0
   -1.3852   -3.6613   -0.7553 H   0  0  0  0  0  0  0  0  0  0  0  0
    0.2542   -3.4843   -0.1182 H   0  0  0  0  0  0  0  0  0  0  0  0
   -0.7257   -4.8930    0.3300 H   0  0  0  0  0  0  0  0  0  0  0  0
   -0.1563   -0.9420    1.1402 N   0  0  0  0  0  0  0  0  0  0  0  0
    0.0261    0.4671    0.9001 C   0  0  2  0  0  0  0  0  0  0  0  0
   -1.0101    0.9331   -0.1205 C   0  0  0  0  0  0  0  0  0  0  0  0
   -2.1917    0.5963   -0.0767 O   0  0  0  0  0  0  0  0  0  0  0  0
    1.4646    0.8092    0.5041 C   0  0  0  0  0  0  0  0  0  0  0  0
    2.6838    0.4951    1.8222 S   0  0  0  0  0  0  0  0  0  0  0  0
    0.6533   -1.4855    1.4300 H   0  0  0  0  0  0  0  0  0  0  0  0
   -0.2026    0.9605    1.8530 H   0  0  0  0  0  0  0  0  0  0  0  0
    1.7711    0.2269   -0.3710 H   0  0  0  0  0  0  0  0  0  0  0  0
    1.5361    1.8691    0.2372 H   0  0  0  0  0  0  0  0  0  0  0  0
    3.7494    0.8983    1.1186 H   0  0  0  0  0  0  0  0  0  0  0  0
   -0.4553    1.7474   -1.0976 N   0  0  0  0  0  0  0  0  0  0  0  0
   -1.2318    2.3055   -2.1799 C   0  0  2  0  0  0  0  0  0  0  0  0
   -0.2728    3.0021   -3.1362 C   0  0  0  0  0  0  0  0  0  0  0  0
    0.8409    3.3984   -2.7990 O   0  0  0  0  0  0  0  0  0  0  0  0
   -2.2841    3.2744   -1.6637 C   0  0  0  0  0  0  0  0  0  0  0  0
    0.5261    2.0025   -1.0377 H   0  0  0  0  0  0  0  0  0  0  0  0
   -1.7116    1.4640   -2.6915 H   0  0  0  0  0  0  0  0  0  0  0  0
   -1.8223    4.1242   -1.1480 H   0  0  0  0  0  0  0  0  0  0  0  0
   -2.8907    3.6747   -2.4827 H   0  0  0  0  0  0  0  0  0  0  0  0
   -2.9548    2.7791   -0.9532 H   0  0  0  0  0  0  0  0  0  0  0  0
   -0.8239    3.1679   -4.3992 N   0  0  0  0  0  0  0  0  0  0  0  0
   -0.1159    3.8130   -5.4802 C   0  0  0  0  0  0  0  0  0  0  0  0
   -1.7466    2.7911   -4.5951 H   0  0  0  0  0  0  0  0  0  0  0  0
   -0.3624    4.8850   -5.4924 H   0  0  0  0  0  0  0  0  0  0  0  0
    0.9672    3.6875   -5.3354 H   0  0  0  0  0  0  0  0  0  0  0  0
   -0.4132    3.3576   -6.4363 H   0  0  0  0  0  0  0  0  0  0  0  0
  1  3  1  0  0  0  0
  1  7  1  0  0  0  0
  1  2  2  0  0  0  0
 29 30  1  0  0  0  0
 30 38  1  0  0  0  0
 30 31  2  0  0  0  0
  8  9  1  0  0  0  0
  9 17  1  0  0  0  0
  9 10  2  0  0  0  0
 18 19  1  0  0  0  0
 19 28  1  0  0  0  0
 19 20  2  0  0  0  0
 29 32  1  0  0  0  0
  8 11  1  0  0  0  0
 38 39  1  0  0  0  0
 18 21  1  0  0  0  0
 21 22  1  0  0  0  0
 28 29  1  0  0  0  0
  7  8  1  0  0  0  0
 17 18  1  0  0  0  0
  3  4  1  0  0  0  0
  3  5  1  0  0  0  0
  3  6  1  0  0  0  0
 32 35  1  0  0  0  0
 32 36  1  0  0  0  0
 32 37  1  0  0  0  0
 11 14  1  0  0  0  0
 11 15  1  0  0  0  0
 11 16  1  0  0  0  0
 39 41  1  0  0  0  0
 39 42  1  0  0  0  0
 39 43  1  0  0  0  0
 21 25  1  0  0  0  0
 21 26  1  0  0  0  0
 29 34  1  0  0  0  0
  8 13  1  0  0  0  0
 18 24  1  0  0  0  0
 38 40  1  0  0  0  0
  7 12  1  0  0  0  0
 28 33  1  0  0  0  0
 17 23  1  0  0  0  0
 22 27  1  0  0  0  0
M  END
$$$$

  -OEChem-05262214473D

 43 42  0     1  0  0  0  0  0999 V2000
   -2.8661   -4.7415    2.2943 C   0  0  0  0  0  0  0  0  0  0  0  0
   -2.0233   -5.5727    2.6109 O   0  0  0  0  0  0  0  0  0  0  0  0
   -4.3078   -5.0134    2.5698 C   0  0  0  0  0  0  0  0  0  0  0  0
   -4.8057   -5.5295    1.7332 H   0  0  0  0  0  0  0  0  0  0  0  0
   -4.4526   -5.6688    3.4436 H   0  0  0  0  0  0  0  0  0  0  0  0
   -4.9255   -4.1233    2.7700 H   0  0  0  0  0  0  0  0  0  0  0  0
   -2.6241   -3.5219    1.6838 N   0  0  0  0  0  0  0  0  0  0  0  0
   -1.3070   -3.0608    1.3315 C   0  0  2  0  0  0  0  0  0  0  0  0
   -1.3931   -1.5680    1.0422 C   0  0  0  0  0  0  0  0  0  0  0  0
   -2.4385   -1.0059    0.7226 O   0  0  0  0  0  0  0  0  0  0  0  0
   -0.7590   -3.8164    0.1309 C   0  0  0  0  0  0  0  0  0  0  0  0
   -3.4188   -2.9207    1.4735 H   0  0  0  0  0  0  0  0  0  0  0  0
   -0.6690   -3.2277    2.2062 H   0  0  0  0  0  0  0  0  0  0  0  0
   -1.3852   -3.6613   -0.7553 H   0  0  0  0  0  0  0  0  0  0  0  0
    0.2542   -3.4843   -0.1182 H   0  0  0  0  0  0  0  0  0  0  0  0
   -0.7257   -4.8930    0.3300 H   0  0  0  0  0  0  0  0  0  0  0  0
   -0.1563   -0.9420    1.1402 N   0  0  0  0  0  0  0  0  0  0  0  0
    0.0261    0.4671    0.9001 C   0  0  2  0  0  0  0  0  0  0  0  0
   -1.0101    0.9331   -0.1205 C   0  0  0  0  0  0  0  0  0  0  0  0
   -2.2217    0.8268    0.0590 O   0  0  0  0  0  0  0  0  0  0  0  0
    1.4646    0.8092    0.5041 C   0  0  0  0  0  0  0  0  0  0  0  0
    2.6838    0.4951    1.8222 S   0  0  0  0  0  0  0  0  0  0  0  0
    0.6533   -1.4855    1.4300 H   0  0  0  0  0  0  0  0  0  0  0  0
   -0.2026    0.9605    1.8530 H   0  0  0  0  0  0  0  0  0  0  0  0
    1.7711    0.2269   -0.3710 H   0  0  0  0  0  0  0  0  0  0  0  0
    1.5361    1.8691    0.2372 H   0  0  0  0  0  0  0  0  0  0  0  0
    3.7494    0.8983    1.1186 H   0  0  0  0  0  0  0  0  0  0  0  0
   -0.4226    1.4576   -1.2630 N   0  0  0  0  0  0  0  0  0  0  0  0
   -1.1945    1.9556   -2.3775 C   0  0  2  0  0  0  0  0  0  0  0  0
   -0.2279    2.2969   -3.5039 C   0  0  0  0  0  0  0  0  0  0  0  0
    0.9629    2.5373   -3.3162 O   0  0  0  0  0  0  0  0  0  0  0  0
   -2.0180    3.1711   -1.9810 C   0  0  0  0  0  0  0  0  0  0  0  0
    0.5886    1.5382   -1.3132 H   0  0  0  0  0  0  0  0  0  0  0  0
   -1.8534    1.1403   -2.6954 H   0  0  0  0  0  0  0  0  0  0  0  0
   -1.3749    3.9985   -1.6596 H   0  0  0  0  0  0  0  0  0  0  0  0
   -2.6243    3.5301   -2.8192 H   0  0  0  0  0  0  0  0  0  0  0  0
   -2.6914    2.9317   -1.1510 H   0  0  0  0  0  0  0  0  0  0  0  0
   -0.8606    2.3436   -4.7383 N   0  0  0  0  0  0  0  0  0  0  0  0
   -0.1606    2.6591   -5.9616 C   0  0  0  0  0  0  0  0  0  0  0  0
   -1.8473    2.1116   -4.8031 H   0  0  0  0  0  0  0  0  0  0  0  0
   -0.2259    3.7402   -6.1537 H   0  0  0  0  0  0  0  0  0  0  0  0
    0.8955    2.3669   -5.8654 H   0  0  0  0  0  0  0  0  0  0  0  0
   -0.6183    2.1100   -6.7977 H   0  0  0  0  0  0  0  0  0  0  0  0
  1  3  1  0  0  0  0
  1  7  1  0  0  0  0
  1  2  2  0  0  0  0
 29 30  1  0  0  0  0
 30 38  1  0  0  0  0
 30 31  2  0  0  0  0
  8  9  1  0  0  0  0
  9 17  1  0  0  0  0
  9 10  2  0  0  0  0
 18 19  1  0  0  0  0
 19 28  1  0  0  0  0
 19 20  2  0  0  0  0
 29 32  1  0  0  0  0
  8 11  1  0  0  0  0
 38 39  1  0  0  0  0
 18 21  1  0  0  0  0
 21 22  1  0  0  0  0
 28 29  1  0  0  0  0
  7  8  1  0  0  0  0
 17 18  1  0  0  0  0
  3  4  1  0  0  0  0
  3  5  1  0  0  0  0
  3  6  1  0  0  0  0
 32 35  1  0  0  0  0
 32 36  1  0  0  0  0
 32 37  1  0  0  0  0
 11 14  1  0  0  0  0
 11 15  1  0  0  0  0
 11 16  1  0  0  0  0
 39 41  1  0  0  0  0
 39 42  1  0  0  0  0
 39 43  1  0  0  0  0
 21 25  1  0  0  0  0
 21 26  1  0  0  0  0
 29 34  1  0  0  0  0
  8 13  1  0  0  0  0
 18 24  1  0  0  0  0
 38 40  1  0  0  0  0
  7 12  1  0  0  0  0
 28 33  1  0  0  0  0
 17 23  1  0  0  0  0
 22 27  1  0  0  0  0
M  END
$$$$

  -OEChem-05262214473D

 43 42  0     1  0  0  0  0  0999 V2000
   -2.8661   -4.7415    2.2943 C   0  0  0  0  0  0  0  0  0  0  0  0
   -2.0233   -5.5727    2.6109 O   0  0  0  0  0  0  0  0  0  0  0  0
   -4.3078   -5.0134    2.5698 C   0  0  0  0  0  0  0  0  0  0  0  0
   -4.8057   -5.5295    1.7332 H   0  0  0  0  0  0  0  0  0  0  0  0
   -4.4526   -5.6688    3.4436 H   0  0  0  0  0  0  0  0  0  0  0  0
   -4.9255   -4.1233    2.7700 H   0  0  0  0  0  0  0  0  0  0  0  0
   -2.6241   -3.5219    1.6838 N   0  0  0  0  0  0  0  0  0  0  0  0
   -1.3070   -3.0608    1.3315 C   0  0  2  0  0  0  0  0  0  0  0  0
   -1.3931   -1.5680    1.0422 C   0  0  0  0  0  0  0  0  0  0  0  0
   -2.4385   -1.0059    0.7226 O   0  0  0  0  0  0  0  0  0  0  0  0
   -0.7590   -3.8164    0.1309 C   0  0  0  0  0  0  0  0  0  0  0  0
   -3.4188   -2.9207    1.4735 H   0  0  0  0  0  0  0  0  0  0  0  0
   -0.6690   -3.2277    2.2062 H   0  0  0  0  0  0  0  0  0  0  0  0
   -1.3852   -3.6613   -0.7553 H   0  0  0  0  0  0  0  0  0  0  0  0
    0.2542   -3.4843   -0.1182 H   0  0  0  0  0  0  0  0  0  0  0  0
   -0.7257   -4.8930    0.3300 H   0  0  0  0  0  0  0  0  0  0  0  0
   -0.1563   -0.9420    1.1402 N   0  0  0  0  0  0  0  0  0  0  0  0
    0.0261    0.4671    0.9001 C   0  0  2  0  0  0  0  0  0  0  0  0
   -1.0101    0.9331   -0.1205 C   0  0  0  0  0  0  0  0  0  0  0  0
   -2.2001    1.0784    0.1520 O   0  0  0  0  0  0  0  0  0  0  0  0
    1.4646    0.8092    0.5041 C   0  0  0  0  0  0  0  0  0  0  0  0
    2.6838    0.4951    1.8222 S   0  0  0  0  0  0  0  0  0  0  0  0
    0.6533   -1.4855    1.4300 H   0  0  0  0  0  0  0  0  0  0  0  0
   -0.2026    0.9605    1.8530 H   0  0  0  0  0  0  0  0  0  0  0  0
    1.7711    0.2269   -0.3710 H   0  0  0  0  0  0  0  0  0  0  0  0
    1.5361    1.8691    0.2372 H   0  0  0  0  0  0  0  0  0  0  0  0
    3.7494    0.8983    1.1186 H   0  0  0  0  0  0  0  0  0  0  0  0
   -0.4543    1.1429   -1.3745 N   0  0  0  0  0  0  0  0  0  0  0  0
   -1.2345    1.5765   -2.5099 C   0  0  2  0  0  0  0  0  0  0  0  0
   -0.3355    1.5433   -3.7387 C   0  0  0  0  0  0  0  0  0  0  0  0
    0.8911    1.5936   -3.6741 O   0  0  0  0  0  0  0  0  0  0  0  0
   -1.8039    2.9695   -2.2905 C   0  0  0  0  0  0  0  0  0  0  0  0
    0.5470    1.0306   -1.5027 H   0  0  0  0  0  0  0  0  0  0  0  0
   -2.0466    0.8514   -2.6310 H   0  0  0  0  0  0  0  0  0  0  0  0
   -1.0050    3.7098   -2.1670 H   0  0  0  0  0  0  0  0  0  0  0  0
   -2.4186    3.2853   -3.1399 H   0  0  0  0  0  0  0  0  0  0  0  0
   -2.4262    2.9988   -1.3896 H   0  0  0  0  0  0  0  0  0  0  0  0
   -1.0653    1.4943   -4.9182 N   0  0  0  0  0  0  0  0  0  0  0  0
   -0.4414    1.4677   -6.2205 C   0  0  0  0  0  0  0  0  0  0  0  0
   -2.0785    1.4362   -4.8768 H   0  0  0  0  0  0  0  0  0  0  0  0
   -0.3442    2.4947   -6.6022 H   0  0  0  0  0  0  0  0  0  0  0  0
    0.5559    1.0107   -6.1399 H   0  0  0  0  0  0  0  0  0  0  0  0
   -1.0607    0.8769   -6.9116 H   0  0  0  0  0  0  0  0  0  0  0  0
  1  3  1  0  0  0  0
  1  7  1  0  0  0  0
  1  2  2  0  0  0  0
 29 30  1  0  0  0  0
 30 38  1  0  0  0  0
 30 31  2  0  0  0  0
  8  9  1  0  0  0  0
  9 17  1  0  0  0  0
  9 10  2  0  0  0  0
 18 19  1  0  0  0  0
 19 28  1  0  0  0  0
 19 20  2  0  0  0  0
 29 32  1  0  0  0  0
  8 11  1  0  0  0  0
 38 39  1  0  0  0  0
 18 21  1  0  0  0  0
 21 22  1  0  0  0  0
 28 29  1  0  0  0  0
  7  8  1  0  0  0  0
 17 18  1  0  0  0  0
  3  4  1  0  0  0  0
  3  5  1  0  0  0  0
  3  6  1  0  0  0  0
 32 35  1  0  0  0  0
 32 36  1  0  0  0  0
 32 37  1  0  0  0  0
 11 14  1  0  0  0  0
 11 15  1  0  0  0  0
 11 16  1  0  0  0  0
 39 41  1  0  0  0  0
 39 42  1  0  0  0  0
 39 43  1  0  0  0  0
 21 25  1  0  0  0  0
 21 26  1  0  0  0  0
 29 34  1  0  0  0  0
  8 13  1  0  0  0  0
 18 24  1  0  0  0  0
 38 40  1  0  0  0  0
  7 12  1  0  0  0  0
 28 33  1  0  0  0  0
 17 23  1  0  0  0  0
 22 27  1  0  0  0  0
M  END
$$$$

  -OEChem-05262214473D

 43 42  0     1  0  0  0  0  0999 V2000
   -2.8661   -4.7415    2.2943 C   0  0  0  0  0  0  0  0  0  0  0  0
   -2.0233   -5.5727    2.6109 O   0  0  0  0  0  0  0  0  0  0  0  0
   -4.3078   -5.0134    2.5698 C   0  0  0  0  0  0  0  0  0  0  0  0
   -4.8057   -5.5295    1.7332 H   0  0  0  0  0  0  0  0  0  0  0  0
   -4.4526   -5.6688    3.4436 H   0  0  0  0  0  0  0  0  0  0  0  0
   -4.9255   -4.1233    2.7700 H   0  0  0  0  0  0  0  0  0  0  0  0
   -2.6241   -3.5219    1.6838 N   0  0  0  0  0  0  0  0  0  0  0  0
   -1.3070   -3.0608    1.3315 C   0  0  2  0  0  0  0  0  0  0  0  0
   -1.3931   -1.5680    1.0422 C   0  0  0  0  0  0  0  0  0  0  0  0
   -2.4385   -1.0059    0.7226 O   0  0  0  0  0  0  0  0  0  0  0  0
   -0.7590   -3.8164    0.1309 C   0  0  0  0  0  0  0  0  0  0  0  0
   -3.4188   -2.9207    1.4735 H   0  0  0  0  0  0  0  0  0  0  0  0
   -0.6690   -3.2277    2.2062 H   0  0  0  0  0  0  0  0  0  0  0  0
   -1.3852   -3.6613   -0.7553 H   0  0  0  0  0  0  0  0  0  0  0  0
    0.2542   -3.4843   -0.1182 H   0  0  0  0  0  0  0  0  0  0  0  0
   -0.7257   -4.8930    0.3300 H   0  0  0  0  0  0  0  0  0  0  0  0
   -0.1563   -0.9420    1.1402 N   0  0  0  0  0  0  0  0  0  0  0  0
    0.0261    0.4671    0.9001 C   0  0  2  0  0  0  0  0  0  0  0  0
   -1.0101    0.9331   -0.1205 C   0  0  0  0  0  0  0  0  0  0  0  0
   -2.1284    1.3341    0.1959 O   0  0  0  0  0  0  0  0  0  0  0  0
    1.4646    0.8092    0.5041 C   0  0  0  0  0  0  0  0  0  0  0  0
    2.6838    0.4951    1.8222 S   0  0  0  0  0  0  0  0  0  0  0  0
    0.6533   -1.4855    1.4300 H   0  0  0  0  0  0  0  0  0  0  0  0
   -0.2026    0.9605    1.8530 H   0  0  0  0  0  0  0  0  0  0  0  0
    1.7711    0.2269   -0.3710 H   0  0  0  0  0  0  0  0  0  0  0  0
    1.5361    1.8691    0.2372 H   0  0  0  0  0  0  0  0  0  0  0  0
    3.7494    0.8983    1.1186 H   0  0  0  0  0  0  0  0  0  0  0  0
   -0.5481    0.8249   -1.4245 N   0  0  0  0  0  0  0  0  0  0  0  0
   -1.3493    1.1941   -2.5680 C   0  0  2  0  0  0  0  0  0  0  0  0
   -0.5883    0.7927   -3.8247 C   0  0  0  0  0  0  0  0  0  0  0  0
    0.6301    0.6316   -3.8484 O   0  0  0  0  0  0  0  0  0  0  0  0
   -1.6563    2.6835   -2.5709 C   0  0  0  0  0  0  0  0  0  0  0  0
    0.4041    0.5142   -1.5934 H   0  0  0  0  0  0  0  0  0  0  0  0
   -2.2782    0.6171   -2.5029 H   0  0  0  0  0  0  0  0  0  0  0  0
   -0.7376    3.2780   -2.6356 H   0  0  0  0  0  0  0  0  0  0  0  0
   -2.2875    2.9569   -3.4229 H   0  0  0  0  0  0  0  0  0  0  0  0
   -2.1773    2.9758   -1.6528 H   0  0  0  0  0  0  0  0  0  0  0  0
   -1.4242    0.6777   -4.9266 N   0  0  0  0  0  0  0  0  0  0  0  0
   -0.9392    0.3200   -6.2392 C   0  0  0  0  0  0  0  0  0  0  0  0
   -2.4245    0.8108   -4.8110 H   0  0  0  0  0  0  0  0  0  0  0  0
   -0.7094    1.2334   -6.8073 H   0  0  0  0  0  0  0  0  0  0  0  0
   -0.0284   -0.2888   -6.1400 H   0  0  0  0  0  0  0  0  0  0  0  0
   -1.7103   -0.2576   -6.7700 H   0  0  0  0  0  0  0  0  0  0  0  0
  1  3  1  0  0  0  0
  1  7  1  0  0  0  0
  1  2  2  0  0  0  0
 29 30  1  0  0  0  0
 30 38  1  0  0  0  0
 30 31  2  0  0  0  0
  8  9  1  0  0  0  0
  9 17  1  0  0  0  0
  9 10  2  0  0  0  0
 18 19  1  0  0  0  0
 19 28  1  0  0  0  0
 19 20  2  0  0  0  0
 29 32  1  0  0  0  0
  8 11  1  0  0  0  0
 38 39  1  0  0  0  0
 18 21  1  0  0  0  0
 21 22  1  0  0  0  0
 28 29  1  0  0  0  0
  7  8  1  0  0  0  0
 17 18  1  0  0  0  0
  3  4  1  0  0  0  0
  3  5  1  0  0  0  0
  3  6  1  0  0  0  0
 32 35  1  0  0  0  0
 32 36  1  0  0  0  0
 32 37  1  0  0  0  0
 11 14  1  0  0  0  0
 11 15  1  0  0  0  0
 11 16  1  0  0  0  0
 39 41  1  0  0  0  0
 39 42  1  0  0  0  0
 39 43  1  0  0  0  0
 21 25  1  0  0  0  0
 21 26  1  0  0  0  0
 29 34  1  0  0  0  0
  8 13  1  0  0  0  0
 18 24  1  0  0  0  0
 38 40  1  0  0  0  0
  7 12  1  0  0  0  0
 28 33  1  0  0  0  0
 17 23  1  0  0  0  0
 22 27  1  0  0  0  0
M  END
$$$$

  -OEChem-05262214473D

 43 42  0     1  0  0  0  0  0999 V2000
   -2.8661   -4.7415    2.2943 C   0  0  0  0  0  0  0  0  0  0  0  0
   -2.0233   -5.5727    2.6109 O   0  0  0  0  0  0  0  0  0  0  0  0
   -4.3078   -5.0134    2.5698 C   0  0  0  0  0  0  0  0  0  0  0  0
   -4.8057   -5.5295    1.7332 H   0  0  0  0  0  0  0  0  0  0  0  0
   -4.4526   -5.6688    3.4436 H   0  0  0  0  0  0  0  0  0  0  0  0
   -4.9255   -4.1233    2.7700 H   0  0  0  0  0  0  0  0  0  0  0  0
   -2.6241   -3.5219    1.6838 N   0  0  0  0  0  0  0  0  0  0  0  0
   -1.3070   -3.0608    1.3315 C   0  0  2  0  0  0  0  0  0  0  0  0
   -1.3931   -1.5680    1.0422 C   0  0  0  0  0  0  0  0  0  0  0  0
   -2.4385   -1.0059    0.7226 O   0  0  0  0  0  0  0  0  0  0  0  0
   -0.7590   -3.8164    0.1309 C   0  0  0  0  0  0  0  0  0  0  0  0
   -3.4188   -2.9207    1.4735 H   0  0  0  0  0  0  0  0  0  0  0  0
   -0.6690   -3.2277    2.2062 H   0  0  0  0  0  0  0  0  0  0  0  0
   -1.3852   -3.6613   -0.7553 H   0  0  0  0  0  0  0  0  0  0  0  0
    0.2542   -3.4843   -0.1182 H   0  0  0  0  0  0  0  0  0  0  0  0
   -0.7257   -4.8930    0.3300 H   0  0  0  0  0  0  0  0  0  0  0  0
   -0.1563   -0.9420    1.1402 N   0  0  0  0  0  0  0  0  0  0  0  0
    0.0261    0.4671    0.9001 C   0  0  2  0  0  0  0  0  0  0  0  0
   -1.0101    0.9331   -0.1205 C   0  0  0  0  0  0  0  0  0  0  0  0
   -2.0114    1.5764    0.1878 O   0  0  0  0  0  0  0  0  0  0  0  0
    1.4646    0.8092    0.5041 C   0  0  0  0  0  0  0  0  0  0  0  0
    2.6838    0.4951    1.8222 S   0  0  0  0  0  0  0  0  0  0  0  0
    0.6533   -1.4855    1.4300 H   0  0  0  0  0  0  0  0  0  0  0  0
   -0.2026    0.9605    1.8530 H   0  0  0  0  0  0  0  0  0  0  0  0
    1.7711    0.2269   -0.3710 H   0  0  0  0  0  0  0  0  0  0  0  0
    1.5361    1.8691    0.2372 H   0  0  0  0  0  0  0  0  0  0  0  0
    3.7494    0.8983    1.1186 H   0  0  0  0  0  0  0  0  0  0  0  0
   -0.6977    0.5251   -1.4095 N   0  0  0  0  0  0  0  0  0  0  0  0
   -1.5308    0.8343   -2.5480 C   0  0  2  0  0  0  0  0  0  0  0  0
   -0.9691    0.0964   -3.7560 C   0  0  0  0  0  0  0  0  0  0  0  0
    0.1980   -0.2831   -3.8272 O   0  0  0  0  0  0  0  0  0  0  0  0
   -1.5854    2.3325   -2.8032 C   0  0  0  0  0  0  0  0  0  0  0  0
    0.1695    0.0241   -1.5789 H   0  0  0  0  0  0  0  0  0  0  0  0
   -2.5322    0.4533   -2.3198 H   0  0  0  0  0  0  0  0  0  0  0  0
   -0.5911    2.7322   -3.0335 H   0  0  0  0  0  0  0  0  0  0  0  0
   -2.2401    2.5673   -3.6489 H   0  0  0  0  0  0  0  0  0  0  0  0
   -1.9616    2.8644   -1.9227 H   0  0  0  0  0  0  0  0  0  0  0  0
   -1.9127   -0.0504   -4.7631 N   0  0  0  0  0  0  0  0  0  0  0  0
   -1.6199   -0.7058   -6.0164 C   0  0  0  0  0  0  0  0  0  0  0  0
   -2.8617    0.2780   -4.6104 H   0  0  0  0  0  0  0  0  0  0  0  0
   -1.2964    0.0422   -6.7551 H   0  0  0  0  0  0  0  0  0  0  0  0
   -0.8175   -1.4430   -5.8658 H   0  0  0  0  0  0  0  0  0  0  0  0
   -2.5228   -1.2163   -6.3828 H   0  0  0  0  0  0  0  0  0  0  0  0
  1  3  1  0  0  0  0
  1  7  1  0  0  0  0
  1  2  2  0  0  0  0
 29 30  1  0  0  0  0
 30 38  1  0  0  0  0
 30 31  2  0  0  0  0
  8  9  1  0  0  0  0
  9 17  1  0  0  0  0
  9 10  2  0  0  0  0
 18 19  1  0  0  0  0
 19 28  1  0  0  0  0
 19 20  2  0  0  0  0
 29 32  1  0  0  0  0
  8 11  1  0  0  0  0
 38 39  1  0  0  0  0
 18 21  1  0  0  0  0
 21 22  1  0  0  0  0
 28 29  1  0  0  0  0
  7  8  1  0  0  0  0
 17 18  1  0  0  0  0
  3  4  1  0  0  0  0
  3  5  1  0  0  0  0
  3  6  1  0  0  0  0
 32 35  1  0  0  0  0
 32 36  1  0  0  0  0
 32 37  1  0  0  0  0
 11 14  1  0  0  0  0
 11 15  1  0  0  0  0
 11 16  1  0  0  0  0
 39 41  1  0  0  0  0
 39 42  1  0  0  0  0
 39 43  1  0  0  0  0
 21 25  1  0  0  0  0
 21 26  1  0  0  0  0
 29 34  1  0  0  0  0
  8 13  1  0  0  0  0
 18 24  1  0  0  0  0
 38 40  1  0  0  0  0
  7 12  1  0  0  0  0
 28 33  1  0  0  0  0
 17 23  1  0  0  0  0
 22 27  1  0  0  0  0
M  END
$$$$

  -OEChem-05262214473D

 43 42  0     1  0  0  0  0  0999 V2000
   -2.8661   -4.7415    2.2943 C   0  0  0  0  0  0  0  0  0  0  0  0
   -2.0233   -5.5727    2.6109 O   0  0  0  0  0  0  0  0  0  0  0  0
   -4.3078   -5.0134    2.5698 C   0  0  0  0  0  0  0  0  0  0  0  0
   -4.8057   -5.5295    1.7332 H   0  0  0  0  0  0  0  0  0  0  0  0
   -4.4526   -5.6688    3.4436 H   0  0  0  0  0  0  0  0  0  0  0  0
   -4.9255   -4.1233    2.7700 H   0  0  0  0  0  0  0  0  0  0  0  0
   -2.6241   -3.5219    1.6838 N   0  0  0  0  0  0  0  0  0  0  0  0
   -1.3070   -3.0608    1.3315 C   0  0  2  0  0  0  0  0  0  0  0  0
   -1.3931   -1.5680    1.0422 C   0  0  0  0  0  0  0  0  0  0  0  0
   -2.4385   -1.0059    0.7226 O   0  0  0  0  0  0  0  0  0  0  0  0
   -0.7590   -3.8164    0.1309 C   0  0  0  0  0  0  0  0  0  0  0  0
   -3.4188   -2.9207    1.4735 H   0  0  0  0  0  0  0  0  0  0  0  0
   -0.6690   -3.2277    2.2062 H   0  0  0  0  0  0  0  0  0  0  0  0
   -1.3852   -3.6613   -0.7553 H   0  0  0  0  0  0  0  0  0  0  0  0
    0.2542   -3.4843   -0.1182 H   0  0  0  0  0  0  0  0  0  0  0  0
   -0.7257   -4.8930    0.3300 H   0  0  0  0  0  0  0  0  0  0  0  0
   -0.1563   -0.9420    1.1402 N   0  0  0  0  0  0  0  0  0  0  0  0
    0.0261    0.4671    0.9001 C   0  0  2  0  0  0  0  0  0  0  0  0
   -1.0101    0.9331   -0.1205 C   0  0  0  0  0  0  0  0  0  0  0  0
   -1.8572    1.7887    0.1281 O   0  0  0  0  0  0  0  0  0  0  0  0
    1.4646    0.8092    0.5041 C   0  0  0  0  0  0  0  0  0  0  0  0
    2.6838    0.4951    1.8222 S   0  0  0  0  0  0  0  0  0  0  0  0
    0.6533   -1.4855    1.4300 H   0  0  0  0  0  0  0  0  0  0  0  0
   -0.2026    0.9605    1.8530 H   0  0  0  0  0  0  0  0  0  0  0  0
    1.7711    0.2269   -0.3710 H   0  0  0  0  0  0  0  0  0  0  0  0
    1.5361    1.8691    0.2372 H   0  0  0  0  0  0  0  0  0  0  0  0
    3.7494    0.8983    1.1186 H   0  0  0  0  0  0  0  0  0  0  0  0
   -0.8928    0.2641   -1.3306 N   0  0  0  0  0  0  0  0  0  0  0  0
   -1.7669    0.5216   -2.4511 C   0  0  2  0  0  0  0  0  0  0  0  0
   -1.4519   -0.4983   -3.5373 C   0  0  0  0  0  0  0  0  0  0  0  0
   -0.3760   -1.0881   -3.6120 O   0  0  0  0  0  0  0  0  0  0  0  0
   -1.5959    1.9403   -2.9715 C   0  0  0  0  0  0  0  0  0  0  0  0
   -0.1407   -0.4061   -1.4604 H   0  0  0  0  0  0  0  0  0  0  0  0
   -2.7915    0.3712   -2.0940 H   0  0  0  0  0  0  0  0  0  0  0  0
   -0.5754    2.1099   -3.3337 H   0  0  0  0  0  0  0  0  0  0  0  0
   -2.2795    2.1431   -3.8026 H   0  0  0  0  0  0  0  0  0  0  0  0
   -1.7939    2.6720   -2.1808 H   0  0  0  0  0  0  0  0  0  0  0  0
   -2.4976   -0.6406   -4.4386 N   0  0  0  0  0  0  0  0  0  0  0  0
   -2.4373   -1.5398   -5.5673 C   0  0  0  0  0  0  0  0  0  0  0  0
   -3.3602   -0.1257   -4.2885 H   0  0  0  0  0  0  0  0  0  0  0  0
   -2.0654   -0.9977   -6.4492 H   0  0  0  0  0  0  0  0  0  0  0  0
   -1.7577   -2.3733   -5.3359 H   0  0  0  0  0  0  0  0  0  0  0  0
   -3.4428   -1.9338   -5.7762 H   0  0  0  0  0  0  0  0  0  0  0  0
  1  3  1  0  0  0  0
  1  7  1  0  0  0  0
  1  2  2  0  0  0  0
 29 30  1  0  0  0  0
 30 38  1  0  0  0  0
 30 31  2  0  0  0  0
  8  9  1  0  0  0  0
  9 17  1  0  0  0  0
  9 10  2  0  0  0  0
 18 19  1  0  0  0  0
 19 28  1  0  0  0  0
 19 20  2  0  0  0  0
 29 32  1  0  0  0  0
  8 11  1  0  0  0  0
 38 39  1  0  0  0  0
 18 21  1  0  0  0  0
 21 22  1  0  0  0  0
 28 29  1  0  0  0  0
  7  8  1  0  0  0  0
 17 18  1  0  0  0  0
  3  4  1  0  0  0  0
  3  5  1  0  0  0  0
  3  6  1  0  0  0  0
 32 35  1  0  0  0  0
 32 36  1  0  0  0  0
 32 37  1  0  0  0  0
 11 14  1  0  0  0  0
 11 15  1  0  0  0  0
 11 16  1  0  0  0  0
 39 41  1  0  0  0  0
 39 42  1  0  0  0  0
 39 43  1  0  0  0  0
 21 25  1  0  0  0  0
 21 26  1  0  0  0  0
 29 34  1  0  0  0  0
  8 13  1  0  0  0  0
 18 24  1  0  0  0  0
 38 40  1  0  0  0  0
  7 12  1  0  0  0  0
 28 33  1  0  0  0  0
 17 23  1  0  0  0  0
 22 27  1  0  0  0  0
M  END
$$$$

  -OEChem-05262214473D

 43 42  0     1  0  0  0  0  0999 V2000
   -2.8661   -4.7415    2.2943 C   0  0  0  0  0  0  0  0  0  0  0  0
   -2.0233   -5.5727    2.6109 O   0  0  0  0  0  0  0  0  0  0  0  0
   -4.3078   -5.0134    2.5698 C   0  0  0  0  0  0  0  0  0  0  0  0
   -4.8057   -5.5295    1.7332 H   0  0  0  0  0  0  0  0  0  0  0  0
   -4.4526   -5.6688    3.4436 H   0  0  0  0  0  0  0  0  0  0  0  0
   -4.9255   -4.1233    2.7700 H   0  0  0  0  0  0  0  0  0  0  0  0
   -2.6241   -3.5219    1.6838 N   0  0  0  0  0  0  0  0  0  0  0  0
   -1.3070   -3.0608    1.3315 C   0  0  2  0  0  0  0  0  0  0  0  0
   -1.3931   -1.5680    1.0422 C   0  0  0  0  0  0  0  0  0  0  0  0
   -2.4385   -1.0059    0.7226 O   0  0  0  0  0  0  0  0  0  0  0  0
   -0.7590   -3.8164    0.1309 C   0  0  0  0  0  0  0  0  0  0  0  0
   -3.4188   -2.9207    1.4735 H   0  0  0  0  0  0  0  0  0  0  0  0
   -0.6690   -3.2277    2.2062 H   0  0  0  0  0  0  0  0  0  0  0  0
   -1.3852   -3.6613   -0.7553 H   0  0  0  0  0  0  0  0  0  0  0  0
    0.2542   -3.4843   -0.1182 H   0  0  0  0  0  0  0  0  0  0  0  0
   -0.7257   -4.8930    0.3300 H   0  0  0  0  0  0  0  0  0  0  0  0
   -0.1563   -0.9420    1.1402 N   0  0  0  0  0  0  0  0  0  0  0  0
    0.0261    0.4671    0.9001 C   0  0  2  0  0  0  0  0  0  0  0  0
   -1.0101    0.9331   -0.1205 C   0  0  0  0  0  0  0  0  0  0  0  0
   -1.6762    1.9567    0.0211 O   0  0  0  0  0  0  0  0  0  0  0  0
    1.4646    0.8092    0.5041 C   0  0  0  0  0  0  0  0  0  0  0  0
    2.6838    0.4951    1.8222 S   0  0  0  0  0  0  0  0  0  0  0  0
    0.6533   -1.4855    1.4300 H   0  0  0  0  0  0  0  0  0  0  0  0
   -0.2026    0.9605    1.8530 H   0  0  0  0  0  0  0  0  0  0  0  0
    1.7711    0.2269   -0.3710 H   0  0  0  0  0  0  0  0  0  0  0  0
    1.5361    1.8691    0.2372 H   0  0  0  0  0  0  0  0  0  0  0  0
    3.7494    0.8983    1.1186 H   0  0  0  0  0  0  0  0  0  0  0  0
   -1.1202    0.0596   -1.1931 N   0  0  0  0  0  0  0  0  0  0  0  0
   -2.0413    0.2775   -2.2839 C   0  0  2  0  0  0  0  0  0  0  0  0
   -2.0039   -0.9508   -3.1835 C   0  0  0  0  0  0  0  0  0  0  0  0
   -1.0526   -1.7287   -3.2175 O   0  0  0  0  0  0  0  0  0  0  0  0
   -1.6873    1.5338   -3.0644 C   0  0  0  0  0  0  0  0  0  0  0  0
   -0.5054   -0.7472   -1.2459 H   0  0  0  0  0  0  0  0  0  0  0  0
   -3.0383    0.3763   -1.8411 H   0  0  0  0  0  0  0  0  0  0  0  0
   -0.6915    1.4534   -3.5155 H   0  0  0  0  0  0  0  0  0  0  0  0
   -2.4031    1.7132   -3.8734 H   0  0  0  0  0  0  0  0  0  0  0  0
   -1.6855    2.4119   -2.4096 H   0  0  0  0  0  0  0  0  0  0  0  0
   -3.1391   -1.0525   -3.9754 N   0  0  0  0  0  0  0  0  0  0  0  0
   -3.3356   -2.1251   -4.9224 C   0  0  0  0  0  0  0  0  0  0  0  0
   -3.8862   -0.3729   -3.8674 H   0  0  0  0  0  0  0  0  0  0  0  0
   -2.9639   -1.8154   -5.9103 H   0  0  0  0  0  0  0  0  0  0  0  0
   -2.7849   -3.0161   -4.5865 H   0  0  0  0  0  0  0  0  0  0  0  0
   -4.4077   -2.3611   -4.9917 H   0  0  0  0  0  0  0  0  0  0  0  0
  1  3  1  0  0  0  0
  1  7  1  0  0  0  0
  1  2  2  0  0  0  0
 29 30  1  0  0  0  0
 30 38  1  0  0  0  0
 30 31  2  0  0  0  0
  8  9  1  0  0  0  0
  9 17  1  0  0  0  0
  9 10  2  0  0  0  0
 18 19  1  0  0  0  0
 19 28  1  0  0  0  0
 19 20  2  0  0  0  0
 29 32  1  0  0  0  0
  8 11  1  0  0  0  0
 38 39  1  0  0  0  0
 18 21  1  0  0  0  0
 21 22  1  0  0  0  0
 28 29  1  0  0  0  0
  7  8  1  0  0  0  0
 17 18  1  0  0  0  0
  3  4  1  0  0  0  0
  3  5  1  0  0  0  0
  3  6  1  0  0  0  0
 32 35  1  0  0  0  0
 32 36  1  0  0  0  0
 32 37  1  0  0  0  0
 11 14  1  0  0  0  0
 11 15  1  0  0  0  0
 11 16  1  0  0  0  0
 39 41  1  0  0  0  0
 39 42  1  0  0  0  0
 39 43  1  0  0  0  0
 21 25  1  0  0  0  0
 21 26  1  0  0  0  0
 29 34  1  0  0  0  0
  8 13  1  0  0  0  0
 18 24  1  0  0  0  0
 38 40  1  0  0  0  0
  7 12  1  0  0  0  0
 28 33  1  0  0  0  0
 17 23  1  0  0  0  0
 22 27  1  0  0  0  0
M  END
$$$$

  -OEChem-05262214473D

 43 42  0     1  0  0  0  0  0999 V2000
   -2.8661   -4.7415    2.2943 C   0  0  0  0  0  0  0  0  0  0  0  0
   -2.0233   -5.5727    2.6109 O   0  0  0  0  0  0  0  0  0  0  0  0
   -4.3078   -5.0134    2.5698 C   0  0  0  0  0  0  0  0  0  0  0  0
   -4.8057   -5.5295    1.7332 H   0  0  0  0  0  0  0  0  0  0  0  0
   -4.4526   -5.6688    3.4436 H   0  0  0  0  0  0  0  0  0  0  0  0
   -4.9255   -4.1233    2.7700 H   0  0  0  0  0  0  0  0  0  0  0  0
   -2.6241   -3.5219    1.6838 N   0  0  0  0  0  0  0  0  0  0  0  0
   -1.3070   -3.0608    1.3315 C   0  0  2  0  0  0  0  0  0  0  0  0
   -1.3931   -1.5680    1.0422 C   0  0  0  0  0  0  0  0  0  0  0  0
   -2.4385   -1.0059    0.7226 O   0  0  0  0  0  0  0  0  0  0  0  0
   -0.7590   -3.8164    0.1309 C   0  0  0  0  0  0  0  0  0  0  0  0
   -3.4188   -2.9207    1.4735 H   0  0  0  0  0  0  0  0  0  0  0  0
   -0.6690   -3.2277    2.2062 H   0  0  0  0  0  0  0  0  0  0  0  0
   -1.3852   -3.6613   -0.7553 H   0  0  0  0  0  0  0  0  0  0  0  0
    0.2542   -3.4843   -0.1182 H   0  0  0  0  0  0  0  0  0  0  0  0
   -0.7257   -4.8930    0.3300 H   0  0  0  0  0  0  0  0  0  0  0  0
   -0.1563   -0.9420    1.1402 N   0  0  0  0  0  0  0  0  0  0  0  0
    0.0261    0.4671    0.9001 C   0  0  2  0  0  0  0  0  0  0  0  0
   -1.0101    0.9331   -0.1205 C   0  0  0  0  0  0  0  0  0  0  0  0
   -1.4808    2.0688   -0.1262 O   0  0  0  0  0  0  0  0  0  0  0  0
    1.4646    0.8092    0.5041 C   0  0  0  0  0  0  0  0  0  0  0  0
    2.6838    0.4951    1.8222 S   0  0  0  0  0  0  0  0  0  0  0  0
    0.6533   -1.4855    1.4300 H   0  0  0  0  0  0  0  0  0  0  0  0
   -0.2026    0.9605    1.8530 H   0  0  0  0  0  0  0  0  0  0  0  0
    1.7711    0.2269   -0.3710 H   0  0  0  0  0  0  0  0  0  0  0  0
    1.5361    1.8691    0.2372 H   0  0  0  0  0  0  0  0  0  0  0  0
    3.7494    0.8983    1.1186 H   0  0  0  0  0  0  0  0  0  0  0  0
   -1.3644   -0.0745   -1.0064 N   0  0  0  0  0  0  0  0  0  0  0  0
   -2.3353    0.1185   -2.0579 C   0  0  2  0  0  0  0  0  0  0  0  0
   -2.5874   -1.2303   -2.7187 C   0  0  0  0  0  0  0  0  0  0  0  0
   -1.7859   -2.1611   -2.6704 O   0  0  0  0  0  0  0  0  0  0  0  0
   -1.8531    1.1406   -3.0755 C   0  0  0  0  0  0  0  0  0  0  0  0
   -0.8997   -0.9759   -0.9500 H   0  0  0  0  0  0  0  0  0  0  0  0
   -3.2558    0.4685   -1.5781 H   0  0  0  0  0  0  0  0  0  0  0  0
   -0.9316    0.8073   -3.5667 H   0  0  0  0  0  0  0  0  0  0  0  0
   -2.6024    1.3069   -3.8565 H   0  0  0  0  0  0  0  0  0  0  0  0
   -1.6439    2.1017   -2.5935 H   0  0  0  0  0  0  0  0  0  0  0  0
   -3.7933   -1.2581   -3.4050 N   0  0  0  0  0  0  0  0  0  0  0  0
   -4.2536   -2.4219   -4.1259 C   0  0  0  0  0  0  0  0  0  0  0  0
   -4.4038   -0.4467   -3.3756 H   0  0  0  0  0  0  0  0  0  0  0  0
   -3.9306   -2.3553   -5.1753 H   0  0  0  0  0  0  0  0  0  0  0  0
   -3.8292   -3.3278   -3.6685 H   0  0  0  0  0  0  0  0  0  0  0  0
   -5.3517   -2.4693   -4.0826 H   0  0  0  0  0  0  0  0  0  0  0  0
  1  3  1  0  0  0  0
  1  7  1  0  0  0  0
  1  2  2  0  0  0  0
 29 30  1  0  0  0  0
 30 38  1  0  0  0  0
 30 31  2  0  0  0  0
  8  9  1  0  0  0  0
  9 17  1  0  0  0  0
  9 10  2  0  0  0  0
 18 19  1  0  0  0  0
 19 28  1  0  0  0  0
 19 20  2  0  0  0  0
 29 32  1  0  0  0  0
  8 11  1  0  0  0  0
 38 39  1  0  0  0  0
 18 21  1  0  0  0  0
 21 22  1  0  0  0  0
 28 29  1  0  0  0  0
  7  8  1  0  0  0  0
 17 18  1  0  0  0  0
  3  4  1  0  0  0  0
  3  5  1  0  0  0  0
  3  6  1  0  0  0  0
 32 35  1  0  0  0  0
 32 36  1  0  0  0  0
 32 37  1  0  0  0  0
 11 14  1  0  0  0  0
 11 15  1  0  0  0  0
 11 16  1  0  0  0  0
 39 41  1  0  0  0  0
 39 42  1  0  0  0  0
 39 43  1  0  0  0  0
 21 25  1  0  0  0  0
 21 26  1  0  0  0  0
 29 34  1  0  0  0  0
  8 13  1  0  0  0  0
 18 24  1  0  0  0  0
 38 40  1  0  0  0  0
  7 12  1  0  0  0  0
 28 33  1  0  0  0  0
 17 23  1  0  0  0  0
 22 27  1  0  0  0  0
M  END
$$$$

  -OEChem-05262214473D

 43 42  0     1  0  0  0  0  0999 V2000
   -2.8661   -4.7415    2.2943 C   0  0  0  0  0  0  0  0  0  0  0  0
   -2.0233   -5.5727    2.6109 O   0  0  0  0  0  0  0  0  0  0  0  0
   -4.3078   -5.0134    2.5698 C   0  0  0  0  0  0  0  0  0  0  0  0
   -4.8057   -5.5295    1.7332 H   0  0  0  0  0  0  0  0  0  0  0  0
   -4.4526   -5.6688    3.4436 H   0  0  0  0  0  0  0  0  0  0  0  0
   -4.9255   -4.1233    2.7700 H   0  0  0  0  0  0  0  0  0  0  0  0
   -2.6241   -3.5219    1.6838 N   0  0  0  0  0  0  0  0  0  0  0  0
   -1.3070   -3.0608    1.3315 C   0  0  2  0  0  0  0  0  0  0  0  0
   -1.3931   -1.5680    1.0422 C   0  0  0  0  0  0  0  0  0  0  0  0
   -2.4385   -1.0059    0.7226 O   0  0  0  0  0  0  0  0  0  0  0  0
   -0.7590   -3.8164    0.1309 C   0  0  0  0  0  0  0  0  0  0  0  0
   -3.4188   -2.9207    1.4735 H   0  0  0  0  0  0  0  0  0  0  0  0
   -0.6690   -3.2277    2.2062 H   0  0  0  0  0  0  0  0  0  0  0  0
   -1.3852   -3.6613   -0.7553 H   0  0  0  0  0  0  0  0  0  0  0  0
    0.2542   -3.4843   -0.1182 H   0  0  0  0  0  0  0  0  0  0  0  0
   -0.7257   -4.8930    0.3300 H   0  0  0  0  0  0  0  0  0  0  0  0
   -0.1563   -0.9420    1.1402 N   0  0  0  0  0  0  0  0  0  0  0  0
    0.0261    0.4671    0.9001 C   0  0  2  0  0  0  0  0  0  0  0  0
   -1.0101    0.9331   -0.1205 C   0  0  0  0  0  0  0  0  0  0  0  0
   -1.2842    2.1175   -0.3035 O   0  0  0  0  0  0  0  0  0  0  0  0
    1.4646    0.8092    0.5041 C   0  0  0  0  0  0  0  0  0  0  0  0
    2.6838    0.4951    1.8222 S   0  0  0  0  0  0  0  0  0  0  0  0
    0.6533   -1.4855    1.4300 H   0  0  0  0  0  0  0  0  0  0  0  0
   -0.2026    0.9605    1.8530 H   0  0  0  0  0  0  0  0  0  0  0  0
    1.7711    0.2269   -0.3710 H   0  0  0  0  0  0  0  0  0  0  0  0
    1.5361    1.8691    0.2372 H   0  0  0  0  0  0  0  0  0  0  0  0
    3.7494    0.8983    1.1186 H   0  0  0  0  0  0  0  0  0  0  0  0
   -1.6087   -0.1290   -0.7832 N   0  0  0  0  0  0  0  0  0  0  0  0
   -2.6290    0.0555   -1.7885 C   0  0  2  0  0  0  0  0  0  0  0  0
   -3.1626   -1.3178   -2.1746 C   0  0  0  0  0  0  0  0  0  0  0  0
   -2.5257   -2.3559   -2.0082 O   0  0  0  0  0  0  0  0  0  0  0  0
   -2.0822    0.7876   -3.0041 C   0  0  0  0  0  0  0  0  0  0  0  0
   -1.2968   -1.0767   -0.5928 H   0  0  0  0  0  0  0  0  0  0  0  0
   -3.4293    0.6412   -1.3232 H   0  0  0  0  0  0  0  0  0  0  0  0
   -1.2793    0.2159   -3.4837 H   0  0  0  0  0  0  0  0  0  0  0  0
   -2.8638    0.9519   -3.7532 H   0  0  0  0  0  0  0  0  0  0  0  0
   -1.6719    1.7626   -2.7199 H   0  0  0  0  0  0  0  0  0  0  0  0
   -4.4158   -1.2433   -2.7663 N   0  0  0  0  0  0  0  0  0  0  0  0
   -5.1287   -2.4099   -3.2319 C   0  0  0  0  0  0  0  0  0  0  0  0
   -4.8776   -0.3422   -2.8468 H   0  0  0  0  0  0  0  0  0  0  0  0
   -4.8997   -2.5805   -4.2941 H   0  0  0  0  0  0  0  0  0  0  0  0
   -4.8192   -3.2871   -2.6447 H   0  0  0  0  0  0  0  0  0  0  0  0
   -6.2104   -2.2509   -3.1110 H   0  0  0  0  0  0  0  0  0  0  0  0
  1  3  1  0  0  0  0
  1  7  1  0  0  0  0
  1  2  2  0  0  0  0
 29 30  1  0  0  0  0
 30 38  1  0  0  0  0
 30 31  2  0  0  0  0
  8  9  1  0  0  0  0
  9 17  1  0  0  0  0
  9 10  2  0  0  0  0
 18 19  1  0  0  0  0
 19 28  1  0  0  0  0
 19 20  2  0  0  0  0
 29 32  1  0  0  0  0
  8 11  1  0  0  0  0
 38 39  1  0  0  0  0
 18 21  1  0  0  0  0
 21 22  1  0  0  0  0
 28 29  1  0  0  0  0
  7  8  1  0  0  0  0
 17 18  1  0  0  0  0
  3  4  1  0  0  0  0
  3  5  1  0  0  0  0
  3  6  1  0  0  0  0
 32 35  1  0  0  0  0
 32 36  1  0  0  0  0
 32 37  1  0  0  0  0
 11 14  1  0  0  0  0
 11 15  1  0  0  0  0
 11 16  1  0  0  0  0
 39 41  1  0  0  0  0
 39 42  1  0  0  0  0
 39 43  1  0  0  0  0
 21 25  1  0  0  0  0
 21 26  1  0  0  0  0
 29 34  1  0  0  0  0
  8 13  1  0  0  0  0
 18 24  1  0  0  0  0
 38 40  1  0  0  0  0
  7 12  1  0  0  0  0
 28 33  1  0  0  0  0
 17 23  1  0  0  0  0
 22 27  1  0  0  0  0
M  END
$$$$

  -OEChem-05262214473D

 43 42  0     1  0  0  0  0  0999 V2000
   -2.8661   -4.7415    2.2943 C   0  0  0  0  0  0  0  0  0  0  0  0
   -2.0233   -5.5727    2.6109 O   0  0  0  0  0  0  0  0  0  0  0  0
   -4.3078   -5.0134    2.5698 C   0  0  0  0  0  0  0  0  0  0  0  0
   -4.8057   -5.5295    1.7332 H   0  0  0  0  0  0  0  0  0  0  0  0
   -4.4526   -5.6688    3.4436 H   0  0  0  0  0  0  0  0  0  0  0  0
   -4.9255   -4.1233    2.7700 H   0  0  0  0  0  0  0  0  0  0  0  0
   -2.6241   -3.5219    1.6838 N   0  0  0  0  0  0  0  0  0  0  0  0
   -1.3070   -3.0608    1.3315 C   0  0  2  0  0  0  0  0  0  0  0  0
   -1.3931   -1.5680    1.0422 C   0  0  0  0  0  0  0  0  0  0  0  0
   -2.4385   -1.0059    0.7226 O   0  0  0  0  0  0  0  0  0  0  0  0
   -0.7590   -3.8164    0.1309 C   0  0  0  0  0  0  0  0  0  0  0  0
   -3.4188   -2.9207    1.4735 H   0  0  0  0  0  0  0  0  0  0  0  0
   -0.6690   -3.2277    2.2062 H   0  0  0  0  0  0  0  0  0  0  0  0
   -1.3852   -3.6613   -0.7553 H   0  0  0  0  0  0  0  0  0  0  0  0
    0.2542   -3.4843   -0.1182 H   0  0  0  0  0  0  0  0  0  0  0  0
   -0.7257   -4.8930    0.3300 H   0  0  0  0  0  0  0  0  0  0  0  0
   -0.1563   -0.9420    1.1402 N   0  0  0  0  0  0  0  0  0  0  0  0
    0.0261    0.4671    0.9001 C   0  0  2  0  0  0  0  0  0  0  0  0
   -1.0101    0.9331   -0.1205 C   0  0  0  0  0  0  0  0  0  0  0  0
   -1.1000    2.0994   -0.4988 O   0  0  0  0  0  0  0  0  0  0  0  0
    1.4646    0.8092    0.5041 C   0  0  0  0  0  0  0  0  0  0  0  0
    2.6838    0.4951    1.8222 S   0  0  0  0  0  0  0  0  0  0  0  0
    0.6533   -1.4855    1.4300 H   0  0  0  0  0  0  0  0  0  0  0  0
   -0.2026    0.9605    1.8530 H   0  0  0  0  0  0  0  0  0  0  0  0
    1.7711    0.2269   -0.3710 H   0  0  0  0  0  0  0  0  0  0  0  0
    1.5361    1.8691    0.2372 H   0  0  0  0  0  0  0  0  0  0  0  0
    3.7494    0.8983    1.1186 H   0  0  0  0  0  0  0  0  0  0  0  0
   -1.8365   -0.1002   -0.5388 N   0  0  0  0  0  0  0  0  0  0  0  0
   -2.9024    0.0927   -1.4940 C   0  0  2  0  0  0  0  0  0  0  0  0
   -3.6904   -1.2072   -1.5882 C   0  0  0  0  0  0  0  0  0  0  0  0
   -3.2217   -2.2999   -1.2759 O   0  0  0  0  0  0  0  0  0  0  0  0
   -2.3589    0.4987   -2.8551 C   0  0  0  0  0  0  0  0  0  0  0  0
   -1.6695   -1.0427   -0.1988 H   0  0  0  0  0  0  0  0  0  0  0  0
   -3.5468    0.8829   -1.0936 H   0  0  0  0  0  0  0  0  0  0  0  0
   -1.7109   -0.2807   -3.2723 H   0  0  0  0  0  0  0  0  0  0  0  0
   -3.1696    0.6723   -3.5703 H   0  0  0  0  0  0  0  0  0  0  0  0
   -1.7675    1.4177   -2.7803 H   0  0  0  0  0  0  0  0  0  0  0  0
   -4.9640   -1.0092   -2.1028 N   0  0  0  0  0  0  0  0  0  0  0  0
   -5.9014   -2.0900   -2.3013 C   0  0  0  0  0  0  0  0  0  0  0  0
   -5.2755   -0.0664   -2.3169 H   0  0  0  0  0  0  0  0  0  0  0  0
   -5.8052   -2.4757   -3.3269 H   0  0  0  0  0  0  0  0  0  0  0  0
   -5.6877   -2.8968   -1.5847 H   0  0  0  0  0  0  0  0  0  0  0  0
   -6.9254   -1.7208   -2.1431 H   0  0  0  0  0  0  0  0  0  0  0  0
  1  3  1  0  0  0  0
  1  7  1  0  0  0  0
  1  2  2  0  0  0  0
 29 30  1  0  0  0  0
 30 38  1  0  0  0  0
 30 31  2  0  0  0  0
  8  9  1  0  0  0  0
  9 17  1  0  0  0  0
  9 10  2  0  0  0  0
 18 19  1  0  0  0  0
 19 28  1  0  0  0  0
 19 20  2  0  0  0  0
 29 32  1  0  0  0  0
  8 11  1  0  0  0  0
 38 39  1  0  0  0  0
 18 21  1  0  0  0  0
 21 22  1  0  0  0  0
 28 29  1  0  0  0  0
  7  8  1  0  0  0  0
 17 18  1  0  0  0  0
  3  4  1  0  0  0  0
  3  5  1  0  0  0  0
  3  6  1  0  0  0  0
 32 35  1  0  0  0  0
 32 36  1  0  0  0  0
 32 37  1  0  0  0  0
 11 14  1  0  0  0  0
 11 15  1  0  0  0  0
 11 16  1  0  0  0  0
 39 41  1  0  0  0  0
 39 42  1  0  0  0  0
 39 43  1  0  0  0  0
 21 25  1  0  0  0  0
 21 26  1  0  0  0  0
 29 34  1  0  0  0  0
  8 13  1  0  0  0  0
 18 24  1  0  0  0  0
 38 40  1  0  0  0  0
  7 12  1  0  0  0  0
 28 33  1  0  0  0  0
 17 23  1  0  0  0  0
 22 27  1  0  0  0  0
M  END
$$$$

  -OEChem-05262214473D

 43 42  0     1  0  0  0  0  0999 V2000
   -2.8661   -4.7415    2.2943 C   0  0  0  0  0  0  0  0  0  0  0  0
   -2.0233   -5.5727    2.6109 O   0  0  0  0  0  0  0  0  0  0  0  0
   -4.3078   -5.0134    2.5698 C   0  0  0  0  0  0  0  0  0  0  0  0
   -4.8057   -5.5295    1.7332 H   0  0  0  0  0  0  0  0  0  0  0  0
   -4.4526   -5.6688    3.4436 H   0  0  0  0  0  0  0  0  0  0  0  0
   -4.9255   -4.1233    2.7700 H   0  0  0  0  0  0  0  0  0  0  0  0
   -2.6241   -3.5219    1.6838 N   0  0  0  0  0  0  0  0  0  0  0  0
   -1.3070   -3.0608    1.3315 C   0  0  2  0  0  0  0  0  0  0  0  0
   -1.3931   -1.5680    1.0422 C   0  0  0  0  0  0  0  0  0  0  0  0
   -2.4385   -1.0059    0.7226 O   0  0  0  0  0  0  0  0  0  0  0  0
   -0.7590   -3.8164    0.1309 C   0  0  0  0  0  0  0  0  0  0  0  0
   -3.4188   -2.9207    1.4735 H   0  0  0  0  0  0  0  0  0  0  0  0
   -0.6690   -3.2277    2.2062 H   0  0  0  0  0  0  0  0  0  0  0  0
   -1.3852   -3.6613   -0.7553 H   0  0  0  0  0  0  0  0  0  0  0  0
    0.2542   -3.4843   -0.1182 H   0  0  0  0  0  0  0  0  0  0  0  0
   -0.7257   -4.8930    0.3300 H   0  0  0  0  0  0  0  0  0  0  0  0
   -0.1563   -0.9420    1.1402 N   0  0  0  0  0  0  0  0  0  0  0  0
    0.0261    0.4671    0.9001 C   0  0  2  0  0  0  0  0  0  0  0  0
   -1.0101    0.9331   -0.1205 C   0  0  0  0  0  0  0  0  0  0  0  0
   -0.9406    2.0157   -0.6989 O   0  0  0  0  0  0  0  0  0  0  0  0
    1.4646    0.8092    0.5041 C   0  0  0  0  0  0  0  0  0  0  0  0
    2.6838    0.4951    1.8222 S   0  0  0  0  0  0  0  0  0  0  0  0
    0.6533   -1.4855    1.4300 H   0  0  0  0  0  0  0  0  0  0  0  0
   -0.2026    0.9605    1.8530 H   0  0  0  0  0  0  0  0  0  0  0  0
    1.7711    0.2269   -0.3710 H   0  0  0  0  0  0  0  0  0  0  0  0
    1.5361    1.8691    0.2372 H   0  0  0  0  0  0  0  0  0  0  0  0
    3.7494    0.8983    1.1186 H   0  0  0  0  0  0  0  0  0  0  0  0
   -2.0322    0.0099   -0.2898 N   0  0  0  0  0  0  0  0  0  0  0  0
   -3.1367    0.2276   -1.1945 C   0  0  2  0  0  0  0  0  0  0  0  0
   -4.1348   -0.9061   -0.9996 C   0  0  0  0  0  0  0  0  0  0  0  0
   -3.8265   -1.9967   -0.5235 O   0  0  0  0  0  0  0  0  0  0  0  0
   -2.6644    0.2937   -2.6385 C   0  0  0  0  0  0  0  0  0  0  0  0
   -1.9926   -0.8761    0.2052 H   0  0  0  0  0  0  0  0  0  0  0  0
   -3.6003    1.1769   -0.9049 H   0  0  0  0  0  0  0  0  0  0  0  0
   -2.1970   -0.6487   -2.9467 H   0  0  0  0  0  0  0  0  0  0  0  0
   -3.4989    0.4872   -3.3205 H   0  0  0  0  0  0  0  0  0  0  0  0
   -1.9244    1.0904   -2.7704 H   0  0  0  0  0  0  0  0  0  0  0  0
   -5.4007   -0.5718   -1.4597 N   0  0  0  0  0  0  0  0  0  0  0  0
   -6.5189   -1.4839   -1.3976 C   0  0  0  0  0  0  0  0  0  0  0  0
   -5.5703    0.3618   -1.8220 H   0  0  0  0  0  0  0  0  0  0  0  0
   -6.5853   -2.0480   -2.3396 H   0  0  0  0  0  0  0  0  0  0  0  0
   -6.3753   -2.1834   -0.5609 H   0  0  0  0  0  0  0  0  0  0  0  0
   -7.4479   -0.9151   -1.2447 H   0  0  0  0  0  0  0  0  0  0  0  0
  1  3  1  0  0  0  0
  1  7  1  0  0  0  0
  1  2  2  0  0  0  0
 29 30  1  0  0  0  0
 30 38  1  0  0  0  0
 30 31  2  0  0  0  0
  8  9  1  0  0  0  0
  9 17  1  0  0  0  0
  9 10  2  0  0  0  0
 18 19  1  0  0  0  0
 19 28  1  0  0  0  0
 19 20  2  0  0  0  0
 29 32  1  0  0  0  0
  8 11  1  0  0  0  0
 38 39  1  0  0  0  0
 18 21  1  0  0  0  0
 21 22  1  0  0  0  0
 28 29  1  0  0  0  0
  7  8  1  0  0  0  0
 17 18  1  0  0  0  0
  3  4  1  0  0  0  0
  3  5  1  0  0  0  0
  3  6  1  0  0  0  0
 32 35  1  0  0  0  0
 32 36  1  0  0  0  0
 32 37  1  0  0  0  0
 11 14  1  0  0  0  0
 11 15  1  0  0  0  0
 11 16  1  0  0  0  0
 39 41  1  0  0  0  0
 39 42  1  0  0  0  0
 39 43  1  0  0  0  0
 21 25  1  0  0  0  0
 21 26  1  0  0  0  0
 29 34  1  0  0  0  0
  8 13  1  0  0  0  0
 18 24  1  0  0  0  0
 38 40  1  0  0  0  0
  7 12  1  0  0  0  0
 28 33  1  0  0  0  0
 17 23  1  0  0  0  0
 22 27  1  0  0  0  0
M  END
$$$$

  -OEChem-05262214473D

 43 42  0     1  0  0  0  0  0999 V2000
   -2.8661   -4.7415    2.2943 C   0  0  0  0  0  0  0  0  0  0  0  0
   -2.0233   -5.5727    2.6109 O   0  0  0  0  0  0  0  0  0  0  0  0
   -4.3078   -5.0134    2.5698 C   0  0  0  0  0  0  0  0  0  0  0  0
   -4.8057   -5.5295    1.7332 H   0  0  0  0  0  0  0  0  0  0  0  0
   -4.4526   -5.6688    3.4436 H   0  0  0  0  0  0  0  0  0  0  0  0
   -4.9255   -4.1233    2.7700 H   0  0  0  0  0  0  0  0  0  0  0  0
   -2.6241   -3.5219    1.6838 N   0  0  0  0  0  0  0  0  0  0  0  0
   -1.3070   -3.0608    1.3315 C   0  0  2  0  0  0  0  0  0  0  0  0
   -1.3931   -1.5680    1.0422 C   0  0  0  0  0  0  0  0  0  0  0  0
   -2.4385   -1.0059    0.7226 O   0  0  0  0  0  0  0  0  0  0  0  0
   -0.7590   -3.8164    0.1309 C   0  0  0  0  0  0  0  0  0  0  0  0
   -3.4188   -2.9207    1.4735 H   0  0  0  0  0  0  0  0  0  0  0  0
   -0.6690   -3.2277    2.2062 H   0  0  0  0  0  0  0  0  0  0  0  0
   -1.3852   -3.6613   -0.7553 H   0  0  0  0  0  0  0  0  0  0  0  0
    0.2542   -3.4843   -0.1182 H   0  0  0  0  0  0  0  0  0  0  0  0
   -0.7257   -4.8930    0.3300 H   0  0  0  0  0  0  0  0  0  0  0  0
   -0.1563   -0.9420    1.1402 N   0  0  0  0  0  0  0  0  0  0  0  0
    0.0261    0.4671    0.9001 C   0  0  2  0  0  0  0  0  0  0  0  0
   -1.0101    0.9331   -0.1205 C   0  0  0  0  0  0  0  0  0  0  0  0
   -0.8169    1.8722   -0.8900 O   0  0  0  0  0  0  0  0  0  0  0  0
    1.4646    0.8092    0.5041 C   0  0  0  0  0  0  0  0  0  0  0  0
    2.6838    0.4951    1.8222 S   0  0  0  0  0  0  0  0  0  0  0  0
    0.6533   -1.4855    1.4300 H   0  0  0  0  0  0  0  0  0  0  0  0
   -0.2026    0.9605    1.8530 H   0  0  0  0  0  0  0  0  0  0  0  0
    1.7711    0.2269   -0.3710 H   0  0  0  0  0  0  0  0  0  0  0  0
    1.5361    1.8691    0.2372 H   0  0  0  0  0  0  0  0  0  0  0  0
    3.7494    0.8983    1.1186 H   0  0  0  0  0  0  0  0  0  0  0  0
   -2.1825    0.1939   -0.0531 N   0  0  0  0  0  0  0  0  0  0  0  0
   -3.3160    0.4511   -0.9104 C   0  0  2  0  0  0  0  0  0  0  0  0
   -4.4654   -0.4351   -0.4488 C   0  0  0  0  0  0  0  0  0  0  0  0
   -4.2988   -1.4671    0.1979 O   0  0  0  0  0  0  0  0  0  0  0  0
   -2.9778    0.1866   -2.3692 C   0  0  0  0  0  0  0  0  0  0  0  0
   -2.2439   -0.5884    0.5918 H   0  0  0  0  0  0  0  0  0  0  0  0
   -3.5863    1.5034   -0.7701 H   0  0  0  0  0  0  0  0  0  0  0  0
   -2.7044   -0.8628   -2.5293 H   0  0  0  0  0  0  0  0  0  0  0  0
   -3.8293    0.4093   -3.0207 H   0  0  0  0  0  0  0  0  0  0  0  0
   -2.1316    0.8032   -2.6911 H   0  0  0  0  0  0  0  0  0  0  0  0
   -5.6961    0.0392   -0.8808 N   0  0  0  0  0  0  0  0  0  0  0  0
   -6.9391   -0.6330   -0.5824 C   0  0  0  0  0  0  0  0  0  0  0  0
   -5.7419    0.9134   -1.3960 H   0  0  0  0  0  0  0  0  0  0  0  0
   -7.1869   -1.3266   -1.3994 H   0  0  0  0  0  0  0  0  0  0  0  0
   -6.8352   -1.1956    0.3572 H   0  0  0  0  0  0  0  0  0  0  0  0
   -7.7423    0.1113   -0.4772 H   0  0  0  0  0  0  0  0  0  0  0  0
  1  3  1  0  0  0  0
  1  7  1  0  0  0  0
  1  2  2  0  0  0  0
 29 30  1  0  0  0  0
 30 38  1  0  0  0  0
 30 31  2  0  0  0  0
  8  9  1  0  0  0  0
  9 17  1  0  0  0  0
  9 10  2  0  0  0  0
 18 19  1  0  0  0  0
 19 28  1  0  0  0  0
 19 20  2  0  0  0  0
 29 32  1  0  0  0  0
  8 11  1  0  0  0  0
 38 39  1  0  0  0  0
 18 21  1  0  0  0  0
 21 22  1  0  0  0  0
 28 29  1  0  0  0  0
  7  8  1  0  0  0  0
 17 18  1  0  0  0  0
  3  4  1  0  0  0  0
  3  5  1  0  0  0  0
  3  6  1  0  0  0  0
 32 35  1  0  0  0  0
 32 36  1  0  0  0  0
 32 37  1  0  0  0  0
 11 14  1  0  0  0  0
 11 15  1  0  0  0  0
 11 16  1  0  0  0  0
 39 41  1  0  0  0  0
 39 42  1  0  0  0  0
 39 43  1  0  0  0  0
 21 25  1  0  0  0  0
 21 26  1  0  0  0  0
 29 34  1  0  0  0  0
  8 13  1  0  0  0  0
 18 24  1  0  0  0  0
 38 40  1  0  0  0  0
  7 12  1  0  0  0  0
 28 33  1  0  0  0  0
 17 23  1  0  0  0  0
 22 27  1  0  0  0  0
M  END
$$$$

  -OEChem-05262214473D

 43 42  0     1  0  0  0  0  0999 V2000
   -2.8661   -4.7415    2.2943 C   0  0  0  0  0  0  0  0  0  0  0  0
   -2.0233   -5.5727    2.6109 O   0  0  0  0  0  0  0  0  0  0  0  0
   -4.3078   -5.0134    2.5698 C   0  0  0  0  0  0  0  0  0  0  0  0
   -4.8057   -5.5295    1.7332 H   0  0  0  0  0  0  0  0  0  0  0  0
   -4.4526   -5.6688    3.4436 H   0  0  0  0  0  0  0  0  0  0  0  0
   -4.9255   -4.1233    2.7700 H   0  0  0  0  0  0  0  0  0  0  0  0
   -2.6241   -3.5219    1.6838 N   0  0  0  0  0  0  0  0  0  0  0  0
   -1.3070   -3.0608    1.3315 C   0  0  2  0  0  0  0  0  0  0  0  0
   -1.3931   -1.5680    1.0422 C   0  0  0  0  0  0  0  0  0  0  0  0
   -2.4385   -1.0059    0.7226 O   0  0  0  0  0  0  0  0  0  0  0  0
   -0.7590   -3.8164    0.1309 C   0  0  0  0  0  0  0  0  0  0  0  0
   -3.4188   -2.9207    1.4735 H   0  0  0  0  0  0  0  0  0  0  0  0
   -0.6690   -3.2277    2.2062 H   0  0  0  0  0  0  0  0  0  0  0  0
   -1.3852   -3.6613   -0.7553 H   0  0  0  0  0  0  0  0  0  0  0  0
    0.2542   -3.4843   -0.1182 H   0  0  0  0  0  0  0  0  0  0  0  0
   -0.7257   -4.8930    0.3300 H   0  0  0  0  0  0  0  0  0  0  0  0
   -0.1563   -0.9420    1.1402 N   0  0  0  0  0  0  0  0  0  0  0  0
    0.0261    0.4671    0.9001 C   0  0  2  0  0  0  0  0  0  0  0  0
   -1.0101    0.9331   -0.1205 C   0  0  0  0  0  0  0  0  0  0  0  0
   -0.7373    1.6786   -1.0592 O   0  0  0  0  0  0  0  0  0  0  0  0
    1.4646    0.8092    0.5041 C   0  0  0  0  0  0  0  0  0  0  0  0
    2.6838    0.4951    1.8222 S   0  0  0  0  0  0  0  0  0  0  0  0
    0.6533   -1.4855    1.4300 H   0  0  0  0  0  0  0  0  0  0  0  0
   -0.2026    0.9605    1.8530 H   0  0  0  0  0  0  0  0  0  0  0  0
    1.7711    0.2269   -0.3710 H   0  0  0  0  0  0  0  0  0  0  0  0
    1.5361    1.8691    0.2372 H   0  0  0  0  0  0  0  0  0  0  0  0
    3.7494    0.8983    1.1186 H   0  0  0  0  0  0  0  0  0  0  0  0
   -2.2773    0.4391    0.1550 N   0  0  0  0  0  0  0  0  0  0  0  0
   -3.4282    0.7478   -0.6610 C   0  0  2  0  0  0  0  0  0  0  0  0
   -4.6599    0.1738    0.0267 C   0  0  0  0  0  0  0  0  0  0  0  0
   -4.6065   -0.7473    0.8390 O   0  0  0  0  0  0  0  0  0  0  0  0
   -3.2778    0.1846   -2.0656 C   0  0  0  0  0  0  0  0  0  0  0  0
   -2.4064   -0.1992    0.9345 H   0  0  0  0  0  0  0  0  0  0  0  0
   -3.5057    1.8399   -0.6983 H   0  0  0  0  0  0  0  0  0  0  0  0
   -3.1986   -0.9086   -2.0484 H   0  0  0  0  0  0  0  0  0  0  0  0
   -4.1382    0.4438   -2.6913 H   0  0  0  0  0  0  0  0  0  0  0  0
   -2.3753    0.5755   -2.5477 H   0  0  0  0  0  0  0  0  0  0  0  0
   -5.8300    0.7821   -0.4056 N   0  0  0  0  0  0  0  0  0  0  0  0
   -7.1335    0.4048    0.0888 C   0  0  0  0  0  0  0  0  0  0  0  0
   -5.7785    1.5506   -1.0678 H   0  0  0  0  0  0  0  0  0  0  0  0
   -7.5689   -0.3605   -0.5704 H   0  0  0  0  0  0  0  0  0  0  0  0
   -7.0362   -0.0006    1.1068 H   0  0  0  0  0  0  0  0  0  0  0  0
   -7.7885    1.2884    0.1072 H   0  0  0  0  0  0  0  0  0  0  0  0
  1  3  1  0  0  0  0
  1  7  1  0  0  0  0
  1  2  2  0  0  0  0
 29 30  1  0  0  0  0
 30 38  1  0  0  0  0
 30 31  2  0  0  0  0
  8  9  1  0  0  0  0
  9 17  1  0  0  0  0
  9 10  2  0  0  0  0
 18 19  1  0  0  0  0
 19 28  1  0  0  0  0
 19 20  2  0  0  0  0
 29 32  1  0  0  0  0
  8 11  1  0  0  0  0
 38 39  1  0  0  0  0
 18 21  1  0  0  0  0
 21 22  1  0  0  0  0
 28 29  1  0  0  0  0
  7  8  1  0  0  0  0
 17 18  1  0  0  0  0
  3  4  1  0  0  0  0
  3  5  1  0  0  0  0
  3  6  1  0  0  0  0
 32 35  1  0  0  0  0
 32 36  1  0  0  0  0
 32 37  1  0  0  0  0
 11 14  1  0  0  0  0
 11 15  1  0  0  0  0
 11 16  1  0  0  0  0
 39 41  1  0  0  0  0
 39 42  1  0  0  0  0
 39 43  1  0  0  0  0
 21 25  1  0  0  0  0
 21 26  1  0  0  0  0
 29 34  1  0  0  0  0
  8 13  1  0  0  0  0
 18 24  1  0  0  0  0
 38 40  1  0  0  0  0
  7 12  1  0  0  0  0
 28 33  1  0  0  0  0
 17 23  1  0  0  0  0
 22 27  1  0  0  0  0
M  END
$$$$

  -OEChem-05262214473D

 43 42  0     1  0  0  0  0  0999 V2000
   -2.8661   -4.7415    2.2943 C   0  0  0  0  0  0  0  0  0  0  0  0
   -2.0233   -5.5727    2.6109 O   0  0  0  0  0  0  0  0  0  0  0  0
   -4.3078   -5.0134    2.5698 C   0  0  0  0  0  0  0  0  0  0  0  0
   -4.8057   -5.5295    1.7332 H   0  0  0  0  0  0  0  0  0  0  0  0
   -4.4526   -5.6688    3.4436 H   0  0  0  0  0  0  0  0  0  0  0  0
   -4.9255   -4.1233    2.7700 H   0  0  0  0  0  0  0  0  0  0  0  0
   -2.6241   -3.5219    1.6838 N   0  0  0  0  0  0  0  0  0  0  0  0
   -1.3070   -3.0608    1.3315 C   0  0  2  0  0  0  0  0  0  0  0  0
   -1.3931   -1.5680    1.0422 C   0  0  0  0  0  0  0  0  0  0  0  0
   -2.4385   -1.0059    0.7226 O   0  0  0  0  0  0  0  0  0  0  0  0
   -0.7590   -3.8164    0.1309 C   0  0  0  0  0  0  0  0  0  0  0  0
   -3.4188   -2.9207    1.4735 H   0  0  0  0  0  0  0  0  0  0  0  0
   -0.6690   -3.2277    2.2062 H   0  0  0  0  0  0  0  0  0  0  0  0
   -1.3852   -3.6613   -0.7553 H   0  0  0  0  0  0  0  0  0  0  0  0
    0.2542   -3.4843   -0.1182 H   0  0  0  0  0  0  0  0  0  0  0  0
   -0.7257   -4.8930    0.3300 H   0  0  0  0  0  0  0  0  0  0  0  0
   -0.1563   -0.9420    1.1402 N   0  0  0  0  0  0  0  0  0  0  0  0
    0.0261    0.4671    0.9001 C   0  0  2  0  0  0  0  0  0  0  0  0
   -1.0101    0.9331   -0.1205 C   0  0  0  0  0  0  0  0  0  0  0  0
   -0.7072    1.4481   -1.1950 O   0  0  0  0  0  0  0  0  0  0  0  0
    1.4646    0.8092    0.5041 C   0  0  0  0  0  0  0  0  0  0  0  0
    2.6838    0.4951    1.8222 S   0  0  0  0  0  0  0  0  0  0  0  0
    0.6533   -1.4855    1.4300 H   0  0  0  0  0  0  0  0  0  0  0  0
   -0.2026    0.9605    1.8530 H   0  0  0  0  0  0  0  0  0  0  0  0
    1.7711    0.2269   -0.3710 H   0  0  0  0  0  0  0  0  0  0  0  0
    1.5361    1.8691    0.2372 H   0  0  0  0  0  0  0  0  0  0  0  0
    3.7494    0.8983    1.1186 H   0  0  0  0  0  0  0  0  0  0  0  0
   -2.3099    0.7290    0.3205 N   0  0  0  0  0  0  0  0  0  0  0  0
   -3.4655    1.0977   -0.4634 C   0  0  2  0  0  0  0  0  0  0  0  0
   -4.7048    0.8791    0.3943 C   0  0  0  0  0  0  0  0  0  0  0  0
   -4.7286    0.1139    1.3561 O   0  0  0  0  0  0  0  0  0  0  0  0
   -3.5439    0.2878   -1.7482 C   0  0  0  0  0  0  0  0  0  0  0  0
   -2.4690    0.2651    1.2100 H   0  0  0  0  0  0  0  0  0  0  0  0
   -3.3639    2.1637   -0.6944 H   0  0  0  0  0  0  0  0  0  0  0  0
   -3.6460   -0.7829   -1.5368 H   0  0  0  0  0  0  0  0  0  0  0  0
   -4.4045    0.5885   -2.3548 H   0  0  0  0  0  0  0  0  0  0  0  0
   -2.6387    0.4230   -2.3499 H   0  0  0  0  0  0  0  0  0  0  0  0
   -5.7934    1.6063   -0.0665 N   0  0  0  0  0  0  0  0  0  0  0  0
   -7.0888    1.5587    0.5703 C   0  0  0  0  0  0  0  0  0  0  0  0
   -5.6779    2.2301   -0.8598 H   0  0  0  0  0  0  0  0  0  0  0  0
   -7.7054    0.7842    0.0908 H   0  0  0  0  0  0  0  0  0  0  0  0
   -6.9644    1.3200    1.6368 H   0  0  0  0  0  0  0  0  0  0  0  0
   -7.5834    2.5360    0.4686 H   0  0  0  0  0  0  0  0  0  0  0  0
  1  3  1  0  0  0  0
  1  7  1  0  0  0  0
  1  2  2  0  0  0  0
 29 30  1  0  0  0  0
 30 38  1  0  0  0  0
 30 31  2  0  0  0  0
  8  9  1  0  0  0  0
  9 17  1  0  0  0  0
  9 10  2  0  0  0  0
 18 19  1  0  0  0  0
 19 28  1  0  0  0  0
 19 20  2  0  0  0  0
 29 32  1  0  0  0  0
  8 11  1  0  0  0  0
 38 39  1  0  0  0  0
 18 21  1  0  0  0  0
 21 22  1  0  0  0  0
 28 29  1  0  0  0  0
  7  8  1  0  0  0  0
 17 18  1  0  0  0  0
  3  4  1  0  0  0  0
  3  5  1  0  0  0  0
  3  6  1  0  0  0  0
 32 35  1  0  0  0  0
 32 36  1  0  0  0  0
 32 37  1  0  0  0  0
 11 14  1  0  0  0  0
 11 15  1  0  0  0  0
 11 16  1  0  0  0  0
 39 41  1  0  0  0  0
 39 42  1  0  0  0  0
 39 43  1  0  0  0  0
 21 25  1  0  0  0  0
 21 26  1  0  0  0  0
 29 34  1  0  0  0  0
  8 13  1  0  0  0  0
 18 24  1  0  0  0  0
 38 40  1  0  0  0  0
  7 12  1  0  0  0  0
 28 33  1  0  0  0  0
 17 23  1  0  0  0  0
 22 27  1  0  0  0  0
M  END
$$$$

  -OEChem-05262214473D

 43 42  0     1  0  0  0  0  0999 V2000
   -2.8661   -4.7415    2.2943 C   0  0  0  0  0  0  0  0  0  0  0  0
   -2.0233   -5.5727    2.6109 O   0  0  0  0  0  0  0  0  0  0  0  0
   -4.3078   -5.0134    2.5698 C   0  0  0  0  0  0  0  0  0  0  0  0
   -4.8057   -5.5295    1.7332 H   0  0  0  0  0  0  0  0  0  0  0  0
   -4.4526   -5.6688    3.4436 H   0  0  0  0  0  0  0  0  0  0  0  0
   -4.9255   -4.1233    2.7700 H   0  0  0  0  0  0  0  0  0  0  0  0
   -2.6241   -3.5219    1.6838 N   0  0  0  0  0  0  0  0  0  0  0  0
   -1.3070   -3.0608    1.3315 C   0  0  2  0  0  0  0  0  0  0  0  0
   -1.3931   -1.5680    1.0422 C   0  0  0  0  0  0  0  0  0  0  0  0
   -2.4385   -1.0059    0.7226 O   0  0  0  0  0  0  0  0  0  0  0  0
   -0.7590   -3.8164    0.1309 C   0  0  0  0  0  0  0  0  0  0  0  0
   -3.4188   -2.9207    1.4735 H   0  0  0  0  0  0  0  0  0  0  0  0
   -0.6690   -3.2277    2.2062 H   0  0  0  0  0  0  0  0  0  0  0  0
   -1.3852   -3.6613   -0.7553 H   0  0  0  0  0  0  0  0  0  0  0  0
    0.2542   -3.4843   -0.1182 H   0  0  0  0  0  0  0  0  0  0  0  0
   -0.7257   -4.8930    0.3300 H   0  0  0  0  0  0  0  0  0  0  0  0
   -0.1563   -0.9420    1.1402 N   0  0  0  0  0  0  0  0  0  0  0  0
    0.0261    0.4671    0.9001 C   0  0  2  0  0  0  0  0  0  0  0  0
   -1.0101    0.9331   -0.1205 C   0  0  0  0  0  0  0  0  0  0  0  0
   -0.7288    1.1965   -1.2879 O   0  0  0  0  0  0  0  0  0  0  0  0
    1.4646    0.8092    0.5041 C   0  0  0  0  0  0  0  0  0  0  0  0
    2.6838    0.4951    1.8222 S   0  0  0  0  0  0  0  0  0  0  0  0
    0.6533   -1.4855    1.4300 H   0  0  0  0  0  0  0  0  0  0  0  0
   -0.2026    0.9605    1.8530 H   0  0  0  0  0  0  0  0  0  0  0  0
    1.7711    0.2269   -0.3710 H   0  0  0  0  0  0  0  0  0  0  0  0
    1.5361    1.8691    0.2372 H   0  0  0  0  0  0  0  0  0  0  0  0
    3.7494    0.8983    1.1186 H   0  0  0  0  0  0  0  0  0  0  0  0
   -2.2782    1.0436    0.4320 N   0  0  0  0  0  0  0  0  0  0  0  0
   -3.4254    1.4768   -0.3310 C   0  0  2  0  0  0  0  0  0  0  0  0
   -4.5973    1.6327    0.6292 C   0  0  0  0  0  0  0  0  0  0  0  0
   -4.6567    1.0576    1.7140 O   0  0  0  0  0  0  0  0  0  0  0  0
   -3.7581    0.4894   -1.4387 C   0  0  0  0  0  0  0  0  0  0  0  0
   -2.4274    0.7728    1.3995 H   0  0  0  0  0  0  0  0  0  0  0  0
   -3.1707    2.4526   -0.7587 H   0  0  0  0  0  0  0  0  0  0  0  0
   -4.0159   -0.4942   -1.0294 H   0  0  0  0  0  0  0  0  0  0  0  0
   -4.6103    0.8333   -2.0341 H   0  0  0  0  0  0  0  0  0  0  0  0
   -2.9039    0.3559   -2.1113 H   0  0  0  0  0  0  0  0  0  0  0  0
   -5.5886    2.4557    0.1134 N   0  0  0  0  0  0  0  0  0  0  0  0
   -6.8080    2.7501    0.8292 C   0  0  0  0  0  0  0  0  0  0  0  0
   -5.4467    2.9056   -0.7861 H   0  0  0  0  0  0  0  0  0  0  0  0
   -7.5871    2.0297    0.5393 H   0  0  0  0  0  0  0  0  0  0  0  0
   -6.6248    2.6762    1.9113 H   0  0  0  0  0  0  0  0  0  0  0  0
   -7.1410    3.7691    0.5824 H   0  0  0  0  0  0  0  0  0  0  0  0
  1  3  1  0  0  0  0
  1  7  1  0  0  0  0
  1  2  2  0  0  0  0
 29 30  1  0  0  0  0
 30 38  1  0  0  0  0
 30 31  2  0  0  0  0
  8  9  1  0  0  0  0
  9 17  1  0  0  0  0
  9 10  2  0  0  0  0
 18 19  1  0  0  0  0
 19 28  1  0  0  0  0
 19 20  2  0  0  0  0
 29 32  1  0  0  0  0
  8 11  1  0  0  0  0
 38 39  1  0  0  0  0
 18 21  1  0  0  0  0
 21 22  1  0  0  0  0
 28 29  1  0  0  0  0
  7  8  1  0  0  0  0
 17 18  1  0  0  0  0
  3  4  1  0  0  0  0
  3  5  1  0  0  0  0
  3  6  1  0  0  0  0
 32 35  1  0  0  0  0
 32 36  1  0  0  0  0
 32 37  1  0  0  0  0
 11 14  1  0  0  0  0
 11 15  1  0  0  0  0
 11 16  1  0  0  0  0
 39 41  1  0  0  0  0
 39 42  1  0  0  0  0
 39 43  1  0  0  0  0
 21 25  1  0  0  0  0
 21 26  1  0  0  0  0
 29 34  1  0  0  0  0
  8 13  1  0  0  0  0
 18 24  1  0  0  0  0
 38 40  1  0  0  0  0
  7 12  1  0  0  0  0
 28 33  1  0  0  0  0
 17 23  1  0  0  0  0
 22 27  1  0  0  0  0
M  END
$$$$

  -OEChem-05262214473D

 43 42  0     1  0  0  0  0  0999 V2000
   -2.8661   -4.7415    2.2943 C   0  0  0  0  0  0  0  0  0  0  0  0
   -2.0233   -5.5727    2.6109 O   0  0  0  0  0  0  0  0  0  0  0  0
   -4.3078   -5.0134    2.5698 C   0  0  0  0  0  0  0  0  0  0  0  0
   -4.8057   -5.5295    1.7332 H   0  0  0  0  0  0  0  0  0  0  0  0
   -4.4526   -5.6688    3.4436 H   0  0  0  0  0  0  0  0  0  0  0  0
   -4.9255   -4.1233    2.7700 H   0  0  0  0  0  0  0  0  0  0  0  0
   -2.6241   -3.5219    1.6838 N   0  0  0  0  0  0  0  0  0  0  0  0
   -1.3070   -3.0608    1.3315 C   0  0  2  0  0  0  0  0  0  0  0  0
   -1.3931   -1.5680    1.0422 C   0  0  0  0  0  0  0  0  0  0  0  0
   -2.4385   -1.0059    0.7226 O   0  0  0  0  0  0  0  0  0  0  0  0
   -0.7590   -3.8164    0.1309 C   0  0  0  0  0  0  0  0  0  0  0  0
   -3.4188   -2.9207    1.4735 H   0  0  0  0  0  0  0  0  0  0  0  0
   -0.6690   -3.2277    2.2062 H   0  0  0  0  0  0  0  0  0  0  0  0
   -1.3852   -3.6613   -0.7553 H   0  0  0  0  0  0  0  0  0  0  0  0
    0.2542   -3.4843   -0.1182 H   0  0  0  0  0  0  0  0  0  0  0  0
   -0.7257   -4.8930    0.3300 H   0  0  0  0  0  0  0  0  0  0  0  0
   -0.1563   -0.9420    1.1402 N   0  0  0  0  0  0  0  0  0  0  0  0
    0.0261    0.4671    0.9001 C   0  0  2  0  0  0  0  0  0  0  0  0
   -1.0101    0.9331   -0.1205 C   0  0  0  0  0  0  0  0  0  0  0  0
   -0.8005    0.9408   -1.3319 O   0  0  0  0  0  0  0  0  0  0  0  0
    1.4646    0.8092    0.5041 C   0  0  0  0  0  0  0  0  0  0  0  0
    2.6838    0.4951    1.8222 S   0  0  0  0  0  0  0  0  0  0  0  0
    0.6533   -1.4855    1.4300 H   0  0  0  0  0  0  0  0  0  0  0  0
   -0.2026    0.9605    1.8530 H   0  0  0  0  0  0  0  0  0  0  0  0
    1.7711    0.2269   -0.3710 H   0  0  0  0  0  0  0  0  0  0  0  0
    1.5361    1.8691    0.2372 H   0  0  0  0  0  0  0  0  0  0  0  0
    3.7494    0.8983    1.1186 H   0  0  0  0  0  0  0  0  0  0  0  0
   -2.1844    1.3617    0.4820 N   0  0  0  0  0  0  0  0  0  0  0  0
   -3.3107    1.8592   -0.2729 C   0  0  2  0  0  0  0  0  0  0  0  0
   -4.3445    2.3832    0.7152 C   0  0  0  0  0  0  0  0  0  0  0  0
   -4.3958    2.0196    1.8883 O   0  0  0  0  0  0  0  0  0  0  0  0
   -3.9056    0.7754   -1.1583 C   0  0  0  0  0  0  0  0  0  0  0  0
   -2.2844    1.2892    1.4902 H   0  0  0  0  0  0  0  0  0  0  0  0
   -2.9391    2.6869   -0.8868 H   0  0  0  0  0  0  0  0  0  0  0  0
   -4.2833   -0.0623   -0.5608 H   0  0  0  0  0  0  0  0  0  0  0  0
   -4.7413    1.1617   -1.7511 H   0  0  0  0  0  0  0  0  0  0  0  0
   -3.1528    0.3788   -1.8481 H   0  0  0  0  0  0  0  0  0  0  0  0
   -5.2298    3.2723    0.1219 N   0  0  0  0  0  0  0  0  0  0  0  0
   -6.3103    3.8978    0.8479 C   0  0  0  0  0  0  0  0  0  0  0  0
   -5.1007    3.5310   -0.8518 H   0  0  0  0  0  0  0  0  0  0  0  0
   -7.2219    3.2910    0.7444 H   0  0  0  0  0  0  0  0  0  0  0  0
   -6.0406    3.9757    1.9114 H   0  0  0  0  0  0  0  0  0  0  0  0
   -6.4914    4.9036    0.4409 H   0  0  0  0  0  0  0  0  0  0  0  0
  1  3  1  0  0  0  0
  1  7  1  0  0  0  0
  1  2  2  0  0  0  0
 29 30  1  0  0  0  0
 30 38  1  0  0  0  0
 30 31  2  0  0  0  0
  8  9  1  0  0  0  0
  9 17  1  0  0  0  0
  9 10  2  0  0  0  0
 18 19  1  0  0  0  0
 19 28  1  0  0  0  0
 19 20  2  0  0  0  0
 29 32  1  0  0  0  0
  8 11  1  0  0  0  0
 38 39  1  0  0  0  0
 18 21  1  0  0  0  0
 21 22  1  0  0  0  0
 28 29  1  0  0  0  0
  7  8  1  0  0  0  0
 17 18  1  0  0  0  0
  3  4  1  0  0  0  0
  3  5  1  0  0  0  0
  3  6  1  0  0  0  0
 32 35  1  0  0  0  0
 32 36  1  0  0  0  0
 32 37  1  0  0  0  0
 11 14  1  0  0  0  0
 11 15  1  0  0  0  0
 11 16  1  0  0  0  0
 39 41  1  0  0  0  0
 39 42  1  0  0  0  0
 39 43  1  0  0  0  0
 21 25  1  0  0  0  0
 21 26  1  0  0  0  0
 29 34  1  0  0  0  0
  8 13  1  0  0  0  0
 18 24  1  0  0  0  0
 38 40  1  0  0  0  0
  7 12  1  0  0  0  0
 28 33  1  0  0  0  0
 17 23  1  0  0  0  0
 22 27  1  0  0  0  0
M  END
$$$$

  -OEChem-05262214473D

 43 42  0     1  0  0  0  0  0999 V2000
   -2.8661   -4.7415    2.2943 C   0  0  0  0  0  0  0  0  0  0  0  0
   -2.0233   -5.5727    2.6109 O   0  0  0  0  0  0  0  0  0  0  0  0
   -4.3078   -5.0134    2.5698 C   0  0  0  0  0  0  0  0  0  0  0  0
   -4.8057   -5.5295    1.7332 H   0  0  0  0  0  0  0  0  0  0  0  0
   -4.4526   -5.6688    3.4436 H   0  0  0  0  0  0  0  0  0  0  0  0
   -4.9255   -4.1233    2.7700 H   0  0  0  0  0  0  0  0  0  0  0  0
   -2.6241   -3.5219    1.6838 N   0  0  0  0  0  0  0  0  0  0  0  0
   -1.3070   -3.0608    1.3315 C   0  0  2  0  0  0  0  0  0  0  0  0
   -1.3931   -1.5680    1.0422 C   0  0  0  0  0  0  0  0  0  0  0  0
   -2.4385   -1.0059    0.7226 O   0  0  0  0  0  0  0  0  0  0  0  0
   -0.7590   -3.8164    0.1309 C   0  0  0  0  0  0  0  0  0  0  0  0
   -3.4188   -2.9207    1.4735 H   0  0  0  0  0  0  0  0  0  0  0  0
   -0.6690   -3.2277    2.2062 H   0  0  0  0  0  0  0  0  0  0  0  0
   -1.3852   -3.6613   -0.7553 H   0  0  0  0  0  0  0  0  0  0  0  0
    0.2542   -3.4843   -0.1182 H   0  0  0  0  0  0  0  0  0  0  0  0
   -0.7257   -4.8930    0.3300 H   0  0  0  0  0  0  0  0  0  0  0  0
   -0.1563   -0.9420    1.1402 N   0  0  0  0  0  0  0  0  0  0  0  0
    0.0261    0.4671    0.9001 C   0  0  2  0  0  0  0  0  0  0  0  0
   -1.0101    0.9331   -0.1205 C   0  0  0  0  0  0  0  0  0  0  0  0
   -0.9175    0.6985   -1.3237 O   0  0  0  0  0  0  0  0  0  0  0  0
    1.4646    0.8092    0.5041 C   0  0  0  0  0  0  0  0  0  0  0  0
    2.6838    0.4951    1.8222 S   0  0  0  0  0  0  0  0  0  0  0  0
    0.6533   -1.4855    1.4300 H   0  0  0  0  0  0  0  0  0  0  0  0
   -0.2026    0.9605    1.8530 H   0  0  0  0  0  0  0  0  0  0  0  0
    1.7711    0.2269   -0.3710 H   0  0  0  0  0  0  0  0  0  0  0  0
    1.5361    1.8691    0.2372 H   0  0  0  0  0  0  0  0  0  0  0  0
    3.7494    0.8983    1.1186 H   0  0  0  0  0  0  0  0  0  0  0  0
   -2.0348    1.6614    0.4670 N   0  0  0  0  0  0  0  0  0  0  0  0
   -3.1291    2.2191   -0.2929 C   0  0  2  0  0  0  0  0  0  0  0  0
   -3.9637    3.0796    0.6465 C   0  0  0  0  0  0  0  0  0  0  0  0
   -3.9636    2.9342    1.8671 O   0  0  0  0  0  0  0  0  0  0  0  0
   -3.9765    1.1264   -0.9260 C   0  0  0  0  0  0  0  0  0  0  0  0
   -2.0498    1.7792    1.4757 H   0  0  0  0  0  0  0  0  0  0  0  0
   -2.6850    2.8507   -1.0700 H   0  0  0  0  0  0  0  0  0  0  0  0
   -4.4298    0.4834   -0.1628 H   0  0  0  0  0  0  0  0  0  0  0  0
   -4.7887    1.5513   -1.5251 H   0  0  0  0  0  0  0  0  0  0  0  0
   -3.3684    0.4903   -1.5782 H   0  0  0  0  0  0  0  0  0  0  0  0
   -4.7412    4.0004   -0.0417 N   0  0  0  0  0  0  0  0  0  0  0  0
   -5.6296    4.9236    0.6250 C   0  0  0  0  0  0  0  0  0  0  0  0
   -4.6635    4.0637   -1.0525 H   0  0  0  0  0  0  0  0  0  0  0  0
   -6.6349    4.4822    0.6923 H   0  0  0  0  0  0  0  0  0  0  0  0
   -5.2514    5.1300    1.6372 H   0  0  0  0  0  0  0  0  0  0  0  0
   -5.6789    5.8623    0.0536 H   0  0  0  0  0  0  0  0  0  0  0  0
  1  3  1  0  0  0  0
  1  7  1  0  0  0  0
  1  2  2  0  0  0  0
 29 30  1  0  0  0  0
 30 38  1  0  0  0  0
 30 31  2  0  0  0  0
  8  9  1  0  0  0  0
  9 17  1  0  0  0  0
  9 10  2  0  0  0  0
 18 19  1  0  0  0  0
 19 28  1  0  0  0  0
 19 20  2  0  0  0  0
 29 32  1  0  0  0  0
  8 11  1  0  0  0  0
 38 39  1  0  0  0  0
 18 21  1  0  0  0  0
 21 22  1  0  0  0  0
 28 29  1  0  0  0  0
  7  8  1  0  0  0  0
 17 18  1  0  0  0  0
  3  4  1  0  0  0  0
  3  5  1  0  0  0  0
  3  6  1  0  0  0  0
 32 35  1  0  0  0  0
 32 36  1  0  0  0  0
 32 37  1  0  0  0  0
 11 14  1  0  0  0  0
 11 15  1  0  0  0  0
 11 16  1  0  0  0  0
 39 41  1  0  0  0  0
 39 42  1  0  0  0  0
 39 43  1  0  0  0  0
 21 25  1  0  0  0  0
 21 26  1  0  0  0  0
 29 34  1  0  0  0  0
  8 13  1  0  0  0  0
 18 24  1  0  0  0  0
 38 40  1  0  0  0  0
  7 12  1  0  0  0  0
 28 33  1  0  0  0  0
 17 23  1  0  0  0  0
 22 27  1  0  0  0  0
M  END
$$$$

  -OEChem-05262214473D

 43 42  0     1  0  0  0  0  0999 V2000
   -2.8661   -4.7415    2.2943 C   0  0  0  0  0  0  0  0  0  0  0  0
   -2.0233   -5.5727    2.6109 O   0  0  0  0  0  0  0  0  0  0  0  0
   -4.3078   -5.0134    2.5698 C   0  0  0  0  0  0  0  0  0  0  0  0
   -4.8057   -5.5295    1.7332 H   0  0  0  0  0  0  0  0  0  0  0  0
   -4.4526   -5.6688    3.4436 H   0  0  0  0  0  0  0  0  0  0  0  0
   -4.9255   -4.1233    2.7700 H   0  0  0  0  0  0  0  0  0  0  0  0
   -2.6241   -3.5219    1.6838 N   0  0  0  0  0  0  0  0  0  0  0  0
   -1.3070   -3.0608    1.3315 C   0  0  2  0  0  0  0  0  0  0  0  0
   -1.3931   -1.5680    1.0422 C   0  0  0  0  0  0  0  0  0  0  0  0
   -2.4385   -1.0059    0.7226 O   0  0  0  0  0  0  0  0  0  0  0  0
   -0.7590   -3.8164    0.1309 C   0  0  0  0  0  0  0  0  0  0  0  0
   -3.4188   -2.9207    1.4735 H   0  0  0  0  0  0  0  0  0  0  0  0
   -0.6690   -3.2277    2.2062 H   0  0  0  0  0  0  0  0  0  0  0  0
   -1.3852   -3.6613   -0.7553 H   0  0  0  0  0  0  0  0  0  0  0  0
    0.2542   -3.4843   -0.1182 H   0  0  0  0  0  0  0  0  0  0  0  0
   -0.7257   -4.8930    0.3300 H   0  0  0  0  0  0  0  0  0  0  0  0
   -0.1563   -0.9420    1.1402 N   0  0  0  0  0  0  0  0  0  0  0  0
    0.0261    0.4671    0.9001 C   0  0  2  0  0  0  0  0  0  0  0  0
   -1.0101    0.9331   -0.1205 C   0  0  0  0  0  0  0  0  0  0  0  0
   -1.0717    0.4862   -1.2641 O   0  0  0  0  0  0  0  0  0  0  0  0
    1.4646    0.8092    0.5041 C   0  0  0  0  0  0  0  0  0  0  0  0
    2.6838    0.4951    1.8222 S   0  0  0  0  0  0  0  0  0  0  0  0
    0.6533   -1.4855    1.4300 H   0  0  0  0  0  0  0  0  0  0  0  0
   -0.2026    0.9605    1.8530 H   0  0  0  0  0  0  0  0  0  0  0  0
    1.7711    0.2269   -0.3710 H   0  0  0  0  0  0  0  0  0  0  0  0
    1.5361    1.8691    0.2372 H   0  0  0  0  0  0  0  0  0  0  0  0
    3.7494    0.8983    1.1186 H   0  0  0  0  0  0  0  0  0  0  0  0
   -1.8397    1.9225    0.3880 N   0  0  0  0  0  0  0  0  0  0  0  0
   -2.8931    2.5317   -0.3898 C   0  0  2  0  0  0  0  0  0  0  0  0
   -3.4808    3.6743    0.4278 C   0  0  0  0  0  0  0  0  0  0  0  0
   -3.3897    3.7393    1.6519 O   0  0  0  0  0  0  0  0  0  0  0  0
   -3.9660    1.5186   -0.7577 C   0  0  0  0  0  0  0  0  0  0  0  0
   -1.7396    2.2095    1.3572 H   0  0  0  0  0  0  0  0  0  0  0  0
   -2.4258    2.9328   -1.2958 H   0  0  0  0  0  0  0  0  0  0  0  0
   -4.4455    1.1057    0.1373 H   0  0  0  0  0  0  0  0  0  0  0  0
   -4.7493    1.9755   -1.3714 H   0  0  0  0  0  0  0  0  0  0  0  0
   -3.5362    0.6826   -1.3201 H   0  0  0  0  0  0  0  0  0  0  0  0
   -4.1563    4.5906   -0.3661 N   0  0  0  0  0  0  0  0  0  0  0  0
   -4.8122    5.7576    0.1759 C   0  0  0  0  0  0  0  0  0  0  0  0
   -4.1650    4.4675   -1.3744 H   0  0  0  0  0  0  0  0  0  0  0  0
   -5.8659    5.5221    0.3863 H   0  0  0  0  0  0  0  0  0  0  0  0
   -4.3112    6.0602    1.1073 H   0  0  0  0  0  0  0  0  0  0  0  0
   -4.7589    6.5797   -0.5529 H   0  0  0  0  0  0  0  0  0  0  0  0
  1  3  1  0  0  0  0
  1  7  1  0  0  0  0
  1  2  2  0  0  0  0
 29 30  1  0  0  0  0
 30 38  1  0  0  0  0
 30 31  2  0  0  0  0
  8  9  1  0  0  0  0
  9 17  1  0  0  0  0
  9 10  2  0  0  0  0
 18 19  1  0  0  0  0
 19 28  1  0  0  0  0
 19 20  2  0  0  0  0
 29 32  1  0  0  0  0
  8 11  1  0  0  0  0
 38 39  1  0  0  0  0
 18 21  1  0  0  0  0
 21 22  1  0  0  0  0
 28 29  1  0  0  0  0
  7  8  1  0  0  0  0
 17 18  1  0  0  0  0
  3  4  1  0  0  0  0
  3  5  1  0  0  0  0
  3  6  1  0  0  0  0
 32 35  1  0  0  0  0
 32 36  1  0  0  0  0
 32 37  1  0  0  0  0
 11 14  1  0  0  0  0
 11 15  1  0  0  0  0
 11 16  1  0  0  0  0
 39 41  1  0  0  0  0
 39 42  1  0  0  0  0
 39 43  1  0  0  0  0
 21 25  1  0  0  0  0
 21 26  1  0  0  0  0
 29 34  1  0  0  0  0
  8 13  1  0  0  0  0
 18 24  1  0  0  0  0
 38 40  1  0  0  0  0
  7 12  1  0  0  0  0
 28 33  1  0  0  0  0
 17 23  1  0  0  0  0
 22 27  1  0  0  0  0
M  END
$$$$

  -OEChem-05262214473D

 43 42  0     1  0  0  0  0  0999 V2000
   -2.8661   -4.7415    2.2943 C   0  0  0  0  0  0  0  0  0  0  0  0
   -2.0233   -5.5727    2.6109 O   0  0  0  0  0  0  0  0  0  0  0  0
   -4.3078   -5.0134    2.5698 C   0  0  0  0  0  0  0  0  0  0  0  0
   -4.8057   -5.5295    1.7332 H   0  0  0  0  0  0  0  0  0  0  0  0
   -4.4526   -5.6688    3.4436 H   0  0  0  0  0  0  0  0  0  0  0  0
   -4.9255   -4.1233    2.7700 H   0  0  0  0  0  0  0  0  0  0  0  0
   -2.6241   -3.5219    1.6838 N   0  0  0  0  0  0  0  0  0  0  0  0
   -1.3070   -3.0608    1.3315 C   0  0  2  0  0  0  0  0  0  0  0  0
   -1.3931   -1.5680    1.0422 C   0  0  0  0  0  0  0  0  0  0  0  0
   -2.4385   -1.0059    0.7226 O   0  0  0  0  0  0  0  0  0  0  0  0
   -0.7590   -3.8164    0.1309 C   0  0  0  0  0  0  0  0  0  0  0  0
   -3.4188   -2.9207    1.4735 H   0  0  0  0  0  0  0  0  0  0  0  0
   -0.6690   -3.2277    2.2062 H   0  0  0  0  0  0  0  0  0  0  0  0
   -1.3852   -3.6613   -0.7553 H   0  0  0  0  0  0  0  0  0  0  0  0
    0.2542   -3.4843   -0.1182 H   0  0  0  0  0  0  0  0  0  0  0  0
   -0.7257   -4.8930    0.3300 H   0  0  0  0  0  0  0  0  0  0  0  0
   -0.1563   -0.9420    1.1402 N   0  0  0  0  0  0  0  0  0  0  0  0
    0.0261    0.4671    0.9001 C   0  0  2  0  0  0  0  0  0  0  0  0
   -1.0101    0.9331   -0.1205 C   0  0  0  0  0  0  0  0  0  0  0  0
   -1.2527    0.3182   -1.1570 O   0  0  0  0  0  0  0  0  0  0  0  0
    1.4646    0.8092    0.5041 C   0  0  0  0  0  0  0  0  0  0  0  0
    2.6838    0.4951    1.8222 S   0  0  0  0  0  0  0  0  0  0  0  0
    0.6533   -1.4855    1.4300 H   0  0  0  0  0  0  0  0  0  0  0  0
   -0.2026    0.9605    1.8530 H   0  0  0  0  0  0  0  0  0  0  0  0
    1.7711    0.2269   -0.3710 H   0  0  0  0  0  0  0  0  0  0  0  0
    1.5361    1.8691    0.2372 H   0  0  0  0  0  0  0  0  0  0  0  0
    3.7494    0.8983    1.1186 H   0  0  0  0  0  0  0  0  0  0  0  0
   -1.6123    2.1270    0.2505 N   0  0  0  0  0  0  0  0  0  0  0  0
   -2.6187    2.7758   -0.5570 C   0  0  2  0  0  0  0  0  0  0  0  0
   -2.9289    4.1268    0.0740 C   0  0  0  0  0  0  0  0  0  0  0  0
   -2.7130    4.3799    1.2574 O   0  0  0  0  0  0  0  0  0  0  0  0
   -3.8746    1.9251   -0.6648 C   0  0  0  0  0  0  0  0  0  0  0  0
   -1.3749    2.5506    1.1427 H   0  0  0  0  0  0  0  0  0  0  0  0
   -2.1790    2.9276   -1.5487 H   0  0  0  0  0  0  0  0  0  0  0  0
   -4.3294    1.7623    0.3191 H   0  0  0  0  0  0  0  0  0  0  0  0
   -4.6258    2.4054   -1.3006 H   0  0  0  0  0  0  0  0  0  0  0  0
   -3.6446    0.9428   -1.0913 H   0  0  0  0  0  0  0  0  0  0  0  0
   -3.5149    5.0025   -0.8293 N   0  0  0  0  0  0  0  0  0  0  0  0
   -3.9139    6.3429   -0.4689 C   0  0  0  0  0  0  0  0  0  0  0  0
   -3.6390    4.7147   -1.7955 H   0  0  0  0  0  0  0  0  0  0  0  0
   -4.9674    6.3399   -0.1525 H   0  0  0  0  0  0  0  0  0  0  0  0
   -3.2840    6.7031    0.3579 H   0  0  0  0  0  0  0  0  0  0  0  0
   -3.7940    7.0071   -1.3375 H   0  0  0  0  0  0  0  0  0  0  0  0
  1  3  1  0  0  0  0
  1  7  1  0  0  0  0
  1  2  2  0  0  0  0
 29 30  1  0  0  0  0
 30 38  1  0  0  0  0
 30 31  2  0  0  0  0
  8  9  1  0  0  0  0
  9 17  1  0  0  0  0
  9 10  2  0  0  0  0
 18 19  1  0  0  0  0
 19 28  1  0  0  0  0
 19 20  2  0  0  0  0
 29 32  1  0  0  0  0
  8 11  1  0  0  0  0
 38 39  1  0  0  0  0
 18 21  1  0  0  0  0
 21 22  1  0  0  0  0
 28 29  1  0  0  0  0
  7  8  1  0  0  0  0
 17 18  1  0  0  0  0
  3  4  1  0  0  0  0
  3  5  1  0  0  0  0
  3  6  1  0  0  0  0
 32 35  1  0  0  0  0
 32 36  1  0  0  0  0
 32 37  1  0  0  0  0
 11 14  1  0  0  0  0
 11 15  1  0  0  0  0
 11 16  1  0  0  0  0
 39 41  1  0  0  0  0
 39 42  1  0  0  0  0
 39 43  1  0  0  0  0
 21 25  1  0  0  0  0
 21 26  1  0  0  0  0
 29 34  1  0  0  0  0
  8 13  1  0  0  0  0
 18 24  1  0  0  0  0
 38 40  1  0  0  0  0
  7 12  1  0  0  0  0
 28 33  1  0  0  0  0
 17 23  1  0  0  0  0
 22 27  1  0  0  0  0
M  END
$$$$

  -OEChem-05262214473D

 43 42  0     1  0  0  0  0  0999 V2000
   -2.8661   -4.7415    2.2943 C   0  0  0  0  0  0  0  0  0  0  0  0
   -2.0233   -5.5727    2.6109 O   0  0  0  0  0  0  0  0  0  0  0  0
   -4.3078   -5.0134    2.5698 C   0  0  0  0  0  0  0  0  0  0  0  0
   -4.8057   -5.5295    1.7332 H   0  0  0  0  0  0  0  0  0  0  0  0
   -4.4526   -5.6688    3.4436 H   0  0  0  0  0  0  0  0  0  0  0  0
   -4.9255   -4.1233    2.7700 H   0  0  0  0  0  0  0  0  0  0  0  0
   -2.6241   -3.5219    1.6838 N   0  0  0  0  0  0  0  0  0  0  0  0
   -1.3070   -3.0608    1.3315 C   0  0  2  0  0  0  0  0  0  0  0  0
   -1.3931   -1.5680    1.0422 C   0  0  0  0  0  0  0  0  0  0  0  0
   -2.4385   -1.0059    0.7226 O   0  0  0  0  0  0  0  0  0  0  0  0
   -0.7590   -3.8164    0.1309 C   0  0  0  0  0  0  0  0  0  0  0  0
   -3.4188   -2.9207    1.4735 H   0  0  0  0  0  0  0  0  0  0  0  0
   -0.6690   -3.2277    2.2062 H   0  0  0  0  0  0  0  0  0  0  0  0
   -1.3852   -3.6613   -0.7553 H   0  0  0  0  0  0  0  0  0  0  0  0
    0.2542   -3.4843   -0.1182 H   0  0  0  0  0  0  0  0  0  0  0  0
   -0.7257   -4.8930    0.3300 H   0  0  0  0  0  0  0  0  0  0  0  0
   -0.1563   -0.9420    1.1402 N   0  0  0  0  0  0  0  0  0  0  0  0
    0.0261    0.4671    0.9001 C   0  0  2  0  0  0  0  0  0  0  0  0
   -1.0101    0.9331   -0.1205 C   0  0  0  0  0  0  0  0  0  0  0  0
   -1.4481    0.2060   -1.0098 O   0  0  0  0  0  0  0  0  0  0  0  0
    1.4646    0.8092    0.5041 C   0  0  0  0  0  0  0  0  0  0  0  0
    2.6838    0.4951    1.8222 S   0  0  0  0  0  0  0  0  0  0  0  0
    0.6533   -1.4855    1.4300 H   0  0  0  0  0  0  0  0  0  0  0  0
   -0.2026    0.9605    1.8530 H   0  0  0  0  0  0  0  0  0  0  0  0
    1.7711    0.2269   -0.3710 H   0  0  0  0  0  0  0  0  0  0  0  0
    1.5361    1.8691    0.2372 H   0  0  0  0  0  0  0  0  0  0  0  0
    3.7494    0.8983    1.1186 H   0  0  0  0  0  0  0  0  0  0  0  0
   -1.3681    2.2611    0.0638 N   0  0  0  0  0  0  0  0  0  0  0  0
   -2.3246    2.9348   -0.7829 C   0  0  2  0  0  0  0  0  0  0  0  0
   -2.3454    4.4063   -0.3908 C   0  0  0  0  0  0  0  0  0  0  0  0
   -1.9798    4.8123    0.7104 O   0  0  0  0  0  0  0  0  0  0  0  0
   -3.7088    2.3183   -0.6537 C   0  0  0  0  0  0  0  0  0  0  0  0
   -0.9806    2.7793    0.8468 H   0  0  0  0  0  0  0  0  0  0  0  0
   -1.9614    2.8355   -1.8116 H   0  0  0  0  0  0  0  0  0  0  0  0
   -4.0893    2.4083    0.3703 H   0  0  0  0  0  0  0  0  0  0  0  0
   -4.4264    2.8117   -1.3175 H   0  0  0  0  0  0  0  0  0  0  0  0
   -3.6862    1.2530   -0.9074 H   0  0  0  0  0  0  0  0  0  0  0  0
   -2.8606    5.2080   -1.3997 N   0  0  0  0  0  0  0  0  0  0  0  0
   -2.9959    6.6397   -1.2654 C   0  0  0  0  0  0  0  0  0  0  0  0
   -3.1214    4.7885   -2.2873 H   0  0  0  0  0  0  0  0  0  0  0  0
   -4.0007    6.8797   -0.8876 H   0  0  0  0  0  0  0  0  0  0  0  0
   -2.2398    7.0148   -0.5600 H   0  0  0  0  0  0  0  0  0  0  0  0
   -2.8500    7.1153   -2.2465 H   0  0  0  0  0  0  0  0  0  0  0  0
  1  3  1  0  0  0  0
  1  7  1  0  0  0  0
  1  2  2  0  0  0  0
 29 30  1  0  0  0  0
 30 38  1  0  0  0  0
 30 31  2  0  0  0  0
  8  9  1  0  0  0  0
  9 17  1  0  0  0  0
  9 10  2  0  0  0  0
 18 19  1  0  0  0  0
 19 28  1  0  0  0  0
 19 20  2  0  0  0  0
 29 32  1  0  0  0  0
  8 11  1  0  0  0  0
 38 39  1  0  0  0  0
 18 21  1  0  0  0  0
 21 22  1  0  0  0  0
 28 29  1  0  0  0  0
  7  8  1  0  0  0  0
 17 18  1  0  0  0  0
  3  4  1  0  0  0  0
  3  5  1  0  0  0  0
  3  6  1  0  0  0  0
 32 35  1  0  0  0  0
 32 36  1  0  0  0  0
 32 37  1  0  0  0  0
 11 14  1  0  0  0  0
 11 15  1  0  0  0  0
 11 16  1  0  0  0  0
 39 41  1  0  0  0  0
 39 42  1  0  0  0  0
 39 43  1  0  0  0  0
 21 25  1  0  0  0  0
 21 26  1  0  0  0  0
 29 34  1  0  0  0  0
  8 13  1  0  0  0  0
 18 24  1  0  0  0  0
 38 40  1  0  0  0  0
  7 12  1  0  0  0  0
 28 33  1  0  0  0  0
 17 23  1  0  0  0  0
 22 27  1  0  0  0  0
M  END
$$$$

  -OEChem-05262214473D

 43 42  0     1  0  0  0  0  0999 V2000
   -2.8661   -4.7415    2.2943 C   0  0  0  0  0  0  0  0  0  0  0  0
   -2.0233   -5.5727    2.6109 O   0  0  0  0  0  0  0  0  0  0  0  0
   -4.3078   -5.0134    2.5698 C   0  0  0  0  0  0  0  0  0  0  0  0
   -4.8057   -5.5295    1.7332 H   0  0  0  0  0  0  0  0  0  0  0  0
   -4.4526   -5.6688    3.4436 H   0  0  0  0  0  0  0  0  0  0  0  0
   -4.9255   -4.1233    2.7700 H   0  0  0  0  0  0  0  0  0  0  0  0
   -2.6241   -3.5219    1.6838 N   0  0  0  0  0  0  0  0  0  0  0  0
   -1.3070   -3.0608    1.3315 C   0  0  2  0  0  0  0  0  0  0  0  0
   -1.3931   -1.5680    1.0422 C   0  0  0  0  0  0  0  0  0  0  0  0
   -2.4385   -1.0059    0.7226 O   0  0  0  0  0  0  0  0  0  0  0  0
   -0.7590   -3.8164    0.1309 C   0  0  0  0  0  0  0  0  0  0  0  0
   -3.4188   -2.9207    1.4735 H   0  0  0  0  0  0  0  0  0  0  0  0
   -0.6690   -3.2277    2.2062 H   0  0  0  0  0  0  0  0  0  0  0  0
   -1.3852   -3.6613   -0.7553 H   0  0  0  0  0  0  0  0  0  0  0  0
    0.2542   -3.4843   -0.1182 H   0  0  0  0  0  0  0  0  0  0  0  0
   -0.7257   -4.8930    0.3300 H   0  0  0  0  0  0  0  0  0  0  0  0
   -0.1563   -0.9420    1.1402 N   0  0  0  0  0  0  0  0  0  0  0  0
    0.0261    0.4671    0.9001 C   0  0  2  0  0  0  0  0  0  0  0  0
   -1.0101    0.9331   -0.1205 C   0  0  0  0  0  0  0  0  0  0  0  0
   -1.6447    0.1574   -0.8325 O   0  0  0  0  0  0  0  0  0  0  0  0
    1.4646    0.8092    0.5041 C   0  0  0  0  0  0  0  0  0  0  0  0
    2.6838    0.4951    1.8222 S   0  0  0  0  0  0  0  0  0  0  0  0
    0.6533   -1.4855    1.4300 H   0  0  0  0  0  0  0  0  0  0  0  0
   -0.2026    0.9605    1.8530 H   0  0  0  0  0  0  0  0  0  0  0  0
    1.7711    0.2269   -0.3710 H   0  0  0  0  0  0  0  0  0  0  0  0
    1.5361    1.8691    0.2372 H   0  0  0  0  0  0  0  0  0  0  0  0
    3.7494    0.8983    1.1186 H   0  0  0  0  0  0  0  0  0  0  0  0
   -1.1238    2.3156   -0.1593 N   0  0  0  0  0  0  0  0  0  0  0  0
   -2.0309    2.9979   -1.0524 C   0  0  2  0  0  0  0  0  0  0  0  0
   -1.7701    4.4938   -0.9350 C   0  0  0  0  0  0  0  0  0  0  0  0
   -1.2399    5.0071    0.0481 O   0  0  0  0  0  0  0  0  0  0  0  0
   -3.4797    2.6713   -0.7251 C   0  0  0  0  0  0  0  0  0  0  0  0
   -0.5836    2.8801    0.4896 H   0  0  0  0  0  0  0  0  0  0  0  0
   -1.7880    2.6627   -2.0666 H   0  0  0  0  0  0  0  0  0  0  0  0
   -3.7416    2.9998    0.2873 H   0  0  0  0  0  0  0  0  0  0  0  0
   -4.1650    3.1667   -1.4208 H   0  0  0  0  0  0  0  0  0  0  0  0
   -3.6582    1.5921   -0.7810 H   0  0  0  0  0  0  0  0  0  0  0  0
   -2.2382    5.1933   -2.0385 N   0  0  0  0  0  0  0  0  0  0  0  0
   -2.1208    6.6277   -2.1595 C   0  0  0  0  0  0  0  0  0  0  0  0
   -2.6476    4.6840   -2.8161 H   0  0  0  0  0  0  0  0  0  0  0  0
   -3.0316    7.1049   -1.7687 H   0  0  0  0  0  0  0  0  0  0  0  0
   -1.2497    6.9740   -1.5839 H   0  0  0  0  0  0  0  0  0  0  0  0
   -1.9913    6.8969   -3.2181 H   0  0  0  0  0  0  0  0  0  0  0  0
  1  3  1  0  0  0  0
  1  7  1  0  0  0  0
  1  2  2  0  0  0  0
 29 30  1  0  0  0  0
 30 38  1  0  0  0  0
 30 31  2  0  0  0  0
  8  9  1  0  0  0  0
  9 17  1  0  0  0  0
  9 10  2  0  0  0  0
 18 19  1  0  0  0  0
 19 28  1  0  0  0  0
 19 20  2  0  0  0  0
 29 32  1  0  0  0  0
  8 11  1  0  0  0  0
 38 39  1  0  0  0  0
 18 21  1  0  0  0  0
 21 22  1  0  0  0  0
 28 29  1  0  0  0  0
  7  8  1  0  0  0  0
 17 18  1  0  0  0  0
  3  4  1  0  0  0  0
  3  5  1  0  0  0  0
  3  6  1  0  0  0  0
 32 35  1  0  0  0  0
 32 36  1  0  0  0  0
 32 37  1  0  0  0  0
 11 14  1  0  0  0  0
 11 15  1  0  0  0  0
 11 16  1  0  0  0  0
 39 41  1  0  0  0  0
 39 42  1  0  0  0  0
 39 43  1  0  0  0  0
 21 25  1  0  0  0  0
 21 26  1  0  0  0  0
 29 34  1  0  0  0  0
  8 13  1  0  0  0  0
 18 24  1  0  0  0  0
 38 40  1  0  0  0  0
  7 12  1  0  0  0  0
 28 33  1  0  0  0  0
 17 23  1  0  0  0  0
 22 27  1  0  0  0  0
M  END
$$$$

  -OEChem-05262214473D

 43 42  0     1  0  0  0  0  0999 V2000
   -2.8661   -4.7415    2.2943 C   0  0  0  0  0  0  0  0  0  0  0  0
   -2.0233   -5.5727    2.6109 O   0  0  0  0  0  0  0  0  0  0  0  0
   -4.3078   -5.0134    2.5698 C   0  0  0  0  0  0  0  0  0  0  0  0
   -4.8057   -5.5295    1.7332 H   0  0  0  0  0  0  0  0  0  0  0  0
   -4.4526   -5.6688    3.4436 H   0  0  0  0  0  0  0  0  0  0  0  0
   -4.9255   -4.1233    2.7700 H   0  0  0  0  0  0  0  0  0  0  0  0
   -2.6241   -3.5219    1.6838 N   0  0  0  0  0  0  0  0  0  0  0  0
   -1.3070   -3.0608    1.3315 C   0  0  2  0  0  0  0  0  0  0  0  0
   -1.3931   -1.5680    1.0422 C   0  0  0  0  0  0  0  0  0  0  0  0
   -2.4385   -1.0059    0.7226 O   0  0  0  0  0  0  0  0  0  0  0  0
   -0.7590   -3.8164    0.1309 C   0  0  0  0  0  0  0  0  0  0  0  0
   -3.4188   -2.9207    1.4735 H   0  0  0  0  0  0  0  0  0  0  0  0
   -0.6690   -3.2277    2.2062 H   0  0  0  0  0  0  0  0  0  0  0  0
   -1.3852   -3.6613   -0.7553 H   0  0  0  0  0  0  0  0  0  0  0  0
    0.2542   -3.4843   -0.1182 H   0  0  0  0  0  0  0  0  0  0  0  0
   -0.7257   -4.8930    0.3300 H   0  0  0  0  0  0  0  0  0  0  0  0
   -0.1563   -0.9420    1.1402 N   0  0  0  0  0  0  0  0  0  0  0  0
    0.0261    0.4671    0.9001 C   0  0  2  0  0  0  0  0  0  0  0  0
   -1.2109    1.0119    0.1890 C   0  0  0  0  0  0  0  0  0  0  0  0
   -2.1685    0.3070   -0.1233 O   0  0  0  0  0  0  0  0  0  0  0  0
    1.3326    0.7679    0.1614 C   0  0  0  0  0  0  0  0  0  0  0  0
    2.8287    0.3563    1.1179 S   0  0  0  0  0  0  0  0  0  0  0  0
    0.6533   -1.4855    1.4300 H   0  0  0  0  0  0  0  0  0  0  0  0
    0.0689    0.9321    1.8929 H   0  0  0  0  0  0  0  0  0  0  0  0
    1.3804    0.2081   -0.7783 H   0  0  0  0  0  0  0  0  0  0  0  0
    1.3846    1.8337   -0.0859 H   0  0  0  0  0  0  0  0  0  0  0  0
    3.7001    0.7444    0.1781 H   0  0  0  0  0  0  0  0  0  0  0  0
   -1.1080    2.3699   -0.0769 N   0  0  0  0  0  0  0  0  0  0  0  0
   -2.1468    3.1124   -0.7518 C   0  0  2  0  0  0  0  0  0  0  0  0
   -1.6255    4.5195   -1.0125 C   0  0  0  0  0  0  0  0  0  0  0  0
   -0.7123    5.0272   -0.3649 O   0  0  0  0  0  0  0  0  0  0  0  0
   -3.4245    3.1501    0.0721 C   0  0  0  0  0  0  0  0  0  0  0  0
   -0.2933    2.8825    0.2472 H   0  0  0  0  0  0  0  0  0  0  0  0
   -2.3278    2.6067   -1.7065 H   0  0  0  0  0  0  0  0  0  0  0  0
   -3.2627    3.6532    1.0324 H   0  0  0  0  0  0  0  0  0  0  0  0
   -4.2197    3.6890   -0.4535 H   0  0  0  0  0  0  0  0  0  0  0  0
   -3.7817    2.1366    0.2839 H   0  0  0  0  0  0  0  0  0  0  0  0
   -2.3287    5.1573   -2.0248 N   0  0  0  0  0  0  0  0  0  0  0  0
   -2.0325    6.5055   -2.4501 C   0  0  0  0  0  0  0  0  0  0  0  0
   -3.0584    4.6536   -2.5204 H   0  0  0  0  0  0  0  0  0  0  0  0
   -2.6623    7.2135   -1.8914 H   0  0  0  0  0  0  0  0  0  0  0  0
   -0.9724    6.7262   -2.2565 H   0  0  0  0  0  0  0  0  0  0  0  0
   -2.2369    6.6036   -3.5264 H   0  0  0  0  0  0  0  0  0  0  0  0
  1  3  1  0  0  0  0
  1  7  1  0  0  0  0
  1  2  2  0  0  0  0
 29 30  1  0  0  0  0
 30 38  1  0  0  0  0
 30 31  2  0  0  0  0
  8  9  1  0  0  0  0
  9 17  1  0  0  0  0
  9 10  2  0  0  0  0
 18 19  1  0  0  0  0
 19 28  1  0  0  0  0
 19 20  2  0  0  0  0
 29 32  1  0  0  0  0
  8 11  1  0  0  0  0
 38 39  1  0  0  0  0
 18 21  1  0  0  0  0
 21 22  1  0  0  0  0
 28 29  1  0  0  0  0
  7  8  1  0  0  0  0
 17 18  1  0  0  0  0
  3  4  1  0  0  0  0
  3  5  1  0  0  0  0
  3  6  1  0  0  0  0
 32 35  1  0  0  0  0
 32 36  1  0  0  0  0
 32 37  1  0  0  0  0
 11 14  1  0  0  0  0
 11 15  1  0  0  0  0
 11 16  1  0  0  0  0
 39 41  1  0  0  0  0
 39 42  1  0  0  0  0
 39 43  1  0  0  0  0
 21 25  1  0  0  0  0
 21 26  1  0  0  0  0
 29 34  1  0  0  0  0
  8 13  1  0  0  0  0
 18 24  1  0  0  0  0
 38 40  1  0  0  0  0
  7 12  1  0  0  0  0
 28 33  1  0  0  0  0
 17 23  1  0  0  0  0
 22 27  1  0  0  0  0
M  END
$$$$

  -OEChem-05262214473D

 43 42  0     1  0  0  0  0  0999 V2000
   -2.8661   -4.7415    2.2943 C   0  0  0  0  0  0  0  0  0  0  0  0
   -2.0233   -5.5727    2.6109 O   0  0  0  0  0  0  0  0  0  0  0  0
   -4.3078   -5.0134    2.5698 C   0  0  0  0  0  0  0  0  0  0  0  0
   -4.8057   -5.5295    1.7332 H   0  0  0  0  0  0  0  0  0  0  0  0
   -4.4526   -5.6688    3.4436 H   0  0  0  0  0  0  0  0  0  0  0  0
   -4.9255   -4.1233    2.7700 H   0  0  0  0  0  0  0  0  0  0  0  0
   -2.6241   -3.5219    1.6838 N   0  0  0  0  0  0  0  0  0  0  0  0
   -1.3070   -3.0608    1.3315 C   0  0  2  0  0  0  0  0  0  0  0  0
   -1.3931   -1.5680    1.0422 C   0  0  0  0  0  0  0  0  0  0  0  0
   -2.4385   -1.0059    0.7226 O   0  0  0  0  0  0  0  0  0  0  0  0
   -0.7590   -3.8164    0.1309 C   0  0  0  0  0  0  0  0  0  0  0  0
   -3.4188   -2.9207    1.4735 H   0  0  0  0  0  0  0  0  0  0  0  0
   -0.6690   -3.2277    2.2062 H   0  0  0  0  0  0  0  0  0  0  0  0
   -1.3852   -3.6613   -0.7553 H   0  0  0  0  0  0  0  0  0  0  0  0
    0.2542   -3.4843   -0.1182 H   0  0  0  0  0  0  0  0  0  0  0  0
   -0.7257   -4.8930    0.3300 H   0  0  0  0  0  0  0  0  0  0  0  0
   -0.1563   -0.9420    1.1402 N   0  0  0  0  0  0  0  0  0  0  0  0
    0.0261    0.4671    0.9001 C   0  0  2  0  0  0  0  0  0  0  0  0
   -1.2109    1.0119    0.1890 C   0  0  0  0  0  0  0  0  0  0  0  0
   -2.2681    0.3891    0.1129 O   0  0  0  0  0  0  0  0  0  0  0  0
    1.3326    0.7679    0.1614 C   0  0  0  0  0  0  0  0  0  0  0  0
    2.8287    0.3563    1.1179 S   0  0  0  0  0  0  0  0  0  0  0  0
    0.6533   -1.4855    1.4300 H   0  0  0  0  0  0  0  0  0  0  0  0
    0.0689    0.9321    1.8929 H   0  0  0  0  0  0  0  0  0  0  0  0
    1.3804    0.2081   -0.7783 H   0  0  0  0  0  0  0  0  0  0  0  0
    1.3846    1.8337   -0.0859 H   0  0  0  0  0  0  0  0  0  0  0  0
    3.7001    0.7444    0.1781 H   0  0  0  0  0  0  0  0  0  0  0  0
   -0.9869    2.2619   -0.3704 N   0  0  0  0  0  0  0  0  0  0  0  0
   -2.0023    2.9801   -1.1046 C   0  0  2  0  0  0  0  0  0  0  0  0
   -1.3588    4.2241   -1.7027 C   0  0  0  0  0  0  0  0  0  0  0  0
   -0.3321    4.7298   -1.2542 O   0  0  0  0  0  0  0  0  0  0  0  0
   -3.1742    3.3512   -0.2092 C   0  0  0  0  0  0  0  0  0  0  0  0
   -0.0909    2.7191   -0.2300 H   0  0  0  0  0  0  0  0  0  0  0  0
   -2.3375    2.3182   -1.9105 H   0  0  0  0  0  0  0  0  0  0  0  0
   -2.8577    4.0142    0.6043 H   0  0  0  0  0  0  0  0  0  0  0  0
   -3.9558    3.8705   -0.7736 H   0  0  0  0  0  0  0  0  0  0  0  0
   -3.6171    2.4576    0.2435 H   0  0  0  0  0  0  0  0  0  0  0  0
   -2.0897    4.7282   -2.7694 N   0  0  0  0  0  0  0  0  0  0  0  0
   -1.6925    5.9109   -3.4970 C   0  0  0  0  0  0  0  0  0  0  0  0
   -2.9186    4.2335   -3.0853 H   0  0  0  0  0  0  0  0  0  0  0  0
   -2.1777    6.7939   -3.0556 H   0  0  0  0  0  0  0  0  0  0  0  0
   -0.6000    6.0264   -3.4404 H   0  0  0  0  0  0  0  0  0  0  0  0
   -1.9968    5.8132   -4.5496 H   0  0  0  0  0  0  0  0  0  0  0  0
  1  3  1  0  0  0  0
  1  7  1  0  0  0  0
  1  2  2  0  0  0  0
 29 30  1  0  0  0  0
 30 38  1  0  0  0  0
 30 31  2  0  0  0  0
  8  9  1  0  0  0  0
  9 17  1  0  0  0  0
  9 10  2  0  0  0  0
 18 19  1  0  0  0  0
 19 28  1  0  0  0  0
 19 20  2  0  0  0  0
 29 32  1  0  0  0  0
  8 11  1  0  0  0  0
 38 39  1  0  0  0  0
 18 21  1  0  0  0  0
 21 22  1  0  0  0  0
 28 29  1  0  0  0  0
  7  8  1  0  0  0  0
 17 18  1  0  0  0  0
  3  4  1  0  0  0  0
  3  5  1  0  0  0  0
  3  6  1  0  0  0  0
 32 35  1  0  0  0  0
 32 36  1  0  0  0  0
 32 37  1  0  0  0  0
 11 14  1  0  0  0  0
 11 15  1  0  0  0  0
 11 16  1  0  0  0  0
 39 41  1  0  0  0  0
 39 42  1  0  0  0  0
 39 43  1  0  0  0  0
 21 25  1  0  0  0  0
 21 26  1  0  0  0  0
 29 34  1  0  0  0  0
  8 13  1  0  0  0  0
 18 24  1  0  0  0  0
 38 40  1  0  0  0  0
  7 12  1  0  0  0  0
 28 33  1  0  0  0  0
 17 23  1  0  0  0  0
 22 27  1  0  0  0  0
M  END
$$$$

  -OEChem-05262214473D

 43 42  0     1  0  0  0  0  0999 V2000
   -2.8661   -4.7415    2.2943 C   0  0  0  0  0  0  0  0  0  0  0  0
   -2.0233   -5.5727    2.6109 O   0  0  0  0  0  0  0  0  0  0  0  0
   -4.3078   -5.0134    2.5698 C   0  0  0  0  0  0  0  0  0  0  0  0
   -4.8057   -5.5295    1.7332 H   0  0  0  0  0  0  0  0  0  0  0  0
   -4.4526   -5.6688    3.4436 H   0  0  0  0  0  0  0  0  0  0  0  0
   -4.9255   -4.1233    2.7700 H   0  0  0  0  0  0  0  0  0  0  0  0
   -2.6241   -3.5219    1.6838 N   0  0  0  0  0  0  0  0  0  0  0  0
   -1.3070   -3.0608    1.3315 C   0  0  2  0  0  0  0  0  0  0  0  0
   -1.3931   -1.5680    1.0422 C   0  0  0  0  0  0  0  0  0  0  0  0
   -2.4385   -1.0059    0.7226 O   0  0  0  0  0  0  0  0  0  0  0  0
   -0.7590   -3.8164    0.1309 C   0  0  0  0  0  0  0  0  0  0  0  0
   -3.4188   -2.9207    1.4735 H   0  0  0  0  0  0  0  0  0  0  0  0
   -0.6690   -3.2277    2.2062 H   0  0  0  0  0  0  0  0  0  0  0  0
   -1.3852   -3.6613   -0.7553 H   0  0  0  0  0  0  0  0  0  0  0  0
    0.2542   -3.4843   -0.1182 H   0  0  0  0  0  0  0  0  0  0  0  0
   -0.7257   -4.8930    0.3300 H   0  0  0  0  0  0  0  0  0  0  0  0
   -0.1563   -0.9420    1.1402 N   0  0  0  0  0  0  0  0  0  0  0  0
    0.0261    0.4671    0.9001 C   0  0  2  0  0  0  0  0  0  0  0  0
   -1.2109    1.0119    0.1890 C   0  0  0  0  0  0  0  0  0  0  0  0
   -2.3327    0.5299    0.3330 O   0  0  0  0  0  0  0  0  0  0  0  0
    1.3326    0.7679    0.1614 C   0  0  0  0  0  0  0  0  0  0  0  0
    2.8287    0.3563    1.1179 S   0  0  0  0  0  0  0  0  0  0  0  0
    0.6533   -1.4855    1.4300 H   0  0  0  0  0  0  0  0  0  0  0  0
    0.0689    0.9321    1.8929 H   0  0  0  0  0  0  0  0  0  0  0  0
    1.3804    0.2081   -0.7783 H   0  0  0  0  0  0  0  0  0  0  0  0
    1.3846    1.8337   -0.0859 H   0  0  0  0  0  0  0  0  0  0  0  0
    3.7001    0.7444    0.1781 H   0  0  0  0  0  0  0  0  0  0  0  0
   -0.9101    2.0814   -0.6424 N   0  0  0  0  0  0  0  0  0  0  0  0
   -1.9113    2.7608   -1.4309 C   0  0  2  0  0  0  0  0  0  0  0  0
   -1.2006    3.7620   -2.3320 C   0  0  0  0  0  0  0  0  0  0  0  0
   -0.0827    4.2103   -2.0860 O   0  0  0  0  0  0  0  0  0  0  0  0
   -2.9342    3.4563   -0.5462 C   0  0  0  0  0  0  0  0  0  0  0  0
    0.0408    2.4369   -0.6754 H   0  0  0  0  0  0  0  0  0  0  0  0
   -2.4006    1.9980   -2.0462 H   0  0  0  0  0  0  0  0  0  0  0  0
   -2.4625    4.2242    0.0777 H   0  0  0  0  0  0  0  0  0  0  0  0
   -3.7085    3.9469   -1.1452 H   0  0  0  0  0  0  0  0  0  0  0  0
   -3.4232    2.7393    0.1220 H   0  0  0  0  0  0  0  0  0  0  0  0
   -1.9792    4.1288   -3.4207 N   0  0  0  0  0  0  0  0  0  0  0  0
   -1.5323    5.0761   -4.4151 C   0  0  0  0  0  0  0  0  0  0  0  0
   -2.8865    3.6924   -3.5558 H   0  0  0  0  0  0  0  0  0  0  0  0
   -1.8678    6.0861   -4.1370 H   0  0  0  0  0  0  0  0  0  0  0  0
   -0.4339    5.0573   -4.4717 H   0  0  0  0  0  0  0  0  0  0  0  0
   -1.9546    4.8063   -5.3943 H   0  0  0  0  0  0  0  0  0  0  0  0
  1  3  1  0  0  0  0
  1  7  1  0  0  0  0
  1  2  2  0  0  0  0
 29 30  1  0  0  0  0
 30 38  1  0  0  0  0
 30 31  2  0  0  0  0
  8  9  1  0  0  0  0
  9 17  1  0  0  0  0
  9 10  2  0  0  0  0
 18 19  1  0  0  0  0
 19 28  1  0  0  0  0
 19 20  2  0  0  0  0
 29 32  1  0  0  0  0
  8 11  1  0  0  0  0
 38 39  1  0  0  0  0
 18 21  1  0  0  0  0
 21 22  1  0  0  0  0
 28 29  1  0  0  0  0
  7  8  1  0  0  0  0
 17 18  1  0  0  0  0
  3  4  1  0  0  0  0
  3  5  1  0  0  0  0
  3  6  1  0  0  0  0
 32 35  1  0  0  0  0
 32 36  1  0  0  0  0
 32 37  1  0  0  0  0
 11 14  1  0  0  0  0
 11 15  1  0  0  0  0
 11 16  1  0  0  0  0
 39 41  1  0  0  0  0
 39 42  1  0  0  0  0
 39 43  1  0  0  0  0
 21 25  1  0  0  0  0
 21 26  1  0  0  0  0
 29 34  1  0  0  0  0
  8 13  1  0  0  0  0
 18 24  1  0  0  0  0
 38 40  1  0  0  0  0
  7 12  1  0  0  0  0
 28 33  1  0  0  0  0
 17 23  1  0  0  0  0
 22 27  1  0  0  0  0
M  END
$$$$

  -OEChem-05262214473D

 43 42  0     1  0  0  0  0  0999 V2000
   -2.8661   -4.7415    2.2943 C   0  0  0  0  0  0  0  0  0  0  0  0
   -2.0233   -5.5727    2.6109 O   0  0  0  0  0  0  0  0  0  0  0  0
   -4.3078   -5.0134    2.5698 C   0  0  0  0  0  0  0  0  0  0  0  0
   -4.8057   -5.5295    1.7332 H   0  0  0  0  0  0  0  0  0  0  0  0
   -4.4526   -5.6688    3.4436 H   0  0  0  0  0  0  0  0  0  0  0  0
   -4.9255   -4.1233    2.7700 H   0  0  0  0  0  0  0  0  0  0  0  0
   -2.6241   -3.5219    1.6838 N   0  0  0  0  0  0  0  0  0  0  0  0
   -1.3070   -3.0608    1.3315 C   0  0  2  0  0  0  0  0  0  0  0  0
   -1.3931   -1.5680    1.0422 C   0  0  0  0  0  0  0  0  0  0  0  0
   -2.4385   -1.0059    0.7226 O   0  0  0  0  0  0  0  0  0  0  0  0
   -0.7590   -3.8164    0.1309 C   0  0  0  0  0  0  0  0  0  0  0  0
   -3.4188   -2.9207    1.4735 H   0  0  0  0  0  0  0  0  0  0  0  0
   -0.6690   -3.2277    2.2062 H   0  0  0  0  0  0  0  0  0  0  0  0
   -1.3852   -3.6613   -0.7553 H   0  0  0  0  0  0  0  0  0  0  0  0
    0.2542   -3.4843   -0.1182 H   0  0  0  0  0  0  0  0  0  0  0  0
   -0.7257   -4.8930    0.3300 H   0  0  0  0  0  0  0  0  0  0  0  0
   -0.1563   -0.9420    1.1402 N   0  0  0  0  0  0  0  0  0  0  0  0
    0.0261    0.4671    0.9001 C   0  0  2  0  0  0  0  0  0  0  0  0
   -1.2109    1.0119    0.1890 C   0  0  0  0  0  0  0  0  0  0  0  0
   -2.3577    0.7198    0.5220 O   0  0  0  0  0  0  0  0  0  0  0  0
    1.3326    0.7679    0.1614 C   0  0  0  0  0  0  0  0  0  0  0  0
    2.8287    0.3563    1.1179 S   0  0  0  0  0  0  0  0  0  0  0  0
    0.6533   -1.4855    1.4300 H   0  0  0  0  0  0  0  0  0  0  0  0
    0.0689    0.9321    1.8929 H   0  0  0  0  0  0  0  0  0  0  0  0
    1.3804    0.2081   -0.7783 H   0  0  0  0  0  0  0  0  0  0  0  0
    1.3846    1.8337   -0.0859 H   0  0  0  0  0  0  0  0  0  0  0  0
    3.7001    0.7444    0.1781 H   0  0  0  0  0  0  0  0  0  0  0  0
   -0.8826    1.8408   -0.8743 N   0  0  0  0  0  0  0  0  0  0  0  0
   -1.8799    2.4697   -1.7085 C   0  0  2  0  0  0  0  0  0  0  0  0
   -1.1614    3.1647   -2.8576 C   0  0  0  0  0  0  0  0  0  0  0  0
    0.0188    3.5041   -2.8035 O   0  0  0  0  0  0  0  0  0  0  0  0
   -2.7208    3.4583   -0.9159 C   0  0  0  0  0  0  0  0  0  0  0  0
    0.0930    2.0550   -1.0586 H   0  0  0  0  0  0  0  0  0  0  0  0
   -2.5126    1.6678   -2.1043 H   0  0  0  0  0  0  0  0  0  0  0  0
   -2.1040    4.2692   -0.5115 H   0  0  0  0  0  0  0  0  0  0  0  0
   -3.4947    3.9131   -1.5430 H   0  0  0  0  0  0  0  0  0  0  0  0
   -3.2131    2.9627   -0.0723 H   0  0  0  0  0  0  0  0  0  0  0  0
   -2.0049    3.4000   -3.9343 N   0  0  0  0  0  0  0  0  0  0  0  0
   -1.5629    4.0581   -5.1417 C   0  0  0  0  0  0  0  0  0  0  0  0
   -2.9640    3.0673   -3.8998 H   0  0  0  0  0  0  0  0  0  0  0  0
   -1.7535    5.1385   -5.0618 H   0  0  0  0  0  0  0  0  0  0  0  0
   -0.4855    3.8851   -5.2800 H   0  0  0  0  0  0  0  0  0  0  0  0
   -2.1131    3.6516   -6.0031 H   0  0  0  0  0  0  0  0  0  0  0  0
  1  3  1  0  0  0  0
  1  7  1  0  0  0  0
  1  2  2  0  0  0  0
 29 30  1  0  0  0  0
 30 38  1  0  0  0  0
 30 31  2  0  0  0  0
  8  9  1  0  0  0  0
  9 17  1  0  0  0  0
  9 10  2  0  0  0  0
 18 19  1  0  0  0  0
 19 28  1  0  0  0  0
 19 20  2  0  0  0  0
 29 32  1  0  0  0  0
  8 11  1  0  0  0  0
 38 39  1  0  0  0  0
 18 21  1  0  0  0  0
 21 22  1  0  0  0  0
 28 29  1  0  0  0  0
  7  8  1  0  0  0  0
 17 18  1  0  0  0  0
  3  4  1  0  0  0  0
  3  5  1  0  0  0  0
  3  6  1  0  0  0  0
 32 35  1  0  0  0  0
 32 36  1  0  0  0  0
 32 37  1  0  0  0  0
 11 14  1  0  0  0  0
 11 15  1  0  0  0  0
 11 16  1  0  0  0  0
 39 41  1  0  0  0  0
 39 42  1  0  0  0  0
 39 43  1  0  0  0  0
 21 25  1  0  0  0  0
 21 26  1  0  0  0  0
 29 34  1  0  0  0  0
  8 13  1  0  0  0  0
 18 24  1  0  0  0  0
 38 40  1  0  0  0  0
  7 12  1  0  0  0  0
 28 33  1  0  0  0  0
 17 23  1  0  0  0  0
 22 27  1  0  0  0  0
M  END
$$$$

  -OEChem-05262214473D

 43 42  0     1  0  0  0  0  0999 V2000
   -2.8661   -4.7415    2.2943 C   0  0  0  0  0  0  0  0  0  0  0  0
   -2.0233   -5.5727    2.6109 O   0  0  0  0  0  0  0  0  0  0  0  0
   -4.3078   -5.0134    2.5698 C   0  0  0  0  0  0  0  0  0  0  0  0
   -4.8057   -5.5295    1.7332 H   0  0  0  0  0  0  0  0  0  0  0  0
   -4.4526   -5.6688    3.4436 H   0  0  0  0  0  0  0  0  0  0  0  0
   -4.9255   -4.1233    2.7700 H   0  0  0  0  0  0  0  0  0  0  0  0
   -2.6241   -3.5219    1.6838 N   0  0  0  0  0  0  0  0  0  0  0  0
   -1.3070   -3.0608    1.3315 C   0  0  2  0  0  0  0  0  0  0  0  0
   -1.3931   -1.5680    1.0422 C   0  0  0  0  0  0  0  0  0  0  0  0
   -2.4385   -1.0059    0.7226 O   0  0  0  0  0  0  0  0  0  0  0  0
   -0.7590   -3.8164    0.1309 C   0  0  0  0  0  0  0  0  0  0  0  0
   -3.4188   -2.9207    1.4735 H   0  0  0  0  0  0  0  0  0  0  0  0
   -0.6690   -3.2277    2.2062 H   0  0  0  0  0  0  0  0  0  0  0  0
   -1.3852   -3.6613   -0.7553 H   0  0  0  0  0  0  0  0  0  0  0  0
    0.2542   -3.4843   -0.1182 H   0  0  0  0  0  0  0  0  0  0  0  0
   -0.7257   -4.8930    0.3300 H   0  0  0  0  0  0  0  0  0  0  0  0
   -0.1563   -0.9420    1.1402 N   0  0  0  0  0  0  0  0  0  0  0  0
    0.0261    0.4671    0.9001 C   0  0  2  0  0  0  0  0  0  0  0  0
   -1.2109    1.0119    0.1890 C   0  0  0  0  0  0  0  0  0  0  0  0
   -2.3416    0.9459    0.6671 O   0  0  0  0  0  0  0  0  0  0  0  0
    1.3326    0.7679    0.1614 C   0  0  0  0  0  0  0  0  0  0  0  0
    2.8287    0.3563    1.1179 S   0  0  0  0  0  0  0  0  0  0  0  0
    0.6533   -1.4855    1.4300 H   0  0  0  0  0  0  0  0  0  0  0  0
    0.0689    0.9321    1.8929 H   0  0  0  0  0  0  0  0  0  0  0  0
    1.3804    0.2081   -0.7783 H   0  0  0  0  0  0  0  0  0  0  0  0
    1.3846    1.8337   -0.0859 H   0  0  0  0  0  0  0  0  0  0  0  0
    3.7001    0.7444    0.1781 H   0  0  0  0  0  0  0  0  0  0  0  0
   -0.9066    1.5565   -1.0505 N   0  0  0  0  0  0  0  0  0  0  0  0
   -1.9102    2.1265   -1.9186 C   0  0  2  0  0  0  0  0  0  0  0  0
   -1.2442    2.4728   -3.2437 C   0  0  0  0  0  0  0  0  0  0  0  0
   -0.0345    2.6593   -3.3579 O   0  0  0  0  0  0  0  0  0  0  0  0
   -2.5486    3.3570   -1.2932 C   0  0  0  0  0  0  0  0  0  0  0  0
    0.0619    1.5996   -1.3535 H   0  0  0  0  0  0  0  0  0  0  0  0
   -2.6659    1.3502   -2.0809 H   0  0  0  0  0  0  0  0  0  0  0  0
   -1.8067    4.1458   -1.1230 H   0  0  0  0  0  0  0  0  0  0  0  0
   -3.3290    3.7712   -1.9399 H   0  0  0  0  0  0  0  0  0  0  0  0
   -3.0012    3.1124   -0.3262 H   0  0  0  0  0  0  0  0  0  0  0  0
   -2.1649    2.5914   -4.2753 N   0  0  0  0  0  0  0  0  0  0  0  0
   -1.7823    2.9261   -5.6272 C   0  0  0  0  0  0  0  0  0  0  0  0
   -3.1460    2.4007   -4.0939 H   0  0  0  0  0  0  0  0  0  0  0  0
   -1.8426    4.0155   -5.7669 H   0  0  0  0  0  0  0  0  0  0  0  0
   -0.7511    2.5896   -5.8102 H   0  0  0  0  0  0  0  0  0  0  0  0
   -2.4616    2.4277   -6.3345 H   0  0  0  0  0  0  0  0  0  0  0  0
  1  3  1  0  0  0  0
  1  7  1  0  0  0  0
  1  2  2  0  0  0  0
 29 30  1  0  0  0  0
 30 38  1  0  0  0  0
 30 31  2  0  0  0  0
  8  9  1  0  0  0  0
  9 17  1  0  0  0  0
  9 10  2  0  0  0  0
 18 19  1  0  0  0  0
 19 28  1  0  0  0  0
 19 20  2  0  0  0  0
 29 32  1  0  0  0  0
  8 11  1  0  0  0  0
 38 39  1  0  0  0  0
 18 21  1  0  0  0  0
 21 22  1  0  0  0  0
 28 29  1  0  0  0  0
  7  8  1  0  0  0  0
 17 18  1  0  0  0  0
  3  4  1  0  0  0  0
  3  5  1  0  0  0  0
  3  6  1  0  0  0  0
 32 35  1  0  0  0  0
 32 36  1  0  0  0  0
 32 37  1  0  0  0  0
 11 14  1  0  0  0  0
 11 15  1  0  0  0  0
 11 16  1  0  0  0  0
 39 41  1  0  0  0  0
 39 42  1  0  0  0  0
 39 43  1  0  0  0  0
 21 25  1  0  0  0  0
 21 26  1  0  0  0  0
 29 34  1  0  0  0  0
  8 13  1  0  0  0  0
 18 24  1  0  0  0  0
 38 40  1  0  0  0  0
  7 12  1  0  0  0  0
 28 33  1  0  0  0  0
 17 23  1  0  0  0  0
 22 27  1  0  0  0  0
M  END
$$$$

  -OEChem-05262214473D

 43 42  0     1  0  0  0  0  0999 V2000
   -2.8661   -4.7415    2.2943 C   0  0  0  0  0  0  0  0  0  0  0  0
   -2.0233   -5.5727    2.6109 O   0  0  0  0  0  0  0  0  0  0  0  0
   -4.3078   -5.0134    2.5698 C   0  0  0  0  0  0  0  0  0  0  0  0
   -4.8057   -5.5295    1.7332 H   0  0  0  0  0  0  0  0  0  0  0  0
   -4.4526   -5.6688    3.4436 H   0  0  0  0  0  0  0  0  0  0  0  0
   -4.9255   -4.1233    2.7700 H   0  0  0  0  0  0  0  0  0  0  0  0
   -2.6241   -3.5219    1.6838 N   0  0  0  0  0  0  0  0  0  0  0  0
   -1.3070   -3.0608    1.3315 C   0  0  2  0  0  0  0  0  0  0  0  0
   -1.3931   -1.5680    1.0422 C   0  0  0  0  0  0  0  0  0  0  0  0
   -2.4385   -1.0059    0.7226 O   0  0  0  0  0  0  0  0  0  0  0  0
   -0.7590   -3.8164    0.1309 C   0  0  0  0  0  0  0  0  0  0  0  0
   -3.4188   -2.9207    1.4735 H   0  0  0  0  0  0  0  0  0  0  0  0
   -0.6690   -3.2277    2.2062 H   0  0  0  0  0  0  0  0  0  0  0  0
   -1.3852   -3.6613   -0.7553 H   0  0  0  0  0  0  0  0  0  0  0  0
    0.2542   -3.4843   -0.1182 H   0  0  0  0  0  0  0  0  0  0  0  0
   -0.7257   -4.8930    0.3300 H   0  0  0  0  0  0  0  0  0  0  0  0
   -0.1563   -0.9420    1.1402 N   0  0  0  0  0  0  0  0  0  0  0  0
    0.0261    0.4671    0.9001 C   0  0  2  0  0  0  0  0  0  0  0  0
   -1.2109    1.0119    0.1890 C   0  0  0  0  0  0  0  0  0  0  0  0
   -2.2853    1.1928    0.7584 O   0  0  0  0  0  0  0  0  0  0  0  0
    1.3326    0.7679    0.1614 C   0  0  0  0  0  0  0  0  0  0  0  0
    2.8287    0.3563    1.1179 S   0  0  0  0  0  0  0  0  0  0  0  0
    0.6533   -1.4855    1.4300 H   0  0  0  0  0  0  0  0  0  0  0  0
    0.0689    0.9321    1.8929 H   0  0  0  0  0  0  0  0  0  0  0  0
    1.3804    0.2081   -0.7783 H   0  0  0  0  0  0  0  0  0  0  0  0
    1.3846    1.8337   -0.0859 H   0  0  0  0  0  0  0  0  0  0  0  0
    3.7001    0.7444    0.1781 H   0  0  0  0  0  0  0  0  0  0  0  0
   -0.9802    1.2478   -1.1589 N   0  0  0  0  0  0  0  0  0  0  0  0
   -2.0003    1.7546   -2.0467 C   0  0  2  0  0  0  0  0  0  0  0  0
   -1.4431    1.7335   -3.4640 C   0  0  0  0  0  0  0  0  0  0  0  0
   -0.2390    1.7336   -3.7114 O   0  0  0  0  0  0  0  0  0  0  0  0
   -2.4292    3.1593   -1.6522 C   0  0  0  0  0  0  0  0  0  0  0  0
   -0.0502    1.1016   -1.5400 H   0  0  0  0  0  0  0  0  0  0  0  0
   -2.8501    1.0668   -1.9775 H   0  0  0  0  0  0  0  0  0  0  0  0
   -1.5909    3.8627   -1.7154 H   0  0  0  0  0  0  0  0  0  0  0  0
   -3.2227    3.5310   -2.3088 H   0  0  0  0  0  0  0  0  0  0  0  0
   -2.8020    3.1782   -0.6224 H   0  0  0  0  0  0  0  0  0  0  0  0
   -2.4484    1.7582   -4.4205 N   0  0  0  0  0  0  0  0  0  0  0  0
   -2.1754    1.7573   -5.8387 C   0  0  0  0  0  0  0  0  0  0  0  0
   -3.4200    1.7380   -4.1248 H   0  0  0  0  0  0  0  0  0  0  0  0
   -2.1292    2.7937   -6.2044 H   0  0  0  0  0  0  0  0  0  0  0  0
   -1.2128    1.2591   -6.0263 H   0  0  0  0  0  0  0  0  0  0  0  0
   -2.9763    1.2180   -6.3658 H   0  0  0  0  0  0  0  0  0  0  0  0
  1  3  1  0  0  0  0
  1  7  1  0  0  0  0
  1  2  2  0  0  0  0
 29 30  1  0  0  0  0
 30 38  1  0  0  0  0
 30 31  2  0  0  0  0
  8  9  1  0  0  0  0
  9 17  1  0  0  0  0
  9 10  2  0  0  0  0
 18 19  1  0  0  0  0
 19 28  1  0  0  0  0
 19 20  2  0  0  0  0
 29 32  1  0  0  0  0
  8 11  1  0  0  0  0
 38 39  1  0  0  0  0
 18 21  1  0  0  0  0
 21 22  1  0  0  0  0
 28 29  1  0  0  0  0
  7  8  1  0  0  0  0
 17 18  1  0  0  0  0
  3  4  1  0  0  0  0
  3  5  1  0  0  0  0
  3  6  1  0  0  0  0
 32 35  1  0  0  0  0
 32 36  1  0  0  0  0
 32 37  1  0  0  0  0
 11 14  1  0  0  0  0
 11 15  1  0  0  0  0
 11 16  1  0  0  0  0
 39 41  1  0  0  0  0
 39 42  1  0  0  0  0
 39 43  1  0  0  0  0
 21 25  1  0  0  0  0
 21 26  1  0  0  0  0
 29 34  1  0  0  0  0
  8 13  1  0  0  0  0
 18 24  1  0  0  0  0
 38 40  1  0  0  0  0
  7 12  1  0  0  0  0
 28 33  1  0  0  0  0
 17 23  1  0  0  0  0
 22 27  1  0  0  0  0
M  END
$$$$

  -OEChem-05262214473D

 43 42  0     1  0  0  0  0  0999 V2000
   -2.8661   -4.7415    2.2943 C   0  0  0  0  0  0  0  0  0  0  0  0
   -2.0233   -5.5727    2.6109 O   0  0  0  0  0  0  0  0  0  0  0  0
   -4.3078   -5.0134    2.5698 C   0  0  0  0  0  0  0  0  0  0  0  0
   -4.8057   -5.5295    1.7332 H   0  0  0  0  0  0  0  0  0  0  0  0
   -4.4526   -5.6688    3.4436 H   0  0  0  0  0  0  0  0  0  0  0  0
   -4.9255   -4.1233    2.7700 H   0  0  0  0  0  0  0  0  0  0  0  0
   -2.6241   -3.5219    1.6838 N   0  0  0  0  0  0  0  0  0  0  0  0
   -1.3070   -3.0608    1.3315 C   0  0  2  0  0  0  0  0  0  0  0  0
   -1.3931   -1.5680    1.0422 C   0  0  0  0  0  0  0  0  0  0  0  0
   -2.4385   -1.0059    0.7226 O   0  0  0  0  0  0  0  0  0  0  0  0
   -0.7590   -3.8164    0.1309 C   0  0  0  0  0  0  0  0  0  0  0  0
   -3.4188   -2.9207    1.4735 H   0  0  0  0  0  0  0  0  0  0  0  0
   -0.6690   -3.2277    2.2062 H   0  0  0  0  0  0  0  0  0  0  0  0
   -1.3852   -3.6613   -0.7553 H   0  0  0  0  0  0  0  0  0  0  0  0
    0.2542   -3.4843   -0.1182 H   0  0  0  0  0  0  0  0  0  0  0  0
   -0.7257   -4.8930    0.3300 H   0  0  0  0  0  0  0  0  0  0  0  0
   -0.1563   -0.9420    1.1402 N   0  0  0  0  0  0  0  0  0  0  0  0
    0.0261    0.4671    0.9001 C   0  0  2  0  0  0  0  0  0  0  0  0
   -1.2109    1.0119    0.1890 C   0  0  0  0  0  0  0  0  0  0  0  0
   -2.1928    1.4436    0.7897 O   0  0  0  0  0  0  0  0  0  0  0  0
    1.3326    0.7679    0.1614 C   0  0  0  0  0  0  0  0  0  0  0  0
    2.8287    0.3563    1.1179 S   0  0  0  0  0  0  0  0  0  0  0  0
    0.6533   -1.4855    1.4300 H   0  0  0  0  0  0  0  0  0  0  0  0
    0.0689    0.9321    1.8929 H   0  0  0  0  0  0  0  0  0  0  0  0
    1.3804    0.2081   -0.7783 H   0  0  0  0  0  0  0  0  0  0  0  0
    1.3846    1.8337   -0.0859 H   0  0  0  0  0  0  0  0  0  0  0  0
    3.7001    0.7444    0.1781 H   0  0  0  0  0  0  0  0  0  0  0  0
   -1.0986    0.9358   -1.1920 N   0  0  0  0  0  0  0  0  0  0  0  0
   -2.1440    1.3794   -2.0843 C   0  0  2  0  0  0  0  0  0  0  0  0
   -1.7447    0.9972   -3.5034 C   0  0  0  0  0  0  0  0  0  0  0  0
   -0.5807    0.7898   -3.8399 O   0  0  0  0  0  0  0  0  0  0  0  0
   -2.3709    2.8787   -1.9686 C   0  0  0  0  0  0  0  0  0  0  0  0
   -0.2357    0.5949   -1.6054 H   0  0  0  0  0  0  0  0  0  0  0  0
   -3.0526    0.8369   -1.8013 H   0  0  0  0  0  0  0  0  0  0  0  0
   -1.4713    3.4390   -2.2481 H   0  0  0  0  0  0  0  0  0  0  0  0
   -3.1831    3.2089   -2.6247 H   0  0  0  0  0  0  0  0  0  0  0  0
   -2.6289    3.1556   -0.9407 H   0  0  0  0  0  0  0  0  0  0  0  0
   -2.8361    0.9572   -4.3598 N   0  0  0  0  0  0  0  0  0  0  0  0
   -2.7155    0.6314   -5.7617 C   0  0  0  0  0  0  0  0  0  0  0  0
   -3.7674    1.1245   -3.9905 H   0  0  0  0  0  0  0  0  0  0  0  0
   -2.5936    1.5563   -6.3444 H   0  0  0  0  0  0  0  0  0  0  0  0
   -1.8390   -0.0158   -5.9135 H   0  0  0  0  0  0  0  0  0  0  0  0
   -3.6221    0.1050   -6.0949 H   0  0  0  0  0  0  0  0  0  0  0  0
  1  3  1  0  0  0  0
  1  7  1  0  0  0  0
  1  2  2  0  0  0  0
 29 30  1  0  0  0  0
 30 38  1  0  0  0  0
 30 31  2  0  0  0  0
  8  9  1  0  0  0  0
  9 17  1  0  0  0  0
  9 10  2  0  0  0  0
 18 19  1  0  0  0  0
 19 28  1  0  0  0  0
 19 20  2  0  0  0  0
 29 32  1  0  0  0  0
  8 11  1  0  0  0  0
 38 39  1  0  0  0  0
 18 21  1  0  0  0  0
 21 22  1  0  0  0  0
 28 29  1  0  0  0  0
  7  8  1  0  0  0  0
 17 18  1  0  0  0  0
  3  4  1  0  0  0  0
  3  5  1  0  0  0  0
  3  6  1  0  0  0  0
 32 35  1  0  0  0  0
 32 36  1  0  0  0  0
 32 37  1  0  0  0  0
 11 14  1  0  0  0  0
 11 15  1  0  0  0  0
 11 16  1  0  0  0  0
 39 41  1  0  0  0  0
 39 42  1  0  0  0  0
 39 43  1  0  0  0  0
 21 25  1  0  0  0  0
 21 26  1  0  0  0  0
 29 34  1  0  0  0  0
  8 13  1  0  0  0  0
 18 24  1  0  0  0  0
 38 40  1  0  0  0  0
  7 12  1  0  0  0  0
 28 33  1  0  0  0  0
 17 23  1  0  0  0  0
 22 27  1  0  0  0  0
M  END
$$$$

  -OEChem-05262214473D

 43 42  0     1  0  0  0  0  0999 V2000
   -2.8661   -4.7415    2.2943 C   0  0  0  0  0  0  0  0  0  0  0  0
   -2.0233   -5.5727    2.6109 O   0  0  0  0  0  0  0  0  0  0  0  0
   -4.3078   -5.0134    2.5698 C   0  0  0  0  0  0  0  0  0  0  0  0
   -4.8057   -5.5295    1.7332 H   0  0  0  0  0  0  0  0  0  0  0  0
   -4.4526   -5.6688    3.4436 H   0  0  0  0  0  0  0  0  0  0  0  0
   -4.9255   -4.1233    2.7700 H   0  0  0  0  0  0  0  0  0  0  0  0
   -2.6241   -3.5219    1.6838 N   0  0  0  0  0  0  0  0  0  0  0  0
   -1.3070   -3.0608    1.3315 C   0  0  2  0  0  0  0  0  0  0  0  0
   -1.3931   -1.5680    1.0422 C   0  0  0  0  0  0  0  0  0  0  0  0
   -2.4385   -1.0059    0.7226 O   0  0  0  0  0  0  0  0  0  0  0  0
   -0.7590   -3.8164    0.1309 C   0  0  0  0  0  0  0  0  0  0  0  0
   -3.4188   -2.9207    1.4735 H   0  0  0  0  0  0  0  0  0  0  0  0
   -0.6690   -3.2277    2.2062 H   0  0  0  0  0  0  0  0  0  0  0  0
   -1.3852   -3.6613   -0.7553 H   0  0  0  0  0  0  0  0  0  0  0  0
    0.2542   -3.4843   -0.1182 H   0  0  0  0  0  0  0  0  0  0  0  0
   -0.7257   -4.8930    0.3300 H   0  0  0  0  0  0  0  0  0  0  0  0
   -0.1563   -0.9420    1.1402 N   0  0  0  0  0  0  0  0  0  0  0  0
    0.0261    0.4671    0.9001 C   0  0  2  0  0  0  0  0  0  0  0  0
   -1.2109    1.0119    0.1890 C   0  0  0  0  0  0  0  0  0  0  0  0
   -2.0704    1.6813    0.7587 O   0  0  0  0  0  0  0  0  0  0  0  0
    1.3326    0.7679    0.1614 C   0  0  0  0  0  0  0  0  0  0  0  0
    2.8287    0.3563    1.1179 S   0  0  0  0  0  0  0  0  0  0  0  0
    0.6533   -1.4855    1.4300 H   0  0  0  0  0  0  0  0  0  0  0  0
    0.0689    0.9321    1.8929 H   0  0  0  0  0  0  0  0  0  0  0  0
    1.3804    0.2081   -0.7783 H   0  0  0  0  0  0  0  0  0  0  0  0
    1.3846    1.8337   -0.0859 H   0  0  0  0  0  0  0  0  0  0  0  0
    3.7001    0.7444    0.1781 H   0  0  0  0  0  0  0  0  0  0  0  0
   -1.2535    0.6417   -1.1477 N   0  0  0  0  0  0  0  0  0  0  0  0
   -2.3314    1.0264   -2.0286 C   0  0  2  0  0  0  0  0  0  0  0  0
   -2.1283    0.3141   -3.3593 C   0  0  0  0  0  0  0  0  0  0  0  0
   -1.0363   -0.1075   -3.7346 O   0  0  0  0  0  0  0  0  0  0  0  0
   -2.3776    2.5343   -2.2207 C   0  0  0  0  0  0  0  0  0  0  0  0
   -0.4819    0.1142   -1.5452 H   0  0  0  0  0  0  0  0  0  0  0  0
   -3.2597    0.6762   -1.5641 H   0  0  0  0  0  0  0  0  0  0  0  0
   -1.4559    2.9037   -2.6849 H   0  0  0  0  0  0  0  0  0  0  0  0
   -3.2127    2.8267   -2.8658 H   0  0  0  0  0  0  0  0  0  0  0  0
   -2.4939    3.0463   -1.2594 H   0  0  0  0  0  0  0  0  0  0  0  0
   -3.3014    0.2428   -4.0975 N   0  0  0  0  0  0  0  0  0  0  0  0
   -3.3657   -0.3749   -5.4014 C   0  0  0  0  0  0  0  0  0  0  0  0
   -4.1645    0.6019   -3.7000 H   0  0  0  0  0  0  0  0  0  0  0  0
   -3.2042    0.3877   -6.1774 H   0  0  0  0  0  0  0  0  0  0  0  0
   -2.5872   -1.1480   -5.4795 H   0  0  0  0  0  0  0  0  0  0  0  0
   -4.3550   -0.8355   -5.5404 H   0  0  0  0  0  0  0  0  0  0  0  0
  1  3  1  0  0  0  0
  1  7  1  0  0  0  0
  1  2  2  0  0  0  0
 29 30  1  0  0  0  0
 30 38  1  0  0  0  0
 30 31  2  0  0  0  0
  8  9  1  0  0  0  0
  9 17  1  0  0  0  0
  9 10  2  0  0  0  0
 18 19  1  0  0  0  0
 19 28  1  0  0  0  0
 19 20  2  0  0  0  0
 29 32  1  0  0  0  0
  8 11  1  0  0  0  0
 38 39  1  0  0  0  0
 18 21  1  0  0  0  0
 21 22  1  0  0  0  0
 28 29  1  0  0  0  0
  7  8  1  0  0  0  0
 17 18  1  0  0  0  0
  3  4  1  0  0  0  0
  3  5  1  0  0  0  0
  3  6  1  0  0  0  0
 32 35  1  0  0  0  0
 32 36  1  0  0  0  0
 32 37  1  0  0  0  0
 11 14  1  0  0  0  0
 11 15  1  0  0  0  0
 11 16  1  0  0  0  0
 39 41  1  0  0  0  0
 39 42  1  0  0  0  0
 39 43  1  0  0  0  0
 21 25  1  0  0  0  0
 21 26  1  0  0  0  0
 29 34  1  0  0  0  0
  8 13  1  0  0  0  0
 18 24  1  0  0  0  0
 38 40  1  0  0  0  0
  7 12  1  0  0  0  0
 28 33  1  0  0  0  0
 17 23  1  0  0  0  0
 22 27  1  0  0  0  0
M  END
$$$$

  -OEChem-05262214473D

 43 42  0     1  0  0  0  0  0999 V2000
   -2.8661   -4.7415    2.2943 C   0  0  0  0  0  0  0  0  0  0  0  0
   -2.0233   -5.5727    2.6109 O   0  0  0  0  0  0  0  0  0  0  0  0
   -4.3078   -5.0134    2.5698 C   0  0  0  0  0  0  0  0  0  0  0  0
   -4.8057   -5.5295    1.7332 H   0  0  0  0  0  0  0  0  0  0  0  0
   -4.4526   -5.6688    3.4436 H   0  0  0  0  0  0  0  0  0  0  0  0
   -4.9255   -4.1233    2.7700 H   0  0  0  0  0  0  0  0  0  0  0  0
   -2.6241   -3.5219    1.6838 N   0  0  0  0  0  0  0  0  0  0  0  0
   -1.3070   -3.0608    1.3315 C   0  0  2  0  0  0  0  0  0  0  0  0
   -1.3931   -1.5680    1.0422 C   0  0  0  0  0  0  0  0  0  0  0  0
   -2.4385   -1.0059    0.7226 O   0  0  0  0  0  0  0  0  0  0  0  0
   -0.7590   -3.8164    0.1309 C   0  0  0  0  0  0  0  0  0  0  0  0
   -3.4188   -2.9207    1.4735 H   0  0  0  0  0  0  0  0  0  0  0  0
   -0.6690   -3.2277    2.2062 H   0  0  0  0  0  0  0  0  0  0  0  0
   -1.3852   -3.6613   -0.7553 H   0  0  0  0  0  0  0  0  0  0  0  0
    0.2542   -3.4843   -0.1182 H   0  0  0  0  0  0  0  0  0  0  0  0
   -0.7257   -4.8930    0.3300 H   0  0  0  0  0  0  0  0  0  0  0  0
   -0.1563   -0.9420    1.1402 N   0  0  0  0  0  0  0  0  0  0  0  0
    0.0261    0.4671    0.9001 C   0  0  2  0  0  0  0  0  0  0  0  0
   -1.2109    1.0119    0.1890 C   0  0  0  0  0  0  0  0  0  0  0  0
   -1.9263    1.8896    0.6677 O   0  0  0  0  0  0  0  0  0  0  0  0
    1.3326    0.7679    0.1614 C   0  0  0  0  0  0  0  0  0  0  0  0
    2.8287    0.3563    1.1179 S   0  0  0  0  0  0  0  0  0  0  0  0
    0.6533   -1.4855    1.4300 H   0  0  0  0  0  0  0  0  0  0  0  0
    0.0689    0.9321    1.8929 H   0  0  0  0  0  0  0  0  0  0  0  0
    1.3804    0.2081   -0.7783 H   0  0  0  0  0  0  0  0  0  0  0  0
    1.3846    1.8337   -0.0859 H   0  0  0  0  0  0  0  0  0  0  0  0
    3.7001    0.7444    0.1781 H   0  0  0  0  0  0  0  0  0  0  0  0
   -1.4346    0.3857   -1.0290 N   0  0  0  0  0  0  0  0  0  0  0  0
   -2.5499    0.7198   -1.8835 C   0  0  2  0  0  0  0  0  0  0  0  0
   -2.5679   -0.2693   -3.0415 C   0  0  0  0  0  0  0  0  0  0  0  0
   -1.5749   -0.8972   -3.4028 O   0  0  0  0  0  0  0  0  0  0  0  0
   -2.4489    2.1496   -2.3914 C   0  0  0  0  0  0  0  0  0  0  0  0
   -0.7722   -0.3078   -1.3636 H   0  0  0  0  0  0  0  0  0  0  0  0
   -3.4572    0.5957   -1.2823 H   0  0  0  0  0  0  0  0  0  0  0  0
   -1.5459    2.2931   -2.9960 H   0  0  0  0  0  0  0  0  0  0  0  0
   -3.3097    2.4106   -3.0160 H   0  0  0  0  0  0  0  0  0  0  0  0
   -2.4060    2.8576   -1.5568 H   0  0  0  0  0  0  0  0  0  0  0  0
   -3.8128   -0.3361   -3.6514 N   0  0  0  0  0  0  0  0  0  0  0  0
   -4.0819   -1.1931   -4.7824 C   0  0  0  0  0  0  0  0  0  0  0  0
   -4.5842    0.2058   -3.2733 H   0  0  0  0  0  0  0  0  0  0  0  0
   -3.9194   -0.6324   -5.7148 H   0  0  0  0  0  0  0  0  0  0  0  0
   -3.4062   -2.0606   -4.7539 H   0  0  0  0  0  0  0  0  0  0  0  0
   -5.1251   -1.5393   -4.7400 H   0  0  0  0  0  0  0  0  0  0  0  0
  1  3  1  0  0  0  0
  1  7  1  0  0  0  0
  1  2  2  0  0  0  0
 29 30  1  0  0  0  0
 30 38  1  0  0  0  0
 30 31  2  0  0  0  0
  8  9  1  0  0  0  0
  9 17  1  0  0  0  0
  9 10  2  0  0  0  0
 18 19  1  0  0  0  0
 19 28  1  0  0  0  0
 19 20  2  0  0  0  0
 29 32  1  0  0  0  0
  8 11  1  0  0  0  0
 38 39  1  0  0  0  0
 18 21  1  0  0  0  0
 21 22  1  0  0  0  0
 28 29  1  0  0  0  0
  7  8  1  0  0  0  0
 17 18  1  0  0  0  0
  3  4  1  0  0  0  0
  3  5  1  0  0  0  0
  3  6  1  0  0  0  0
 32 35  1  0  0  0  0
 32 36  1  0  0  0  0
 32 37  1  0  0  0  0
 11 14  1  0  0  0  0
 11 15  1  0  0  0  0
 11 16  1  0  0  0  0
 39 41  1  0  0  0  0
 39 42  1  0  0  0  0
 39 43  1  0  0  0  0
 21 25  1  0  0  0  0
 21 26  1  0  0  0  0
 29 34  1  0  0  0  0
  8 13  1  0  0  0  0
 18 24  1  0  0  0  0
 38 40  1  0  0  0  0
  7 12  1  0  0  0  0
 28 33  1  0  0  0  0
 17 23  1  0  0  0  0
 22 27  1  0  0  0  0
M  END
$$$$

  -OEChem-05262214473D

 43 42  0     1  0  0  0  0  0999 V2000
   -2.8661   -4.7415    2.2943 C   0  0  0  0  0  0  0  0  0  0  0  0
   -2.0233   -5.5727    2.6109 O   0  0  0  0  0  0  0  0  0  0  0  0
   -4.3078   -5.0134    2.5698 C   0  0  0  0  0  0  0  0  0  0  0  0
   -4.8057   -5.5295    1.7332 H   0  0  0  0  0  0  0  0  0  0  0  0
   -4.4526   -5.6688    3.4436 H   0  0  0  0  0  0  0  0  0  0  0  0
   -4.9255   -4.1233    2.7700 H   0  0  0  0  0  0  0  0  0  0  0  0
   -2.6241   -3.5219    1.6838 N   0  0  0  0  0  0  0  0  0  0  0  0
   -1.3070   -3.0608    1.3315 C   0  0  2  0  0  0  0  0  0  0  0  0
   -1.3931   -1.5680    1.0422 C   0  0  0  0  0  0  0  0  0  0  0  0
   -2.4385   -1.0059    0.7226 O   0  0  0  0  0  0  0  0  0  0  0  0
   -0.7590   -3.8164    0.1309 C   0  0  0  0  0  0  0  0  0  0  0  0
   -3.4188   -2.9207    1.4735 H   0  0  0  0  0  0  0  0  0  0  0  0
   -0.6690   -3.2277    2.2062 H   0  0  0  0  0  0  0  0  0  0  0  0
   -1.3852   -3.6613   -0.7553 H   0  0  0  0  0  0  0  0  0  0  0  0
    0.2542   -3.4843   -0.1182 H   0  0  0  0  0  0  0  0  0  0  0  0
   -0.7257   -4.8930    0.3300 H   0  0  0  0  0  0  0  0  0  0  0  0
   -0.1563   -0.9420    1.1402 N   0  0  0  0  0  0  0  0  0  0  0  0
    0.0261    0.4671    0.9001 C   0  0  2  0  0  0  0  0  0  0  0  0
   -1.2109    1.0119    0.1890 C   0  0  0  0  0  0  0  0  0  0  0  0
   -1.7705    2.0544    0.5228 O   0  0  0  0  0  0  0  0  0  0  0  0
    1.3326    0.7679    0.1614 C   0  0  0  0  0  0  0  0  0  0  0  0
    2.8287    0.3563    1.1179 S   0  0  0  0  0  0  0  0  0  0  0  0
    0.6533   -1.4855    1.4300 H   0  0  0  0  0  0  0  0  0  0  0  0
    0.0689    0.9321    1.8929 H   0  0  0  0  0  0  0  0  0  0  0  0
    1.3804    0.2081   -0.7783 H   0  0  0  0  0  0  0  0  0  0  0  0
    1.3846    1.8337   -0.0859 H   0  0  0  0  0  0  0  0  0  0  0  0
    3.7001    0.7444    0.1781 H   0  0  0  0  0  0  0  0  0  0  0  0
   -1.6293    0.1850   -0.8439 N   0  0  0  0  0  0  0  0  0  0  0  0
   -2.7845    0.4803   -1.6589 C   0  0  2  0  0  0  0  0  0  0  0  0
   -3.0335   -0.7132   -2.5716 C   0  0  0  0  0  0  0  0  0  0  0  0
   -2.1596   -1.5256   -2.8670 O   0  0  0  0  0  0  0  0  0  0  0  0
   -2.5798    1.7508   -2.4691 C   0  0  0  0  0  0  0  0  0  0  0  0
   -1.0867   -0.6425   -1.0729 H   0  0  0  0  0  0  0  0  0  0  0  0
   -3.6317    0.6008   -0.9749 H   0  0  0  0  0  0  0  0  0  0  0  0
   -1.7351    1.6491   -3.1602 H   0  0  0  0  0  0  0  0  0  0  0  0
   -3.4673    1.9888   -3.0648 H   0  0  0  0  0  0  0  0  0  0  0  0
   -2.3713    2.6024   -1.8126 H   0  0  0  0  0  0  0  0  0  0  0  0
   -4.3353   -0.7402   -3.0519 N   0  0  0  0  0  0  0  0  0  0  0  0
   -4.8150   -1.7673   -3.9469 C   0  0  0  0  0  0  0  0  0  0  0  0
   -4.9980   -0.0367   -2.7393 H   0  0  0  0  0  0  0  0  0  0  0  0
   -4.6904   -1.4347   -4.9880 H   0  0  0  0  0  0  0  0  0  0  0  0
   -4.2402   -2.6913   -3.7861 H   0  0  0  0  0  0  0  0  0  0  0  0
   -5.8799   -1.9586   -3.7482 H   0  0  0  0  0  0  0  0  0  0  0  0
  1  3  1  0  0  0  0
  1  7  1  0  0  0  0
  1  2  2  0  0  0  0
 29 30  1  0  0  0  0
 30 38  1  0  0  0  0
 30 31  2  0  0  0  0
  8  9  1  0  0  0  0
  9 17  1  0  0  0  0
  9 10  2  0  0  0  0
 18 19  1  0  0  0  0
 19 28  1  0  0  0  0
 19 20  2  0  0  0  0
 29 32  1  0  0  0  0
  8 11  1  0  0  0  0
 38 39  1  0  0  0  0
 18 21  1  0  0  0  0
 21 22  1  0  0  0  0
 28 29  1  0  0  0  0
  7  8  1  0  0  0  0
 17 18  1  0  0  0  0
  3  4  1  0  0  0  0
  3  5  1  0  0  0  0
  3  6  1  0  0  0  0
 32 35  1  0  0  0  0
 32 36  1  0  0  0  0
 32 37  1  0  0  0  0
 11 14  1  0  0  0  0
 11 15  1  0  0  0  0
 11 16  1  0  0  0  0
 39 41  1  0  0  0  0
 39 42  1  0  0  0  0
 39 43  1  0  0  0  0
 21 25  1  0  0  0  0
 21 26  1  0  0  0  0
 29 34  1  0  0  0  0
  8 13  1  0  0  0  0
 18 24  1  0  0  0  0
 38 40  1  0  0  0  0
  7 12  1  0  0  0  0
 28 33  1  0  0  0  0
 17 23  1  0  0  0  0
 22 27  1  0  0  0  0
M  END
$$$$

  -OEChem-05262214473D

 43 42  0     1  0  0  0  0  0999 V2000
   -2.8661   -4.7415    2.2943 C   0  0  0  0  0  0  0  0  0  0  0  0
   -2.0233   -5.5727    2.6109 O   0  0  0  0  0  0  0  0  0  0  0  0
   -4.3078   -5.0134    2.5698 C   0  0  0  0  0  0  0  0  0  0  0  0
   -4.8057   -5.5295    1.7332 H   0  0  0  0  0  0  0  0  0  0  0  0
   -4.4526   -5.6688    3.4436 H   0  0  0  0  0  0  0  0  0  0  0  0
   -4.9255   -4.1233    2.7700 H   0  0  0  0  0  0  0  0  0  0  0  0
   -2.6241   -3.5219    1.6838 N   0  0  0  0  0  0  0  0  0  0  0  0
   -1.3070   -3.0608    1.3315 C   0  0  2  0  0  0  0  0  0  0  0  0
   -1.3931   -1.5680    1.0422 C   0  0  0  0  0  0  0  0  0  0  0  0
   -2.4385   -1.0059    0.7226 O   0  0  0  0  0  0  0  0  0  0  0  0
   -0.7590   -3.8164    0.1309 C   0  0  0  0  0  0  0  0  0  0  0  0
   -3.4188   -2.9207    1.4735 H   0  0  0  0  0  0  0  0  0  0  0  0
   -0.6690   -3.2277    2.2062 H   0  0  0  0  0  0  0  0  0  0  0  0
   -1.3852   -3.6613   -0.7553 H   0  0  0  0  0  0  0  0  0  0  0  0
    0.2542   -3.4843   -0.1182 H   0  0  0  0  0  0  0  0  0  0  0  0
   -0.7257   -4.8930    0.3300 H   0  0  0  0  0  0  0  0  0  0  0  0
   -0.1563   -0.9420    1.1402 N   0  0  0  0  0  0  0  0  0  0  0  0
    0.0261    0.4671    0.9001 C   0  0  2  0  0  0  0  0  0  0  0  0
   -1.2109    1.0119    0.1890 C   0  0  0  0  0  0  0  0  0  0  0  0
   -1.6134    2.1644    0.3339 O   0  0  0  0  0  0  0  0  0  0  0  0
    1.3326    0.7679    0.1614 C   0  0  0  0  0  0  0  0  0  0  0  0
    2.8287    0.3563    1.1179 S   0  0  0  0  0  0  0  0  0  0  0  0
    0.6533   -1.4855    1.4300 H   0  0  0  0  0  0  0  0  0  0  0  0
    0.0689    0.9321    1.8929 H   0  0  0  0  0  0  0  0  0  0  0  0
    1.3804    0.2081   -0.7783 H   0  0  0  0  0  0  0  0  0  0  0  0
    1.3846    1.8337   -0.0859 H   0  0  0  0  0  0  0  0  0  0  0  0
    3.7001    0.7444    0.1781 H   0  0  0  0  0  0  0  0  0  0  0  0
   -1.8245    0.0535   -0.6050 N   0  0  0  0  0  0  0  0  0  0  0  0
   -3.0192    0.3243   -1.3701 C   0  0  2  0  0  0  0  0  0  0  0  0
   -3.4934   -0.9874   -1.9817 C   0  0  0  0  0  0  0  0  0  0  0  0
   -2.7507   -1.9499   -2.1638 O   0  0  0  0  0  0  0  0  0  0  0  0
   -2.7615    1.3651   -2.4485 C   0  0  0  0  0  0  0  0  0  0  0  0
   -1.4039   -0.8669   -0.6930 H   0  0  0  0  0  0  0  0  0  0  0  0
   -3.7712    0.6911   -0.6630 H   0  0  0  0  0  0  0  0  0  0  0  0
   -2.0107    1.0153   -3.1664 H   0  0  0  0  0  0  0  0  0  0  0  0
   -3.6749    1.5902   -3.0090 H   0  0  0  0  0  0  0  0  0  0  0  0
   -2.3922    2.2981   -2.0094 H   0  0  0  0  0  0  0  0  0  0  0  0
   -4.8334   -0.9419   -2.3400 N   0  0  0  0  0  0  0  0  0  0  0  0
   -5.5153   -2.0584   -2.9518 C   0  0  0  0  0  0  0  0  0  0  0  0
   -5.3776   -0.1091   -2.1345 H   0  0  0  0  0  0  0  0  0  0  0  0
   -5.4648   -1.9643   -4.0466 H   0  0  0  0  0  0  0  0  0  0  0  0
   -5.0326   -2.9971   -2.6420 H   0  0  0  0  0  0  0  0  0  0  0  0
   -6.5679   -2.0647   -2.6326 H   0  0  0  0  0  0  0  0  0  0  0  0
  1  3  1  0  0  0  0
  1  7  1  0  0  0  0
  1  2  2  0  0  0  0
 29 30  1  0  0  0  0
 30 38  1  0  0  0  0
 30 31  2  0  0  0  0
  8  9  1  0  0  0  0
  9 17  1  0  0  0  0
  9 10  2  0  0  0  0
 18 19  1  0  0  0  0
 19 28  1  0  0  0  0
 19 20  2  0  0  0  0
 29 32  1  0  0  0  0
  8 11  1  0  0  0  0
 38 39  1  0  0  0  0
 18 21  1  0  0  0  0
 21 22  1  0  0  0  0
 28 29  1  0  0  0  0
  7  8  1  0  0  0  0
 17 18  1  0  0  0  0
  3  4  1  0  0  0  0
  3  5  1  0  0  0  0
  3  6  1  0  0  0  0
 32 35  1  0  0  0  0
 32 36  1  0  0  0  0
 32 37  1  0  0  0  0
 11 14  1  0  0  0  0
 11 15  1  0  0  0  0
 11 16  1  0  0  0  0
 39 41  1  0  0  0  0
 39 42  1  0  0  0  0
 39 43  1  0  0  0  0
 21 25  1  0  0  0  0
 21 26  1  0  0  0  0
 29 34  1  0  0  0  0
  8 13  1  0  0  0  0
 18 24  1  0  0  0  0
 38 40  1  0  0  0  0
  7 12  1  0  0  0  0
 28 33  1  0  0  0  0
 17 23  1  0  0  0  0
 22 27  1  0  0  0  0
M  END
$$$$

  -OEChem-05262214473D

 43 42  0     1  0  0  0  0  0999 V2000
   -2.8661   -4.7415    2.2943 C   0  0  0  0  0  0  0  0  0  0  0  0
   -2.0233   -5.5727    2.6109 O   0  0  0  0  0  0  0  0  0  0  0  0
   -4.3078   -5.0134    2.5698 C   0  0  0  0  0  0  0  0  0  0  0  0
   -4.8057   -5.5295    1.7332 H   0  0  0  0  0  0  0  0  0  0  0  0
   -4.4526   -5.6688    3.4436 H   0  0  0  0  0  0  0  0  0  0  0  0
   -4.9255   -4.1233    2.7700 H   0  0  0  0  0  0  0  0  0  0  0  0
   -2.6241   -3.5219    1.6838 N   0  0  0  0  0  0  0  0  0  0  0  0
   -1.3070   -3.0608    1.3315 C   0  0  2  0  0  0  0  0  0  0  0  0
   -1.3931   -1.5680    1.0422 C   0  0  0  0  0  0  0  0  0  0  0  0
   -2.4385   -1.0059    0.7226 O   0  0  0  0  0  0  0  0  0  0  0  0
   -0.7590   -3.8164    0.1309 C   0  0  0  0  0  0  0  0  0  0  0  0
   -3.4188   -2.9207    1.4735 H   0  0  0  0  0  0  0  0  0  0  0  0
   -0.6690   -3.2277    2.2062 H   0  0  0  0  0  0  0  0  0  0  0  0
   -1.3852   -3.6613   -0.7553 H   0  0  0  0  0  0  0  0  0  0  0  0
    0.2542   -3.4843   -0.1182 H   0  0  0  0  0  0  0  0  0  0  0  0
   -0.7257   -4.8930    0.3300 H   0  0  0  0  0  0  0  0  0  0  0  0
   -0.1563   -0.9420    1.1402 N   0  0  0  0  0  0  0  0  0  0  0  0
    0.0261    0.4671    0.9001 C   0  0  2  0  0  0  0  0  0  0  0  0
   -1.2109    1.0119    0.1890 C   0  0  0  0  0  0  0  0  0  0  0  0
   -1.4659    2.2122    0.1139 O   0  0  0  0  0  0  0  0  0  0  0  0
    1.3326    0.7679    0.1614 C   0  0  0  0  0  0  0  0  0  0  0  0
    2.8287    0.3563    1.1179 S   0  0  0  0  0  0  0  0  0  0  0  0
    0.6533   -1.4855    1.4300 H   0  0  0  0  0  0  0  0  0  0  0  0
    0.0689    0.9321    1.8929 H   0  0  0  0  0  0  0  0  0  0  0  0
    1.3804    0.2081   -0.7783 H   0  0  0  0  0  0  0  0  0  0  0  0
    1.3846    1.8337   -0.0859 H   0  0  0  0  0  0  0  0  0  0  0  0
    3.7001    0.7444    0.1781 H   0  0  0  0  0  0  0  0  0  0  0  0
   -2.0069   -0.0000   -0.3287 N   0  0  0  0  0  0  0  0  0  0  0  0
   -3.2380    0.2624   -1.0368 C   0  0  2  0  0  0  0  0  0  0  0  0
   -3.9162   -1.0732   -1.3120 C   0  0  0  0  0  0  0  0  0  0  0  0
   -3.3078   -2.1410   -1.3410 O   0  0  0  0  0  0  0  0  0  0  0  0
   -2.9816    1.0188   -2.3310 C   0  0  0  0  0  0  0  0  0  0  0  0
   -1.7023   -0.9657   -0.2496 H   0  0  0  0  0  0  0  0  0  0  0  0
   -3.8663    0.8606   -0.3678 H   0  0  0  0  0  0  0  0  0  0  0  0
   -2.3538    0.4351   -3.0140 H   0  0  0  0  0  0  0  0  0  0  0  0
   -3.9183    1.2419   -2.8523 H   0  0  0  0  0  0  0  0  0  0  0  0
   -2.4672    1.9655   -2.1337 H   0  0  0  0  0  0  0  0  0  0  0  0
   -5.2731   -0.9274   -1.5640 N   0  0  0  0  0  0  0  0  0  0  0  0
   -6.1349   -2.0467   -1.8650 C   0  0  0  0  0  0  0  0  0  0  0  0
   -5.6971   -0.0066   -1.5001 H   0  0  0  0  0  0  0  0  0  0  0  0
   -6.1897   -2.1852   -2.9548 H   0  0  0  0  0  0  0  0  0  0  0  0
   -5.7291   -2.9571   -1.3997 H   0  0  0  0  0  0  0  0  0  0  0  0
   -7.1423   -1.8504   -1.4693 H   0  0  0  0  0  0  0  0  0  0  0  0
  1  3  1  0  0  0  0
  1  7  1  0  0  0  0
  1  2  2  0  0  0  0
 29 30  1  0  0  0  0
 30 38  1  0  0  0  0
 30 31  2  0  0  0  0
  8  9  1  0  0  0  0
  9 17  1  0  0  0  0
  9 10  2  0  0  0  0
 18 19  1  0  0  0  0
 19 28  1  0  0  0  0
 19 20  2  0  0  0  0
 29 32  1  0  0  0  0
  8 11  1  0  0  0  0
 38 39  1  0  0  0  0
 18 21  1  0  0  0  0
 21 22  1  0  0  0  0
 28 29  1  0  0  0  0
  7  8  1  0  0  0  0
 17 18  1  0  0  0  0
  3  4  1  0  0  0  0
  3  5  1  0  0  0  0
  3  6  1  0  0  0  0
 32 35  1  0  0  0  0
 32 36  1  0  0  0  0
 32 37  1  0  0  0  0
 11 14  1  0  0  0  0
 11 15  1  0  0  0  0
 11 16  1  0  0  0  0
 39 41  1  0  0  0  0
 39 42  1  0  0  0  0
 39 43  1  0  0  0  0
 21 25  1  0  0  0  0
 21 26  1  0  0  0  0
 29 34  1  0  0  0  0
  8 13  1  0  0  0  0
 18 24  1  0  0  0  0
 38 40  1  0  0  0  0
  7 12  1  0  0  0  0
 28 33  1  0  0  0  0
 17 23  1  0  0  0  0
 22 27  1  0  0  0  0
M  END
$$$$

  -OEChem-05262214473D

 43 42  0     1  0  0  0  0  0999 V2000
   -2.8661   -4.7415    2.2943 C   0  0  0  0  0  0  0  0  0  0  0  0
   -2.0233   -5.5727    2.6109 O   0  0  0  0  0  0  0  0  0  0  0  0
   -4.3078   -5.0134    2.5698 C   0  0  0  0  0  0  0  0  0  0  0  0
   -4.8057   -5.5295    1.7332 H   0  0  0  0  0  0  0  0  0  0  0  0
   -4.4526   -5.6688    3.4436 H   0  0  0  0  0  0  0  0  0  0  0  0
   -4.9255   -4.1233    2.7700 H   0  0  0  0  0  0  0  0  0  0  0  0
   -2.6241   -3.5219    1.6838 N   0  0  0  0  0  0  0  0  0  0  0  0
   -1.3070   -3.0608    1.3315 C   0  0  2  0  0  0  0  0  0  0  0  0
   -1.3931   -1.5680    1.0422 C   0  0  0  0  0  0  0  0  0  0  0  0
   -2.4385   -1.0059    0.7226 O   0  0  0  0  0  0  0  0  0  0  0  0
   -0.7590   -3.8164    0.1309 C   0  0  0  0  0  0  0  0  0  0  0  0
   -3.4188   -2.9207    1.4735 H   0  0  0  0  0  0  0  0  0  0  0  0
   -0.6690   -3.2277    2.2062 H   0  0  0  0  0  0  0  0  0  0  0  0
   -1.3852   -3.6613   -0.7553 H   0  0  0  0  0  0  0  0  0  0  0  0
    0.2542   -3.4843   -0.1182 H   0  0  0  0  0  0  0  0  0  0  0  0
   -0.7257   -4.8930    0.3300 H   0  0  0  0  0  0  0  0  0  0  0  0
   -0.1563   -0.9420    1.1402 N   0  0  0  0  0  0  0  0  0  0  0  0
    0.0261    0.4671    0.9001 C   0  0  2  0  0  0  0  0  0  0  0  0
   -1.2109    1.0119    0.1890 C   0  0  0  0  0  0  0  0  0  0  0  0
   -1.3380    2.1944   -0.1222 O   0  0  0  0  0  0  0  0  0  0  0  0
    1.3326    0.7679    0.1614 C   0  0  0  0  0  0  0  0  0  0  0  0
    2.8287    0.3563    1.1179 S   0  0  0  0  0  0  0  0  0  0  0  0
    0.6533   -1.4855    1.4300 H   0  0  0  0  0  0  0  0  0  0  0  0
    0.0689    0.9321    1.8929 H   0  0  0  0  0  0  0  0  0  0  0  0
    1.3804    0.2081   -0.7783 H   0  0  0  0  0  0  0  0  0  0  0  0
    1.3846    1.8337   -0.0859 H   0  0  0  0  0  0  0  0  0  0  0  0
    3.7001    0.7444    0.1781 H   0  0  0  0  0  0  0  0  0  0  0  0
   -2.1640    0.0282   -0.0338 N   0  0  0  0  0  0  0  0  0  0  0  0
   -3.4261    0.2989   -0.6816 C   0  0  2  0  0  0  0  0  0  0  0  0
   -4.2730   -0.9647   -0.6081 C   0  0  0  0  0  0  0  0  0  0  0  0
   -3.7930   -2.0860   -0.4548 O   0  0  0  0  0  0  0  0  0  0  0  0
   -3.2251    0.7354   -2.1245 C   0  0  0  0  0  0  0  0  0  0  0  0
   -1.9615   -0.9323    0.2269 H   0  0  0  0  0  0  0  0  0  0  0  0
   -3.9104    1.0977   -0.1094 H   0  0  0  0  0  0  0  0  0  0  0  0
   -2.7410   -0.0521   -2.7135 H   0  0  0  0  0  0  0  0  0  0  0  0
   -4.1810    0.9677   -2.6056 H   0  0  0  0  0  0  0  0  0  0  0  0
   -2.5912    1.6271   -2.1772 H   0  0  0  0  0  0  0  0  0  0  0  0
   -5.6245   -0.6978   -0.7769 N   0  0  0  0  0  0  0  0  0  0  0  0
   -6.6316   -1.7328   -0.7604 C   0  0  0  0  0  0  0  0  0  0  0  0
   -5.9349    0.2640   -0.8792 H   0  0  0  0  0  0  0  0  0  0  0  0
   -6.8158   -2.0824   -1.7870 H   0  0  0  0  0  0  0  0  0  0  0  0
   -6.2825   -2.5742   -0.1438 H   0  0  0  0  0  0  0  0  0  0  0  0
   -7.5639   -1.3304   -0.3375 H   0  0  0  0  0  0  0  0  0  0  0  0
  1  3  1  0  0  0  0
  1  7  1  0  0  0  0
  1  2  2  0  0  0  0
 29 30  1  0  0  0  0
 30 38  1  0  0  0  0
 30 31  2  0  0  0  0
  8  9  1  0  0  0  0
  9 17  1  0  0  0  0
  9 10  2  0  0  0  0
 18 19  1  0  0  0  0
 19 28  1  0  0  0  0
 19 20  2  0  0  0  0
 29 32  1  0  0  0  0
  8 11  1  0  0  0  0
 38 39  1  0  0  0  0
 18 21  1  0  0  0  0
 21 22  1  0  0  0  0
 28 29  1  0  0  0  0
  7  8  1  0  0  0  0
 17 18  1  0  0  0  0
  3  4  1  0  0  0  0
  3  5  1  0  0  0  0
  3  6  1  0  0  0  0
 32 35  1  0  0  0  0
 32 36  1  0  0  0  0
 32 37  1  0  0  0  0
 11 14  1  0  0  0  0
 11 15  1  0  0  0  0
 11 16  1  0  0  0  0
 39 41  1  0  0  0  0
 39 42  1  0  0  0  0
 39 43  1  0  0  0  0
 21 25  1  0  0  0  0
 21 26  1  0  0  0  0
 29 34  1  0  0  0  0
  8 13  1  0  0  0  0
 18 24  1  0  0  0  0
 38 40  1  0  0  0  0
  7 12  1  0  0  0  0
 28 33  1  0  0  0  0
 17 23  1  0  0  0  0
 22 27  1  0  0  0  0
M  END
$$$$

  -OEChem-05262214473D

 43 42  0     1  0  0  0  0  0999 V2000
   -2.8661   -4.7415    2.2943 C   0  0  0  0  0  0  0  0  0  0  0  0
   -2.0233   -5.5727    2.6109 O   0  0  0  0  0  0  0  0  0  0  0  0
   -4.3078   -5.0134    2.5698 C   0  0  0  0  0  0  0  0  0  0  0  0
   -4.8057   -5.5295    1.7332 H   0  0  0  0  0  0  0  0  0  0  0  0
   -4.4526   -5.6688    3.4436 H   0  0  0  0  0  0  0  0  0  0  0  0
   -4.9255   -4.1233    2.7700 H   0  0  0  0  0  0  0  0  0  0  0  0
   -2.6241   -3.5219    1.6838 N   0  0  0  0  0  0  0  0  0  0  0  0
   -1.3070   -3.0608    1.3315 C   0  0  2  0  0  0  0  0  0  0  0  0
   -1.3931   -1.5680    1.0422 C   0  0  0  0  0  0  0  0  0  0  0  0
   -2.4385   -1.0059    0.7226 O   0  0  0  0  0  0  0  0  0  0  0  0
   -0.7590   -3.8164    0.1309 C   0  0  0  0  0  0  0  0  0  0  0  0
   -3.4188   -2.9207    1.4735 H   0  0  0  0  0  0  0  0  0  0  0  0
   -0.6690   -3.2277    2.2062 H   0  0  0  0  0  0  0  0  0  0  0  0
   -1.3852   -3.6613   -0.7553 H   0  0  0  0  0  0  0  0  0  0  0  0
    0.2542   -3.4843   -0.1182 H   0  0  0  0  0  0  0  0  0  0  0  0
   -0.7257   -4.8930    0.3300 H   0  0  0  0  0  0  0  0  0  0  0  0
   -0.1563   -0.9420    1.1402 N   0  0  0  0  0  0  0  0  0  0  0  0
    0.0261    0.4671    0.9001 C   0  0  2  0  0  0  0  0  0  0  0  0
   -1.2109    1.0119    0.1890 C   0  0  0  0  0  0  0  0  0  0  0  0
   -1.2384    2.1123   -0.3584 O   0  0  0  0  0  0  0  0  0  0  0  0
    1.3326    0.7679    0.1614 C   0  0  0  0  0  0  0  0  0  0  0  0
    2.8287    0.3563    1.1179 S   0  0  0  0  0  0  0  0  0  0  0  0
    0.6533   -1.4855    1.4300 H   0  0  0  0  0  0  0  0  0  0  0  0
    0.0689    0.9321    1.8929 H   0  0  0  0  0  0  0  0  0  0  0  0
    1.3804    0.2081   -0.7783 H   0  0  0  0  0  0  0  0  0  0  0  0
    1.3846    1.8337   -0.0859 H   0  0  0  0  0  0  0  0  0  0  0  0
    3.7001    0.7444    0.1781 H   0  0  0  0  0  0  0  0  0  0  0  0
   -2.2851    0.1363    0.2596 N   0  0  0  0  0  0  0  0  0  0  0  0
   -3.5706    0.4313   -0.3289 C   0  0  2  0  0  0  0  0  0  0  0  0
   -4.5397   -0.6694    0.0820 C   0  0  0  0  0  0  0  0  0  0  0  0
   -4.1733   -1.7886    0.4345 O   0  0  0  0  0  0  0  0  0  0  0  0
   -3.4754    0.5343   -1.8432 C   0  0  0  0  0  0  0  0  0  0  0  0
   -2.1639   -0.7689    0.7041 H   0  0  0  0  0  0  0  0  0  0  0  0
   -3.9007    1.3862    0.0946 H   0  0  0  0  0  0  0  0  0  0  0  0
   -3.1461   -0.4131   -2.2854 H   0  0  0  0  0  0  0  0  0  0  0  0
   -4.4449    0.7861   -2.2854 H   0  0  0  0  0  0  0  0  0  0  0  0
   -2.7558    1.3061   -2.1368 H   0  0  0  0  0  0  0  0  0  0  0  0
   -5.8635   -0.2687   -0.0324 N   0  0  0  0  0  0  0  0  0  0  0  0
   -6.9717   -1.1383    0.2866 C   0  0  0  0  0  0  0  0  0  0  0  0
   -6.0746    0.6841   -0.3143 H   0  0  0  0  0  0  0  0  0  0  0  0
   -7.3003   -1.6628   -0.6227 H   0  0  0  0  0  0  0  0  0  0  0  0
   -6.6549   -1.8744    1.0401 H   0  0  0  0  0  0  0  0  0  0  0  0
   -7.8040   -0.5400    0.6857 H   0  0  0  0  0  0  0  0  0  0  0  0
  1  3  1  0  0  0  0
  1  7  1  0  0  0  0
  1  2  2  0  0  0  0
 29 30  1  0  0  0  0
 30 38  1  0  0  0  0
 30 31  2  0  0  0  0
  8  9  1  0  0  0  0
  9 17  1  0  0  0  0
  9 10  2  0  0  0  0
 18 19  1  0  0  0  0
 19 28  1  0  0  0  0
 19 20  2  0  0  0  0
 29 32  1  0  0  0  0
  8 11  1  0  0  0  0
 38 39  1  0  0  0  0
 18 21  1  0  0  0  0
 21 22  1  0  0  0  0
 28 29  1  0  0  0  0
  7  8  1  0  0  0  0
 17 18  1  0  0  0  0
  3  4  1  0  0  0  0
  3  5  1  0  0  0  0
  3  6  1  0  0  0  0
 32 35  1  0  0  0  0
 32 36  1  0  0  0  0
 32 37  1  0  0  0  0
 11 14  1  0  0  0  0
 11 15  1  0  0  0  0
 11 16  1  0  0  0  0
 39 41  1  0  0  0  0
 39 42  1  0  0  0  0
 39 43  1  0  0  0  0
 21 25  1  0  0  0  0
 21 26  1  0  0  0  0
 29 34  1  0  0  0  0
  8 13  1  0  0  0  0
 18 24  1  0  0  0  0
 38 40  1  0  0  0  0
  7 12  1  0  0  0  0
 28 33  1  0  0  0  0
 17 23  1  0  0  0  0
 22 27  1  0  0  0  0
M  END
$$$$

  -OEChem-05262214473D

 43 42  0     1  0  0  0  0  0999 V2000
   -2.8661   -4.7415    2.2943 C   0  0  0  0  0  0  0  0  0  0  0  0
   -2.0233   -5.5727    2.6109 O   0  0  0  0  0  0  0  0  0  0  0  0
   -4.3078   -5.0134    2.5698 C   0  0  0  0  0  0  0  0  0  0  0  0
   -4.8057   -5.5295    1.7332 H   0  0  0  0  0  0  0  0  0  0  0  0
   -4.4526   -5.6688    3.4436 H   0  0  0  0  0  0  0  0  0  0  0  0
   -4.9255   -4.1233    2.7700 H   0  0  0  0  0  0  0  0  0  0  0  0
   -2.6241   -3.5219    1.6838 N   0  0  0  0  0  0  0  0  0  0  0  0
   -1.3070   -3.0608    1.3315 C   0  0  2  0  0  0  0  0  0  0  0  0
   -1.3931   -1.5680    1.0422 C   0  0  0  0  0  0  0  0  0  0  0  0
   -2.4385   -1.0059    0.7226 O   0  0  0  0  0  0  0  0  0  0  0  0
   -0.7590   -3.8164    0.1309 C   0  0  0  0  0  0  0  0  0  0  0  0
   -3.4188   -2.9207    1.4735 H   0  0  0  0  0  0  0  0  0  0  0  0
   -0.6690   -3.2277    2.2062 H   0  0  0  0  0  0  0  0  0  0  0  0
   -1.3852   -3.6613   -0.7553 H   0  0  0  0  0  0  0  0  0  0  0  0
    0.2542   -3.4843   -0.1182 H   0  0  0  0  0  0  0  0  0  0  0  0
   -0.7257   -4.8930    0.3300 H   0  0  0  0  0  0  0  0  0  0  0  0
   -0.1563   -0.9420    1.1402 N   0  0  0  0  0  0  0  0  0  0  0  0
    0.0261    0.4671    0.9001 C   0  0  2  0  0  0  0  0  0  0  0  0
   -1.2109    1.0119    0.1890 C   0  0  0  0  0  0  0  0  0  0  0  0
   -1.1738    1.9715   -0.5785 O   0  0  0  0  0  0  0  0  0  0  0  0
    1.3326    0.7679    0.1614 C   0  0  0  0  0  0  0  0  0  0  0  0
    2.8287    0.3563    1.1179 S   0  0  0  0  0  0  0  0  0  0  0  0
    0.6533   -1.4855    1.4300 H   0  0  0  0  0  0  0  0  0  0  0  0
    0.0689    0.9321    1.8929 H   0  0  0  0  0  0  0  0  0  0  0  0
    1.3804    0.2081   -0.7783 H   0  0  0  0  0  0  0  0  0  0  0  0
    1.3846    1.8337   -0.0859 H   0  0  0  0  0  0  0  0  0  0  0  0
    3.7001    0.7444    0.1781 H   0  0  0  0  0  0  0  0  0  0  0  0
   -2.3620    0.3168    0.5316 N   0  0  0  0  0  0  0  0  0  0  0  0
   -3.6617    0.6505   -0.0026 C   0  0  2  0  0  0  0  0  0  0  0  0
   -4.6980   -0.2073    0.7114 C   0  0  0  0  0  0  0  0  0  0  0  0
   -4.4226   -1.2691    1.2662 O   0  0  0  0  0  0  0  0  0  0  0  0
   -3.7154    0.4292   -1.5062 C   0  0  0  0  0  0  0  0  0  0  0  0
   -2.2956   -0.4867    1.1494 H   0  0  0  0  0  0  0  0  0  0  0  0
   -3.8376    1.7064    0.2303 H   0  0  0  0  0  0  0  0  0  0  0  0
   -3.5413   -0.6231   -1.7588 H   0  0  0  0  0  0  0  0  0  0  0  0
   -4.6922    0.7097   -1.9138 H   0  0  0  0  0  0  0  0  0  0  0  0
   -2.9497    1.0243   -2.0153 H   0  0  0  0  0  0  0  0  0  0  0  0
   -5.9740    0.3307    0.6189 N   0  0  0  0  0  0  0  0  0  0  0  0
   -7.1318   -0.3035    1.2046 C   0  0  0  0  0  0  0  0  0  0  0  0
   -6.1068    1.2252    0.1562 H   0  0  0  0  0  0  0  0  0  0  0  0
   -7.6103   -0.9551    0.4586 H   0  0  0  0  0  0  0  0  0  0  0  0
   -6.8209   -0.9053    2.0713 H   0  0  0  0  0  0  0  0  0  0  0  0
   -7.8462    0.4669    1.5304 H   0  0  0  0  0  0  0  0  0  0  0  0
  1  3  1  0  0  0  0
  1  7  1  0  0  0  0
  1  2  2  0  0  0  0
 29 30  1  0  0  0  0
 30 38  1  0  0  0  0
 30 31  2  0  0  0  0
  8  9  1  0  0  0  0
  9 17  1  0  0  0  0
  9 10  2  0  0  0  0
 18 19  1  0  0  0  0
 19 28  1  0  0  0  0
 19 20  2  0  0  0  0
 29 32  1  0  0  0  0
  8 11  1  0  0  0  0
 38 39  1  0  0  0  0
 18 21  1  0  0  0  0
 21 22  1  0  0  0  0
 28 29  1  0  0  0  0
  7  8  1  0  0  0  0
 17 18  1  0  0  0  0
  3  4  1  0  0  0  0
  3  5  1  0  0  0  0
  3  6  1  0  0  0  0
 32 35  1  0  0  0  0
 32 36  1  0  0  0  0
 32 37  1  0  0  0  0
 11 14  1  0  0  0  0
 11 15  1  0  0  0  0
 11 16  1  0  0  0  0
 39 41  1  0  0  0  0
 39 42  1  0  0  0  0
 39 43  1  0  0  0  0
 21 25  1  0  0  0  0
 21 26  1  0  0  0  0
 29 34  1  0  0  0  0
  8 13  1  0  0  0  0
 18 24  1  0  0  0  0
 38 40  1  0  0  0  0
  7 12  1  0  0  0  0
 28 33  1  0  0  0  0
 17 23  1  0  0  0  0
 22 27  1  0  0  0  0
M  END
$$$$

  -OEChem-05262214473D

 43 42  0     1  0  0  0  0  0999 V2000
   -2.8661   -4.7415    2.2943 C   0  0  0  0  0  0  0  0  0  0  0  0
   -2.0233   -5.5727    2.6109 O   0  0  0  0  0  0  0  0  0  0  0  0
   -4.3078   -5.0134    2.5698 C   0  0  0  0  0  0  0  0  0  0  0  0
   -4.8057   -5.5295    1.7332 H   0  0  0  0  0  0  0  0  0  0  0  0
   -4.4526   -5.6688    3.4436 H   0  0  0  0  0  0  0  0  0  0  0  0
   -4.9255   -4.1233    2.7700 H   0  0  0  0  0  0  0  0  0  0  0  0
   -2.6241   -3.5219    1.6838 N   0  0  0  0  0  0  0  0  0  0  0  0
   -1.3070   -3.0608    1.3315 C   0  0  2  0  0  0  0  0  0  0  0  0
   -1.3931   -1.5680    1.0422 C   0  0  0  0  0  0  0  0  0  0  0  0
   -2.4385   -1.0059    0.7226 O   0  0  0  0  0  0  0  0  0  0  0  0
   -0.7590   -3.8164    0.1309 C   0  0  0  0  0  0  0  0  0  0  0  0
   -3.4188   -2.9207    1.4735 H   0  0  0  0  0  0  0  0  0  0  0  0
   -0.6690   -3.2277    2.2062 H   0  0  0  0  0  0  0  0  0  0  0  0
   -1.3852   -3.6613   -0.7553 H   0  0  0  0  0  0  0  0  0  0  0  0
    0.2542   -3.4843   -0.1182 H   0  0  0  0  0  0  0  0  0  0  0  0
   -0.7257   -4.8930    0.3300 H   0  0  0  0  0  0  0  0  0  0  0  0
   -0.1563   -0.9420    1.1402 N   0  0  0  0  0  0  0  0  0  0  0  0
    0.0261    0.4671    0.9001 C   0  0  2  0  0  0  0  0  0  0  0  0
   -1.2109    1.0119    0.1890 C   0  0  0  0  0  0  0  0  0  0  0  0
   -1.1488    1.7816   -0.7676 O   0  0  0  0  0  0  0  0  0  0  0  0
    1.3326    0.7679    0.1614 C   0  0  0  0  0  0  0  0  0  0  0  0
    2.8287    0.3563    1.1179 S   0  0  0  0  0  0  0  0  0  0  0  0
    0.6533   -1.4855    1.4300 H   0  0  0  0  0  0  0  0  0  0  0  0
    0.0689    0.9321    1.8929 H   0  0  0  0  0  0  0  0  0  0  0  0
    1.3804    0.2081   -0.7783 H   0  0  0  0  0  0  0  0  0  0  0  0
    1.3846    1.8337   -0.0859 H   0  0  0  0  0  0  0  0  0  0  0  0
    3.7001    0.7444    0.1781 H   0  0  0  0  0  0  0  0  0  0  0  0
   -2.3894    0.5573    0.7636 N   0  0  0  0  0  0  0  0  0  0  0  0
   -3.6931    0.9417    0.2751 C   0  0  2  0  0  0  0  0  0  0  0  0
   -4.7371    0.3901    1.2370 C   0  0  0  0  0  0  0  0  0  0  0  0
   -4.5241   -0.5629    1.9837 O   0  0  0  0  0  0  0  0  0  0  0  0
   -3.9288    0.4272   -1.1364 C   0  0  0  0  0  0  0  0  0  0  0  0
   -2.3477   -0.1048    1.5326 H   0  0  0  0  0  0  0  0  0  0  0  0
   -3.7256    2.0366    0.2884 H   0  0  0  0  0  0  0  0  0  0  0  0
   -3.8998   -0.6680   -1.1697 H   0  0  0  0  0  0  0  0  0  0  0  0
   -4.9060    0.7435   -1.5160 H   0  0  0  0  0  0  0  0  0  0  0  0
   -3.1598    0.8010   -1.8210 H   0  0  0  0  0  0  0  0  0  0  0  0
   -5.9483    1.0596    1.1326 N   0  0  0  0  0  0  0  0  0  0  0  0
   -7.1012    0.7146    1.9312 C   0  0  0  0  0  0  0  0  0  0  0  0
   -6.0293    1.8503    0.5002 H   0  0  0  0  0  0  0  0  0  0  0  0
   -7.7246   -0.0074    1.3834 H   0  0  0  0  0  0  0  0  0  0  0  0
   -6.7694    0.2669    2.8796 H   0  0  0  0  0  0  0  0  0  0  0  0
   -7.6877    1.6216    2.1392 H   0  0  0  0  0  0  0  0  0  0  0  0
  1  3  1  0  0  0  0
  1  7  1  0  0  0  0
  1  2  2  0  0  0  0
 29 30  1  0  0  0  0
 30 38  1  0  0  0  0
 30 31  2  0  0  0  0
  8  9  1  0  0  0  0
  9 17  1  0  0  0  0
  9 10  2  0  0  0  0
 18 19  1  0  0  0  0
 19 28  1  0  0  0  0
 19 20  2  0  0  0  0
 29 32  1  0  0  0  0
  8 11  1  0  0  0  0
 38 39  1  0  0  0  0
 18 21  1  0  0  0  0
 21 22  1  0  0  0  0
 28 29  1  0  0  0  0
  7  8  1  0  0  0  0
 17 18  1  0  0  0  0
  3  4  1  0  0  0  0
  3  5  1  0  0  0  0
  3  6  1  0  0  0  0
 32 35  1  0  0  0  0
 32 36  1  0  0  0  0
 32 37  1  0  0  0  0
 11 14  1  0  0  0  0
 11 15  1  0  0  0  0
 11 16  1  0  0  0  0
 39 41  1  0  0  0  0
 39 42  1  0  0  0  0
 39 43  1  0  0  0  0
 21 25  1  0  0  0  0
 21 26  1  0  0  0  0
 29 34  1  0  0  0  0
  8 13  1  0  0  0  0
 18 24  1  0  0  0  0
 38 40  1  0  0  0  0
  7 12  1  0  0  0  0
 28 33  1  0  0  0  0
 17 23  1  0  0  0  0
 22 27  1  0  0  0  0
M  END
$$$$

  -OEChem-05262214473D

 43 42  0     1  0  0  0  0  0999 V2000
   -2.8661   -4.7415    2.2943 C   0  0  0  0  0  0  0  0  0  0  0  0
   -2.0233   -5.5727    2.6109 O   0  0  0  0  0  0  0  0  0  0  0  0
   -4.3078   -5.0134    2.5698 C   0  0  0  0  0  0  0  0  0  0  0  0
   -4.8057   -5.5295    1.7332 H   0  0  0  0  0  0  0  0  0  0  0  0
   -4.4526   -5.6688    3.4436 H   0  0  0  0  0  0  0  0  0  0  0  0
   -4.9255   -4.1233    2.7700 H   0  0  0  0  0  0  0  0  0  0  0  0
   -2.6241   -3.5219    1.6838 N   0  0  0  0  0  0  0  0  0  0  0  0
   -1.3070   -3.0608    1.3315 C   0  0  2  0  0  0  0  0  0  0  0  0
   -1.3931   -1.5680    1.0422 C   0  0  0  0  0  0  0  0  0  0  0  0
   -2.4385   -1.0059    0.7226 O   0  0  0  0  0  0  0  0  0  0  0  0
   -0.7590   -3.8164    0.1309 C   0  0  0  0  0  0  0  0  0  0  0  0
   -3.4188   -2.9207    1.4735 H   0  0  0  0  0  0  0  0  0  0  0  0
   -0.6690   -3.2277    2.2062 H   0  0  0  0  0  0  0  0  0  0  0  0
   -1.3852   -3.6613   -0.7553 H   0  0  0  0  0  0  0  0  0  0  0  0
    0.2542   -3.4843   -0.1182 H   0  0  0  0  0  0  0  0  0  0  0  0
   -0.7257   -4.8930    0.3300 H   0  0  0  0  0  0  0  0  0  0  0  0
   -0.1563   -0.9420    1.1402 N   0  0  0  0  0  0  0  0  0  0  0  0
    0.0261    0.4671    0.9001 C   0  0  2  0  0  0  0  0  0  0  0  0
   -1.2109    1.0119    0.1890 C   0  0  0  0  0  0  0  0  0  0  0  0
   -1.1649    1.5555   -0.9127 O   0  0  0  0  0  0  0  0  0  0  0  0
    1.3326    0.7679    0.1614 C   0  0  0  0  0  0  0  0  0  0  0  0
    2.8287    0.3563    1.1179 S   0  0  0  0  0  0  0  0  0  0  0  0
    0.6533   -1.4855    1.4300 H   0  0  0  0  0  0  0  0  0  0  0  0
    0.0689    0.9321    1.8929 H   0  0  0  0  0  0  0  0  0  0  0  0
    1.3804    0.2081   -0.7783 H   0  0  0  0  0  0  0  0  0  0  0  0
    1.3846    1.8337   -0.0859 H   0  0  0  0  0  0  0  0  0  0  0  0
    3.7001    0.7444    0.1781 H   0  0  0  0  0  0  0  0  0  0  0  0
   -2.3655    0.8417    0.9397 N   0  0  0  0  0  0  0  0  0  0  0  0
   -3.6627    1.2849    0.4851 C   0  0  2  0  0  0  0  0  0  0  0  0
   -4.6544    1.0820    1.6231 C   0  0  0  0  0  0  0  0  0  0  0  0
   -4.4708    0.2819    2.5381 O   0  0  0  0  0  0  0  0  0  0  0  0
   -4.1010    0.5285   -0.7592 C   0  0  0  0  0  0  0  0  0  0  0  0
   -2.3167    0.3506    1.8275 H   0  0  0  0  0  0  0  0  0  0  0  0
   -3.5723    2.3542    0.2650 H   0  0  0  0  0  0  0  0  0  0  0  0
   -4.1970   -0.5447   -0.5581 H   0  0  0  0  0  0  0  0  0  0  0  0
   -5.0717    0.8854   -1.1191 H   0  0  0  0  0  0  0  0  0  0  0  0
   -3.3716    0.6513   -1.5671 H   0  0  0  0  0  0  0  0  0  0  0  0
   -5.7883    1.8681    1.4736 N   0  0  0  0  0  0  0  0  0  0  0  0
   -6.8818    1.8466    2.4168 C   0  0  0  0  0  0  0  0  0  0  0  0
   -5.8473    2.5169    0.6942 H   0  0  0  0  0  0  0  0  0  0  0  0
   -7.6354    1.1156    2.0886 H   0  0  0  0  0  0  0  0  0  0  0  0
   -6.5037    1.5624    3.4099 H   0  0  0  0  0  0  0  0  0  0  0  0
   -7.3392    2.8455    2.4706 H   0  0  0  0  0  0  0  0  0  0  0  0
  1  3  1  0  0  0  0
  1  7  1  0  0  0  0
  1  2  2  0  0  0  0
 29 30  1  0  0  0  0
 30 38  1  0  0  0  0
 30 31  2  0  0  0  0
  8  9  1  0  0  0  0
  9 17  1  0  0  0  0
  9 10  2  0  0  0  0
 18 19  1  0  0  0  0
 19 28  1  0  0  0  0
 19 20  2  0  0  0  0
 29 32  1  0  0  0  0
  8 11  1  0  0  0  0
 38 39  1  0  0  0  0
 18 21  1  0  0  0  0
 21 22  1  0  0  0  0
 28 29  1  0  0  0  0
  7  8  1  0  0  0  0
 17 18  1  0  0  0  0
  3  4  1  0  0  0  0
  3  5  1  0  0  0  0
  3  6  1  0  0  0  0
 32 35  1  0  0  0  0
 32 36  1  0  0  0  0
 32 37  1  0  0  0  0
 11 14  1  0  0  0  0
 11 15  1  0  0  0  0
 11 16  1  0  0  0  0
 39 41  1  0  0  0  0
 39 42  1  0  0  0  0
 39 43  1  0  0  0  0
 21 25  1  0  0  0  0
 21 26  1  0  0  0  0
 29 34  1  0  0  0  0
  8 13  1  0  0  0  0
 18 24  1  0  0  0  0
 38 40  1  0  0  0  0
  7 12  1  0  0  0  0
 28 33  1  0  0  0  0
 17 23  1  0  0  0  0
 22 27  1  0  0  0  0
M  END
$$$$

  -OEChem-05262214473D

 43 42  0     1  0  0  0  0  0999 V2000
   -2.8661   -4.7415    2.2943 C   0  0  0  0  0  0  0  0  0  0  0  0
   -2.0233   -5.5727    2.6109 O   0  0  0  0  0  0  0  0  0  0  0  0
   -4.3078   -5.0134    2.5698 C   0  0  0  0  0  0  0  0  0  0  0  0
   -4.8057   -5.5295    1.7332 H   0  0  0  0  0  0  0  0  0  0  0  0
   -4.4526   -5.6688    3.4436 H   0  0  0  0  0  0  0  0  0  0  0  0
   -4.9255   -4.1233    2.7700 H   0  0  0  0  0  0  0  0  0  0  0  0
   -2.6241   -3.5219    1.6838 N   0  0  0  0  0  0  0  0  0  0  0  0
   -1.3070   -3.0608    1.3315 C   0  0  2  0  0  0  0  0  0  0  0  0
   -1.3931   -1.5680    1.0422 C   0  0  0  0  0  0  0  0  0  0  0  0
   -2.4385   -1.0059    0.7226 O   0  0  0  0  0  0  0  0  0  0  0  0
   -0.7590   -3.8164    0.1309 C   0  0  0  0  0  0  0  0  0  0  0  0
   -3.4188   -2.9207    1.4735 H   0  0  0  0  0  0  0  0  0  0  0  0
   -0.6690   -3.2277    2.2062 H   0  0  0  0  0  0  0  0  0  0  0  0
   -1.3852   -3.6613   -0.7553 H   0  0  0  0  0  0  0  0  0  0  0  0
    0.2542   -3.4843   -0.1182 H   0  0  0  0  0  0  0  0  0  0  0  0
   -0.7257   -4.8930    0.3300 H   0  0  0  0  0  0  0  0  0  0  0  0
   -0.1563   -0.9420    1.1402 N   0  0  0  0  0  0  0  0  0  0  0  0
    0.0261    0.4671    0.9001 C   0  0  2  0  0  0  0  0  0  0  0  0
   -1.2109    1.0119    0.1890 C   0  0  0  0  0  0  0  0  0  0  0  0
   -1.2212    1.3086   -1.0040 O   0  0  0  0  0  0  0  0  0  0  0  0
    1.3326    0.7679    0.1614 C   0  0  0  0  0  0  0  0  0  0  0  0
    2.8287    0.3563    1.1179 S   0  0  0  0  0  0  0  0  0  0  0  0
    0.6533   -1.4855    1.4300 H   0  0  0  0  0  0  0  0  0  0  0  0
    0.0689    0.9321    1.8929 H   0  0  0  0  0  0  0  0  0  0  0  0
    1.3804    0.2081   -0.7783 H   0  0  0  0  0  0  0  0  0  0  0  0
    1.3846    1.8337   -0.0859 H   0  0  0  0  0  0  0  0  0  0  0  0
    3.7001    0.7444    0.1781 H   0  0  0  0  0  0  0  0  0  0  0  0
   -2.2918    1.1504    1.0481 N   0  0  0  0  0  0  0  0  0  0  0  0
   -3.5726    1.6567    0.6133 C   0  0  2  0  0  0  0  0  0  0  0  0
   -4.4554    1.8212    1.8433 C   0  0  0  0  0  0  0  0  0  0  0  0
   -4.2664    1.2077    2.8916 O   0  0  0  0  0  0  0  0  0  0  0  0
   -4.2204    0.7262   -0.4002 C   0  0  0  0  0  0  0  0  0  0  0  0
   -2.2046    0.8486    2.0140 H   0  0  0  0  0  0  0  0  0  0  0  0
   -3.3881    2.6375    0.1616 H   0  0  0  0  0  0  0  0  0  0  0  0
   -4.4129   -0.2616    0.0342 H   0  0  0  0  0  0  0  0  0  0  0  0
   -5.1780    1.1256   -0.7502 H   0  0  0  0  0  0  0  0  0  0  0  0
   -3.5709    0.5855   -1.2709 H   0  0  0  0  0  0  0  0  0  0  0  0
   -5.5048    2.7013    1.6187 N   0  0  0  0  0  0  0  0  0  0  0  0
   -6.4887    3.0153    2.6282 C   0  0  0  0  0  0  0  0  0  0  0  0
   -5.5733    3.1795    0.7252 H   0  0  0  0  0  0  0  0  0  0  0  0
   -7.3489    2.3374    2.5261 H   0  0  0  0  0  0  0  0  0  0  0  0
   -6.0421    2.8930    3.6260 H   0  0  0  0  0  0  0  0  0  0  0  0
   -6.8245    4.0552    2.5019 H   0  0  0  0  0  0  0  0  0  0  0  0
  1  3  1  0  0  0  0
  1  7  1  0  0  0  0
  1  2  2  0  0  0  0
 29 30  1  0  0  0  0
 30 38  1  0  0  0  0
 30 31  2  0  0  0  0
  8  9  1  0  0  0  0
  9 17  1  0  0  0  0
  9 10  2  0  0  0  0
 18 19  1  0  0  0  0
 19 28  1  0  0  0  0
 19 20  2  0  0  0  0
 29 32  1  0  0  0  0
  8 11  1  0  0  0  0
 38 39  1  0  0  0  0
 18 21  1  0  0  0  0
 21 22  1  0  0  0  0
 28 29  1  0  0  0  0
  7  8  1  0  0  0  0
 17 18  1  0  0  0  0
  3  4  1  0  0  0  0
  3  5  1  0  0  0  0
  3  6  1  0  0  0  0
 32 35  1  0  0  0  0
 32 36  1  0  0  0  0
 32 37  1  0  0  0  0
 11 14  1  0  0  0  0
 11 15  1  0  0  0  0
 11 16  1  0  0  0  0
 39 41  1  0  0  0  0
 39 42  1  0  0  0  0
 39 43  1  0  0  0  0
 21 25  1  0  0  0  0
 21 26  1  0  0  0  0
 29 34  1  0  0  0  0
  8 13  1  0  0  0  0
 18 24  1  0  0  0  0
 38 40  1  0  0  0  0
  7 12  1  0  0  0  0
 28 33  1  0  0  0  0
 17 23  1  0  0  0  0
 22 27  1  0  0  0  0
M  END
$$$$

  -OEChem-05262214473D

 43 42  0     1  0  0  0  0  0999 V2000
   -2.8661   -4.7415    2.2943 C   0  0  0  0  0  0  0  0  0  0  0  0
   -2.0233   -5.5727    2.6109 O   0  0  0  0  0  0  0  0  0  0  0  0
   -4.3078   -5.0134    2.5698 C   0  0  0  0  0  0  0  0  0  0  0  0
   -4.8057   -5.5295    1.7332 H   0  0  0  0  0  0  0  0  0  0  0  0
   -4.4526   -5.6688    3.4436 H   0  0  0  0  0  0  0  0  0  0  0  0
   -4.9255   -4.1233    2.7700 H   0  0  0  0  0  0  0  0  0  0  0  0
   -2.6241   -3.5219    1.6838 N   0  0  0  0  0  0  0  0  0  0  0  0
   -1.3070   -3.0608    1.3315 C   0  0  2  0  0  0  0  0  0  0  0  0
   -1.3931   -1.5680    1.0422 C   0  0  0  0  0  0  0  0  0  0  0  0
   -2.4385   -1.0059    0.7226 O   0  0  0  0  0  0  0  0  0  0  0  0
   -0.7590   -3.8164    0.1309 C   0  0  0  0  0  0  0  0  0  0  0  0
   -3.4188   -2.9207    1.4735 H   0  0  0  0  0  0  0  0  0  0  0  0
   -0.6690   -3.2277    2.2062 H   0  0  0  0  0  0  0  0  0  0  0  0
   -1.3852   -3.6613   -0.7553 H   0  0  0  0  0  0  0  0  0  0  0  0
    0.2542   -3.4843   -0.1182 H   0  0  0  0  0  0  0  0  0  0  0  0
   -0.7257   -4.8930    0.3300 H   0  0  0  0  0  0  0  0  0  0  0  0
   -0.1563   -0.9420    1.1402 N   0  0  0  0  0  0  0  0  0  0  0  0
    0.0261    0.4671    0.9001 C   0  0  2  0  0  0  0  0  0  0  0  0
   -1.2109    1.0119    0.1890 C   0  0  0  0  0  0  0  0  0  0  0  0
   -1.3137    1.0578   -1.0352 O   0  0  0  0  0  0  0  0  0  0  0  0
    1.3326    0.7679    0.1614 C   0  0  0  0  0  0  0  0  0  0  0  0
    2.8287    0.3563    1.1179 S   0  0  0  0  0  0  0  0  0  0  0  0
    0.6533   -1.4855    1.4300 H   0  0  0  0  0  0  0  0  0  0  0  0
    0.0689    0.9321    1.8929 H   0  0  0  0  0  0  0  0  0  0  0  0
    1.3804    0.2081   -0.7783 H   0  0  0  0  0  0  0  0  0  0  0  0
    1.3846    1.8337   -0.0859 H   0  0  0  0  0  0  0  0  0  0  0  0
    3.7001    0.7444    0.1781 H   0  0  0  0  0  0  0  0  0  0  0  0
   -2.1735    1.4624    1.0812 N   0  0  0  0  0  0  0  0  0  0  0  0
   -3.4289    2.0319    0.6508 C   0  0  2  0  0  0  0  0  0  0  0  0
   -4.1539    2.5575    1.8828 C   0  0  0  0  0  0  0  0  0  0  0  0
   -3.9247    2.1514    3.0201 O   0  0  0  0  0  0  0  0  0  0  0  0
   -4.2787    1.0068   -0.0838 C   0  0  0  0  0  0  0  0  0  0  0  0
   -2.0191    1.3553    2.0794 H   0  0  0  0  0  0  0  0  0  0  0  0
   -3.1856    2.8674   -0.0146 H   0  0  0  0  0  0  0  0  0  0  0  0
   -4.5325    0.1621    0.5670 H   0  0  0  0  0  0  0  0  0  0  0  0
   -5.2177    1.4478   -0.4344 H   0  0  0  0  0  0  0  0  0  0  0  0
   -3.7439    0.6080   -0.9526 H   0  0  0  0  0  0  0  0  0  0  0  0
   -5.1171    3.5024    1.5580 N   0  0  0  0  0  0  0  0  0  0  0  0
   -5.9486    4.1412    2.5512 C   0  0  0  0  0  0  0  0  0  0  0  0
   -5.2259    3.7931    0.5908 H   0  0  0  0  0  0  0  0  0  0  0  0
   -6.8845    3.5747    2.6661 H   0  0  0  0  0  0  0  0  0  0  0  0
   -5.4158    4.1678    3.5132 H   0  0  0  0  0  0  0  0  0  0  0  0
   -6.1787    5.1682    2.2310 H   0  0  0  0  0  0  0  0  0  0  0  0
  1  3  1  0  0  0  0
  1  7  1  0  0  0  0
  1  2  2  0  0  0  0
 29 30  1  0  0  0  0
 30 38  1  0  0  0  0
 30 31  2  0  0  0  0
  8  9  1  0  0  0  0
  9 17  1  0  0  0  0
  9 10  2  0  0  0  0
 18 19  1  0  0  0  0
 19 28  1  0  0  0  0
 19 20  2  0  0  0  0
 29 32  1  0  0  0  0
  8 11  1  0  0  0  0
 38 39  1  0  0  0  0
 18 21  1  0  0  0  0
 21 22  1  0  0  0  0
 28 29  1  0  0  0  0
  7  8  1  0  0  0  0
 17 18  1  0  0  0  0
  3  4  1  0  0  0  0
  3  5  1  0  0  0  0
  3  6  1  0  0  0  0
 32 35  1  0  0  0  0
 32 36  1  0  0  0  0
 32 37  1  0  0  0  0
 11 14  1  0  0  0  0
 11 15  1  0  0  0  0
 11 16  1  0  0  0  0
 39 41  1  0  0  0  0
 39 42  1  0  0  0  0
 39 43  1  0  0  0  0
 21 25  1  0  0  0  0
 21 26  1  0  0  0  0
 29 34  1  0  0  0  0
  8 13  1  0  0  0  0
 18 24  1  0  0  0  0
 38 40  1  0  0  0  0
  7 12  1  0  0  0  0
 28 33  1  0  0  0  0
 17 23  1  0  0  0  0
 22 27  1  0  0  0  0
M  END
$$$$

  -OEChem-05262214473D

 43 42  0     1  0  0  0  0  0999 V2000
   -2.8661   -4.7415    2.2943 C   0  0  0  0  0  0  0  0  0  0  0  0
   -2.0233   -5.5727    2.6109 O   0  0  0  0  0  0  0  0  0  0  0  0
   -4.3078   -5.0134    2.5698 C   0  0  0  0  0  0  0  0  0  0  0  0
   -4.8057   -5.5295    1.7332 H   0  0  0  0  0  0  0  0  0  0  0  0
   -4.4526   -5.6688    3.4436 H   0  0  0  0  0  0  0  0  0  0  0  0
   -4.9255   -4.1233    2.7700 H   0  0  0  0  0  0  0  0  0  0  0  0
   -2.6241   -3.5219    1.6838 N   0  0  0  0  0  0  0  0  0  0  0  0
   -1.3070   -3.0608    1.3315 C   0  0  2  0  0  0  0  0  0  0  0  0
   -1.3931   -1.5680    1.0422 C   0  0  0  0  0  0  0  0  0  0  0  0
   -2.4385   -1.0059    0.7226 O   0  0  0  0  0  0  0  0  0  0  0  0
   -0.7590   -3.8164    0.1309 C   0  0  0  0  0  0  0  0  0  0  0  0
   -3.4188   -2.9207    1.4735 H   0  0  0  0  0  0  0  0  0  0  0  0
   -0.6690   -3.2277    2.2062 H   0  0  0  0  0  0  0  0  0  0  0  0
   -1.3852   -3.6613   -0.7553 H   0  0  0  0  0  0  0  0  0  0  0  0
    0.2542   -3.4843   -0.1182 H   0  0  0  0  0  0  0  0  0  0  0  0
   -0.7257   -4.8930    0.3300 H   0  0  0  0  0  0  0  0  0  0  0  0
   -0.1563   -0.9420    1.1402 N   0  0  0  0  0  0  0  0  0  0  0  0
    0.0261    0.4671    0.9001 C   0  0  2  0  0  0  0  0  0  0  0  0
   -1.2109    1.0119    0.1890 C   0  0  0  0  0  0  0  0  0  0  0  0
   -1.4361    0.8201   -1.0043 O   0  0  0  0  0  0  0  0  0  0  0  0
    1.3326    0.7679    0.1614 C   0  0  0  0  0  0  0  0  0  0  0  0
    2.8287    0.3563    1.1179 S   0  0  0  0  0  0  0  0  0  0  0  0
    0.6533   -1.4855    1.4300 H   0  0  0  0  0  0  0  0  0  0  0  0
    0.0689    0.9321    1.8929 H   0  0  0  0  0  0  0  0  0  0  0  0
    1.3804    0.2081   -0.7783 H   0  0  0  0  0  0  0  0  0  0  0  0
    1.3846    1.8337   -0.0859 H   0  0  0  0  0  0  0  0  0  0  0  0
    3.7001    0.7444    0.1781 H   0  0  0  0  0  0  0  0  0  0  0  0
   -2.0185    1.7564    1.0369 N   0  0  0  0  0  0  0  0  0  0  0  0
   -3.2415    2.3849    0.5951 C   0  0  2  0  0  0  0  0  0  0  0  0
   -3.7702    3.2407    1.7387 C   0  0  0  0  0  0  0  0  0  0  0  0
   -3.4690    3.0487    2.9149 O   0  0  0  0  0  0  0  0  0  0  0  0
   -4.2720    1.3512    0.1683 C   0  0  0  0  0  0  0  0  0  0  0  0
   -1.7728    1.8360    2.0193 H   0  0  0  0  0  0  0  0  0  0  0  0
   -2.9785    3.0281   -0.2518 H   0  0  0  0  0  0  0  0  0  0  0  0
   -4.5479    0.6975    1.0038 H   0  0  0  0  0  0  0  0  0  0  0  0
   -5.1880    1.8299   -0.1932 H   0  0  0  0  0  0  0  0  0  0  0  0
   -3.8790    0.7173   -0.6339 H   0  0  0  0  0  0  0  0  0  0  0  0
   -4.6518    4.2167    1.2957 N   0  0  0  0  0  0  0  0  0  0  0  0
   -5.2984    5.1476    2.1909 C   0  0  0  0  0  0  0  0  0  0  0  0
   -4.8288    4.3157    0.3004 H   0  0  0  0  0  0  0  0  0  0  0  0
   -6.2739    4.7433    2.4991 H   0  0  0  0  0  0  0  0  0  0  0  0
   -4.6677    5.3001    3.0792 H   0  0  0  0  0  0  0  0  0  0  0  0
   -5.4458    6.1086    1.6765 H   0  0  0  0  0  0  0  0  0  0  0  0
  1  3  1  0  0  0  0
  1  7  1  0  0  0  0
  1  2  2  0  0  0  0
 29 30  1  0  0  0  0
 30 38  1  0  0  0  0
 30 31  2  0  0  0  0
  8  9  1  0  0  0  0
  9 17  1  0  0  0  0
  9 10  2  0  0  0  0
 18 19  1  0  0  0  0
 19 28  1  0  0  0  0
 19 20  2  0  0  0  0
 29 32  1  0  0  0  0
  8 11  1  0  0  0  0
 38 39  1  0  0  0  0
 18 21  1  0  0  0  0
 21 22  1  0  0  0  0
 28 29  1  0  0  0  0
  7  8  1  0  0  0  0
 17 18  1  0  0  0  0
  3  4  1  0  0  0  0
  3  5  1  0  0  0  0
  3  6  1  0  0  0  0
 32 35  1  0  0  0  0
 32 36  1  0  0  0  0
 32 37  1  0  0  0  0
 11 14  1  0  0  0  0
 11 15  1  0  0  0  0
 11 16  1  0  0  0  0
 39 41  1  0  0  0  0
 39 42  1  0  0  0  0
 39 43  1  0  0  0  0
 21 25  1  0  0  0  0
 21 26  1  0  0  0  0
 29 34  1  0  0  0  0
  8 13  1  0  0  0  0
 18 24  1  0  0  0  0
 38 40  1  0  0  0  0
  7 12  1  0  0  0  0
 28 33  1  0  0  0  0
 17 23  1  0  0  0  0
 22 27  1  0  0  0  0
M  END
$$$$

  -OEChem-05262214473D

 43 42  0     1  0  0  0  0  0999 V2000
   -2.8661   -4.7415    2.2943 C   0  0  0  0  0  0  0  0  0  0  0  0
   -2.0233   -5.5727    2.6109 O   0  0  0  0  0  0  0  0  0  0  0  0
   -4.3078   -5.0134    2.5698 C   0  0  0  0  0  0  0  0  0  0  0  0
   -4.8057   -5.5295    1.7332 H   0  0  0  0  0  0  0  0  0  0  0  0
   -4.4526   -5.6688    3.4436 H   0  0  0  0  0  0  0  0  0  0  0  0
   -4.9255   -4.1233    2.7700 H   0  0  0  0  0  0  0  0  0  0  0  0
   -2.6241   -3.5219    1.6838 N   0  0  0  0  0  0  0  0  0  0  0  0
   -1.3070   -3.0608    1.3315 C   0  0  2  0  0  0  0  0  0  0  0  0
   -1.3931   -1.5680    1.0422 C   0  0  0  0  0  0  0  0  0  0  0  0
   -2.4385   -1.0059    0.7226 O   0  0  0  0  0  0  0  0  0  0  0  0
   -0.7590   -3.8164    0.1309 C   0  0  0  0  0  0  0  0  0  0  0  0
   -3.4188   -2.9207    1.4735 H   0  0  0  0  0  0  0  0  0  0  0  0
   -0.6690   -3.2277    2.2062 H   0  0  0  0  0  0  0  0  0  0  0  0
   -1.3852   -3.6613   -0.7553 H   0  0  0  0  0  0  0  0  0  0  0  0
    0.2542   -3.4843   -0.1182 H   0  0  0  0  0  0  0  0  0  0  0  0
   -0.7257   -4.8930    0.3300 H   0  0  0  0  0  0  0  0  0  0  0  0
   -0.1563   -0.9420    1.1402 N   0  0  0  0  0  0  0  0  0  0  0  0
    0.0261    0.4671    0.9001 C   0  0  2  0  0  0  0  0  0  0  0  0
   -1.2109    1.0119    0.1890 C   0  0  0  0  0  0  0  0  0  0  0  0
   -1.5802    0.6118   -0.9132 O   0  0  0  0  0  0  0  0  0  0  0  0
    1.3326    0.7679    0.1614 C   0  0  0  0  0  0  0  0  0  0  0  0
    2.8287    0.3563    1.1179 S   0  0  0  0  0  0  0  0  0  0  0  0
    0.6533   -1.4855    1.4300 H   0  0  0  0  0  0  0  0  0  0  0  0
    0.0689    0.9321    1.8929 H   0  0  0  0  0  0  0  0  0  0  0  0
    1.3804    0.2081   -0.7783 H   0  0  0  0  0  0  0  0  0  0  0  0
    1.3846    1.8337   -0.0859 H   0  0  0  0  0  0  0  0  0  0  0  0
    3.7001    0.7444    0.1781 H   0  0  0  0  0  0  0  0  0  0  0  0
   -1.8375    2.0125    0.9182 N   0  0  0  0  0  0  0  0  0  0  0  0
   -3.0230    2.6916    0.4500 C   0  0  2  0  0  0  0  0  0  0  0  0
   -3.3306    3.8241    1.4208 C   0  0  0  0  0  0  0  0  0  0  0  0
   -2.9305    3.8385    2.5831 O   0  0  0  0  0  0  0  0  0  0  0  0
   -4.2007    1.7359    0.3390 C   0  0  0  0  0  0  0  0  0  0  0  0
   -1.4826    2.2580    1.8376 H   0  0  0  0  0  0  0  0  0  0  0  0
   -2.7810    3.1086   -0.5336 H   0  0  0  0  0  0  0  0  0  0  0  0
   -4.4579    1.3080    1.3149 H   0  0  0  0  0  0  0  0  0  0  0  0
   -5.0911    2.2461   -0.0431 H   0  0  0  0  0  0  0  0  0  0  0  0
   -3.9669    0.9060   -0.3365 H   0  0  0  0  0  0  0  0  0  0  0  0
   -4.1404    4.7957    0.8496 N   0  0  0  0  0  0  0  0  0  0  0  0
   -4.5823    5.9657    1.5719 C   0  0  0  0  0  0  0  0  0  0  0  0
   -4.4090    4.7117   -0.1264 H   0  0  0  0  0  0  0  0  0  0  0  0
   -5.5587    5.7635    2.0364 H   0  0  0  0  0  0  0  0  0  0  0  0
   -3.8487    6.2127    2.3535 H   0  0  0  0  0  0  0  0  0  0  0  0
   -4.6757    6.8125    0.8761 H   0  0  0  0  0  0  0  0  0  0  0  0
  1  3  1  0  0  0  0
  1  7  1  0  0  0  0
  1  2  2  0  0  0  0
 29 30  1  0  0  0  0
 30 38  1  0  0  0  0
 30 31  2  0  0  0  0
  8  9  1  0  0  0  0
  9 17  1  0  0  0  0
  9 10  2  0  0  0  0
 18 19  1  0  0  0  0
 19 28  1  0  0  0  0
 19 20  2  0  0  0  0
 29 32  1  0  0  0  0
  8 11  1  0  0  0  0
 38 39  1  0  0  0  0
 18 21  1  0  0  0  0
 21 22  1  0  0  0  0
 28 29  1  0  0  0  0
  7  8  1  0  0  0  0
 17 18  1  0  0  0  0
  3  4  1  0  0  0  0
  3  5  1  0  0  0  0
  3  6  1  0  0  0  0
 32 35  1  0  0  0  0
 32 36  1  0  0  0  0
 32 37  1  0  0  0  0
 11 14  1  0  0  0  0
 11 15  1  0  0  0  0
 11 16  1  0  0  0  0
 39 41  1  0  0  0  0
 39 42  1  0  0  0  0
 39 43  1  0  0  0  0
 21 25  1  0  0  0  0
 21 26  1  0  0  0  0
 29 34  1  0  0  0  0
  8 13  1  0  0  0  0
 18 24  1  0  0  0  0
 38 40  1  0  0  0  0
  7 12  1  0  0  0  0
 28 33  1  0  0  0  0
 17 23  1  0  0  0  0
 22 27  1  0  0  0  0
M  END
$$$$

  -OEChem-05262214473D

 43 42  0     1  0  0  0  0  0999 V2000
   -2.8661   -4.7415    2.2943 C   0  0  0  0  0  0  0  0  0  0  0  0
   -2.0233   -5.5727    2.6109 O   0  0  0  0  0  0  0  0  0  0  0  0
   -4.3078   -5.0134    2.5698 C   0  0  0  0  0  0  0  0  0  0  0  0
   -4.8057   -5.5295    1.7332 H   0  0  0  0  0  0  0  0  0  0  0  0
   -4.4526   -5.6688    3.4436 H   0  0  0  0  0  0  0  0  0  0  0  0
   -4.9255   -4.1233    2.7700 H   0  0  0  0  0  0  0  0  0  0  0  0
   -2.6241   -3.5219    1.6838 N   0  0  0  0  0  0  0  0  0  0  0  0
   -1.3070   -3.0608    1.3315 C   0  0  2  0  0  0  0  0  0  0  0  0
   -1.3931   -1.5680    1.0422 C   0  0  0  0  0  0  0  0  0  0  0  0
   -2.4385   -1.0059    0.7226 O   0  0  0  0  0  0  0  0  0  0  0  0
   -0.7590   -3.8164    0.1309 C   0  0  0  0  0  0  0  0  0  0  0  0
   -3.4188   -2.9207    1.4735 H   0  0  0  0  0  0  0  0  0  0  0  0
   -0.6690   -3.2277    2.2062 H   0  0  0  0  0  0  0  0  0  0  0  0
   -1.3852   -3.6613   -0.7553 H   0  0  0  0  0  0  0  0  0  0  0  0
    0.2542   -3.4843   -0.1182 H   0  0  0  0  0  0  0  0  0  0  0  0
   -0.7257   -4.8930    0.3300 H   0  0  0  0  0  0  0  0  0  0  0  0
   -0.1563   -0.9420    1.1402 N   0  0  0  0  0  0  0  0  0  0  0  0
    0.0261    0.4671    0.9001 C   0  0  2  0  0  0  0  0  0  0  0  0
   -1.2109    1.0119    0.1890 C   0  0  0  0  0  0  0  0  0  0  0  0
   -1.7361    0.4470   -0.7684 O   0  0  0  0  0  0  0  0  0  0  0  0
    1.3326    0.7679    0.1614 C   0  0  0  0  0  0  0  0  0  0  0  0
    2.8287    0.3563    1.1179 S   0  0  0  0  0  0  0  0  0  0  0  0
    0.6533   -1.4855    1.4300 H   0  0  0  0  0  0  0  0  0  0  0  0
    0.0689    0.9321    1.8929 H   0  0  0  0  0  0  0  0  0  0  0  0
    1.3804    0.2081   -0.7783 H   0  0  0  0  0  0  0  0  0  0  0  0
    1.3846    1.8337   -0.0859 H   0  0  0  0  0  0  0  0  0  0  0  0
    3.7001    0.7444    0.1781 H   0  0  0  0  0  0  0  0  0  0  0  0
   -1.6427    2.2132    0.7331 N   0  0  0  0  0  0  0  0  0  0  0  0
   -2.7884    2.9311    0.2254 C   0  0  2  0  0  0  0  0  0  0  0  0
   -2.8650    4.2680    0.9510 C   0  0  0  0  0  0  0  0  0  0  0  0
   -2.3458    4.4669    2.0473 O   0  0  0  0  0  0  0  0  0  0  0  0
   -4.0698    2.1347    0.4167 C   0  0  0  0  0  0  0  0  0  0  0  0
   -1.1681    2.5927    1.5470 H   0  0  0  0  0  0  0  0  0  0  0  0
   -2.6066    3.1036   -0.8410 H   0  0  0  0  0  0  0  0  0  0  0  0
   -4.2687    1.9521    1.4791 H   0  0  0  0  0  0  0  0  0  0  0  0
   -4.9334    2.6678    0.0057 H   0  0  0  0  0  0  0  0  0  0  0  0
   -4.0015    1.1612   -0.0807 H   0  0  0  0  0  0  0  0  0  0  0  0
   -3.6179    5.1998    0.2502 N   0  0  0  0  0  0  0  0  0  0  0  0
   -3.8491    6.5399    0.7364 C   0  0  0  0  0  0  0  0  0  0  0  0
   -3.9953    4.9542   -0.6604 H   0  0  0  0  0  0  0  0  0  0  0  0
   -4.7876    6.5657    1.3096 H   0  0  0  0  0  0  0  0  0  0  0  0
   -3.0146    6.8433    1.3857 H   0  0  0  0  0  0  0  0  0  0  0  0
   -3.9209    7.2318   -0.1157 H   0  0  0  0  0  0  0  0  0  0  0  0
  1  3  1  0  0  0  0
  1  7  1  0  0  0  0
  1  2  2  0  0  0  0
 29 30  1  0  0  0  0
 30 38  1  0  0  0  0
 30 31  2  0  0  0  0
  8  9  1  0  0  0  0
  9 17  1  0  0  0  0
  9 10  2  0  0  0  0
 18 19  1  0  0  0  0
 19 28  1  0  0  0  0
 19 20  2  0  0  0  0
 29 32  1  0  0  0  0
  8 11  1  0  0  0  0
 38 39  1  0  0  0  0
 18 21  1  0  0  0  0
 21 22  1  0  0  0  0
 28 29  1  0  0  0  0
  7  8  1  0  0  0  0
 17 18  1  0  0  0  0
  3  4  1  0  0  0  0
  3  5  1  0  0  0  0
  3  6  1  0  0  0  0
 32 35  1  0  0  0  0
 32 36  1  0  0  0  0
 32 37  1  0  0  0  0
 11 14  1  0  0  0  0
 11 15  1  0  0  0  0
 11 16  1  0  0  0  0
 39 41  1  0  0  0  0
 39 42  1  0  0  0  0
 39 43  1  0  0  0  0
 21 25  1  0  0  0  0
 21 26  1  0  0  0  0
 29 34  1  0  0  0  0
  8 13  1  0  0  0  0
 18 24  1  0  0  0  0
 38 40  1  0  0  0  0
  7 12  1  0  0  0  0
 28 33  1  0  0  0  0
 17 23  1  0  0  0  0
 22 27  1  0  0  0  0
M  END
$$$$

  -OEChem-05262214473D

 43 42  0     1  0  0  0  0  0999 V2000
   -2.8661   -4.7415    2.2943 C   0  0  0  0  0  0  0  0  0  0  0  0
   -2.0233   -5.5727    2.6109 O   0  0  0  0  0  0  0  0  0  0  0  0
   -4.3078   -5.0134    2.5698 C   0  0  0  0  0  0  0  0  0  0  0  0
   -4.8057   -5.5295    1.7332 H   0  0  0  0  0  0  0  0  0  0  0  0
   -4.4526   -5.6688    3.4436 H   0  0  0  0  0  0  0  0  0  0  0  0
   -4.9255   -4.1233    2.7700 H   0  0  0  0  0  0  0  0  0  0  0  0
   -2.6241   -3.5219    1.6838 N   0  0  0  0  0  0  0  0  0  0  0  0
   -1.3070   -3.0608    1.3315 C   0  0  2  0  0  0  0  0  0  0  0  0
   -1.3931   -1.5680    1.0422 C   0  0  0  0  0  0  0  0  0  0  0  0
   -2.4385   -1.0059    0.7226 O   0  0  0  0  0  0  0  0  0  0  0  0
   -0.7590   -3.8164    0.1309 C   0  0  0  0  0  0  0  0  0  0  0  0
   -3.4188   -2.9207    1.4735 H   0  0  0  0  0  0  0  0  0  0  0  0
   -0.6690   -3.2277    2.2062 H   0  0  0  0  0  0  0  0  0  0  0  0
   -1.3852   -3.6613   -0.7553 H   0  0  0  0  0  0  0  0  0  0  0  0
    0.2542   -3.4843   -0.1182 H   0  0  0  0  0  0  0  0  0  0  0  0
   -0.7257   -4.8930    0.3300 H   0  0  0  0  0  0  0  0  0  0  0  0
   -0.1563   -0.9420    1.1402 N   0  0  0  0  0  0  0  0  0  0  0  0
    0.0261    0.4671    0.9001 C   0  0  2  0  0  0  0  0  0  0  0  0
   -1.2109    1.0119    0.1890 C   0  0  0  0  0  0  0  0  0  0  0  0
   -1.8931    0.3370   -0.5795 O   0  0  0  0  0  0  0  0  0  0  0  0
    1.3326    0.7679    0.1614 C   0  0  0  0  0  0  0  0  0  0  0  0
    2.8287    0.3563    1.1179 S   0  0  0  0  0  0  0  0  0  0  0  0
    0.6533   -1.4855    1.4300 H   0  0  0  0  0  0  0  0  0  0  0  0
    0.0689    0.9321    1.8929 H   0  0  0  0  0  0  0  0  0  0  0  0
    1.3804    0.2081   -0.7783 H   0  0  0  0  0  0  0  0  0  0  0  0
    1.3846    1.8337   -0.0859 H   0  0  0  0  0  0  0  0  0  0  0  0
    3.7001    0.7444    0.1781 H   0  0  0  0  0  0  0  0  0  0  0  0
   -1.4475    2.3447    0.4943 N   0  0  0  0  0  0  0  0  0  0  0  0
   -2.5537    3.0871   -0.0634 C   0  0  2  0  0  0  0  0  0  0  0  0
   -2.4052    4.5422    0.3611 C   0  0  0  0  0  0  0  0  0  0  0  0
   -1.7547    4.8911    1.3441 O   0  0  0  0  0  0  0  0  0  0  0  0
   -3.8881    2.5204    0.3961 C   0  0  0  0  0  0  0  0  0  0  0  0
   -0.8509    2.8171    1.1670 H   0  0  0  0  0  0  0  0  0  0  0  0
   -2.4670    3.0132   -1.1529 H   0  0  0  0  0  0  0  0  0  0  0  0
   -3.9931    2.5858    1.4852 H   0  0  0  0  0  0  0  0  0  0  0  0
   -4.7258    3.0664   -0.0501 H   0  0  0  0  0  0  0  0  0  0  0  0
   -3.9807    1.4655    0.1161 H   0  0  0  0  0  0  0  0  0  0  0  0
   -3.1198    5.4014   -0.4618 N   0  0  0  0  0  0  0  0  0  0  0  0
   -3.1489    6.8311   -0.2586 C   0  0  0  0  0  0  0  0  0  0  0  0
   -3.6157    5.0267   -1.2652 H   0  0  0  0  0  0  0  0  0  0  0  0
   -4.0132    7.0954    0.3683 H   0  0  0  0  0  0  0  0  0  0  0  0
   -2.2223    7.1491    0.2417 H   0  0  0  0  0  0  0  0  0  0  0  0
   -3.2329    7.3379   -1.2313 H   0  0  0  0  0  0  0  0  0  0  0  0
  1  3  1  0  0  0  0
  1  7  1  0  0  0  0
  1  2  2  0  0  0  0
 29 30  1  0  0  0  0
 30 38  1  0  0  0  0
 30 31  2  0  0  0  0
  8  9  1  0  0  0  0
  9 17  1  0  0  0  0
  9 10  2  0  0  0  0
 18 19  1  0  0  0  0
 19 28  1  0  0  0  0
 19 20  2  0  0  0  0
 29 32  1  0  0  0  0
  8 11  1  0  0  0  0
 38 39  1  0  0  0  0
 18 21  1  0  0  0  0
 21 22  1  0  0  0  0
 28 29  1  0  0  0  0
  7  8  1  0  0  0  0
 17 18  1  0  0  0  0
  3  4  1  0  0  0  0
  3  5  1  0  0  0  0
  3  6  1  0  0  0  0
 32 35  1  0  0  0  0
 32 36  1  0  0  0  0
 32 37  1  0  0  0  0
 11 14  1  0  0  0  0
 11 15  1  0  0  0  0
 11 16  1  0  0  0  0
 39 41  1  0  0  0  0
 39 42  1  0  0  0  0
 39 43  1  0  0  0  0
 21 25  1  0  0  0  0
 21 26  1  0  0  0  0
 29 34  1  0  0  0  0
  8 13  1  0  0  0  0
 18 24  1  0  0  0  0
 38 40  1  0  0  0  0
  7 12  1  0  0  0  0
 28 33  1  0  0  0  0
 17 23  1  0  0  0  0
 22 27  1  0  0  0  0
M  END
$$$$

  -OEChem-05262214473D

 43 42  0     1  0  0  0  0  0999 V2000
   -2.8661   -4.7415    2.2943 C   0  0  0  0  0  0  0  0  0  0  0  0
   -2.0233   -5.5727    2.6109 O   0  0  0  0  0  0  0  0  0  0  0  0
   -4.3078   -5.0134    2.5698 C   0  0  0  0  0  0  0  0  0  0  0  0
   -4.8057   -5.5295    1.7332 H   0  0  0  0  0  0  0  0  0  0  0  0
   -4.4526   -5.6688    3.4436 H   0  0  0  0  0  0  0  0  0  0  0  0
   -4.9255   -4.1233    2.7700 H   0  0  0  0  0  0  0  0  0  0  0  0
   -2.6241   -3.5219    1.6838 N   0  0  0  0  0  0  0  0  0  0  0  0
   -1.3070   -3.0608    1.3315 C   0  0  2  0  0  0  0  0  0  0  0  0
   -1.3931   -1.5680    1.0422 C   0  0  0  0  0  0  0  0  0  0  0  0
   -2.4385   -1.0059    0.7226 O   0  0  0  0  0  0  0  0  0  0  0  0
   -0.7590   -3.8164    0.1309 C   0  0  0  0  0  0  0  0  0  0  0  0
   -3.4188   -2.9207    1.4735 H   0  0  0  0  0  0  0  0  0  0  0  0
   -0.6690   -3.2277    2.2062 H   0  0  0  0  0  0  0  0  0  0  0  0
   -1.3852   -3.6613   -0.7553 H   0  0  0  0  0  0  0  0  0  0  0  0
    0.2542   -3.4843   -0.1182 H   0  0  0  0  0  0  0  0  0  0  0  0
   -0.7257   -4.8930    0.3300 H   0  0  0  0  0  0  0  0  0  0  0  0
   -0.1563   -0.9420    1.1402 N   0  0  0  0  0  0  0  0  0  0  0  0
    0.0261    0.4671    0.9001 C   0  0  2  0  0  0  0  0  0  0  0  0
   -1.2109    1.0119    0.1890 C   0  0  0  0  0  0  0  0  0  0  0  0
   -2.0406    0.2892   -0.3595 O   0  0  0  0  0  0  0  0  0  0  0  0
    1.3326    0.7679    0.1614 C   0  0  0  0  0  0  0  0  0  0  0  0
    2.8287    0.3563    1.1179 S   0  0  0  0  0  0  0  0  0  0  0  0
    0.6533   -1.4855    1.4300 H   0  0  0  0  0  0  0  0  0  0  0  0
    0.0689    0.9321    1.8929 H   0  0  0  0  0  0  0  0  0  0  0  0
    1.3804    0.2081   -0.7783 H   0  0  0  0  0  0  0  0  0  0  0  0
    1.3846    1.8337   -0.0859 H   0  0  0  0  0  0  0  0  0  0  0  0
    3.7001    0.7444    0.1781 H   0  0  0  0  0  0  0  0  0  0  0  0
   -1.2651    2.3982    0.2180 N   0  0  0  0  0  0  0  0  0  0  0  0
   -2.3349    3.1489   -0.3967 C   0  0  2  0  0  0  0  0  0  0  0  0
   -1.9824    4.6280   -0.3086 C   0  0  0  0  0  0  0  0  0  0  0  0
   -1.1976    5.0822    0.5213 O   0  0  0  0  0  0  0  0  0  0  0  0
   -3.6680    2.8668    0.2786 C   0  0  0  0  0  0  0  0  0  0  0  0
   -0.5525    2.9159    0.7237 H   0  0  0  0  0  0  0  0  0  0  0  0
   -2.3719    2.8437   -1.4481 H   0  0  0  0  0  0  0  0  0  0  0  0
   -3.6500    3.1661    1.3329 H   0  0  0  0  0  0  0  0  0  0  0  0
   -4.4824    3.4147   -0.2067 H   0  0  0  0  0  0  0  0  0  0  0  0
   -3.9057    1.7982    0.2404 H   0  0  0  0  0  0  0  0  0  0  0  0
   -2.6801    5.3870   -1.2378 N   0  0  0  0  0  0  0  0  0  0  0  0
   -2.5293    6.8193   -1.3455 C   0  0  0  0  0  0  0  0  0  0  0  0
   -3.2961    4.9242   -1.8996 H   0  0  0  0  0  0  0  0  0  0  0  0
   -3.2883    7.3163   -0.7235 H   0  0  0  0  0  0  0  0  0  0  0  0
   -1.5257    7.1092   -1.0006 H   0  0  0  0  0  0  0  0  0  0  0  0
   -2.6585    7.1236   -2.3946 H   0  0  0  0  0  0  0  0  0  0  0  0
  1  3  1  0  0  0  0
  1  7  1  0  0  0  0
  1  2  2  0  0  0  0
 29 30  1  0  0  0  0
 30 38  1  0  0  0  0
 30 31  2  0  0  0  0
  8  9  1  0  0  0  0
  9 17  1  0  0  0  0
  9 10  2  0  0  0  0
 18 19  1  0  0  0  0
 19 28  1  0  0  0  0
 19 20  2  0  0  0  0
 29 32  1  0  0  0  0
  8 11  1  0  0  0  0
 38 39  1  0  0  0  0
 18 21  1  0  0  0  0
 21 22  1  0  0  0  0
 28 29  1  0  0  0  0
  7  8  1  0  0  0  0
 17 18  1  0  0  0  0
  3  4  1  0  0  0  0
  3  5  1  0  0  0  0
  3  6  1  0  0  0  0
 32 35  1  0  0  0  0
 32 36  1  0  0  0  0
 32 37  1  0  0  0  0
 11 14  1  0  0  0  0
 11 15  1  0  0  0  0
 11 16  1  0  0  0  0
 39 41  1  0  0  0  0
 39 42  1  0  0  0  0
 39 43  1  0  0  0  0
 21 25  1  0  0  0  0
 21 26  1  0  0  0  0
 29 34  1  0  0  0  0
  8 13  1  0  0  0  0
 18 24  1  0  0  0  0
 38 40  1  0  0  0  0
  7 12  1  0  0  0  0
 28 33  1  0  0  0  0
 17 23  1  0  0  0  0
 22 27  1  0  0  0  0
M  END
$$$$

  -OEChem-05262214473D

 43 42  0     1  0  0  0  0  0999 V2000
   -2.8661   -4.7415    2.2943 C   0  0  0  0  0  0  0  0  0  0  0  0
   -2.0233   -5.5727    2.6109 O   0  0  0  0  0  0  0  0  0  0  0  0
   -4.3078   -5.0134    2.5698 C   0  0  0  0  0  0  0  0  0  0  0  0
   -4.8057   -5.5295    1.7332 H   0  0  0  0  0  0  0  0  0  0  0  0
   -4.4526   -5.6688    3.4436 H   0  0  0  0  0  0  0  0  0  0  0  0
   -4.9255   -4.1233    2.7700 H   0  0  0  0  0  0  0  0  0  0  0  0
   -2.6241   -3.5219    1.6838 N   0  0  0  0  0  0  0  0  0  0  0  0
   -1.3070   -3.0608    1.3315 C   0  0  2  0  0  0  0  0  0  0  0  0
   -1.3931   -1.5680    1.0422 C   0  0  0  0  0  0  0  0  0  0  0  0
   -2.4385   -1.0059    0.7226 O   0  0  0  0  0  0  0  0  0  0  0  0
   -0.7590   -3.8164    0.1309 C   0  0  0  0  0  0  0  0  0  0  0  0
   -3.4188   -2.9207    1.4735 H   0  0  0  0  0  0  0  0  0  0  0  0
   -0.6690   -3.2277    2.2062 H   0  0  0  0  0  0  0  0  0  0  0  0
   -1.3852   -3.6613   -0.7553 H   0  0  0  0  0  0  0  0  0  0  0  0
    0.2542   -3.4843   -0.1182 H   0  0  0  0  0  0  0  0  0  0  0  0
   -0.7257   -4.8930    0.3300 H   0  0  0  0  0  0  0  0  0  0  0  0
   -0.1563   -0.9420    1.1402 N   0  0  0  0  0  0  0  0  0  0  0  0
    0.0261    0.4671    0.9001 C   0  0  2  0  0  0  0  0  0  0  0  0
   -1.3231    1.0865    0.5414 C   0  0  0  0  0  0  0  0  0  0  0  0
   -2.3608    0.4319    0.4632 O   0  0  0  0  0  0  0  0  0  0  0  0
    1.1166    0.7449   -0.1375 C   0  0  0  0  0  0  0  0  0  0  0  0
    2.7844    0.2391    0.3963 S   0  0  0  0  0  0  0  0  0  0  0  0
    0.6533   -1.4855    1.4300 H   0  0  0  0  0  0  0  0  0  0  0  0
    0.3400    0.8917    1.8618 H   0  0  0  0  0  0  0  0  0  0  0  0
    0.8992    0.2201   -1.0735 H   0  0  0  0  0  0  0  0  0  0  0  0
    1.1549    1.8166   -0.3608 H   0  0  0  0  0  0  0  0  0  0  0  0
    3.4079    0.6287   -0.7229 H   0  0  0  0  0  0  0  0  0  0  0  0
   -1.2265    2.4487    0.2951 N   0  0  0  0  0  0  0  0  0  0  0  0
   -2.3656    3.2564   -0.0736 C   0  0  2  0  0  0  0  0  0  0  0  0
   -1.8610    4.6510   -0.4197 C   0  0  0  0  0  0  0  0  0  0  0  0
   -0.7909    5.0976   -0.0115 O   0  0  0  0  0  0  0  0  0  0  0  0
   -3.3907    3.3121    1.0483 C   0  0  0  0  0  0  0  0  0  0  0  0
   -0.3330    2.9164    0.4156 H   0  0  0  0  0  0  0  0  0  0  0  0
   -2.8054    2.7950   -0.9645 H   0  0  0  0  0  0  0  0  0  0  0  0
   -2.9682    3.7714    1.9495 H   0  0  0  0  0  0  0  0  0  0  0  0
   -4.2665    3.9012    0.7567 H   0  0  0  0  0  0  0  0  0  0  0  0
   -3.7305    2.3058    1.3162 H   0  0  0  0  0  0  0  0  0  0  0  0
   -2.7659    5.3541   -1.2026 N   0  0  0  0  0  0  0  0  0  0  0  0
   -2.5231    6.7050   -1.6522 C   0  0  0  0  0  0  0  0  0  0  0  0
   -3.6200    4.8985   -1.5103 H   0  0  0  0  0  0  0  0  0  0  0  0
   -2.9572    7.4150   -0.9329 H   0  0  0  0  0  0  0  0  0  0  0  0
   -1.4392    6.8767   -1.7281 H   0  0  0  0  0  0  0  0  0  0  0  0
   -2.9876    6.8521   -2.6384 H   0  0  0  0  0  0  0  0  0  0  0  0
  1  3  1  0  0  0  0
  1  7  1  0  0  0  0
  1  2  2  0  0  0  0
 29 30  1  0  0  0  0
 30 38  1  0  0  0  0
 30 31  2  0  0  0  0
  8  9  1  0  0  0  0
  9 17  1  0  0  0  0
  9 10  2  0  0  0  0
 18 19  1  0  0  0  0
 19 28  1  0  0  0  0
 19 20  2  0  0  0  0
 29 32  1  0  0  0  0
  8 11  1  0  0  0  0
 38 39  1  0  0  0  0
 18 21  1  0  0  0  0
 21 22  1  0  0  0  0
 28 29  1  0  0  0  0
  7  8  1  0  0  0  0
 17 18  1  0  0  0  0
  3  4  1  0  0  0  0
  3  5  1  0  0  0  0
  3  6  1  0  0  0  0
 32 35  1  0  0  0  0
 32 36  1  0  0  0  0
 32 37  1  0  0  0  0
 11 14  1  0  0  0  0
 11 15  1  0  0  0  0
 11 16  1  0  0  0  0
 39 41  1  0  0  0  0
 39 42  1  0  0  0  0
 39 43  1  0  0  0  0
 21 25  1  0  0  0  0
 21 26  1  0  0  0  0
 29 34  1  0  0  0  0
  8 13  1  0  0  0  0
 18 24  1  0  0  0  0
 38 40  1  0  0  0  0
  7 12  1  0  0  0  0
 28 33  1  0  0  0  0
 17 23  1  0  0  0  0
 22 27  1  0  0  0  0
M  END
$$$$

  -OEChem-05262214473D

 43 42  0     1  0  0  0  0  0999 V2000
   -2.8661   -4.7415    2.2943 C   0  0  0  0  0  0  0  0  0  0  0  0
   -2.0233   -5.5727    2.6109 O   0  0  0  0  0  0  0  0  0  0  0  0
   -4.3078   -5.0134    2.5698 C   0  0  0  0  0  0  0  0  0  0  0  0
   -4.8057   -5.5295    1.7332 H   0  0  0  0  0  0  0  0  0  0  0  0
   -4.4526   -5.6688    3.4436 H   0  0  0  0  0  0  0  0  0  0  0  0
   -4.9255   -4.1233    2.7700 H   0  0  0  0  0  0  0  0  0  0  0  0
   -2.6241   -3.5219    1.6838 N   0  0  0  0  0  0  0  0  0  0  0  0
   -1.3070   -3.0608    1.3315 C   0  0  2  0  0  0  0  0  0  0  0  0
   -1.3931   -1.5680    1.0422 C   0  0  0  0  0  0  0  0  0  0  0  0
   -2.4385   -1.0059    0.7226 O   0  0  0  0  0  0  0  0  0  0  0  0
   -0.7590   -3.8164    0.1309 C   0  0  0  0  0  0  0  0  0  0  0  0
   -3.4188   -2.9207    1.4735 H   0  0  0  0  0  0  0  0  0  0  0  0
   -0.6690   -3.2277    2.2062 H   0  0  0  0  0  0  0  0  0  0  0  0
   -1.3852   -3.6613   -0.7553 H   0  0  0  0  0  0  0  0  0  0  0  0
    0.2542   -3.4843   -0.1182 H   0  0  0  0  0  0  0  0  0  0  0  0
   -0.7257   -4.8930    0.3300 H   0  0  0  0  0  0  0  0  0  0  0  0
   -0.1563   -0.9420    1.1402 N   0  0  0  0  0  0  0  0  0  0  0  0
    0.0261    0.4671    0.9001 C   0  0  2  0  0  0  0  0  0  0  0  0
   -1.3231    1.0865    0.5414 C   0  0  0  0  0  0  0  0  0  0  0  0
   -2.3936    0.5087    0.7191 O   0  0  0  0  0  0  0  0  0  0  0  0
    1.1166    0.7449   -0.1375 C   0  0  0  0  0  0  0  0  0  0  0  0
    2.7844    0.2391    0.3963 S   0  0  0  0  0  0  0  0  0  0  0  0
    0.6533   -1.4855    1.4300 H   0  0  0  0  0  0  0  0  0  0  0  0
    0.3400    0.8917    1.8618 H   0  0  0  0  0  0  0  0  0  0  0  0
    0.8992    0.2201   -1.0735 H   0  0  0  0  0  0  0  0  0  0  0  0
    1.1549    1.8166   -0.3608 H   0  0  0  0  0  0  0  0  0  0  0  0
    3.4079    0.6287   -0.7229 H   0  0  0  0  0  0  0  0  0  0  0  0
   -1.1886    2.3473   -0.0223 N   0  0  0  0  0  0  0  0  0  0  0  0
   -2.3212    3.1321   -0.4549 C   0  0  2  0  0  0  0  0  0  0  0  0
   -1.7914    4.3722   -1.1627 C   0  0  0  0  0  0  0  0  0  0  0  0
   -0.6619    4.8200   -0.9759 O   0  0  0  0  0  0  0  0  0  0  0  0
   -3.2103    3.5140    0.7183 C   0  0  0  0  0  0  0  0  0  0  0  0
   -0.2656    2.7636   -0.1016 H   0  0  0  0  0  0  0  0  0  0  0  0
   -2.8800    2.5151   -1.1671 H   0  0  0  0  0  0  0  0  0  0  0  0
   -2.6677    4.1324    1.4426 H   0  0  0  0  0  0  0  0  0  0  0  0
   -4.0835    4.0845    0.3851 H   0  0  0  0  0  0  0  0  0  0  0  0
   -3.5664    2.6215    1.2441 H   0  0  0  0  0  0  0  0  0  0  0  0
   -2.7431    4.9448   -1.9948 N   0  0  0  0  0  0  0  0  0  0  0  0
   -2.4868    6.1382   -2.7670 C   0  0  0  0  0  0  0  0  0  0  0  0
   -3.6474    4.4952   -2.1034 H   0  0  0  0  0  0  0  0  0  0  0  0
   -2.8026    7.0218   -2.1930 H   0  0  0  0  0  0  0  0  0  0  0  0
   -1.4112    6.2088   -2.9864 H   0  0  0  0  0  0  0  0  0  0  0  0
   -3.0512    6.0928   -3.7101 H   0  0  0  0  0  0  0  0  0  0  0  0
  1  3  1  0  0  0  0
  1  7  1  0  0  0  0
  1  2  2  0  0  0  0
 29 30  1  0  0  0  0
 30 38  1  0  0  0  0
 30 31  2  0  0  0  0
  8  9  1  0  0  0  0
  9 17  1  0  0  0  0
  9 10  2  0  0  0  0
 18 19  1  0  0  0  0
 19 28  1  0  0  0  0
 19 20  2  0  0  0  0
 29 32  1  0  0  0  0
  8 11  1  0  0  0  0
 38 39  1  0  0  0  0
 18 21  1  0  0  0  0
 21 22  1  0  0  0  0
 28 29  1  0  0  0  0
  7  8  1  0  0  0  0
 17 18  1  0  0  0  0
  3  4  1  0  0  0  0
  3  5  1  0  0  0  0
  3  6  1  0  0  0  0
 32 35  1  0  0  0  0
 32 36  1  0  0  0  0
 32 37  1  0  0  0  0
 11 14  1  0  0  0  0
 11 15  1  0  0  0  0
 11 16  1  0  0  0  0
 39 41  1  0  0  0  0
 39 42  1  0  0  0  0
 39 43  1  0  0  0  0
 21 25  1  0  0  0  0
 21 26  1  0  0  0  0
 29 34  1  0  0  0  0
  8 13  1  0  0  0  0
 18 24  1  0  0  0  0
 38 40  1  0  0  0  0
  7 12  1  0  0  0  0
 28 33  1  0  0  0  0
 17 23  1  0  0  0  0
 22 27  1  0  0  0  0
M  END
$$$$

  -OEChem-05262214473D

 43 42  0     1  0  0  0  0  0999 V2000
   -2.8661   -4.7415    2.2943 C   0  0  0  0  0  0  0  0  0  0  0  0
   -2.0233   -5.5727    2.6109 O   0  0  0  0  0  0  0  0  0  0  0  0
   -4.3078   -5.0134    2.5698 C   0  0  0  0  0  0  0  0  0  0  0  0
   -4.8057   -5.5295    1.7332 H   0  0  0  0  0  0  0  0  0  0  0  0
   -4.4526   -5.6688    3.4436 H   0  0  0  0  0  0  0  0  0  0  0  0
   -4.9255   -4.1233    2.7700 H   0  0  0  0  0  0  0  0  0  0  0  0
   -2.6241   -3.5219    1.6838 N   0  0  0  0  0  0  0  0  0  0  0  0
   -1.3070   -3.0608    1.3315 C   0  0  2  0  0  0  0  0  0  0  0  0
   -1.3931   -1.5680    1.0422 C   0  0  0  0  0  0  0  0  0  0  0  0
   -2.4385   -1.0059    0.7226 O   0  0  0  0  0  0  0  0  0  0  0  0
   -0.7590   -3.8164    0.1309 C   0  0  0  0  0  0  0  0  0  0  0  0
   -3.4188   -2.9207    1.4735 H   0  0  0  0  0  0  0  0  0  0  0  0
   -0.6690   -3.2277    2.2062 H   0  0  0  0  0  0  0  0  0  0  0  0
   -1.3852   -3.6613   -0.7553 H   0  0  0  0  0  0  0  0  0  0  0  0
    0.2542   -3.4843   -0.1182 H   0  0  0  0  0  0  0  0  0  0  0  0
   -0.7257   -4.8930    0.3300 H   0  0  0  0  0  0  0  0  0  0  0  0
   -0.1563   -0.9420    1.1402 N   0  0  0  0  0  0  0  0  0  0  0  0
    0.0261    0.4671    0.9001 C   0  0  2  0  0  0  0  0  0  0  0  0
   -1.3231    1.0865    0.5414 C   0  0  0  0  0  0  0  0  0  0  0  0
   -2.3937    0.6433    0.9521 O   0  0  0  0  0  0  0  0  0  0  0  0
    1.1166    0.7449   -0.1375 C   0  0  0  0  0  0  0  0  0  0  0  0
    2.7844    0.2391    0.3963 S   0  0  0  0  0  0  0  0  0  0  0  0
    0.6533   -1.4855    1.4300 H   0  0  0  0  0  0  0  0  0  0  0  0
    0.3400    0.8917    1.8618 H   0  0  0  0  0  0  0  0  0  0  0  0
    0.8992    0.2201   -1.0735 H   0  0  0  0  0  0  0  0  0  0  0  0
    1.1549    1.8166   -0.3608 H   0  0  0  0  0  0  0  0  0  0  0  0
    3.4079    0.6287   -0.7229 H   0  0  0  0  0  0  0  0  0  0  0  0
   -1.1915    2.1745   -0.3097 N   0  0  0  0  0  0  0  0  0  0  0  0
   -2.3260    2.9221   -0.7995 C   0  0  2  0  0  0  0  0  0  0  0  0
   -1.8191    3.9287   -1.8239 C   0  0  0  0  0  0  0  0  0  0  0  0
   -0.6554    4.3234   -1.8575 O   0  0  0  0  0  0  0  0  0  0  0  0
   -3.0584    3.6225    0.3344 C   0  0  0  0  0  0  0  0  0  0  0  0
   -0.2640    2.4938   -0.5733 H   0  0  0  0  0  0  0  0  0  0  0  0
   -2.9903    2.2030   -1.2910 H   0  0  0  0  0  0  0  0  0  0  0  0
   -2.4087    4.3470    0.8388 H   0  0  0  0  0  0  0  0  0  0  0  0
   -3.9347    4.1655   -0.0349 H   0  0  0  0  0  0  0  0  0  0  0  0
   -3.3963    2.9000    1.0851 H   0  0  0  0  0  0  0  0  0  0  0  0
   -2.8291    4.3670   -2.6689 N   0  0  0  0  0  0  0  0  0  0  0  0
   -2.6032    5.3336   -3.7180 C   0  0  0  0  0  0  0  0  0  0  0  0
   -3.7606    3.9717   -2.5812 H   0  0  0  0  0  0  0  0  0  0  0  0
   -2.8094    6.3445   -3.3365 H   0  0  0  0  0  0  0  0  0  0  0  0
   -1.5568    5.2743   -4.0520 H   0  0  0  0  0  0  0  0  0  0  0  0
   -3.2712    5.1181   -4.5649 H   0  0  0  0  0  0  0  0  0  0  0  0
  1  3  1  0  0  0  0
  1  7  1  0  0  0  0
  1  2  2  0  0  0  0
 29 30  1  0  0  0  0
 30 38  1  0  0  0  0
 30 31  2  0  0  0  0
  8  9  1  0  0  0  0
  9 17  1  0  0  0  0
  9 10  2  0  0  0  0
 18 19  1  0  0  0  0
 19 28  1  0  0  0  0
 19 20  2  0  0  0  0
 29 32  1  0  0  0  0
  8 11  1  0  0  0  0
 38 39  1  0  0  0  0
 18 21  1  0  0  0  0
 21 22  1  0  0  0  0
 28 29  1  0  0  0  0
  7  8  1  0  0  0  0
 17 18  1  0  0  0  0
  3  4  1  0  0  0  0
  3  5  1  0  0  0  0
  3  6  1  0  0  0  0
 32 35  1  0  0  0  0
 32 36  1  0  0  0  0
 32 37  1  0  0  0  0
 11 14  1  0  0  0  0
 11 15  1  0  0  0  0
 11 16  1  0  0  0  0
 39 41  1  0  0  0  0
 39 42  1  0  0  0  0
 39 43  1  0  0  0  0
 21 25  1  0  0  0  0
 21 26  1  0  0  0  0
 29 34  1  0  0  0  0
  8 13  1  0  0  0  0
 18 24  1  0  0  0  0
 38 40  1  0  0  0  0
  7 12  1  0  0  0  0
 28 33  1  0  0  0  0
 17 23  1  0  0  0  0
 22 27  1  0  0  0  0
M  END
$$$$

  -OEChem-05262214473D

 43 42  0     1  0  0  0  0  0999 V2000
   -2.8661   -4.7415    2.2943 C   0  0  0  0  0  0  0  0  0  0  0  0
   -2.0233   -5.5727    2.6109 O   0  0  0  0  0  0  0  0  0  0  0  0
   -4.3078   -5.0134    2.5698 C   0  0  0  0  0  0  0  0  0  0  0  0
   -4.8057   -5.5295    1.7332 H   0  0  0  0  0  0  0  0  0  0  0  0
   -4.4526   -5.6688    3.4436 H   0  0  0  0  0  0  0  0  0  0  0  0
   -4.9255   -4.1233    2.7700 H   0  0  0  0  0  0  0  0  0  0  0  0
   -2.6241   -3.5219    1.6838 N   0  0  0  0  0  0  0  0  0  0  0  0
   -1.3070   -3.0608    1.3315 C   0  0  2  0  0  0  0  0  0  0  0  0
   -1.3931   -1.5680    1.0422 C   0  0  0  0  0  0  0  0  0  0  0  0
   -2.4385   -1.0059    0.7226 O   0  0  0  0  0  0  0  0  0  0  0  0
   -0.7590   -3.8164    0.1309 C   0  0  0  0  0  0  0  0  0  0  0  0
   -3.4188   -2.9207    1.4735 H   0  0  0  0  0  0  0  0  0  0  0  0
   -0.6690   -3.2277    2.2062 H   0  0  0  0  0  0  0  0  0  0  0  0
   -1.3852   -3.6613   -0.7553 H   0  0  0  0  0  0  0  0  0  0  0  0
    0.2542   -3.4843   -0.1182 H   0  0  0  0  0  0  0  0  0  0  0  0
   -0.7257   -4.8930    0.3300 H   0  0  0  0  0  0  0  0  0  0  0  0
   -0.1563   -0.9420    1.1402 N   0  0  0  0  0  0  0  0  0  0  0  0
    0.0261    0.4671    0.9001 C   0  0  2  0  0  0  0  0  0  0  0  0
   -1.3231    1.0865    0.5414 C   0  0  0  0  0  0  0  0  0  0  0  0
   -2.3612    0.8267    1.1465 O   0  0  0  0  0  0  0  0  0  0  0  0
    1.1166    0.7449   -0.1375 C   0  0  0  0  0  0  0  0  0  0  0  0
    2.7844    0.2391    0.3963 S   0  0  0  0  0  0  0  0  0  0  0  0
    0.6533   -1.4855    1.4300 H   0  0  0  0  0  0  0  0  0  0  0  0
    0.3400    0.8917    1.8618 H   0  0  0  0  0  0  0  0  0  0  0  0
    0.8992    0.2201   -1.0735 H   0  0  0  0  0  0  0  0  0  0  0  0
    1.1549    1.8166   -0.3608 H   0  0  0  0  0  0  0  0  0  0  0  0
    3.4079    0.6287   -0.7229 H   0  0  0  0  0  0  0  0  0  0  0  0
   -1.2350    1.9421   -0.5475 N   0  0  0  0  0  0  0  0  0  0  0  0
   -2.3795    2.6409   -1.0839 C   0  0  2  0  0  0  0  0  0  0  0  0
   -1.9422    3.3509   -2.3583 C   0  0  0  0  0  0  0  0  0  0  0  0
   -0.7719    3.6418   -2.5962 O   0  0  0  0  0  0  0  0  0  0  0  0
   -2.9454    3.6303   -0.0772 C   0  0  0  0  0  0  0  0  0  0  0  0
   -0.3284    2.1251   -0.9674 H   0  0  0  0  0  0  0  0  0  0  0  0
   -3.1288    1.8799   -1.3278 H   0  0  0  0  0  0  0  0  0  0  0  0
   -2.2088    4.4005    0.1794 H   0  0  0  0  0  0  0  0  0  0  0  0
   -3.8301    4.1386   -0.4747 H   0  0  0  0  0  0  0  0  0  0  0  0
   -3.2317    3.1223    0.8500 H   0  0  0  0  0  0  0  0  0  0  0  0
   -3.0180    3.6599   -3.1789 N   0  0  0  0  0  0  0  0  0  0  0  0
   -2.8644    4.3461   -4.4404 C   0  0  0  0  0  0  0  0  0  0  0  0
   -3.9520    3.3637   -2.9111 H   0  0  0  0  0  0  0  0  0  0  0  0
   -2.9772    5.4293   -4.2854 H   0  0  0  0  0  0  0  0  0  0  0  0
   -1.8661    4.1368   -4.8523 H   0  0  0  0  0  0  0  0  0  0  0  0
   -3.6328    3.9946   -5.1448 H   0  0  0  0  0  0  0  0  0  0  0  0
  1  3  1  0  0  0  0
  1  7  1  0  0  0  0
  1  2  2  0  0  0  0
 29 30  1  0  0  0  0
 30 38  1  0  0  0  0
 30 31  2  0  0  0  0
  8  9  1  0  0  0  0
  9 17  1  0  0  0  0
  9 10  2  0  0  0  0
 18 19  1  0  0  0  0
 19 28  1  0  0  0  0
 19 20  2  0  0  0  0
 29 32  1  0  0  0  0
  8 11  1  0  0  0  0
 38 39  1  0  0  0  0
 18 21  1  0  0  0  0
 21 22  1  0  0  0  0
 28 29  1  0  0  0  0
  7  8  1  0  0  0  0
 17 18  1  0  0  0  0
  3  4  1  0  0  0  0
  3  5  1  0  0  0  0
  3  6  1  0  0  0  0
 32 35  1  0  0  0  0
 32 36  1  0  0  0  0
 32 37  1  0  0  0  0
 11 14  1  0  0  0  0
 11 15  1  0  0  0  0
 11 16  1  0  0  0  0
 39 41  1  0  0  0  0
 39 42  1  0  0  0  0
 39 43  1  0  0  0  0
 21 25  1  0  0  0  0
 21 26  1  0  0  0  0
 29 34  1  0  0  0  0
  8 13  1  0  0  0  0
 18 24  1  0  0  0  0
 38 40  1  0  0  0  0
  7 12  1  0  0  0  0
 28 33  1  0  0  0  0
 17 23  1  0  0  0  0
 22 27  1  0  0  0  0
M  END
$$$$

  -OEChem-05262214473D

 43 42  0     1  0  0  0  0  0999 V2000
   -2.8661   -4.7415    2.2943 C   0  0  0  0  0  0  0  0  0  0  0  0
   -2.0233   -5.5727    2.6109 O   0  0  0  0  0  0  0  0  0  0  0  0
   -4.3078   -5.0134    2.5698 C   0  0  0  0  0  0  0  0  0  0  0  0
   -4.8057   -5.5295    1.7332 H   0  0  0  0  0  0  0  0  0  0  0  0
   -4.4526   -5.6688    3.4436 H   0  0  0  0  0  0  0  0  0  0  0  0
   -4.9255   -4.1233    2.7700 H   0  0  0  0  0  0  0  0  0  0  0  0
   -2.6241   -3.5219    1.6838 N   0  0  0  0  0  0  0  0  0  0  0  0
   -1.3070   -3.0608    1.3315 C   0  0  2  0  0  0  0  0  0  0  0  0
   -1.3931   -1.5680    1.0422 C   0  0  0  0  0  0  0  0  0  0  0  0
   -2.4385   -1.0059    0.7226 O   0  0  0  0  0  0  0  0  0  0  0  0
   -0.7590   -3.8164    0.1309 C   0  0  0  0  0  0  0  0  0  0  0  0
   -3.4188   -2.9207    1.4735 H   0  0  0  0  0  0  0  0  0  0  0  0
   -0.6690   -3.2277    2.2062 H   0  0  0  0  0  0  0  0  0  0  0  0
   -1.3852   -3.6613   -0.7553 H   0  0  0  0  0  0  0  0  0  0  0  0
    0.2542   -3.4843   -0.1182 H   0  0  0  0  0  0  0  0  0  0  0  0
   -0.7257   -4.8930    0.3300 H   0  0  0  0  0  0  0  0  0  0  0  0
   -0.1563   -0.9420    1.1402 N   0  0  0  0  0  0  0  0  0  0  0  0
    0.0261    0.4671    0.9001 C   0  0  2  0  0  0  0  0  0  0  0  0
   -1.3231    1.0865    0.5414 C   0  0  0  0  0  0  0  0  0  0  0  0
   -2.2983    1.0463    1.2888 O   0  0  0  0  0  0  0  0  0  0  0  0
    1.1166    0.7449   -0.1375 C   0  0  0  0  0  0  0  0  0  0  0  0
    2.7844    0.2391    0.3963 S   0  0  0  0  0  0  0  0  0  0  0  0
    0.6533   -1.4855    1.4300 H   0  0  0  0  0  0  0  0  0  0  0  0
    0.3400    0.8917    1.8618 H   0  0  0  0  0  0  0  0  0  0  0  0
    0.8992    0.2201   -1.0735 H   0  0  0  0  0  0  0  0  0  0  0  0
    1.1549    1.8166   -0.3608 H   0  0  0  0  0  0  0  0  0  0  0  0
    3.4079    0.6287   -0.7229 H   0  0  0  0  0  0  0  0  0  0  0  0
   -1.3160    1.6659   -0.7195 N   0  0  0  0  0  0  0  0  0  0  0  0
   -2.4781    2.3074   -1.2886 C   0  0  2  0  0  0  0  0  0  0  0  0
   -2.1524    2.6781   -2.7294 C   0  0  0  0  0  0  0  0  0  0  0  0
   -1.0033    2.8216   -3.1417 O   0  0  0  0  0  0  0  0  0  0  0  0
   -2.8789    3.5369   -0.4884 C   0  0  0  0  0  0  0  0  0  0  0  0
   -0.4544    1.6829   -1.2571 H   0  0  0  0  0  0  0  0  0  0  0  0
   -3.2861    1.5679   -1.2748 H   0  0  0  0  0  0  0  0  0  0  0  0
   -2.0817    4.2892   -0.4907 H   0  0  0  0  0  0  0  0  0  0  0  0
   -3.7769    4.0057   -0.9043 H   0  0  0  0  0  0  0  0  0  0  0  0
   -3.0840    3.2732    0.5548 H   0  0  0  0  0  0  0  0  0  0  0  0
   -3.2970    2.8719   -3.4900 N   0  0  0  0  0  0  0  0  0  0  0  0
   -3.2525    3.2429   -4.8851 C   0  0  0  0  0  0  0  0  0  0  0  0
   -4.2084    2.7126   -3.0707 H   0  0  0  0  0  0  0  0  0  0  0  0
   -3.2945    4.3384   -4.9752 H   0  0  0  0  0  0  0  0  0  0  0  0
   -2.3181    2.8739   -5.3329 H   0  0  0  0  0  0  0  0  0  0  0  0
   -4.1111    2.7988   -5.4100 H   0  0  0  0  0  0  0  0  0  0  0  0
  1  3  1  0  0  0  0
  1  7  1  0  0  0  0
  1  2  2  0  0  0  0
 29 30  1  0  0  0  0
 30 38  1  0  0  0  0
 30 31  2  0  0  0  0
  8  9  1  0  0  0  0
  9 17  1  0  0  0  0
  9 10  2  0  0  0  0
 18 19  1  0  0  0  0
 19 28  1  0  0  0  0
 19 20  2  0  0  0  0
 29 32  1  0  0  0  0
  8 11  1  0  0  0  0
 38 39  1  0  0  0  0
 18 21  1  0  0  0  0
 21 22  1  0  0  0  0
 28 29  1  0  0  0  0
  7  8  1  0  0  0  0
 17 18  1  0  0  0  0
  3  4  1  0  0  0  0
  3  5  1  0  0  0  0
  3  6  1  0  0  0  0
 32 35  1  0  0  0  0
 32 36  1  0  0  0  0
 32 37  1  0  0  0  0
 11 14  1  0  0  0  0
 11 15  1  0  0  0  0
 11 16  1  0  0  0  0
 39 41  1  0  0  0  0
 39 42  1  0  0  0  0
 39 43  1  0  0  0  0
 21 25  1  0  0  0  0
 21 26  1  0  0  0  0
 29 34  1  0  0  0  0
  8 13  1  0  0  0  0
 18 24  1  0  0  0  0
 38 40  1  0  0  0  0
  7 12  1  0  0  0  0
 28 33  1  0  0  0  0
 17 23  1  0  0  0  0
 22 27  1  0  0  0  0
M  END
$$$$

  -OEChem-05262214473D

 43 42  0     1  0  0  0  0  0999 V2000
   -2.8661   -4.7415    2.2943 C   0  0  0  0  0  0  0  0  0  0  0  0
   -2.0233   -5.5727    2.6109 O   0  0  0  0  0  0  0  0  0  0  0  0
   -4.3078   -5.0134    2.5698 C   0  0  0  0  0  0  0  0  0  0  0  0
   -4.8057   -5.5295    1.7332 H   0  0  0  0  0  0  0  0  0  0  0  0
   -4.4526   -5.6688    3.4436 H   0  0  0  0  0  0  0  0  0  0  0  0
   -4.9255   -4.1233    2.7700 H   0  0  0  0  0  0  0  0  0  0  0  0
   -2.6241   -3.5219    1.6838 N   0  0  0  0  0  0  0  0  0  0  0  0
   -1.3070   -3.0608    1.3315 C   0  0  2  0  0  0  0  0  0  0  0  0
   -1.3931   -1.5680    1.0422 C   0  0  0  0  0  0  0  0  0  0  0  0
   -2.4385   -1.0059    0.7226 O   0  0  0  0  0  0  0  0  0  0  0  0
   -0.7590   -3.8164    0.1309 C   0  0  0  0  0  0  0  0  0  0  0  0
   -3.4188   -2.9207    1.4735 H   0  0  0  0  0  0  0  0  0  0  0  0
   -0.6690   -3.2277    2.2062 H   0  0  0  0  0  0  0  0  0  0  0  0
   -1.3852   -3.6613   -0.7553 H   0  0  0  0  0  0  0  0  0  0  0  0
    0.2542   -3.4843   -0.1182 H   0  0  0  0  0  0  0  0  0  0  0  0
   -0.7257   -4.8930    0.3300 H   0  0  0  0  0  0  0  0  0  0  0  0
   -0.1563   -0.9420    1.1402 N   0  0  0  0  0  0  0  0  0  0  0  0
    0.0261    0.4671    0.9001 C   0  0  2  0  0  0  0  0  0  0  0  0
   -1.3231    1.0865    0.5414 C   0  0  0  0  0  0  0  0  0  0  0  0
   -2.2092    1.2871    1.3695 O   0  0  0  0  0  0  0  0  0  0  0  0
    1.1166    0.7449   -0.1375 C   0  0  0  0  0  0  0  0  0  0  0  0
    2.7844    0.2391    0.3963 S   0  0  0  0  0  0  0  0  0  0  0  0
    0.6533   -1.4855    1.4300 H   0  0  0  0  0  0  0  0  0  0  0  0
    0.3400    0.8917    1.8618 H   0  0  0  0  0  0  0  0  0  0  0  0
    0.8992    0.2201   -1.0735 H   0  0  0  0  0  0  0  0  0  0  0  0
    1.1549    1.8166   -0.3608 H   0  0  0  0  0  0  0  0  0  0  0  0
    3.4079    0.6287   -0.7229 H   0  0  0  0  0  0  0  0  0  0  0  0
   -1.4291    1.3647   -0.8140 N   0  0  0  0  0  0  0  0  0  0  0  0
   -2.6151    1.9445   -1.3997 C   0  0  2  0  0  0  0  0  0  0  0  0
   -2.4352    1.9561   -2.9120 C   0  0  0  0  0  0  0  0  0  0  0  0
   -1.3339    1.9187   -3.4568 O   0  0  0  0  0  0  0  0  0  0  0  0
   -2.8636    3.3486   -0.8712 C   0  0  0  0  0  0  0  0  0  0  0  0
   -0.6334    1.1971   -1.4225 H   0  0  0  0  0  0  0  0  0  0  0  0
   -3.4515    1.2881   -1.1359 H   0  0  0  0  0  0  0  0  0  0  0  0
   -2.0360    4.0208   -1.1259 H   0  0  0  0  0  0  0  0  0  0  0  0
   -3.7786    3.7758   -1.2945 H   0  0  0  0  0  0  0  0  0  0  0  0
   -2.9630    3.3425    0.2196 H   0  0  0  0  0  0  0  0  0  0  0  0
   -3.6471    2.0565   -3.5810 N   0  0  0  0  0  0  0  0  0  0  0  0
   -3.7412    2.0993   -5.0216 C   0  0  0  0  0  0  0  0  0  0  0  0
   -4.5124    2.0628   -3.0491 H   0  0  0  0  0  0  0  0  0  0  0  0
   -3.7397    3.1464   -5.3587 H   0  0  0  0  0  0  0  0  0  0  0  0
   -2.8818    1.5716   -5.4609 H   0  0  0  0  0  0  0  0  0  0  0  0
   -4.6737    1.6122   -5.3426 H   0  0  0  0  0  0  0  0  0  0  0  0
  1  3  1  0  0  0  0
  1  7  1  0  0  0  0
  1  2  2  0  0  0  0
 29 30  1  0  0  0  0
 30 38  1  0  0  0  0
 30 31  2  0  0  0  0
  8  9  1  0  0  0  0
  9 17  1  0  0  0  0
  9 10  2  0  0  0  0
 18 19  1  0  0  0  0
 19 28  1  0  0  0  0
 19 20  2  0  0  0  0
 29 32  1  0  0  0  0
  8 11  1  0  0  0  0
 38 39  1  0  0  0  0
 18 21  1  0  0  0  0
 21 22  1  0  0  0  0
 28 29  1  0  0  0  0
  7  8  1  0  0  0  0
 17 18  1  0  0  0  0
  3  4  1  0  0  0  0
  3  5  1  0  0  0  0
  3  6  1  0  0  0  0
 32 35  1  0  0  0  0
 32 36  1  0  0  0  0
 32 37  1  0  0  0  0
 11 14  1  0  0  0  0
 11 15  1  0  0  0  0
 11 16  1  0  0  0  0
 39 41  1  0  0  0  0
 39 42  1  0  0  0  0
 39 43  1  0  0  0  0
 21 25  1  0  0  0  0
 21 26  1  0  0  0  0
 29 34  1  0  0  0  0
  8 13  1  0  0  0  0
 18 24  1  0  0  0  0
 38 40  1  0  0  0  0
  7 12  1  0  0  0  0
 28 33  1  0  0  0  0
 17 23  1  0  0  0  0
 22 27  1  0  0  0  0
M  END
$$$$

  -OEChem-05262214473D

 43 42  0     1  0  0  0  0  0999 V2000
   -2.8661   -4.7415    2.2943 C   0  0  0  0  0  0  0  0  0  0  0  0
   -2.0233   -5.5727    2.6109 O   0  0  0  0  0  0  0  0  0  0  0  0
   -4.3078   -5.0134    2.5698 C   0  0  0  0  0  0  0  0  0  0  0  0
   -4.8057   -5.5295    1.7332 H   0  0  0  0  0  0  0  0  0  0  0  0
   -4.4526   -5.6688    3.4436 H   0  0  0  0  0  0  0  0  0  0  0  0
   -4.9255   -4.1233    2.7700 H   0  0  0  0  0  0  0  0  0  0  0  0
   -2.6241   -3.5219    1.6838 N   0  0  0  0  0  0  0  0  0  0  0  0
   -1.3070   -3.0608    1.3315 C   0  0  2  0  0  0  0  0  0  0  0  0
   -1.3931   -1.5680    1.0422 C   0  0  0  0  0  0  0  0  0  0  0  0
   -2.4385   -1.0059    0.7226 O   0  0  0  0  0  0  0  0  0  0  0  0
   -0.7590   -3.8164    0.1309 C   0  0  0  0  0  0  0  0  0  0  0  0
   -3.4188   -2.9207    1.4735 H   0  0  0  0  0  0  0  0  0  0  0  0
   -0.6690   -3.2277    2.2062 H   0  0  0  0  0  0  0  0  0  0  0  0
   -1.3852   -3.6613   -0.7553 H   0  0  0  0  0  0  0  0  0  0  0  0
    0.2542   -3.4843   -0.1182 H   0  0  0  0  0  0  0  0  0  0  0  0
   -0.7257   -4.8930    0.3300 H   0  0  0  0  0  0  0  0  0  0  0  0
   -0.1563   -0.9420    1.1402 N   0  0  0  0  0  0  0  0  0  0  0  0
    0.0261    0.4671    0.9001 C   0  0  2  0  0  0  0  0  0  0  0  0
   -1.3231    1.0865    0.5414 C   0  0  0  0  0  0  0  0  0  0  0  0
   -2.1001    1.5327    1.3831 O   0  0  0  0  0  0  0  0  0  0  0  0
    1.1166    0.7449   -0.1375 C   0  0  0  0  0  0  0  0  0  0  0  0
    2.7844    0.2391    0.3963 S   0  0  0  0  0  0  0  0  0  0  0  0
    0.6533   -1.4855    1.4300 H   0  0  0  0  0  0  0  0  0  0  0  0
    0.3400    0.8917    1.8618 H   0  0  0  0  0  0  0  0  0  0  0  0
    0.8992    0.2201   -1.0735 H   0  0  0  0  0  0  0  0  0  0  0  0
    1.1549    1.8166   -0.3608 H   0  0  0  0  0  0  0  0  0  0  0  0
    3.4079    0.6287   -0.7229 H   0  0  0  0  0  0  0  0  0  0  0  0
   -1.5667    1.0590   -0.8245 N   0  0  0  0  0  0  0  0  0  0  0  0
   -2.7812    1.5769   -1.4098 C   0  0  2  0  0  0  0  0  0  0  0  0
   -2.7715    1.2341   -2.8936 C   0  0  0  0  0  0  0  0  0  0  0  0
   -1.7413    0.9946   -3.5201 O   0  0  0  0  0  0  0  0  0  0  0  0
   -2.9003    3.0783   -1.1995 C   0  0  0  0  0  0  0  0  0  0  0  0
   -0.8531    0.7010   -1.4525 H   0  0  0  0  0  0  0  0  0  0  0  0
   -3.6137    1.0597   -0.9203 H   0  0  0  0  0  0  0  0  0  0  0  0
   -2.0749    3.6135   -1.6829 H   0  0  0  0  0  0  0  0  0  0  0  0
   -3.8352    3.4647   -1.6187 H   0  0  0  0  0  0  0  0  0  0  0  0
   -2.8772    3.3255   -0.1326 H   0  0  0  0  0  0  0  0  0  0  0  0
   -4.0443    1.2694   -3.4457 N   0  0  0  0  0  0  0  0  0  0  0  0
   -4.2970    0.9931   -4.8407 C   0  0  0  0  0  0  0  0  0  0  0  0
   -4.8433    1.4585   -2.8478 H   0  0  0  0  0  0  0  0  0  0  0  0
   -4.2824    1.9343   -5.4099 H   0  0  0  0  0  0  0  0  0  0  0  0
   -3.5189    0.3187   -5.2276 H   0  0  0  0  0  0  0  0  0  0  0  0
   -5.2822    0.5156   -4.9471 H   0  0  0  0  0  0  0  0  0  0  0  0
  1  3  1  0  0  0  0
  1  7  1  0  0  0  0
  1  2  2  0  0  0  0
 29 30  1  0  0  0  0
 30 38  1  0  0  0  0
 30 31  2  0  0  0  0
  8  9  1  0  0  0  0
  9 17  1  0  0  0  0
  9 10  2  0  0  0  0
 18 19  1  0  0  0  0
 19 28  1  0  0  0  0
 19 20  2  0  0  0  0
 29 32  1  0  0  0  0
  8 11  1  0  0  0  0
 38 39  1  0  0  0  0
 18 21  1  0  0  0  0
 21 22  1  0  0  0  0
 28 29  1  0  0  0  0
  7  8  1  0  0  0  0
 17 18  1  0  0  0  0
  3  4  1  0  0  0  0
  3  5  1  0  0  0  0
  3  6  1  0  0  0  0
 32 35  1  0  0  0  0
 32 36  1  0  0  0  0
 32 37  1  0  0  0  0
 11 14  1  0  0  0  0
 11 15  1  0  0  0  0
 11 16  1  0  0  0  0
 39 41  1  0  0  0  0
 39 42  1  0  0  0  0
 39 43  1  0  0  0  0
 21 25  1  0  0  0  0
 21 26  1  0  0  0  0
 29 34  1  0  0  0  0
  8 13  1  0  0  0  0
 18 24  1  0  0  0  0
 38 40  1  0  0  0  0
  7 12  1  0  0  0  0
 28 33  1  0  0  0  0
 17 23  1  0  0  0  0
 22 27  1  0  0  0  0
M  END
$$$$

  -OEChem-05262214473D

 43 42  0     1  0  0  0  0  0999 V2000
   -2.8661   -4.7415    2.2943 C   0  0  0  0  0  0  0  0  0  0  0  0
   -2.0233   -5.5727    2.6109 O   0  0  0  0  0  0  0  0  0  0  0  0
   -4.3078   -5.0134    2.5698 C   0  0  0  0  0  0  0  0  0  0  0  0
   -4.8057   -5.5295    1.7332 H   0  0  0  0  0  0  0  0  0  0  0  0
   -4.4526   -5.6688    3.4436 H   0  0  0  0  0  0  0  0  0  0  0  0
   -4.9255   -4.1233    2.7700 H   0  0  0  0  0  0  0  0  0  0  0  0
   -2.6241   -3.5219    1.6838 N   0  0  0  0  0  0  0  0  0  0  0  0
   -1.3070   -3.0608    1.3315 C   0  0  2  0  0  0  0  0  0  0  0  0
   -1.3931   -1.5680    1.0422 C   0  0  0  0  0  0  0  0  0  0  0  0
   -2.4385   -1.0059    0.7226 O   0  0  0  0  0  0  0  0  0  0  0  0
   -0.7590   -3.8164    0.1309 C   0  0  0  0  0  0  0  0  0  0  0  0
   -3.4188   -2.9207    1.4735 H   0  0  0  0  0  0  0  0  0  0  0  0
   -0.6690   -3.2277    2.2062 H   0  0  0  0  0  0  0  0  0  0  0  0
   -1.3852   -3.6613   -0.7553 H   0  0  0  0  0  0  0  0  0  0  0  0
    0.2542   -3.4843   -0.1182 H   0  0  0  0  0  0  0  0  0  0  0  0
   -0.7257   -4.8930    0.3300 H   0  0  0  0  0  0  0  0  0  0  0  0
   -0.1563   -0.9420    1.1402 N   0  0  0  0  0  0  0  0  0  0  0  0
    0.0261    0.4671    0.9001 C   0  0  2  0  0  0  0  0  0  0  0  0
   -1.3231    1.0865    0.5414 C   0  0  0  0  0  0  0  0  0  0  0  0
   -1.9783    1.7665    1.3286 O   0  0  0  0  0  0  0  0  0  0  0  0
    1.1166    0.7449   -0.1375 C   0  0  0  0  0  0  0  0  0  0  0  0
    2.7844    0.2391    0.3963 S   0  0  0  0  0  0  0  0  0  0  0  0
    0.6533   -1.4855    1.4300 H   0  0  0  0  0  0  0  0  0  0  0  0
    0.3400    0.8917    1.8618 H   0  0  0  0  0  0  0  0  0  0  0  0
    0.8992    0.2201   -1.0735 H   0  0  0  0  0  0  0  0  0  0  0  0
    1.1549    1.8166   -0.3608 H   0  0  0  0  0  0  0  0  0  0  0  0
    3.4079    0.6287   -0.7229 H   0  0  0  0  0  0  0  0  0  0  0  0
   -1.7192    0.7697   -0.7503 N   0  0  0  0  0  0  0  0  0  0  0  0
   -2.9650    1.2296   -1.3180 C   0  0  2  0  0  0  0  0  0  0  0  0
   -3.1383    0.5614   -2.6755 C   0  0  0  0  0  0  0  0  0  0  0  0
   -2.1976    0.1124   -3.3271 O   0  0  0  0  0  0  0  0  0  0  0  0
   -2.9868    2.7444   -1.4509 C   0  0  0  0  0  0  0  0  0  0  0  0
   -1.0987    0.2282   -1.3449 H   0  0  0  0  0  0  0  0  0  0  0  0
   -3.7615    0.8982   -0.6429 H   0  0  0  0  0  0  0  0  0  0  0  0
   -2.1956    3.0951   -2.1237 H   0  0  0  0  0  0  0  0  0  0  0  0
   -3.9428    3.0935   -1.8548 H   0  0  0  0  0  0  0  0  0  0  0  0
   -2.8322    3.2233   -0.4780 H   0  0  0  0  0  0  0  0  0  0  0  0
   -4.4617    0.5642   -3.0935 N   0  0  0  0  0  0  0  0  0  0  0  0
   -4.8822   -0.0002   -4.3547 C   0  0  0  0  0  0  0  0  0  0  0  0
   -5.1785    0.9410   -2.4804 H   0  0  0  0  0  0  0  0  0  0  0  0
   -4.8858    0.7848   -5.1252 H   0  0  0  0  0  0  0  0  0  0  0  0
   -4.1860   -0.7994   -4.6489 H   0  0  0  0  0  0  0  0  0  0  0  0
   -5.8952   -0.4162   -4.2506 H   0  0  0  0  0  0  0  0  0  0  0  0
  1  3  1  0  0  0  0
  1  7  1  0  0  0  0
  1  2  2  0  0  0  0
 29 30  1  0  0  0  0
 30 38  1  0  0  0  0
 30 31  2  0  0  0  0
  8  9  1  0  0  0  0
  9 17  1  0  0  0  0
  9 10  2  0  0  0  0
 18 19  1  0  0  0  0
 19 28  1  0  0  0  0
 19 20  2  0  0  0  0
 29 32  1  0  0  0  0
  8 11  1  0  0  0  0
 38 39  1  0  0  0  0
 18 21  1  0  0  0  0
 21 22  1  0  0  0  0
 28 29  1  0  0  0  0
  7  8  1  0  0  0  0
 17 18  1  0  0  0  0
  3  4  1  0  0  0  0
  3  5  1  0  0  0  0
  3  6  1  0  0  0  0
 32 35  1  0  0  0  0
 32 36  1  0  0  0  0
 32 37  1  0  0  0  0
 11 14  1  0  0  0  0
 11 15  1  0  0  0  0
 11 16  1  0  0  0  0
 39 41  1  0  0  0  0
 39 42  1  0  0  0  0
 39 43  1  0  0  0  0
 21 25  1  0  0  0  0
 21 26  1  0  0  0  0
 29 34  1  0  0  0  0
  8 13  1  0  0  0  0
 18 24  1  0  0  0  0
 38 40  1  0  0  0  0
  7 12  1  0  0  0  0
 28 33  1  0  0  0  0
 17 23  1  0  0  0  0
 22 27  1  0  0  0  0
M  END
$$$$

  -OEChem-05262214473D

 43 42  0     1  0  0  0  0  0999 V2000
   -2.8661   -4.7415    2.2943 C   0  0  0  0  0  0  0  0  0  0  0  0
   -2.0233   -5.5727    2.6109 O   0  0  0  0  0  0  0  0  0  0  0  0
   -4.3078   -5.0134    2.5698 C   0  0  0  0  0  0  0  0  0  0  0  0
   -4.8057   -5.5295    1.7332 H   0  0  0  0  0  0  0  0  0  0  0  0
   -4.4526   -5.6688    3.4436 H   0  0  0  0  0  0  0  0  0  0  0  0
   -4.9255   -4.1233    2.7700 H   0  0  0  0  0  0  0  0  0  0  0  0
   -2.6241   -3.5219    1.6838 N   0  0  0  0  0  0  0  0  0  0  0  0
   -1.3070   -3.0608    1.3315 C   0  0  2  0  0  0  0  0  0  0  0  0
   -1.3931   -1.5680    1.0422 C   0  0  0  0  0  0  0  0  0  0  0  0
   -2.4385   -1.0059    0.7226 O   0  0  0  0  0  0  0  0  0  0  0  0
   -0.7590   -3.8164    0.1309 C   0  0  0  0  0  0  0  0  0  0  0  0
   -3.4188   -2.9207    1.4735 H   0  0  0  0  0  0  0  0  0  0  0  0
   -0.6690   -3.2277    2.2062 H   0  0  0  0  0  0  0  0  0  0  0  0
   -1.3852   -3.6613   -0.7553 H   0  0  0  0  0  0  0  0  0  0  0  0
    0.2542   -3.4843   -0.1182 H   0  0  0  0  0  0  0  0  0  0  0  0
   -0.7257   -4.8930    0.3300 H   0  0  0  0  0  0  0  0  0  0  0  0
   -0.1563   -0.9420    1.1402 N   0  0  0  0  0  0  0  0  0  0  0  0
    0.0261    0.4671    0.9001 C   0  0  2  0  0  0  0  0  0  0  0  0
   -1.3231    1.0865    0.5414 C   0  0  0  0  0  0  0  0  0  0  0  0
   -1.8522    1.9724    1.2097 O   0  0  0  0  0  0  0  0  0  0  0  0
    1.1166    0.7449   -0.1375 C   0  0  0  0  0  0  0  0  0  0  0  0
    2.7844    0.2391    0.3963 S   0  0  0  0  0  0  0  0  0  0  0  0
    0.6533   -1.4855    1.4300 H   0  0  0  0  0  0  0  0  0  0  0  0
    0.3400    0.8917    1.8618 H   0  0  0  0  0  0  0  0  0  0  0  0
    0.8992    0.2201   -1.0735 H   0  0  0  0  0  0  0  0  0  0  0  0
    1.1549    1.8166   -0.3608 H   0  0  0  0  0  0  0  0  0  0  0  0
    3.4079    0.6287   -0.7229 H   0  0  0  0  0  0  0  0  0  0  0  0
   -1.8763    0.5165   -0.5965 N   0  0  0  0  0  0  0  0  0  0  0  0
   -3.1541    0.9263   -1.1306 C   0  0  2  0  0  0  0  0  0  0  0  0
   -3.5106   -0.0162   -2.2726 C   0  0  0  0  0  0  0  0  0  0  0  0
   -2.6717   -0.6680   -2.8911 O   0  0  0  0  0  0  0  0  0  0  0  0
   -3.1169    2.3696   -1.6084 C   0  0  0  0  0  0  0  0  0  0  0  0
   -1.3534   -0.1889   -1.1071 H   0  0  0  0  0  0  0  0  0  0  0  0
   -3.8851    0.8147   -0.3224 H   0  0  0  0  0  0  0  0  0  0  0  0
   -2.3900    2.5009   -2.4182 H   0  0  0  0  0  0  0  0  0  0  0  0
   -4.0941    2.6875   -1.9867 H   0  0  0  0  0  0  0  0  0  0  0  0
   -2.8313    3.0428   -0.7930 H   0  0  0  0  0  0  0  0  0  0  0  0
   -4.8708   -0.0111   -2.5481 N   0  0  0  0  0  0  0  0  0  0  0  0
   -5.4568   -0.8130   -3.5967 C   0  0  0  0  0  0  0  0  0  0  0  0
   -5.4953    0.5456   -1.9720 H   0  0  0  0  0  0  0  0  0  0  0  0
   -5.5085   -0.2238   -4.5242 H   0  0  0  0  0  0  0  0  0  0  0  0
   -4.8376   -1.7066   -3.7642 H   0  0  0  0  0  0  0  0  0  0  0  0
   -6.4708   -1.1197   -3.3003 H   0  0  0  0  0  0  0  0  0  0  0  0
  1  3  1  0  0  0  0
  1  7  1  0  0  0  0
  1  2  2  0  0  0  0
 29 30  1  0  0  0  0
 30 38  1  0  0  0  0
 30 31  2  0  0  0  0
  8  9  1  0  0  0  0
  9 17  1  0  0  0  0
  9 10  2  0  0  0  0
 18 19  1  0  0  0  0
 19 28  1  0  0  0  0
 19 20  2  0  0  0  0
 29 32  1  0  0  0  0
  8 11  1  0  0  0  0
 38 39  1  0  0  0  0
 18 21  1  0  0  0  0
 21 22  1  0  0  0  0
 28 29  1  0  0  0  0
  7  8  1  0  0  0  0
 17 18  1  0  0  0  0
  3  4  1  0  0  0  0
  3  5  1  0  0  0  0
  3  6  1  0  0  0  0
 32 35  1  0  0  0  0
 32 36  1  0  0  0  0
 32 37  1  0  0  0  0
 11 14  1  0  0  0  0
 11 15  1  0  0  0  0
 11 16  1  0  0  0  0
 39 41  1  0  0  0  0
 39 42  1  0  0  0  0
 39 43  1  0  0  0  0
 21 25  1  0  0  0  0
 21 26  1  0  0  0  0
 29 34  1  0  0  0  0
  8 13  1  0  0  0  0
 18 24  1  0  0  0  0
 38 40  1  0  0  0  0
  7 12  1  0  0  0  0
 28 33  1  0  0  0  0
 17 23  1  0  0  0  0
 22 27  1  0  0  0  0
M  END
$$$$

  -OEChem-05262214473D

 43 42  0     1  0  0  0  0  0999 V2000
   -2.8661   -4.7415    2.2943 C   0  0  0  0  0  0  0  0  0  0  0  0
   -2.0233   -5.5727    2.6109 O   0  0  0  0  0  0  0  0  0  0  0  0
   -4.3078   -5.0134    2.5698 C   0  0  0  0  0  0  0  0  0  0  0  0
   -4.8057   -5.5295    1.7332 H   0  0  0  0  0  0  0  0  0  0  0  0
   -4.4526   -5.6688    3.4436 H   0  0  0  0  0  0  0  0  0  0  0  0
   -4.9255   -4.1233    2.7700 H   0  0  0  0  0  0  0  0  0  0  0  0
   -2.6241   -3.5219    1.6838 N   0  0  0  0  0  0  0  0  0  0  0  0
   -1.3070   -3.0608    1.3315 C   0  0  2  0  0  0  0  0  0  0  0  0
   -1.3931   -1.5680    1.0422 C   0  0  0  0  0  0  0  0  0  0  0  0
   -2.4385   -1.0059    0.7226 O   0  0  0  0  0  0  0  0  0  0  0  0
   -0.7590   -3.8164    0.1309 C   0  0  0  0  0  0  0  0  0  0  0  0
   -3.4188   -2.9207    1.4735 H   0  0  0  0  0  0  0  0  0  0  0  0
   -0.6690   -3.2277    2.2062 H   0  0  0  0  0  0  0  0  0  0  0  0
   -1.3852   -3.6613   -0.7553 H   0  0  0  0  0  0  0  0  0  0  0  0
    0.2542   -3.4843   -0.1182 H   0  0  0  0  0  0  0  0  0  0  0  0
   -0.7257   -4.8930    0.3300 H   0  0  0  0  0  0  0  0  0  0  0  0
   -0.1563   -0.9420    1.1402 N   0  0  0  0  0  0  0  0  0  0  0  0
    0.0261    0.4671    0.9001 C   0  0  2  0  0  0  0  0  0  0  0  0
   -1.3231    1.0865    0.5414 C   0  0  0  0  0  0  0  0  0  0  0  0
   -1.7303    2.1364    1.0345 O   0  0  0  0  0  0  0  0  0  0  0  0
    1.1166    0.7449   -0.1375 C   0  0  0  0  0  0  0  0  0  0  0  0
    2.7844    0.2391    0.3963 S   0  0  0  0  0  0  0  0  0  0  0  0
    0.6533   -1.4855    1.4300 H   0  0  0  0  0  0  0  0  0  0  0  0
    0.3400    0.8917    1.8618 H   0  0  0  0  0  0  0  0  0  0  0  0
    0.8992    0.2201   -1.0735 H   0  0  0  0  0  0  0  0  0  0  0  0
    1.1549    1.8166   -0.3608 H   0  0  0  0  0  0  0  0  0  0  0  0
    3.4079    0.6287   -0.7229 H   0  0  0  0  0  0  0  0  0  0  0  0
   -2.0273    0.3167   -0.3736 N   0  0  0  0  0  0  0  0  0  0  0  0
   -3.3354    0.6877   -0.8604 C   0  0  2  0  0  0  0  0  0  0  0  0
   -3.8630   -0.4594   -1.7122 C   0  0  0  0  0  0  0  0  0  0  0  0
   -3.1314   -1.2932   -2.2417 O   0  0  0  0  0  0  0  0  0  0  0  0
   -3.2820    1.9794   -1.6612 C   0  0  0  0  0  0  0  0  0  0  0  0
   -1.5998   -0.5219   -0.7554 H   0  0  0  0  0  0  0  0  0  0  0  0
   -3.9759    0.8148    0.0192 H   0  0  0  0  0  0  0  0  0  0  0  0
   -2.6448    1.8714   -2.5465 H   0  0  0  0  0  0  0  0  0  0  0  0
   -4.2787    2.2744   -2.0053 H   0  0  0  0  0  0  0  0  0  0  0  0
   -2.8744    2.7965   -1.0561 H   0  0  0  0  0  0  0  0  0  0  0  0
   -5.2436   -0.4172   -1.8469 N   0  0  0  0  0  0  0  0  0  0  0  0
   -5.9817   -1.3898   -2.6184 C   0  0  0  0  0  0  0  0  0  0  0  0
   -5.7719    0.2990   -1.3573 H   0  0  0  0  0  0  0  0  0  0  0  0
   -6.1083   -1.0227   -3.6476 H   0  0  0  0  0  0  0  0  0  0  0  0
   -5.4294   -2.3410   -2.6340 H   0  0  0  0  0  0  0  0  0  0  0  0
   -6.9698   -1.5470   -2.1612 H   0  0  0  0  0  0  0  0  0  0  0  0
  1  3  1  0  0  0  0
  1  7  1  0  0  0  0
  1  2  2  0  0  0  0
 29 30  1  0  0  0  0
 30 38  1  0  0  0  0
 30 31  2  0  0  0  0
  8  9  1  0  0  0  0
  9 17  1  0  0  0  0
  9 10  2  0  0  0  0
 18 19  1  0  0  0  0
 19 28  1  0  0  0  0
 19 20  2  0  0  0  0
 29 32  1  0  0  0  0
  8 11  1  0  0  0  0
 38 39  1  0  0  0  0
 18 21  1  0  0  0  0
 21 22  1  0  0  0  0
 28 29  1  0  0  0  0
  7  8  1  0  0  0  0
 17 18  1  0  0  0  0
  3  4  1  0  0  0  0
  3  5  1  0  0  0  0
  3  6  1  0  0  0  0
 32 35  1  0  0  0  0
 32 36  1  0  0  0  0
 32 37  1  0  0  0  0
 11 14  1  0  0  0  0
 11 15  1  0  0  0  0
 11 16  1  0  0  0  0
 39 41  1  0  0  0  0
 39 42  1  0  0  0  0
 39 43  1  0  0  0  0
 21 25  1  0  0  0  0
 21 26  1  0  0  0  0
 29 34  1  0  0  0  0
  8 13  1  0  0  0  0
 18 24  1  0  0  0  0
 38 40  1  0  0  0  0
  7 12  1  0  0  0  0
 28 33  1  0  0  0  0
 17 23  1  0  0  0  0
 22 27  1  0  0  0  0
M  END
$$$$

  -OEChem-05262214473D

 43 42  0     1  0  0  0  0  0999 V2000
   -2.8661   -4.7415    2.2943 C   0  0  0  0  0  0  0  0  0  0  0  0
   -2.0233   -5.5727    2.6109 O   0  0  0  0  0  0  0  0  0  0  0  0
   -4.3078   -5.0134    2.5698 C   0  0  0  0  0  0  0  0  0  0  0  0
   -4.8057   -5.5295    1.7332 H   0  0  0  0  0  0  0  0  0  0  0  0
   -4.4526   -5.6688    3.4436 H   0  0  0  0  0  0  0  0  0  0  0  0
   -4.9255   -4.1233    2.7700 H   0  0  0  0  0  0  0  0  0  0  0  0
   -2.6241   -3.5219    1.6838 N   0  0  0  0  0  0  0  0  0  0  0  0
   -1.3070   -3.0608    1.3315 C   0  0  2  0  0  0  0  0  0  0  0  0
   -1.3931   -1.5680    1.0422 C   0  0  0  0  0  0  0  0  0  0  0  0
   -2.4385   -1.0059    0.7226 O   0  0  0  0  0  0  0  0  0  0  0  0
   -0.7590   -3.8164    0.1309 C   0  0  0  0  0  0  0  0  0  0  0  0
   -3.4188   -2.9207    1.4735 H   0  0  0  0  0  0  0  0  0  0  0  0
   -0.6690   -3.2277    2.2062 H   0  0  0  0  0  0  0  0  0  0  0  0
   -1.3852   -3.6613   -0.7553 H   0  0  0  0  0  0  0  0  0  0  0  0
    0.2542   -3.4843   -0.1182 H   0  0  0  0  0  0  0  0  0  0  0  0
   -0.7257   -4.8930    0.3300 H   0  0  0  0  0  0  0  0  0  0  0  0
   -0.1563   -0.9420    1.1402 N   0  0  0  0  0  0  0  0  0  0  0  0
    0.0261    0.4671    0.9001 C   0  0  2  0  0  0  0  0  0  0  0  0
   -1.3231    1.0865    0.5414 C   0  0  0  0  0  0  0  0  0  0  0  0
   -1.6210    2.2474    0.8150 O   0  0  0  0  0  0  0  0  0  0  0  0
    1.1166    0.7449   -0.1375 C   0  0  0  0  0  0  0  0  0  0  0  0
    2.7844    0.2391    0.3963 S   0  0  0  0  0  0  0  0  0  0  0  0
    0.6533   -1.4855    1.4300 H   0  0  0  0  0  0  0  0  0  0  0  0
    0.3400    0.8917    1.8618 H   0  0  0  0  0  0  0  0  0  0  0  0
    0.8992    0.2201   -1.0735 H   0  0  0  0  0  0  0  0  0  0  0  0
    1.1549    1.8166   -0.3608 H   0  0  0  0  0  0  0  0  0  0  0  0
    3.4079    0.6287   -0.7229 H   0  0  0  0  0  0  0  0  0  0  0  0
   -2.1619    0.1838   -0.0967 N   0  0  0  0  0  0  0  0  0  0  0  0
   -3.4968    0.5300   -0.5258 C   0  0  2  0  0  0  0  0  0  0  0  0
   -4.1715   -0.7379   -1.0326 C   0  0  0  0  0  0  0  0  0  0  0  0
   -3.5452   -1.7208   -1.4233 O   0  0  0  0  0  0  0  0  0  0  0  0
   -3.4707    1.6006   -1.6056 C   0  0  0  0  0  0  0  0  0  0  0  0
   -1.8212   -0.7482   -0.3136 H   0  0  0  0  0  0  0  0  0  0  0  0
   -4.0277    0.8985    0.3586 H   0  0  0  0  0  0  0  0  0  0  0  0
   -2.9427    1.2496   -2.4998 H   0  0  0  0  0  0  0  0  0  0  0  0
   -4.4842    1.8824   -1.9095 H   0  0  0  0  0  0  0  0  0  0  0  0
   -2.9587    2.5010   -1.2493 H   0  0  0  0  0  0  0  0  0  0  0  0
   -5.5549   -0.6265   -1.0376 N   0  0  0  0  0  0  0  0  0  0  0  0
   -6.4212   -1.6914   -1.4865 C   0  0  0  0  0  0  0  0  0  0  0  0
   -5.9895    0.2183   -0.6782 H   0  0  0  0  0  0  0  0  0  0  0  0
   -6.6442   -1.5574   -2.5553 H   0  0  0  0  0  0  0  0  0  0  0  0
   -5.9209   -2.6593   -1.3350 H   0  0  0  0  0  0  0  0  0  0  0  0
   -7.3582   -1.6690   -0.9109 H   0  0  0  0  0  0  0  0  0  0  0  0
  1  3  1  0  0  0  0
  1  7  1  0  0  0  0
  1  2  2  0  0  0  0
 29 30  1  0  0  0  0
 30 38  1  0  0  0  0
 30 31  2  0  0  0  0
  8  9  1  0  0  0  0
  9 17  1  0  0  0  0
  9 10  2  0  0  0  0
 18 19  1  0  0  0  0
 19 28  1  0  0  0  0
 19 20  2  0  0  0  0
 29 32  1  0  0  0  0
  8 11  1  0  0  0  0
 38 39  1  0  0  0  0
 18 21  1  0  0  0  0
 21 22  1  0  0  0  0
 28 29  1  0  0  0  0
  7  8  1  0  0  0  0
 17 18  1  0  0  0  0
  3  4  1  0  0  0  0
  3  5  1  0  0  0  0
  3  6  1  0  0  0  0
 32 35  1  0  0  0  0
 32 36  1  0  0  0  0
 32 37  1  0  0  0  0
 11 14  1  0  0  0  0
 11 15  1  0  0  0  0
 11 16  1  0  0  0  0
 39 41  1  0  0  0  0
 39 42  1  0  0  0  0
 39 43  1  0  0  0  0
 21 25  1  0  0  0  0
 21 26  1  0  0  0  0
 29 34  1  0  0  0  0
  8 13  1  0  0  0  0
 18 24  1  0  0  0  0
 38 40  1  0  0  0  0
  7 12  1  0  0  0  0
 28 33  1  0  0  0  0
 17 23  1  0  0  0  0
 22 27  1  0  0  0  0
M  END
$$$$

  -OEChem-05262214473D

 43 42  0     1  0  0  0  0  0999 V2000
   -2.8661   -4.7415    2.2943 C   0  0  0  0  0  0  0  0  0  0  0  0
   -2.0233   -5.5727    2.6109 O   0  0  0  0  0  0  0  0  0  0  0  0
   -4.3078   -5.0134    2.5698 C   0  0  0  0  0  0  0  0  0  0  0  0
   -4.8057   -5.5295    1.7332 H   0  0  0  0  0  0  0  0  0  0  0  0
   -4.4526   -5.6688    3.4436 H   0  0  0  0  0  0  0  0  0  0  0  0
   -4.9255   -4.1233    2.7700 H   0  0  0  0  0  0  0  0  0  0  0  0
   -2.6241   -3.5219    1.6838 N   0  0  0  0  0  0  0  0  0  0  0  0
   -1.3070   -3.0608    1.3315 C   0  0  2  0  0  0  0  0  0  0  0  0
   -1.3931   -1.5680    1.0422 C   0  0  0  0  0  0  0  0  0  0  0  0
   -2.4385   -1.0059    0.7226 O   0  0  0  0  0  0  0  0  0  0  0  0
   -0.7590   -3.8164    0.1309 C   0  0  0  0  0  0  0  0  0  0  0  0
   -3.4188   -2.9207    1.4735 H   0  0  0  0  0  0  0  0  0  0  0  0
   -0.6690   -3.2277    2.2062 H   0  0  0  0  0  0  0  0  0  0  0  0
   -1.3852   -3.6613   -0.7553 H   0  0  0  0  0  0  0  0  0  0  0  0
    0.2542   -3.4843   -0.1182 H   0  0  0  0  0  0  0  0  0  0  0  0
   -0.7257   -4.8930    0.3300 H   0  0  0  0  0  0  0  0  0  0  0  0
   -0.1563   -0.9420    1.1402 N   0  0  0  0  0  0  0  0  0  0  0  0
    0.0261    0.4671    0.9001 C   0  0  2  0  0  0  0  0  0  0  0  0
   -1.3231    1.0865    0.5414 C   0  0  0  0  0  0  0  0  0  0  0  0
   -1.5317    2.2978    0.5661 O   0  0  0  0  0  0  0  0  0  0  0  0
    1.1166    0.7449   -0.1375 C   0  0  0  0  0  0  0  0  0  0  0  0
    2.7844    0.2391    0.3963 S   0  0  0  0  0  0  0  0  0  0  0  0
    0.6533   -1.4855    1.4300 H   0  0  0  0  0  0  0  0  0  0  0  0
    0.3400    0.8917    1.8618 H   0  0  0  0  0  0  0  0  0  0  0  0
    0.8992    0.2201   -1.0735 H   0  0  0  0  0  0  0  0  0  0  0  0
    1.1549    1.8166   -0.3608 H   0  0  0  0  0  0  0  0  0  0  0  0
    3.4079    0.6287   -0.7229 H   0  0  0  0  0  0  0  0  0  0  0  0
   -2.2710    0.1269    0.2152 N   0  0  0  0  0  0  0  0  0  0  0  0
   -3.6271    0.4640   -0.1497 C   0  0  2  0  0  0  0  0  0  0  0  0
   -4.4152   -0.8327   -0.2801 C   0  0  0  0  0  0  0  0  0  0  0  0
   -3.8851   -1.9215   -0.4916 O   0  0  0  0  0  0  0  0  0  0  0  0
   -3.6701    1.2588   -1.4455 C   0  0  0  0  0  0  0  0  0  0  0  0
   -2.0023   -0.8523    0.1881 H   0  0  0  0  0  0  0  0  0  0  0  0
   -4.0371    1.0601    0.6728 H   0  0  0  0  0  0  0  0  0  0  0  0
   -3.2633    0.6777   -2.2812 H   0  0  0  0  0  0  0  0  0  0  0  0
   -4.6964    1.5381   -1.7058 H   0  0  0  0  0  0  0  0  0  0  0  0
   -3.0783    2.1765   -1.3596 H   0  0  0  0  0  0  0  0  0  0  0  0
   -5.7834   -0.6247   -0.1754 N   0  0  0  0  0  0  0  0  0  0  0  0
   -6.7451   -1.6973   -0.2781 C   0  0  0  0  0  0  0  0  0  0  0  0
   -6.1334    0.3088    0.0192 H   0  0  0  0  0  0  0  0  0  0  0  0
   -7.0798   -1.7917   -1.3217 H   0  0  0  0  0  0  0  0  0  0  0  0
   -6.2787   -2.6400    0.0440 H   0  0  0  0  0  0  0  0  0  0  0  0
   -7.6096   -1.4773    0.3655 H   0  0  0  0  0  0  0  0  0  0  0  0
  1  3  1  0  0  0  0
  1  7  1  0  0  0  0
  1  2  2  0  0  0  0
 29 30  1  0  0  0  0
 30 38  1  0  0  0  0
 30 31  2  0  0  0  0
  8  9  1  0  0  0  0
  9 17  1  0  0  0  0
  9 10  2  0  0  0  0
 18 19  1  0  0  0  0
 19 28  1  0  0  0  0
 19 20  2  0  0  0  0
 29 32  1  0  0  0  0
  8 11  1  0  0  0  0
 38 39  1  0  0  0  0
 18 21  1  0  0  0  0
 21 22  1  0  0  0  0
 28 29  1  0  0  0  0
  7  8  1  0  0  0  0
 17 18  1  0  0  0  0
  3  4  1  0  0  0  0
  3  5  1  0  0  0  0
  3  6  1  0  0  0  0
 32 35  1  0  0  0  0
 32 36  1  0  0  0  0
 32 37  1  0  0  0  0
 11 14  1  0  0  0  0
 11 15  1  0  0  0  0
 11 16  1  0  0  0  0
 39 41  1  0  0  0  0
 39 42  1  0  0  0  0
 39 43  1  0  0  0  0
 21 25  1  0  0  0  0
 21 26  1  0  0  0  0
 29 34  1  0  0  0  0
  8 13  1  0  0  0  0
 18 24  1  0  0  0  0
 38 40  1  0  0  0  0
  7 12  1  0  0  0  0
 28 33  1  0  0  0  0
 17 23  1  0  0  0  0
 22 27  1  0  0  0  0
M  END
$$$$

  -OEChem-05262214473D

 43 42  0     1  0  0  0  0  0999 V2000
   -2.8661   -4.7415    2.2943 C   0  0  0  0  0  0  0  0  0  0  0  0
   -2.0233   -5.5727    2.6109 O   0  0  0  0  0  0  0  0  0  0  0  0
   -4.3078   -5.0134    2.5698 C   0  0  0  0  0  0  0  0  0  0  0  0
   -4.8057   -5.5295    1.7332 H   0  0  0  0  0  0  0  0  0  0  0  0
   -4.4526   -5.6688    3.4436 H   0  0  0  0  0  0  0  0  0  0  0  0
   -4.9255   -4.1233    2.7700 H   0  0  0  0  0  0  0  0  0  0  0  0
   -2.6241   -3.5219    1.6838 N   0  0  0  0  0  0  0  0  0  0  0  0
   -1.3070   -3.0608    1.3315 C   0  0  2  0  0  0  0  0  0  0  0  0
   -1.3931   -1.5680    1.0422 C   0  0  0  0  0  0  0  0  0  0  0  0
   -2.4385   -1.0059    0.7226 O   0  0  0  0  0  0  0  0  0  0  0  0
   -0.7590   -3.8164    0.1309 C   0  0  0  0  0  0  0  0  0  0  0  0
   -3.4188   -2.9207    1.4735 H   0  0  0  0  0  0  0  0  0  0  0  0
   -0.6690   -3.2277    2.2062 H   0  0  0  0  0  0  0  0  0  0  0  0
   -1.3852   -3.6613   -0.7553 H   0  0  0  0  0  0  0  0  0  0  0  0
    0.2542   -3.4843   -0.1182 H   0  0  0  0  0  0  0  0  0  0  0  0
   -0.7257   -4.8930    0.3300 H   0  0  0  0  0  0  0  0  0  0  0  0
   -0.1563   -0.9420    1.1402 N   0  0  0  0  0  0  0  0  0  0  0  0
    0.0261    0.4671    0.9001 C   0  0  2  0  0  0  0  0  0  0  0  0
   -1.3231    1.0865    0.5414 C   0  0  0  0  0  0  0  0  0  0  0  0
   -1.4685    2.2841    0.3049 O   0  0  0  0  0  0  0  0  0  0  0  0
    1.1166    0.7449   -0.1375 C   0  0  0  0  0  0  0  0  0  0  0  0
    2.7844    0.2391    0.3963 S   0  0  0  0  0  0  0  0  0  0  0  0
    0.6533   -1.4855    1.4300 H   0  0  0  0  0  0  0  0  0  0  0  0
    0.3400    0.8917    1.8618 H   0  0  0  0  0  0  0  0  0  0  0  0
    0.8992    0.2201   -1.0735 H   0  0  0  0  0  0  0  0  0  0  0  0
    1.1549    1.8166   -0.3608 H   0  0  0  0  0  0  0  0  0  0  0  0
    3.4079    0.6287   -0.7229 H   0  0  0  0  0  0  0  0  0  0  0  0
   -2.3471    0.1499    0.5410 N   0  0  0  0  0  0  0  0  0  0  0  0
   -3.7175    0.4941    0.2424 C   0  0  2  0  0  0  0  0  0  0  0  0
   -4.5773   -0.7375    0.4941 C   0  0  0  0  0  0  0  0  0  0  0  0
   -4.1278   -1.8816    0.4899 O   0  0  0  0  0  0  0  0  0  0  0  0
   -3.8667    0.9774   -1.1918 C   0  0  0  0  0  0  0  0  0  0  0  0
   -2.1310   -0.8271    0.7155 H   0  0  0  0  0  0  0  0  0  0  0  0
   -4.0033    1.2886    0.9404 H   0  0  0  0  0  0  0  0  0  0  0  0
   -3.5848    0.1948   -1.9056 H   0  0  0  0  0  0  0  0  0  0  0  0
   -4.9009    1.2650   -1.4080 H   0  0  0  0  0  0  0  0  0  0  0  0
   -3.2252    1.8451   -1.3794 H   0  0  0  0  0  0  0  0  0  0  0  0
   -5.9134   -0.4119    0.6811 N   0  0  0  0  0  0  0  0  0  0  0  0
   -6.9316   -1.4069    0.9245 C   0  0  0  0  0  0  0  0  0  0  0  0
   -6.1937    0.5644    0.6871 H   0  0  0  0  0  0  0  0  0  0  0  0
   -7.3853   -1.7094   -0.0309 H   0  0  0  0  0  0  0  0  0  0  0  0
   -6.4784   -2.2842    1.4091 H   0  0  0  0  0  0  0  0  0  0  0  0
   -7.7069   -0.9850    1.5810 H   0  0  0  0  0  0  0  0  0  0  0  0
  1  3  1  0  0  0  0
  1  7  1  0  0  0  0
  1  2  2  0  0  0  0
 29 30  1  0  0  0  0
 30 38  1  0  0  0  0
 30 31  2  0  0  0  0
  8  9  1  0  0  0  0
  9 17  1  0  0  0  0
  9 10  2  0  0  0  0
 18 19  1  0  0  0  0
 19 28  1  0  0  0  0
 19 20  2  0  0  0  0
 29 32  1  0  0  0  0
  8 11  1  0  0  0  0
 38 39  1  0  0  0  0
 18 21  1  0  0  0  0
 21 22  1  0  0  0  0
 28 29  1  0  0  0  0
  7  8  1  0  0  0  0
 17 18  1  0  0  0  0
  3  4  1  0  0  0  0
  3  5  1  0  0  0  0
  3  6  1  0  0  0  0
 32 35  1  0  0  0  0
 32 36  1  0  0  0  0
 32 37  1  0  0  0  0
 11 14  1  0  0  0  0
 11 15  1  0  0  0  0
 11 16  1  0  0  0  0
 39 41  1  0  0  0  0
 39 42  1  0  0  0  0
 39 43  1  0  0  0  0
 21 25  1  0  0  0  0
 21 26  1  0  0  0  0
 29 34  1  0  0  0  0
  8 13  1  0  0  0  0
 18 24  1  0  0  0  0
 38 40  1  0  0  0  0
  7 12  1  0  0  0  0
 28 33  1  0  0  0  0
 17 23  1  0  0  0  0
 22 27  1  0  0  0  0
M  END
$$$$

  -OEChem-05262214473D

 43 42  0     1  0  0  0  0  0999 V2000
   -2.8661   -4.7415    2.2943 C   0  0  0  0  0  0  0  0  0  0  0  0
   -2.0233   -5.5727    2.6109 O   0  0  0  0  0  0  0  0  0  0  0  0
   -4.3078   -5.0134    2.5698 C   0  0  0  0  0  0  0  0  0  0  0  0
   -4.8057   -5.5295    1.7332 H   0  0  0  0  0  0  0  0  0  0  0  0
   -4.4526   -5.6688    3.4436 H   0  0  0  0  0  0  0  0  0  0  0  0
   -4.9255   -4.1233    2.7700 H   0  0  0  0  0  0  0  0  0  0  0  0
   -2.6241   -3.5219    1.6838 N   0  0  0  0  0  0  0  0  0  0  0  0
   -1.3070   -3.0608    1.3315 C   0  0  2  0  0  0  0  0  0  0  0  0
   -1.3931   -1.5680    1.0422 C   0  0  0  0  0  0  0  0  0  0  0  0
   -2.4385   -1.0059    0.7226 O   0  0  0  0  0  0  0  0  0  0  0  0
   -0.7590   -3.8164    0.1309 C   0  0  0  0  0  0  0  0  0  0  0  0
   -3.4188   -2.9207    1.4735 H   0  0  0  0  0  0  0  0  0  0  0  0
   -0.6690   -3.2277    2.2062 H   0  0  0  0  0  0  0  0  0  0  0  0
   -1.3852   -3.6613   -0.7553 H   0  0  0  0  0  0  0  0  0  0  0  0
    0.2542   -3.4843   -0.1182 H   0  0  0  0  0  0  0  0  0  0  0  0
   -0.7257   -4.8930    0.3300 H   0  0  0  0  0  0  0  0  0  0  0  0
   -0.1563   -0.9420    1.1402 N   0  0  0  0  0  0  0  0  0  0  0  0
    0.0261    0.4671    0.9001 C   0  0  2  0  0  0  0  0  0  0  0  0
   -1.3231    1.0865    0.5414 C   0  0  0  0  0  0  0  0  0  0  0  0
   -1.4357    2.2073    0.0490 O   0  0  0  0  0  0  0  0  0  0  0  0
    1.1166    0.7449   -0.1375 C   0  0  0  0  0  0  0  0  0  0  0  0
    2.7844    0.2391    0.3963 S   0  0  0  0  0  0  0  0  0  0  0  0
    0.6533   -1.4855    1.4300 H   0  0  0  0  0  0  0  0  0  0  0  0
    0.3400    0.8917    1.8618 H   0  0  0  0  0  0  0  0  0  0  0  0
    0.8992    0.2201   -1.0735 H   0  0  0  0  0  0  0  0  0  0  0  0
    1.1549    1.8166   -0.3608 H   0  0  0  0  0  0  0  0  0  0  0  0
    3.4079    0.6287   -0.7229 H   0  0  0  0  0  0  0  0  0  0  0  0
   -2.3849    0.2513    0.8584 N   0  0  0  0  0  0  0  0  0  0  0  0
   -3.7619    0.6184    0.6237 C   0  0  2  0  0  0  0  0  0  0  0  0
   -4.6469   -0.4587    1.2370 C   0  0  0  0  0  0  0  0  0  0  0  0
   -4.2568   -1.6040    1.4543 O   0  0  0  0  0  0  0  0  0  0  0  0
   -4.0471    0.7755   -0.8617 C   0  0  0  0  0  0  0  0  0  0  0  0
   -2.1985   -0.6744    1.2327 H   0  0  0  0  0  0  0  0  0  0  0  0
   -3.9288    1.5684    1.1430 H   0  0  0  0  0  0  0  0  0  0  0  0
   -3.8853   -0.1662   -1.3987 H   0  0  0  0  0  0  0  0  0  0  0  0
   -5.0839    1.0817   -1.0364 H   0  0  0  0  0  0  0  0  0  0  0  0
   -3.3892    1.5295   -1.3073 H   0  0  0  0  0  0  0  0  0  0  0  0
   -5.9362   -0.0027    1.4733 N   0  0  0  0  0  0  0  0  0  0  0  0
   -6.9679   -0.8401    2.0393 C   0  0  0  0  0  0  0  0  0  0  0  0
   -6.1663    0.9677    1.2802 H   0  0  0  0  0  0  0  0  0  0  0  0
   -7.5398   -1.3162    1.2292 H   0  0  0  0  0  0  0  0  0  0  0  0
   -6.5064   -1.6163    2.6674 H   0  0  0  0  0  0  0  0  0  0  0  0
   -7.6433   -0.2256    2.6527 H   0  0  0  0  0  0  0  0  0  0  0  0
  1  3  1  0  0  0  0
  1  7  1  0  0  0  0
  1  2  2  0  0  0  0
 29 30  1  0  0  0  0
 30 38  1  0  0  0  0
 30 31  2  0  0  0  0
  8  9  1  0  0  0  0
  9 17  1  0  0  0  0
  9 10  2  0  0  0  0
 18 19  1  0  0  0  0
 19 28  1  0  0  0  0
 19 20  2  0  0  0  0
 29 32  1  0  0  0  0
  8 11  1  0  0  0  0
 38 39  1  0  0  0  0
 18 21  1  0  0  0  0
 21 22  1  0  0  0  0
 28 29  1  0  0  0  0
  7  8  1  0  0  0  0
 17 18  1  0  0  0  0
  3  4  1  0  0  0  0
  3  5  1  0  0  0  0
  3  6  1  0  0  0  0
 32 35  1  0  0  0  0
 32 36  1  0  0  0  0
 32 37  1  0  0  0  0
 11 14  1  0  0  0  0
 11 15  1  0  0  0  0
 11 16  1  0  0  0  0
 39 41  1  0  0  0  0
 39 42  1  0  0  0  0
 39 43  1  0  0  0  0
 21 25  1  0  0  0  0
 21 26  1  0  0  0  0
 29 34  1  0  0  0  0
  8 13  1  0  0  0  0
 18 24  1  0  0  0  0
 38 40  1  0  0  0  0
  7 12  1  0  0  0  0
 28 33  1  0  0  0  0
 17 23  1  0  0  0  0
 22 27  1  0  0  0  0
M  END
$$$$

  -OEChem-05262214473D

 43 42  0     1  0  0  0  0  0999 V2000
   -2.8661   -4.7415    2.2943 C   0  0  0  0  0  0  0  0  0  0  0  0
   -2.0233   -5.5727    2.6109 O   0  0  0  0  0  0  0  0  0  0  0  0
   -4.3078   -5.0134    2.5698 C   0  0  0  0  0  0  0  0  0  0  0  0
   -4.8057   -5.5295    1.7332 H   0  0  0  0  0  0  0  0  0  0  0  0
   -4.4526   -5.6688    3.4436 H   0  0  0  0  0  0  0  0  0  0  0  0
   -4.9255   -4.1233    2.7700 H   0  0  0  0  0  0  0  0  0  0  0  0
   -2.6241   -3.5219    1.6838 N   0  0  0  0  0  0  0  0  0  0  0  0
   -1.3070   -3.0608    1.3315 C   0  0  2  0  0  0  0  0  0  0  0  0
   -1.3931   -1.5680    1.0422 C   0  0  0  0  0  0  0  0  0  0  0  0
   -2.4385   -1.0059    0.7226 O   0  0  0  0  0  0  0  0  0  0  0  0
   -0.7590   -3.8164    0.1309 C   0  0  0  0  0  0  0  0  0  0  0  0
   -3.4188   -2.9207    1.4735 H   0  0  0  0  0  0  0  0  0  0  0  0
   -0.6690   -3.2277    2.2062 H   0  0  0  0  0  0  0  0  0  0  0  0
   -1.3852   -3.6613   -0.7553 H   0  0  0  0  0  0  0  0  0  0  0  0
    0.2542   -3.4843   -0.1182 H   0  0  0  0  0  0  0  0  0  0  0  0
   -0.7257   -4.8930    0.3300 H   0  0  0  0  0  0  0  0  0  0  0  0
   -0.1563   -0.9420    1.1402 N   0  0  0  0  0  0  0  0  0  0  0  0
    0.0261    0.4671    0.9001 C   0  0  2  0  0  0  0  0  0  0  0  0
   -1.3231    1.0865    0.5414 C   0  0  0  0  0  0  0  0  0  0  0  0
   -1.4356    2.0726   -0.1840 O   0  0  0  0  0  0  0  0  0  0  0  0
    1.1166    0.7449   -0.1375 C   0  0  0  0  0  0  0  0  0  0  0  0
    2.7844    0.2391    0.3963 S   0  0  0  0  0  0  0  0  0  0  0  0
    0.6533   -1.4855    1.4300 H   0  0  0  0  0  0  0  0  0  0  0  0
    0.3400    0.8917    1.8618 H   0  0  0  0  0  0  0  0  0  0  0  0
    0.8992    0.2201   -1.0735 H   0  0  0  0  0  0  0  0  0  0  0  0
    1.1549    1.8166   -0.3608 H   0  0  0  0  0  0  0  0  0  0  0  0
    3.4079    0.6287   -0.7229 H   0  0  0  0  0  0  0  0  0  0  0  0
   -2.3821    0.4240    1.1458 N   0  0  0  0  0  0  0  0  0  0  0  0
   -3.7571    0.8283    0.9683 C   0  0  2  0  0  0  0  0  0  0  0  0
   -4.6192   -0.0152    1.8983 C   0  0  0  0  0  0  0  0  0  0  0  0
   -4.2633   -1.1074    2.3359 O   0  0  0  0  0  0  0  0  0  0  0  0
   -4.1990    0.6670   -0.4778 C   0  0  0  0  0  0  0  0  0  0  0  0
   -2.2000   -0.4045    1.7045 H   0  0  0  0  0  0  0  0  0  0  0  0
   -3.8185    1.8805    1.2669 H   0  0  0  0  0  0  0  0  0  0  0  0
   -4.1444   -0.3808   -0.7950 H   0  0  0  0  0  0  0  0  0  0  0  0
   -5.2327    1.0008   -0.6165 H   0  0  0  0  0  0  0  0  0  0  0  0
   -3.5593    1.2510   -1.1483 H   0  0  0  0  0  0  0  0  0  0  0  0
   -5.8502    0.5752    2.1474 N   0  0  0  0  0  0  0  0  0  0  0  0
   -6.8515   -0.0355    2.9903 C   0  0  0  0  0  0  0  0  0  0  0  0
   -6.0530    1.4912    1.7580 H   0  0  0  0  0  0  0  0  0  0  0  0
   -7.5330   -0.6389    2.3727 H   0  0  0  0  0  0  0  0  0  0  0  0
   -6.3608   -0.6817    3.7330 H   0  0  0  0  0  0  0  0  0  0  0  0
   -7.4232    0.7490    3.5076 H   0  0  0  0  0  0  0  0  0  0  0  0
  1  3  1  0  0  0  0
  1  7  1  0  0  0  0
  1  2  2  0  0  0  0
 29 30  1  0  0  0  0
 30 38  1  0  0  0  0
 30 31  2  0  0  0  0
  8  9  1  0  0  0  0
  9 17  1  0  0  0  0
  9 10  2  0  0  0  0
 18 19  1  0  0  0  0
 19 28  1  0  0  0  0
 19 20  2  0  0  0  0
 29 32  1  0  0  0  0
  8 11  1  0  0  0  0
 38 39  1  0  0  0  0
 18 21  1  0  0  0  0
 21 22  1  0  0  0  0
 28 29  1  0  0  0  0
  7  8  1  0  0  0  0
 17 18  1  0  0  0  0
  3  4  1  0  0  0  0
  3  5  1  0  0  0  0
  3  6  1  0  0  0  0
 32 35  1  0  0  0  0
 32 36  1  0  0  0  0
 32 37  1  0  0  0  0
 11 14  1  0  0  0  0
 11 15  1  0  0  0  0
 11 16  1  0  0  0  0
 39 41  1  0  0  0  0
 39 42  1  0  0  0  0
 39 43  1  0  0  0  0
 21 25  1  0  0  0  0
 21 26  1  0  0  0  0
 29 34  1  0  0  0  0
  8 13  1  0  0  0  0
 18 24  1  0  0  0  0
 38 40  1  0  0  0  0
  7 12  1  0  0  0  0
 28 33  1  0  0  0  0
 17 23  1  0  0  0  0
 22 27  1  0  0  0  0
M  END
$$$$

  -OEChem-05262214473D

 43 42  0     1  0  0  0  0  0999 V2000
   -2.8661   -4.7415    2.2943 C   0  0  0  0  0  0  0  0  0  0  0  0
   -2.0233   -5.5727    2.6109 O   0  0  0  0  0  0  0  0  0  0  0  0
   -4.3078   -5.0134    2.5698 C   0  0  0  0  0  0  0  0  0  0  0  0
   -4.8057   -5.5295    1.7332 H   0  0  0  0  0  0  0  0  0  0  0  0
   -4.4526   -5.6688    3.4436 H   0  0  0  0  0  0  0  0  0  0  0  0
   -4.9255   -4.1233    2.7700 H   0  0  0  0  0  0  0  0  0  0  0  0
   -2.6241   -3.5219    1.6838 N   0  0  0  0  0  0  0  0  0  0  0  0
   -1.3070   -3.0608    1.3315 C   0  0  2  0  0  0  0  0  0  0  0  0
   -1.3931   -1.5680    1.0422 C   0  0  0  0  0  0  0  0  0  0  0  0
   -2.4385   -1.0059    0.7226 O   0  0  0  0  0  0  0  0  0  0  0  0
   -0.7590   -3.8164    0.1309 C   0  0  0  0  0  0  0  0  0  0  0  0
   -3.4188   -2.9207    1.4735 H   0  0  0  0  0  0  0  0  0  0  0  0
   -0.6690   -3.2277    2.2062 H   0  0  0  0  0  0  0  0  0  0  0  0
   -1.3852   -3.6613   -0.7553 H   0  0  0  0  0  0  0  0  0  0  0  0
    0.2542   -3.4843   -0.1182 H   0  0  0  0  0  0  0  0  0  0  0  0
   -0.7257   -4.8930    0.3300 H   0  0  0  0  0  0  0  0  0  0  0  0
   -0.1563   -0.9420    1.1402 N   0  0  0  0  0  0  0  0  0  0  0  0
    0.0261    0.4671    0.9001 C   0  0  2  0  0  0  0  0  0  0  0  0
   -1.3231    1.0865    0.5414 C   0  0  0  0  0  0  0  0  0  0  0  0
   -1.4680    1.8893   -0.3784 O   0  0  0  0  0  0  0  0  0  0  0  0
    1.1166    0.7449   -0.1375 C   0  0  0  0  0  0  0  0  0  0  0  0
    2.7844    0.2391    0.3963 S   0  0  0  0  0  0  0  0  0  0  0  0
    0.6533   -1.4855    1.4300 H   0  0  0  0  0  0  0  0  0  0  0  0
    0.3400    0.8917    1.8618 H   0  0  0  0  0  0  0  0  0  0  0  0
    0.8992    0.2201   -1.0735 H   0  0  0  0  0  0  0  0  0  0  0  0
    1.1549    1.8166   -0.3608 H   0  0  0  0  0  0  0  0  0  0  0  0
    3.4079    0.6287   -0.7229 H   0  0  0  0  0  0  0  0  0  0  0  0
   -2.3386    0.6564    1.3836 N   0  0  0  0  0  0  0  0  0  0  0  0
   -3.7036    1.1096    1.2527 C   0  0  2  0  0  0  0  0  0  0  0  0
   -4.4960    0.5626    2.4327 C   0  0  0  0  0  0  0  0  0  0  0  0
   -4.1469   -0.4258    3.0747 O   0  0  0  0  0  0  0  0  0  0  0  0
   -4.3121    0.6592   -0.0663 C   0  0  0  0  0  0  0  0  0  0  0  0
   -2.1356   -0.0359    2.0986 H   0  0  0  0  0  0  0  0  0  0  0  0
   -3.6799    2.2036    1.3036 H   0  0  0  0  0  0  0  0  0  0  0  0
   -4.3442   -0.4343   -0.1356 H   0  0  0  0  0  0  0  0  0  0  0  0
   -5.3373    1.0276   -0.1766 H   0  0  0  0  0  0  0  0  0  0  0  0
   -3.7239    1.0287   -0.9132 H   0  0  0  0  0  0  0  0  0  0  0  0
   -5.6613    1.2822    2.6573 N   0  0  0  0  0  0  0  0  0  0  0  0
   -6.5903    0.9520    3.7127 C   0  0  0  0  0  0  0  0  0  0  0  0
   -5.8617    2.0992    2.0880 H   0  0  0  0  0  0  0  0  0  0  0  0
   -7.3652    0.2763    3.3217 H   0  0  0  0  0  0  0  0  0  0  0  0
   -6.0515    0.4558    4.5334 H   0  0  0  0  0  0  0  0  0  0  0  0
   -7.0617    1.8725    4.0874 H   0  0  0  0  0  0  0  0  0  0  0  0
  1  3  1  0  0  0  0
  1  7  1  0  0  0  0
  1  2  2  0  0  0  0
 29 30  1  0  0  0  0
 30 38  1  0  0  0  0
 30 31  2  0  0  0  0
  8  9  1  0  0  0  0
  9 17  1  0  0  0  0
  9 10  2  0  0  0  0
 18 19  1  0  0  0  0
 19 28  1  0  0  0  0
 19 20  2  0  0  0  0
 29 32  1  0  0  0  0
  8 11  1  0  0  0  0
 38 39  1  0  0  0  0
 18 21  1  0  0  0  0
 21 22  1  0  0  0  0
 28 29  1  0  0  0  0
  7  8  1  0  0  0  0
 17 18  1  0  0  0  0
  3  4  1  0  0  0  0
  3  5  1  0  0  0  0
  3  6  1  0  0  0  0
 32 35  1  0  0  0  0
 32 36  1  0  0  0  0
 32 37  1  0  0  0  0
 11 14  1  0  0  0  0
 11 15  1  0  0  0  0
 11 16  1  0  0  0  0
 39 41  1  0  0  0  0
 39 42  1  0  0  0  0
 39 43  1  0  0  0  0
 21 25  1  0  0  0  0
 21 26  1  0  0  0  0
 29 34  1  0  0  0  0
  8 13  1  0  0  0  0
 18 24  1  0  0  0  0
 38 40  1  0  0  0  0
  7 12  1  0  0  0  0
 28 33  1  0  0  0  0
 17 23  1  0  0  0  0
 22 27  1  0  0  0  0
M  END
$$$$

  -OEChem-05262214473D

 43 42  0     1  0  0  0  0  0999 V2000
   -2.8661   -4.7415    2.2943 C   0  0  0  0  0  0  0  0  0  0  0  0
   -2.0233   -5.5727    2.6109 O   0  0  0  0  0  0  0  0  0  0  0  0
   -4.3078   -5.0134    2.5698 C   0  0  0  0  0  0  0  0  0  0  0  0
   -4.8057   -5.5295    1.7332 H   0  0  0  0  0  0  0  0  0  0  0  0
   -4.4526   -5.6688    3.4436 H   0  0  0  0  0  0  0  0  0  0  0  0
   -4.9255   -4.1233    2.7700 H   0  0  0  0  0  0  0  0  0  0  0  0
   -2.6241   -3.5219    1.6838 N   0  0  0  0  0  0  0  0  0  0  0  0
   -1.3070   -3.0608    1.3315 C   0  0  2  0  0  0  0  0  0  0  0  0
   -1.3931   -1.5680    1.0422 C   0  0  0  0  0  0  0  0  0  0  0  0
   -2.4385   -1.0059    0.7226 O   0  0  0  0  0  0  0  0  0  0  0  0
   -0.7590   -3.8164    0.1309 C   0  0  0  0  0  0  0  0  0  0  0  0
   -3.4188   -2.9207    1.4735 H   0  0  0  0  0  0  0  0  0  0  0  0
   -0.6690   -3.2277    2.2062 H   0  0  0  0  0  0  0  0  0  0  0  0
   -1.3852   -3.6613   -0.7553 H   0  0  0  0  0  0  0  0  0  0  0  0
    0.2542   -3.4843   -0.1182 H   0  0  0  0  0  0  0  0  0  0  0  0
   -0.7257   -4.8930    0.3300 H   0  0  0  0  0  0  0  0  0  0  0  0
   -0.1563   -0.9420    1.1402 N   0  0  0  0  0  0  0  0  0  0  0  0
    0.0261    0.4671    0.9001 C   0  0  2  0  0  0  0  0  0  0  0  0
   -1.3231    1.0865    0.5414 C   0  0  0  0  0  0  0  0  0  0  0  0
   -1.5310    1.6697   -0.5207 O   0  0  0  0  0  0  0  0  0  0  0  0
    1.1166    0.7449   -0.1375 C   0  0  0  0  0  0  0  0  0  0  0  0
    2.7844    0.2391    0.3963 S   0  0  0  0  0  0  0  0  0  0  0  0
    0.6533   -1.4855    1.4300 H   0  0  0  0  0  0  0  0  0  0  0  0
    0.3400    0.8917    1.8618 H   0  0  0  0  0  0  0  0  0  0  0  0
    0.8992    0.2201   -1.0735 H   0  0  0  0  0  0  0  0  0  0  0  0
    1.1549    1.8166   -0.3608 H   0  0  0  0  0  0  0  0  0  0  0  0
    3.4079    0.6287   -0.7229 H   0  0  0  0  0  0  0  0  0  0  0  0
   -2.2576    0.9327    1.5556 N   0  0  0  0  0  0  0  0  0  0  0  0
   -3.6050    1.4431    1.4574 C   0  0  2  0  0  0  0  0  0  0  0  0
   -4.2859    1.2354    2.8038 C   0  0  0  0  0  0  0  0  0  0  0  0
   -3.9154    0.3944    3.6202 O   0  0  0  0  0  0  0  0  0  0  0  0
   -4.3785    0.7526    0.3449 C   0  0  0  0  0  0  0  0  0  0  0  0
   -2.0096    0.4064    2.3882 H   0  0  0  0  0  0  0  0  0  0  0  0
   -3.5226    2.5157    1.2507 H   0  0  0  0  0  0  0  0  0  0  0  0
   -4.4714   -0.3230    0.5345 H   0  0  0  0  0  0  0  0  0  0  0  0
   -5.3906    1.1605    0.2530 H   0  0  0  0  0  0  0  0  0  0  0  0
   -3.8716    0.8778   -0.6180 H   0  0  0  0  0  0  0  0  0  0  0  0
   -5.3823    2.0703    2.9684 N   0  0  0  0  0  0  0  0  0  0  0  0
   -6.2022    2.0551    4.1574 C   0  0  0  0  0  0  0  0  0  0  0  0
   -5.6053    2.7503    2.2476 H   0  0  0  0  0  0  0  0  0  0  0  0
   -7.0479    1.3671    4.0114 H   0  0  0  0  0  0  0  0  0  0  0  0
   -5.5996    1.7187    5.0139 H   0  0  0  0  0  0  0  0  0  0  0  0
   -6.5833    3.0683    4.3527 H   0  0  0  0  0  0  0  0  0  0  0  0
  1  3  1  0  0  0  0
  1  7  1  0  0  0  0
  1  2  2  0  0  0  0
 29 30  1  0  0  0  0
 30 38  1  0  0  0  0
 30 31  2  0  0  0  0
  8  9  1  0  0  0  0
  9 17  1  0  0  0  0
  9 10  2  0  0  0  0
 18 19  1  0  0  0  0
 19 28  1  0  0  0  0
 19 20  2  0  0  0  0
 29 32  1  0  0  0  0
  8 11  1  0  0  0  0
 38 39  1  0  0  0  0
 18 21  1  0  0  0  0
 21 22  1  0  0  0  0
 28 29  1  0  0  0  0
  7  8  1  0  0  0  0
 17 18  1  0  0  0  0
  3  4  1  0  0  0  0
  3  5  1  0  0  0  0
  3  6  1  0  0  0  0
 32 35  1  0  0  0  0
 32 36  1  0  0  0  0
 32 37  1  0  0  0  0
 11 14  1  0  0  0  0
 11 15  1  0  0  0  0
 11 16  1  0  0  0  0
 39 41  1  0  0  0  0
 39 42  1  0  0  0  0
 39 43  1  0  0  0  0
 21 25  1  0  0  0  0
 21 26  1  0  0  0  0
 29 34  1  0  0  0  0
  8 13  1  0  0  0  0
 18 24  1  0  0  0  0
 38 40  1  0  0  0  0
  7 12  1  0  0  0  0
 28 33  1  0  0  0  0
 17 23  1  0  0  0  0
 22 27  1  0  0  0  0
M  END
$$$$

  -OEChem-05262214473D

 43 42  0     1  0  0  0  0  0999 V2000
   -2.8661   -4.7415    2.2943 C   0  0  0  0  0  0  0  0  0  0  0  0
   -2.0233   -5.5727    2.6109 O   0  0  0  0  0  0  0  0  0  0  0  0
   -4.3078   -5.0134    2.5698 C   0  0  0  0  0  0  0  0  0  0  0  0
   -4.8057   -5.5295    1.7332 H   0  0  0  0  0  0  0  0  0  0  0  0
   -4.4526   -5.6688    3.4436 H   0  0  0  0  0  0  0  0  0  0  0  0
   -4.9255   -4.1233    2.7700 H   0  0  0  0  0  0  0  0  0  0  0  0
   -2.6241   -3.5219    1.6838 N   0  0  0  0  0  0  0  0  0  0  0  0
   -1.3070   -3.0608    1.3315 C   0  0  2  0  0  0  0  0  0  0  0  0
   -1.3931   -1.5680    1.0422 C   0  0  0  0  0  0  0  0  0  0  0  0
   -2.4385   -1.0059    0.7226 O   0  0  0  0  0  0  0  0  0  0  0  0
   -0.7590   -3.8164    0.1309 C   0  0  0  0  0  0  0  0  0  0  0  0
   -3.4188   -2.9207    1.4735 H   0  0  0  0  0  0  0  0  0  0  0  0
   -0.6690   -3.2277    2.2062 H   0  0  0  0  0  0  0  0  0  0  0  0
   -1.3852   -3.6613   -0.7553 H   0  0  0  0  0  0  0  0  0  0  0  0
    0.2542   -3.4843   -0.1182 H   0  0  0  0  0  0  0  0  0  0  0  0
   -0.7257   -4.8930    0.3300 H   0  0  0  0  0  0  0  0  0  0  0  0
   -0.1563   -0.9420    1.1402 N   0  0  0  0  0  0  0  0  0  0  0  0
    0.0261    0.4671    0.9001 C   0  0  2  0  0  0  0  0  0  0  0  0
   -1.3231    1.0865    0.5414 C   0  0  0  0  0  0  0  0  0  0  0  0
   -1.6201    1.4289   -0.6014 O   0  0  0  0  0  0  0  0  0  0  0  0
    1.1166    0.7449   -0.1375 C   0  0  0  0  0  0  0  0  0  0  0  0
    2.7844    0.2391    0.3963 S   0  0  0  0  0  0  0  0  0  0  0  0
    0.6533   -1.4855    1.4300 H   0  0  0  0  0  0  0  0  0  0  0  0
    0.3400    0.8917    1.8618 H   0  0  0  0  0  0  0  0  0  0  0  0
    0.8992    0.2201   -1.0735 H   0  0  0  0  0  0  0  0  0  0  0  0
    1.1549    1.8166   -0.3608 H   0  0  0  0  0  0  0  0  0  0  0  0
    3.4079    0.6287   -0.7229 H   0  0  0  0  0  0  0  0  0  0  0  0
   -2.1444    1.2339    1.6501 N   0  0  0  0  0  0  0  0  0  0  0  0
   -3.4680    1.8060    1.5686 C   0  0  2  0  0  0  0  0  0  0  0  0
   -4.0030    1.9574    2.9864 C   0  0  0  0  0  0  0  0  0  0  0  0
   -3.5848    1.2973    3.9353 O   0  0  0  0  0  0  0  0  0  0  0  0
   -4.3939    0.9409    0.7277 C   0  0  0  0  0  0  0  0  0  0  0  0
   -1.8306    0.8922    2.5537 H   0  0  0  0  0  0  0  0  0  0  0  0
   -3.3572    2.7955    1.1117 H   0  0  0  0  0  0  0  0  0  0  0  0
   -4.5171   -0.0546    1.1697 H   0  0  0  0  0  0  0  0  0  0  0  0
   -5.3888    1.3904    0.6432 H   0  0  0  0  0  0  0  0  0  0  0  0
   -3.9926    0.8085   -0.2828 H   0  0  0  0  0  0  0  0  0  0  0  0
   -5.0322    2.8856    3.0595 N   0  0  0  0  0  0  0  0  0  0  0  0
   -5.7135    3.1988    4.2939 C   0  0  0  0  0  0  0  0  0  0  0  0
   -5.3013    3.4001    2.2260 H   0  0  0  0  0  0  0  0  0  0  0  0
   -6.6028    2.5592    4.3949 H   0  0  0  0  0  0  0  0  0  0  0  0
   -5.0358    3.0210    5.1419 H   0  0  0  0  0  0  0  0  0  0  0  0
   -6.0207    4.2550    4.2852 H   0  0  0  0  0  0  0  0  0  0  0  0
  1  3  1  0  0  0  0
  1  7  1  0  0  0  0
  1  2  2  0  0  0  0
 29 30  1  0  0  0  0
 30 38  1  0  0  0  0
 30 31  2  0  0  0  0
  8  9  1  0  0  0  0
  9 17  1  0  0  0  0
  9 10  2  0  0  0  0
 18 19  1  0  0  0  0
 19 28  1  0  0  0  0
 19 20  2  0  0  0  0
 29 32  1  0  0  0  0
  8 11  1  0  0  0  0
 38 39  1  0  0  0  0
 18 21  1  0  0  0  0
 21 22  1  0  0  0  0
 28 29  1  0  0  0  0
  7  8  1  0  0  0  0
 17 18  1  0  0  0  0
  3  4  1  0  0  0  0
  3  5  1  0  0  0  0
  3  6  1  0  0  0  0
 32 35  1  0  0  0  0
 32 36  1  0  0  0  0
 32 37  1  0  0  0  0
 11 14  1  0  0  0  0
 11 15  1  0  0  0  0
 11 16  1  0  0  0  0
 39 41  1  0  0  0  0
 39 42  1  0  0  0  0
 39 43  1  0  0  0  0
 21 25  1  0  0  0  0
 21 26  1  0  0  0  0
 29 34  1  0  0  0  0
  8 13  1  0  0  0  0
 18 24  1  0  0  0  0
 38 40  1  0  0  0  0
  7 12  1  0  0  0  0
 28 33  1  0  0  0  0
 17 23  1  0  0  0  0
 22 27  1  0  0  0  0
M  END
$$$$

  -OEChem-05262214473D

 43 42  0     1  0  0  0  0  0999 V2000
   -2.8661   -4.7415    2.2943 C   0  0  0  0  0  0  0  0  0  0  0  0
   -2.0233   -5.5727    2.6109 O   0  0  0  0  0  0  0  0  0  0  0  0
   -4.3078   -5.0134    2.5698 C   0  0  0  0  0  0  0  0  0  0  0  0
   -4.8057   -5.5295    1.7332 H   0  0  0  0  0  0  0  0  0  0  0  0
   -4.4526   -5.6688    3.4436 H   0  0  0  0  0  0  0  0  0  0  0  0
   -4.9255   -4.1233    2.7700 H   0  0  0  0  0  0  0  0  0  0  0  0
   -2.6241   -3.5219    1.6838 N   0  0  0  0  0  0  0  0  0  0  0  0
   -1.3070   -3.0608    1.3315 C   0  0  2  0  0  0  0  0  0  0  0  0
   -1.3931   -1.5680    1.0422 C   0  0  0  0  0  0  0  0  0  0  0  0
   -2.4385   -1.0059    0.7226 O   0  0  0  0  0  0  0  0  0  0  0  0
   -0.7590   -3.8164    0.1309 C   0  0  0  0  0  0  0  0  0  0  0  0
   -3.4188   -2.9207    1.4735 H   0  0  0  0  0  0  0  0  0  0  0  0
   -0.6690   -3.2277    2.2062 H   0  0  0  0  0  0  0  0  0  0  0  0
   -1.3852   -3.6613   -0.7553 H   0  0  0  0  0  0  0  0  0  0  0  0
    0.2542   -3.4843   -0.1182 H   0  0  0  0  0  0  0  0  0  0  0  0
   -0.7257   -4.8930    0.3300 H   0  0  0  0  0  0  0  0  0  0  0  0
   -0.1563   -0.9420    1.1402 N   0  0  0  0  0  0  0  0  0  0  0  0
    0.0261    0.4671    0.9001 C   0  0  2  0  0  0  0  0  0  0  0  0
   -1.3231    1.0865    0.5414 C   0  0  0  0  0  0  0  0  0  0  0  0
   -1.7292    1.1832   -0.6150 O   0  0  0  0  0  0  0  0  0  0  0  0
    1.1166    0.7449   -0.1375 C   0  0  0  0  0  0  0  0  0  0  0  0
    2.7844    0.2391    0.3963 S   0  0  0  0  0  0  0  0  0  0  0  0
    0.6533   -1.4855    1.4300 H   0  0  0  0  0  0  0  0  0  0  0  0
    0.3400    0.8917    1.8618 H   0  0  0  0  0  0  0  0  0  0  0  0
    0.8992    0.2201   -1.0735 H   0  0  0  0  0  0  0  0  0  0  0  0
    1.1549    1.8166   -0.3608 H   0  0  0  0  0  0  0  0  0  0  0  0
    3.4079    0.6287   -0.7229 H   0  0  0  0  0  0  0  0  0  0  0  0
   -2.0069    1.5395    1.6606 N   0  0  0  0  0  0  0  0  0  0  0  0
   -3.3019    2.1736    1.5786 C   0  0  2  0  0  0  0  0  0  0  0  0
   -3.6668    2.6794    2.9680 C   0  0  0  0  0  0  0  0  0  0  0  0
   -3.1774    2.2214    3.9985 O   0  0  0  0  0  0  0  0  0  0  0  0
   -4.3571    1.2112    1.0560 C   0  0  0  0  0  0  0  0  0  0  0  0
   -1.6109    1.3883    2.5836 H   0  0  0  0  0  0  0  0  0  0  0  0
   -3.1951    3.0239    0.8962 H   0  0  0  0  0  0  0  0  0  0  0  0
   -4.4782    0.3527    1.7267 H   0  0  0  0  0  0  0  0  0  0  0  0
   -5.3322    1.7015    0.9674 H   0  0  0  0  0  0  0  0  0  0  0  0
   -4.0784    0.8255    0.0694 H   0  0  0  0  0  0  0  0  0  0  0  0
   -4.6350    3.6728    2.9242 N   0  0  0  0  0  0  0  0  0  0  0  0
   -5.1577    4.3049    4.1130 C   0  0  0  0  0  0  0  0  0  0  0  0
   -4.9704    4.0043    2.0246 H   0  0  0  0  0  0  0  0  0  0  0  0
   -6.0600    3.7713    4.4461 H   0  0  0  0  0  0  0  0  0  0  0  0
   -4.3987    4.2739    4.9086 H   0  0  0  0  0  0  0  0  0  0  0  0
   -5.4122    5.3516    3.8898 H   0  0  0  0  0  0  0  0  0  0  0  0
  1  3  1  0  0  0  0
  1  7  1  0  0  0  0
  1  2  2  0  0  0  0
 29 30  1  0  0  0  0
 30 38  1  0  0  0  0
 30 31  2  0  0  0  0
  8  9  1  0  0  0  0
  9 17  1  0  0  0  0
  9 10  2  0  0  0  0
 18 19  1  0  0  0  0
 19 28  1  0  0  0  0
 19 20  2  0  0  0  0
 29 32  1  0  0  0  0
  8 11  1  0  0  0  0
 38 39  1  0  0  0  0
 18 21  1  0  0  0  0
 21 22  1  0  0  0  0
 28 29  1  0  0  0  0
  7  8  1  0  0  0  0
 17 18  1  0  0  0  0
  3  4  1  0  0  0  0
  3  5  1  0  0  0  0
  3  6  1  0  0  0  0
 32 35  1  0  0  0  0
 32 36  1  0  0  0  0
 32 37  1  0  0  0  0
 11 14  1  0  0  0  0
 11 15  1  0  0  0  0
 11 16  1  0  0  0  0
 39 41  1  0  0  0  0
 39 42  1  0  0  0  0
 39 43  1  0  0  0  0
 21 25  1  0  0  0  0
 21 26  1  0  0  0  0
 29 34  1  0  0  0  0
  8 13  1  0  0  0  0
 18 24  1  0  0  0  0
 38 40  1  0  0  0  0
  7 12  1  0  0  0  0
 28 33  1  0  0  0  0
 17 23  1  0  0  0  0
 22 27  1  0  0  0  0
M  END
$$$$

  -OEChem-05262214473D

 43 42  0     1  0  0  0  0  0999 V2000
   -2.8661   -4.7415    2.2943 C   0  0  0  0  0  0  0  0  0  0  0  0
   -2.0233   -5.5727    2.6109 O   0  0  0  0  0  0  0  0  0  0  0  0
   -4.3078   -5.0134    2.5698 C   0  0  0  0  0  0  0  0  0  0  0  0
   -4.8057   -5.5295    1.7332 H   0  0  0  0  0  0  0  0  0  0  0  0
   -4.4526   -5.6688    3.4436 H   0  0  0  0  0  0  0  0  0  0  0  0
   -4.9255   -4.1233    2.7700 H   0  0  0  0  0  0  0  0  0  0  0  0
   -2.6241   -3.5219    1.6838 N   0  0  0  0  0  0  0  0  0  0  0  0
   -1.3070   -3.0608    1.3315 C   0  0  2  0  0  0  0  0  0  0  0  0
   -1.3931   -1.5680    1.0422 C   0  0  0  0  0  0  0  0  0  0  0  0
   -2.4385   -1.0059    0.7226 O   0  0  0  0  0  0  0  0  0  0  0  0
   -0.7590   -3.8164    0.1309 C   0  0  0  0  0  0  0  0  0  0  0  0
   -3.4188   -2.9207    1.4735 H   0  0  0  0  0  0  0  0  0  0  0  0
   -0.6690   -3.2277    2.2062 H   0  0  0  0  0  0  0  0  0  0  0  0
   -1.3852   -3.6613   -0.7553 H   0  0  0  0  0  0  0  0  0  0  0  0
    0.2542   -3.4843   -0.1182 H   0  0  0  0  0  0  0  0  0  0  0  0
   -0.7257   -4.8930    0.3300 H   0  0  0  0  0  0  0  0  0  0  0  0
   -0.1563   -0.9420    1.1402 N   0  0  0  0  0  0  0  0  0  0  0  0
    0.0261    0.4671    0.9001 C   0  0  2  0  0  0  0  0  0  0  0  0
   -1.3231    1.0865    0.5414 C   0  0  0  0  0  0  0  0  0  0  0  0
   -1.8510    0.9495   -0.5604 O   0  0  0  0  0  0  0  0  0  0  0  0
    1.1166    0.7449   -0.1375 C   0  0  0  0  0  0  0  0  0  0  0  0
    2.7844    0.2391    0.3963 S   0  0  0  0  0  0  0  0  0  0  0  0
    0.6533   -1.4855    1.4300 H   0  0  0  0  0  0  0  0  0  0  0  0
    0.3400    0.8917    1.8618 H   0  0  0  0  0  0  0  0  0  0  0  0
    0.8992    0.2201   -1.0735 H   0  0  0  0  0  0  0  0  0  0  0  0
    1.1549    1.8166   -0.3608 H   0  0  0  0  0  0  0  0  0  0  0  0
    3.4079    0.6287   -0.7229 H   0  0  0  0  0  0  0  0  0  0  0  0
   -1.8544    1.8288    1.5864 N   0  0  0  0  0  0  0  0  0  0  0  0
   -3.1181    2.5209    1.4868 C   0  0  2  0  0  0  0  0  0  0  0  0
   -3.3000    3.3521    2.7499 C   0  0  0  0  0  0  0  0  0  0  0  0
   -2.7211    3.1036    3.8055 O   0  0  0  0  0  0  0  0  0  0  0  0
   -4.2707    1.5451    1.3075 C   0  0  0  0  0  0  0  0  0  0  0  0
   -1.3653    1.8610    2.4760 H   0  0  0  0  0  0  0  0  0  0  0  0
   -3.0472    3.1853    0.6187 H   0  0  0  0  0  0  0  0  0  0  0  0
   -4.3575    0.8711    2.1675 H   0  0  0  0  0  0  0  0  0  0  0  0
   -5.2246    2.0727    1.2035 H   0  0  0  0  0  0  0  0  0  0  0  0
   -4.1234    0.9277    0.4148 H   0  0  0  0  0  0  0  0  0  0  0  0
   -4.2176    4.3780    2.5719 N   0  0  0  0  0  0  0  0  0  0  0  0
   -4.5725    5.2983    3.6270 C   0  0  0  0  0  0  0  0  0  0  0  0
   -4.6351    4.5218    1.6572 H   0  0  0  0  0  0  0  0  0  0  0  0
   -5.4567    4.9208    4.1615 H   0  0  0  0  0  0  0  0  0  0  0  0
   -3.7316    5.3920    4.3299 H   0  0  0  0  0  0  0  0  0  0  0  0
   -4.7993    6.2834    3.1932 H   0  0  0  0  0  0  0  0  0  0  0  0
  1  3  1  0  0  0  0
  1  7  1  0  0  0  0
  1  2  2  0  0  0  0
 29 30  1  0  0  0  0
 30 38  1  0  0  0  0
 30 31  2  0  0  0  0
  8  9  1  0  0  0  0
  9 17  1  0  0  0  0
  9 10  2  0  0  0  0
 18 19  1  0  0  0  0
 19 28  1  0  0  0  0
 19 20  2  0  0  0  0
 29 32  1  0  0  0  0
  8 11  1  0  0  0  0
 38 39  1  0  0  0  0
 18 21  1  0  0  0  0
 21 22  1  0  0  0  0
 28 29  1  0  0  0  0
  7  8  1  0  0  0  0
 17 18  1  0  0  0  0
  3  4  1  0  0  0  0
  3  5  1  0  0  0  0
  3  6  1  0  0  0  0
 32 35  1  0  0  0  0
 32 36  1  0  0  0  0
 32 37  1  0  0  0  0
 11 14  1  0  0  0  0
 11 15  1  0  0  0  0
 11 16  1  0  0  0  0
 39 41  1  0  0  0  0
 39 42  1  0  0  0  0
 39 43  1  0  0  0  0
 21 25  1  0  0  0  0
 21 26  1  0  0  0  0
 29 34  1  0  0  0  0
  8 13  1  0  0  0  0
 18 24  1  0  0  0  0
 38 40  1  0  0  0  0
  7 12  1  0  0  0  0
 28 33  1  0  0  0  0
 17 23  1  0  0  0  0
 22 27  1  0  0  0  0
M  END
$$$$

  -OEChem-05262214473D

 43 42  0     1  0  0  0  0  0999 V2000
   -2.8661   -4.7415    2.2943 C   0  0  0  0  0  0  0  0  0  0  0  0
   -2.0233   -5.5727    2.6109 O   0  0  0  0  0  0  0  0  0  0  0  0
   -4.3078   -5.0134    2.5698 C   0  0  0  0  0  0  0  0  0  0  0  0
   -4.8057   -5.5295    1.7332 H   0  0  0  0  0  0  0  0  0  0  0  0
   -4.4526   -5.6688    3.4436 H   0  0  0  0  0  0  0  0  0  0  0  0
   -4.9255   -4.1233    2.7700 H   0  0  0  0  0  0  0  0  0  0  0  0
   -2.6241   -3.5219    1.6838 N   0  0  0  0  0  0  0  0  0  0  0  0
   -1.3070   -3.0608    1.3315 C   0  0  2  0  0  0  0  0  0  0  0  0
   -1.3931   -1.5680    1.0422 C   0  0  0  0  0  0  0  0  0  0  0  0
   -2.4385   -1.0059    0.7226 O   0  0  0  0  0  0  0  0  0  0  0  0
   -0.7590   -3.8164    0.1309 C   0  0  0  0  0  0  0  0  0  0  0  0
   -3.4188   -2.9207    1.4735 H   0  0  0  0  0  0  0  0  0  0  0  0
   -0.6690   -3.2277    2.2062 H   0  0  0  0  0  0  0  0  0  0  0  0
   -1.3852   -3.6613   -0.7553 H   0  0  0  0  0  0  0  0  0  0  0  0
    0.2542   -3.4843   -0.1182 H   0  0  0  0  0  0  0  0  0  0  0  0
   -0.7257   -4.8930    0.3300 H   0  0  0  0  0  0  0  0  0  0  0  0
   -0.1563   -0.9420    1.1402 N   0  0  0  0  0  0  0  0  0  0  0  0
    0.0261    0.4671    0.9001 C   0  0  2  0  0  0  0  0  0  0  0  0
   -1.3231    1.0865    0.5414 C   0  0  0  0  0  0  0  0  0  0  0  0
   -1.9771    0.7436   -0.4415 O   0  0  0  0  0  0  0  0  0  0  0  0
    1.1166    0.7449   -0.1375 C   0  0  0  0  0  0  0  0  0  0  0  0
    2.7844    0.2391    0.3963 S   0  0  0  0  0  0  0  0  0  0  0  0
    0.6533   -1.4855    1.4300 H   0  0  0  0  0  0  0  0  0  0  0  0
    0.3400    0.8917    1.8618 H   0  0  0  0  0  0  0  0  0  0  0  0
    0.8992    0.2201   -1.0735 H   0  0  0  0  0  0  0  0  0  0  0  0
    1.1549    1.8166   -0.3608 H   0  0  0  0  0  0  0  0  0  0  0  0
    3.4079    0.6287   -0.7229 H   0  0  0  0  0  0  0  0  0  0  0  0
   -1.6973    2.0820    1.4326 N   0  0  0  0  0  0  0  0  0  0  0  0
   -2.9291    2.8242    1.2994 C   0  0  2  0  0  0  0  0  0  0  0  0
   -2.9277    3.9297    2.3469 C   0  0  0  0  0  0  0  0  0  0  0  0
   -2.2470    3.8840    3.3695 O   0  0  0  0  0  0  0  0  0  0  0  0
   -4.1405    1.9200    1.4650 C   0  0  0  0  0  0  0  0  0  0  0  0
   -1.1106    2.2781    2.2383 H   0  0  0  0  0  0  0  0  0  0  0  0
   -2.9236    3.2689    0.2983 H   0  0  0  0  0  0  0  0  0  0  0  0
   -4.1631    1.4653    2.4621 H   0  0  0  0  0  0  0  0  0  0  0  0
   -5.0733    2.4787    1.3354 H   0  0  0  0  0  0  0  0  0  0  0  0
   -4.1243    1.1081    0.7298 H   0  0  0  0  0  0  0  0  0  0  0  0
   -3.8085    4.9533    2.0266 N   0  0  0  0  0  0  0  0  0  0  0  0
   -3.9979    6.1111    2.8690 C   0  0  0  0  0  0  0  0  0  0  0  0
   -4.3184    4.9173    1.1489 H   0  0  0  0  0  0  0  0  0  0  0  0
   -4.8339    5.9293    3.5604 H   0  0  0  0  0  0  0  0  0  0  0  0
   -3.0800    6.2991    3.4453 H   0  0  0  0  0  0  0  0  0  0  0  0
   -4.2237    6.9869    2.2430 H   0  0  0  0  0  0  0  0  0  0  0  0
  1  3  1  0  0  0  0
  1  7  1  0  0  0  0
  1  2  2  0  0  0  0
 29 30  1  0  0  0  0
 30 38  1  0  0  0  0
 30 31  2  0  0  0  0
  8  9  1  0  0  0  0
  9 17  1  0  0  0  0
  9 10  2  0  0  0  0
 18 19  1  0  0  0  0
 19 28  1  0  0  0  0
 19 20  2  0  0  0  0
 29 32  1  0  0  0  0
  8 11  1  0  0  0  0
 38 39  1  0  0  0  0
 18 21  1  0  0  0  0
 21 22  1  0  0  0  0
 28 29  1  0  0  0  0
  7  8  1  0  0  0  0
 17 18  1  0  0  0  0
  3  4  1  0  0  0  0
  3  5  1  0  0  0  0
  3  6  1  0  0  0  0
 32 35  1  0  0  0  0
 32 36  1  0  0  0  0
 32 37  1  0  0  0  0
 11 14  1  0  0  0  0
 11 15  1  0  0  0  0
 11 16  1  0  0  0  0
 39 41  1  0  0  0  0
 39 42  1  0  0  0  0
 39 43  1  0  0  0  0
 21 25  1  0  0  0  0
 21 26  1  0  0  0  0
 29 34  1  0  0  0  0
  8 13  1  0  0  0  0
 18 24  1  0  0  0  0
 38 40  1  0  0  0  0
  7 12  1  0  0  0  0
 28 33  1  0  0  0  0
 17 23  1  0  0  0  0
 22 27  1  0  0  0  0
M  END
$$$$

  -OEChem-05262214473D

 43 42  0     1  0  0  0  0  0999 V2000
   -2.8661   -4.7415    2.2943 C   0  0  0  0  0  0  0  0  0  0  0  0
   -2.0233   -5.5727    2.6109 O   0  0  0  0  0  0  0  0  0  0  0  0
   -4.3078   -5.0134    2.5698 C   0  0  0  0  0  0  0  0  0  0  0  0
   -4.8057   -5.5295    1.7332 H   0  0  0  0  0  0  0  0  0  0  0  0
   -4.4526   -5.6688    3.4436 H   0  0  0  0  0  0  0  0  0  0  0  0
   -4.9255   -4.1233    2.7700 H   0  0  0  0  0  0  0  0  0  0  0  0
   -2.6241   -3.5219    1.6838 N   0  0  0  0  0  0  0  0  0  0  0  0
   -1.3070   -3.0608    1.3315 C   0  0  2  0  0  0  0  0  0  0  0  0
   -1.3931   -1.5680    1.0422 C   0  0  0  0  0  0  0  0  0  0  0  0
   -2.4385   -1.0059    0.7226 O   0  0  0  0  0  0  0  0  0  0  0  0
   -0.7590   -3.8164    0.1309 C   0  0  0  0  0  0  0  0  0  0  0  0
   -3.4188   -2.9207    1.4735 H   0  0  0  0  0  0  0  0  0  0  0  0
   -0.6690   -3.2277    2.2062 H   0  0  0  0  0  0  0  0  0  0  0  0
   -1.3852   -3.6613   -0.7553 H   0  0  0  0  0  0  0  0  0  0  0  0
    0.2542   -3.4843   -0.1182 H   0  0  0  0  0  0  0  0  0  0  0  0
   -0.7257   -4.8930    0.3300 H   0  0  0  0  0  0  0  0  0  0  0  0
   -0.1563   -0.9420    1.1402 N   0  0  0  0  0  0  0  0  0  0  0  0
    0.0261    0.4671    0.9001 C   0  0  2  0  0  0  0  0  0  0  0  0
   -1.3231    1.0865    0.5414 C   0  0  0  0  0  0  0  0  0  0  0  0
   -2.0990    0.5796   -0.2664 O   0  0  0  0  0  0  0  0  0  0  0  0
    1.1166    0.7449   -0.1375 C   0  0  0  0  0  0  0  0  0  0  0  0
    2.7844    0.2391    0.3963 S   0  0  0  0  0  0  0  0  0  0  0  0
    0.6533   -1.4855    1.4300 H   0  0  0  0  0  0  0  0  0  0  0  0
    0.3400    0.8917    1.8618 H   0  0  0  0  0  0  0  0  0  0  0  0
    0.8992    0.2201   -1.0735 H   0  0  0  0  0  0  0  0  0  0  0  0
    1.1549    1.8166   -0.3608 H   0  0  0  0  0  0  0  0  0  0  0  0
    3.4079    0.6287   -0.7229 H   0  0  0  0  0  0  0  0  0  0  0  0
   -1.5463    2.2819    1.2097 N   0  0  0  0  0  0  0  0  0  0  0  0
   -2.7477    3.0628    1.0292 C   0  0  2  0  0  0  0  0  0  0  0  0
   -2.5753    4.3729    1.7866 C   0  0  0  0  0  0  0  0  0  0  0  0
   -1.7874    4.5093    2.7202 O   0  0  0  0  0  0  0  0  0  0  0  0
   -3.9755    2.3101    1.5177 C   0  0  0  0  0  0  0  0  0  0  0  0
   -0.8642    2.6112    1.8865 H   0  0  0  0  0  0  0  0  0  0  0  0
   -2.8328    3.2688   -0.0433 H   0  0  0  0  0  0  0  0  0  0  0  0
   -3.9082    2.0947    2.5904 H   0  0  0  0  0  0  0  0  0  0  0  0
   -4.8887    2.8918    1.3540 H   0  0  0  0  0  0  0  0  0  0  0  0
   -4.0812    1.3545    0.9929 H   0  0  0  0  0  0  0  0  0  0  0  0
   -3.4357    5.3594    1.3254 N   0  0  0  0  0  0  0  0  0  0  0  0
   -3.4730    6.6879    1.8907 C   0  0  0  0  0  0  0  0  0  0  0  0
   -4.0418    5.1638    0.5342 H   0  0  0  0  0  0  0  0  0  0  0  0
   -4.2341    6.7282    2.6838 H   0  0  0  0  0  0  0  0  0  0  0  0
   -2.4882    6.9335    2.3150 H   0  0  0  0  0  0  0  0  0  0  0  0
   -3.7247    7.4142    1.1039 H   0  0  0  0  0  0  0  0  0  0  0  0
  1  3  1  0  0  0  0
  1  7  1  0  0  0  0
  1  2  2  0  0  0  0
 29 30  1  0  0  0  0
 30 38  1  0  0  0  0
 30 31  2  0  0  0  0
  8  9  1  0  0  0  0
  9 17  1  0  0  0  0
  9 10  2  0  0  0  0
 18 19  1  0  0  0  0
 19 28  1  0  0  0  0
 19 20  2  0  0  0  0
 29 32  1  0  0  0  0
  8 11  1  0  0  0  0
 38 39  1  0  0  0  0
 18 21  1  0  0  0  0
 21 22  1  0  0  0  0
 28 29  1  0  0  0  0
  7  8  1  0  0  0  0
 17 18  1  0  0  0  0
  3  4  1  0  0  0  0
  3  5  1  0  0  0  0
  3  6  1  0  0  0  0
 32 35  1  0  0  0  0
 32 36  1  0  0  0  0
 32 37  1  0  0  0  0
 11 14  1  0  0  0  0
 11 15  1  0  0  0  0
 11 16  1  0  0  0  0
 39 41  1  0  0  0  0
 39 42  1  0  0  0  0
 39 43  1  0  0  0  0
 21 25  1  0  0  0  0
 21 26  1  0  0  0  0
 29 34  1  0  0  0  0
  8 13  1  0  0  0  0
 18 24  1  0  0  0  0
 38 40  1  0  0  0  0
  7 12  1  0  0  0  0
 28 33  1  0  0  0  0
 17 23  1  0  0  0  0
 22 27  1  0  0  0  0
M  END
$$$$

  -OEChem-05262214473D

 43 42  0     1  0  0  0  0  0999 V2000
   -2.8661   -4.7415    2.2943 C   0  0  0  0  0  0  0  0  0  0  0  0
   -2.0233   -5.5727    2.6109 O   0  0  0  0  0  0  0  0  0  0  0  0
   -4.3078   -5.0134    2.5698 C   0  0  0  0  0  0  0  0  0  0  0  0
   -4.8057   -5.5295    1.7332 H   0  0  0  0  0  0  0  0  0  0  0  0
   -4.4526   -5.6688    3.4436 H   0  0  0  0  0  0  0  0  0  0  0  0
   -4.9255   -4.1233    2.7700 H   0  0  0  0  0  0  0  0  0  0  0  0
   -2.6241   -3.5219    1.6838 N   0  0  0  0  0  0  0  0  0  0  0  0
   -1.3070   -3.0608    1.3315 C   0  0  2  0  0  0  0  0  0  0  0  0
   -1.3931   -1.5680    1.0422 C   0  0  0  0  0  0  0  0  0  0  0  0
   -2.4385   -1.0059    0.7226 O   0  0  0  0  0  0  0  0  0  0  0  0
   -0.7590   -3.8164    0.1309 C   0  0  0  0  0  0  0  0  0  0  0  0
   -3.4188   -2.9207    1.4735 H   0  0  0  0  0  0  0  0  0  0  0  0
   -0.6690   -3.2277    2.2062 H   0  0  0  0  0  0  0  0  0  0  0  0
   -1.3852   -3.6613   -0.7553 H   0  0  0  0  0  0  0  0  0  0  0  0
    0.2542   -3.4843   -0.1182 H   0  0  0  0  0  0  0  0  0  0  0  0
   -0.7257   -4.8930    0.3300 H   0  0  0  0  0  0  0  0  0  0  0  0
   -0.1563   -0.9420    1.1402 N   0  0  0  0  0  0  0  0  0  0  0  0
    0.0261    0.4671    0.9001 C   0  0  2  0  0  0  0  0  0  0  0  0
   -1.3231    1.0865    0.5414 C   0  0  0  0  0  0  0  0  0  0  0  0
   -2.2083    0.4686   -0.0469 O   0  0  0  0  0  0  0  0  0  0  0  0
    1.1166    0.7449   -0.1375 C   0  0  0  0  0  0  0  0  0  0  0  0
    2.7844    0.2391    0.3963 S   0  0  0  0  0  0  0  0  0  0  0  0
    0.6533   -1.4855    1.4300 H   0  0  0  0  0  0  0  0  0  0  0  0
    0.3400    0.8917    1.8618 H   0  0  0  0  0  0  0  0  0  0  0  0
    0.8992    0.2201   -1.0735 H   0  0  0  0  0  0  0  0  0  0  0  0
    1.1549    1.8166   -0.3608 H   0  0  0  0  0  0  0  0  0  0  0  0
    3.4079    0.6287   -0.7229 H   0  0  0  0  0  0  0  0  0  0  0  0
   -1.4116    2.4148    0.9328 N   0  0  0  0  0  0  0  0  0  0  0  0
   -2.5863    3.2205    0.6947 C   0  0  2  0  0  0  0  0  0  0  0  0
   -2.2667    4.6514    1.1070 C   0  0  0  0  0  0  0  0  0  0  0  0
   -1.3735    4.9368    1.9018 O   0  0  0  0  0  0  0  0  0  0  0  0
   -3.7868    2.6889    1.4622 C   0  0  0  0  0  0  0  0  0  0  0  0
   -0.6429    2.8374    1.4447 H   0  0  0  0  0  0  0  0  0  0  0  0
   -2.7810    3.1851   -0.3828 H   0  0  0  0  0  0  0  0  0  0  0  0
   -3.6104    2.7166    2.5436 H   0  0  0  0  0  0  0  0  0  0  0  0
   -4.6832    3.2838    1.2582 H   0  0  0  0  0  0  0  0  0  0  0  0
   -3.9969    1.6500    1.1862 H   0  0  0  0  0  0  0  0  0  0  0  0
   -3.1244    5.5687    0.5161 N   0  0  0  0  0  0  0  0  0  0  0  0
   -3.0335    6.9895    0.7588 C   0  0  0  0  0  0  0  0  0  0  0  0
   -3.8242    5.2446   -0.1450 H   0  0  0  0  0  0  0  0  0  0  0  0
   -3.6982    7.2630    1.5915 H   0  0  0  0  0  0  0  0  0  0  0  0
   -1.9967    7.2519    1.0161 H   0  0  0  0  0  0  0  0  0  0  0  0
   -3.3362    7.5361   -0.1465 H   0  0  0  0  0  0  0  0  0  0  0  0
  1  3  1  0  0  0  0
  1  7  1  0  0  0  0
  1  2  2  0  0  0  0
 29 30  1  0  0  0  0
 30 38  1  0  0  0  0
 30 31  2  0  0  0  0
  8  9  1  0  0  0  0
  9 17  1  0  0  0  0
  9 10  2  0  0  0  0
 18 19  1  0  0  0  0
 19 28  1  0  0  0  0
 19 20  2  0  0  0  0
 29 32  1  0  0  0  0
  8 11  1  0  0  0  0
 38 39  1  0  0  0  0
 18 21  1  0  0  0  0
 21 22  1  0  0  0  0
 28 29  1  0  0  0  0
  7  8  1  0  0  0  0
 17 18  1  0  0  0  0
  3  4  1  0  0  0  0
  3  5  1  0  0  0  0
  3  6  1  0  0  0  0
 32 35  1  0  0  0  0
 32 36  1  0  0  0  0
 32 37  1  0  0  0  0
 11 14  1  0  0  0  0
 11 15  1  0  0  0  0
 11 16  1  0  0  0  0
 39 41  1  0  0  0  0
 39 42  1  0  0  0  0
 39 43  1  0  0  0  0
 21 25  1  0  0  0  0
 21 26  1  0  0  0  0
 29 34  1  0  0  0  0
  8 13  1  0  0  0  0
 18 24  1  0  0  0  0
 38 40  1  0  0  0  0
  7 12  1  0  0  0  0
 28 33  1  0  0  0  0
 17 23  1  0  0  0  0
 22 27  1  0  0  0  0
M  END
$$$$

  -OEChem-05262214473D

 43 42  0     1  0  0  0  0  0999 V2000
   -2.8661   -4.7415    2.2943 C   0  0  0  0  0  0  0  0  0  0  0  0
   -2.0233   -5.5727    2.6109 O   0  0  0  0  0  0  0  0  0  0  0  0
   -4.3078   -5.0134    2.5698 C   0  0  0  0  0  0  0  0  0  0  0  0
   -4.8057   -5.5295    1.7332 H   0  0  0  0  0  0  0  0  0  0  0  0
   -4.4526   -5.6688    3.4436 H   0  0  0  0  0  0  0  0  0  0  0  0
   -4.9255   -4.1233    2.7700 H   0  0  0  0  0  0  0  0  0  0  0  0
   -2.6241   -3.5219    1.6838 N   0  0  0  0  0  0  0  0  0  0  0  0
   -1.3070   -3.0608    1.3315 C   0  0  2  0  0  0  0  0  0  0  0  0
   -1.3931   -1.5680    1.0422 C   0  0  0  0  0  0  0  0  0  0  0  0
   -2.4385   -1.0059    0.7226 O   0  0  0  0  0  0  0  0  0  0  0  0
   -0.7590   -3.8164    0.1309 C   0  0  0  0  0  0  0  0  0  0  0  0
   -3.4188   -2.9207    1.4735 H   0  0  0  0  0  0  0  0  0  0  0  0
   -0.6690   -3.2277    2.2062 H   0  0  0  0  0  0  0  0  0  0  0  0
   -1.3852   -3.6613   -0.7553 H   0  0  0  0  0  0  0  0  0  0  0  0
    0.2542   -3.4843   -0.1182 H   0  0  0  0  0  0  0  0  0  0  0  0
   -0.7257   -4.8930    0.3300 H   0  0  0  0  0  0  0  0  0  0  0  0
   -0.1563   -0.9420    1.1402 N   0  0  0  0  0  0  0  0  0  0  0  0
    0.0261    0.4671    0.9001 C   0  0  2  0  0  0  0  0  0  0  0  0
   -1.3231    1.0865    0.5414 C   0  0  0  0  0  0  0  0  0  0  0  0
   -2.2976    0.4182    0.2020 O   0  0  0  0  0  0  0  0  0  0  0  0
    1.1166    0.7449   -0.1375 C   0  0  0  0  0  0  0  0  0  0  0  0
    2.7844    0.2391    0.3963 S   0  0  0  0  0  0  0  0  0  0  0  0
    0.6533   -1.4855    1.4300 H   0  0  0  0  0  0  0  0  0  0  0  0
    0.3400    0.8917    1.8618 H   0  0  0  0  0  0  0  0  0  0  0  0
    0.8992    0.2201   -1.0735 H   0  0  0  0  0  0  0  0  0  0  0  0
    1.1549    1.8166   -0.3608 H   0  0  0  0  0  0  0  0  0  0  0  0
    3.4079    0.6287   -0.7229 H   0  0  0  0  0  0  0  0  0  0  0  0
   -1.3026    2.4717    0.6209 N   0  0  0  0  0  0  0  0  0  0  0  0
   -2.4560    3.2865    0.3185 C   0  0  2  0  0  0  0  0  0  0  0  0
   -2.0231    4.7462    0.3545 C   0  0  0  0  0  0  0  0  0  0  0  0
   -1.0336    5.1375    0.9701 O   0  0  0  0  0  0  0  0  0  0  0  0
   -3.5874    3.0307    1.3021 C   0  0  0  0  0  0  0  0  0  0  0  0
   -0.4617    2.9415    0.9430 H   0  0  0  0  0  0  0  0  0  0  0  0
   -2.7716    3.0235   -0.6970 H   0  0  0  0  0  0  0  0  0  0  0  0
   -3.2898    3.2885    2.3250 H   0  0  0  0  0  0  0  0  0  0  0  0
   -4.4710    3.6281    1.0545 H   0  0  0  0  0  0  0  0  0  0  0  0
   -3.8773    1.9745    1.2964 H   0  0  0  0  0  0  0  0  0  0  0  0
   -2.8959    5.5669   -0.3462 N   0  0  0  0  0  0  0  0  0  0  0  0
   -2.7095    6.9953   -0.4496 C   0  0  0  0  0  0  0  0  0  0  0  0
   -3.6803    5.1541   -0.8423 H   0  0  0  0  0  0  0  0  0  0  0  0
   -3.2627    7.4972    0.3579 H   0  0  0  0  0  0  0  0  0  0  0  0
   -1.6389    7.2325   -0.3630 H   0  0  0  0  0  0  0  0  0  0  0  0
   -3.0848    7.3444   -1.4229 H   0  0  0  0  0  0  0  0  0  0  0  0
  1  3  1  0  0  0  0
  1  7  1  0  0  0  0
  1  2  2  0  0  0  0
 29 30  1  0  0  0  0
 30 38  1  0  0  0  0
 30 31  2  0  0  0  0
  8  9  1  0  0  0  0
  9 17  1  0  0  0  0
  9 10  2  0  0  0  0
 18 19  1  0  0  0  0
 19 28  1  0  0  0  0
 19 20  2  0  0  0  0
 29 32  1  0  0  0  0
  8 11  1  0  0  0  0
 38 39  1  0  0  0  0
 18 21  1  0  0  0  0
 21 22  1  0  0  0  0
 28 29  1  0  0  0  0
  7  8  1  0  0  0  0
 17 18  1  0  0  0  0
  3  4  1  0  0  0  0
  3  5  1  0  0  0  0
  3  6  1  0  0  0  0
 32 35  1  0  0  0  0
 32 36  1  0  0  0  0
 32 37  1  0  0  0  0
 11 14  1  0  0  0  0
 11 15  1  0  0  0  0
 11 16  1  0  0  0  0
 39 41  1  0  0  0  0
 39 42  1  0  0  0  0
 39 43  1  0  0  0  0
 21 25  1  0  0  0  0
 21 26  1  0  0  0  0
 29 34  1  0  0  0  0
  8 13  1  0  0  0  0
 18 24  1  0  0  0  0
 38 40  1  0  0  0  0
  7 12  1  0  0  0  0
 28 33  1  0  0  0  0
 17 23  1  0  0  0  0
 22 27  1  0  0  0  0
M  END
$$$$

  -OEChem-05262214473D

 43 42  0     1  0  0  0  0  0999 V2000
   -2.8661   -4.7415    2.2943 C   0  0  0  0  0  0  0  0  0  0  0  0
   -2.0233   -5.5727    2.6109 O   0  0  0  0  0  0  0  0  0  0  0  0
   -4.3078   -5.0134    2.5698 C   0  0  0  0  0  0  0  0  0  0  0  0
   -4.8057   -5.5295    1.7332 H   0  0  0  0  0  0  0  0  0  0  0  0
   -4.4526   -5.6688    3.4436 H   0  0  0  0  0  0  0  0  0  0  0  0
   -4.9255   -4.1233    2.7700 H   0  0  0  0  0  0  0  0  0  0  0  0
   -2.6241   -3.5219    1.6838 N   0  0  0  0  0  0  0  0  0  0  0  0
   -1.3070   -3.0608    1.3315 C   0  0  2  0  0  0  0  0  0  0  0  0
   -1.3931   -1.5680    1.0422 C   0  0  0  0  0  0  0  0  0  0  0  0
   -2.4385   -1.0059    0.7226 O   0  0  0  0  0  0  0  0  0  0  0  0
   -0.7590   -3.8164    0.1309 C   0  0  0  0  0  0  0  0  0  0  0  0
   -3.4188   -2.9207    1.4735 H   0  0  0  0  0  0  0  0  0  0  0  0
   -0.6690   -3.2277    2.2062 H   0  0  0  0  0  0  0  0  0  0  0  0
   -1.3852   -3.6613   -0.7553 H   0  0  0  0  0  0  0  0  0  0  0  0
    0.2542   -3.4843   -0.1182 H   0  0  0  0  0  0  0  0  0  0  0  0
   -0.7257   -4.8930    0.3300 H   0  0  0  0  0  0  0  0  0  0  0  0
   -0.1563   -0.9420    1.1402 N   0  0  0  0  0  0  0  0  0  0  0  0
    0.0261    0.4671    0.9001 C   0  0  2  0  0  0  0  0  0  0  0  0
   -1.3391    1.1518    0.9125 C   0  0  0  0  0  0  0  0  0  0  0  0
   -2.3927    0.5415    1.0826 O   0  0  0  0  0  0  0  0  0  0  0  0
    0.8313    0.7418   -0.3723 C   0  0  0  0  0  0  0  0  0  0  0  0
    2.5540    0.1514   -0.2933 S   0  0  0  0  0  0  0  0  0  0  0  0
    0.6533   -1.4855    1.4300 H   0  0  0  0  0  0  0  0  0  0  0  0
    0.5923    0.8420    1.7618 H   0  0  0  0  0  0  0  0  0  0  0  0
    0.3601    0.2621   -1.2364 H   0  0  0  0  0  0  0  0  0  0  0  0
    0.8627    1.8190   -0.5688 H   0  0  0  0  0  0  0  0  0  0  0  0
    2.8925    0.5591   -1.5231 H   0  0  0  0  0  0  0  0  0  0  0  0
   -1.2434    2.5176    0.6870 N   0  0  0  0  0  0  0  0  0  0  0  0
   -2.3991    3.3826    0.6416 C   0  0  2  0  0  0  0  0  0  0  0  0
   -1.9327    4.7688    0.2169 C   0  0  0  0  0  0  0  0  0  0  0  0
   -0.7743    5.1574    0.3522 O   0  0  0  0  0  0  0  0  0  0  0  0
   -3.1041    3.4351    1.9881 C   0  0  0  0  0  0  0  0  0  0  0  0
   -0.3273    2.9453    0.5895 H   0  0  0  0  0  0  0  0  0  0  0  0
   -3.0708    2.9731   -0.1207 H   0  0  0  0  0  0  0  0  0  0  0  0
   -2.4466    3.8427    2.7647 H   0  0  0  0  0  0  0  0  0  0  0  0
   -3.9961    4.0686    1.9444 H   0  0  0  0  0  0  0  0  0  0  0  0
   -3.4124    2.4333    2.3059 H   0  0  0  0  0  0  0  0  0  0  0  0
   -2.9716    5.5360   -0.2913 N   0  0  0  0  0  0  0  0  0  0  0  0
   -2.7864    6.8926   -0.7508 C   0  0  0  0  0  0  0  0  0  0  0  0
   -3.8962    5.1261   -0.3844 H   0  0  0  0  0  0  0  0  0  0  0  0
   -2.9908    7.5909    0.0742 H   0  0  0  0  0  0  0  0  0  0  0  0
   -1.7499    7.0249   -1.0947 H   0  0  0  0  0  0  0  0  0  0  0  0
   -3.4773    7.0955   -1.5824 H   0  0  0  0  0  0  0  0  0  0  0  0
  1  3  1  0  0  0  0
  1  7  1  0  0  0  0
  1  2  2  0  0  0  0
 29 30  1  0  0  0  0
 30 38  1  0  0  0  0
 30 31  2  0  0  0  0
  8  9  1  0  0  0  0
  9 17  1  0  0  0  0
  9 10  2  0  0  0  0
 18 19  1  0  0  0  0
 19 28  1  0  0  0  0
 19 20  2  0  0  0  0
 29 32  1  0  0  0  0
  8 11  1  0  0  0  0
 38 39  1  0  0  0  0
 18 21  1  0  0  0  0
 21 22  1  0  0  0  0
 28 29  1  0  0  0  0
  7  8  1  0  0  0  0
 17 18  1  0  0  0  0
  3  4  1  0  0  0  0
  3  5  1  0  0  0  0
  3  6  1  0  0  0  0
 32 35  1  0  0  0  0
 32 36  1  0  0  0  0
 32 37  1  0  0  0  0
 11 14  1  0  0  0  0
 11 15  1  0  0  0  0
 11 16  1  0  0  0  0
 39 41  1  0  0  0  0
 39 42  1  0  0  0  0
 39 43  1  0  0  0  0
 21 25  1  0  0  0  0
 21 26  1  0  0  0  0
 29 34  1  0  0  0  0
  8 13  1  0  0  0  0
 18 24  1  0  0  0  0
 38 40  1  0  0  0  0
  7 12  1  0  0  0  0
 28 33  1  0  0  0  0
 17 23  1  0  0  0  0
 22 27  1  0  0  0  0
M  END
$$$$

  -OEChem-05262214473D

 43 42  0     1  0  0  0  0  0999 V2000
   -2.8661   -4.7415    2.2943 C   0  0  0  0  0  0  0  0  0  0  0  0
   -2.0233   -5.5727    2.6109 O   0  0  0  0  0  0  0  0  0  0  0  0
   -4.3078   -5.0134    2.5698 C   0  0  0  0  0  0  0  0  0  0  0  0
   -4.8057   -5.5295    1.7332 H   0  0  0  0  0  0  0  0  0  0  0  0
   -4.4526   -5.6688    3.4436 H   0  0  0  0  0  0  0  0  0  0  0  0
   -4.9255   -4.1233    2.7700 H   0  0  0  0  0  0  0  0  0  0  0  0
   -2.6241   -3.5219    1.6838 N   0  0  0  0  0  0  0  0  0  0  0  0
   -1.3070   -3.0608    1.3315 C   0  0  2  0  0  0  0  0  0  0  0  0
   -1.3931   -1.5680    1.0422 C   0  0  0  0  0  0  0  0  0  0  0  0
   -2.4385   -1.0059    0.7226 O   0  0  0  0  0  0  0  0  0  0  0  0
   -0.7590   -3.8164    0.1309 C   0  0  0  0  0  0  0  0  0  0  0  0
   -3.4188   -2.9207    1.4735 H   0  0  0  0  0  0  0  0  0  0  0  0
   -0.6690   -3.2277    2.2062 H   0  0  0  0  0  0  0  0  0  0  0  0
   -1.3852   -3.6613   -0.7553 H   0  0  0  0  0  0  0  0  0  0  0  0
    0.2542   -3.4843   -0.1182 H   0  0  0  0  0  0  0  0  0  0  0  0
   -0.7257   -4.8930    0.3300 H   0  0  0  0  0  0  0  0  0  0  0  0
   -0.1563   -0.9420    1.1402 N   0  0  0  0  0  0  0  0  0  0  0  0
    0.0261    0.4671    0.9001 C   0  0  2  0  0  0  0  0  0  0  0  0
   -1.3391    1.1518    0.9125 C   0  0  0  0  0  0  0  0  0  0  0  0
   -2.3562    0.6097    1.3404 O   0  0  0  0  0  0  0  0  0  0  0  0
    0.8313    0.7418   -0.3723 C   0  0  0  0  0  0  0  0  0  0  0  0
    2.5540    0.1514   -0.2933 S   0  0  0  0  0  0  0  0  0  0  0  0
    0.6533   -1.4855    1.4300 H   0  0  0  0  0  0  0  0  0  0  0  0
    0.5923    0.8420    1.7618 H   0  0  0  0  0  0  0  0  0  0  0  0
    0.3601    0.2621   -1.2364 H   0  0  0  0  0  0  0  0  0  0  0  0
    0.8627    1.8190   -0.5688 H   0  0  0  0  0  0  0  0  0  0  0  0
    2.8925    0.5591   -1.5231 H   0  0  0  0  0  0  0  0  0  0  0  0
   -1.2917    2.4271    0.3677 N   0  0  0  0  0  0  0  0  0  0  0  0
   -2.4583    3.2714    0.2583 C   0  0  2  0  0  0  0  0  0  0  0  0
   -2.0661    4.5161   -0.5267 C   0  0  0  0  0  0  0  0  0  0  0  0
   -0.9062    4.9122   -0.6206 O   0  0  0  0  0  0  0  0  0  0  0  0
   -3.0034    3.6423    1.6287 C   0  0  0  0  0  0  0  0  0  0  0  0
   -0.3998    2.8100    0.0681 H   0  0  0  0  0  0  0  0  0  0  0  0
   -3.2073    2.7044   -0.3053 H   0  0  0  0  0  0  0  0  0  0  0  0
   -2.2670    4.2110    2.2081 H   0  0  0  0  0  0  0  0  0  0  0  0
   -3.9044    4.2587    1.5437 H   0  0  0  0  0  0  0  0  0  0  0  0
   -3.2571    2.7449    2.2032 H   0  0  0  0  0  0  0  0  0  0  0  0
   -3.1688    5.1568   -1.0742 N   0  0  0  0  0  0  0  0  0  0  0  0
   -3.0595    6.3680   -1.8533 C   0  0  0  0  0  0  0  0  0  0  0  0
   -4.0915    4.7472   -0.9619 H   0  0  0  0  0  0  0  0  0  0  0  0
   -3.1780    7.2406   -1.1941 H   0  0  0  0  0  0  0  0  0  0  0  0
   -2.0720    6.4051   -2.3365 H   0  0  0  0  0  0  0  0  0  0  0  0
   -3.8451    6.3808   -2.6231 H   0  0  0  0  0  0  0  0  0  0  0  0
  1  3  1  0  0  0  0
  1  7  1  0  0  0  0
  1  2  2  0  0  0  0
 29 30  1  0  0  0  0
 30 38  1  0  0  0  0
 30 31  2  0  0  0  0
  8  9  1  0  0  0  0
  9 17  1  0  0  0  0
  9 10  2  0  0  0  0
 18 19  1  0  0  0  0
 19 28  1  0  0  0  0
 19 20  2  0  0  0  0
 29 32  1  0  0  0  0
  8 11  1  0  0  0  0
 38 39  1  0  0  0  0
 18 21  1  0  0  0  0
 21 22  1  0  0  0  0
 28 29  1  0  0  0  0
  7  8  1  0  0  0  0
 17 18  1  0  0  0  0
  3  4  1  0  0  0  0
  3  5  1  0  0  0  0
  3  6  1  0  0  0  0
 32 35  1  0  0  0  0
 32 36  1  0  0  0  0
 32 37  1  0  0  0  0
 11 14  1  0  0  0  0
 11 15  1  0  0  0  0
 11 16  1  0  0  0  0
 39 41  1  0  0  0  0
 39 42  1  0  0  0  0
 39 43  1  0  0  0  0
 21 25  1  0  0  0  0
 21 26  1  0  0  0  0
 29 34  1  0  0  0  0
  8 13  1  0  0  0  0
 18 24  1  0  0  0  0
 38 40  1  0  0  0  0
  7 12  1  0  0  0  0
 28 33  1  0  0  0  0
 17 23  1  0  0  0  0
 22 27  1  0  0  0  0
M  END
$$$$

  -OEChem-05262214473D

 43 42  0     1  0  0  0  0  0999 V2000
   -2.8661   -4.7415    2.2943 C   0  0  0  0  0  0  0  0  0  0  0  0
   -2.0233   -5.5727    2.6109 O   0  0  0  0  0  0  0  0  0  0  0  0
   -4.3078   -5.0134    2.5698 C   0  0  0  0  0  0  0  0  0  0  0  0
   -4.8057   -5.5295    1.7332 H   0  0  0  0  0  0  0  0  0  0  0  0
   -4.4526   -5.6688    3.4436 H   0  0  0  0  0  0  0  0  0  0  0  0
   -4.9255   -4.1233    2.7700 H   0  0  0  0  0  0  0  0  0  0  0  0
   -2.6241   -3.5219    1.6838 N   0  0  0  0  0  0  0  0  0  0  0  0
   -1.3070   -3.0608    1.3315 C   0  0  2  0  0  0  0  0  0  0  0  0
   -1.3931   -1.5680    1.0422 C   0  0  0  0  0  0  0  0  0  0  0  0
   -2.4385   -1.0059    0.7226 O   0  0  0  0  0  0  0  0  0  0  0  0
   -0.7590   -3.8164    0.1309 C   0  0  0  0  0  0  0  0  0  0  0  0
   -3.4188   -2.9207    1.4735 H   0  0  0  0  0  0  0  0  0  0  0  0
   -0.6690   -3.2277    2.2062 H   0  0  0  0  0  0  0  0  0  0  0  0
   -1.3852   -3.6613   -0.7553 H   0  0  0  0  0  0  0  0  0  0  0  0
    0.2542   -3.4843   -0.1182 H   0  0  0  0  0  0  0  0  0  0  0  0
   -0.7257   -4.8930    0.3300 H   0  0  0  0  0  0  0  0  0  0  0  0
   -0.1563   -0.9420    1.1402 N   0  0  0  0  0  0  0  0  0  0  0  0
    0.0261    0.4671    0.9001 C   0  0  2  0  0  0  0  0  0  0  0  0
   -1.3391    1.1518    0.9125 C   0  0  0  0  0  0  0  0  0  0  0  0
   -2.2911    0.7352    1.5694 O   0  0  0  0  0  0  0  0  0  0  0  0
    0.8313    0.7418   -0.3723 C   0  0  0  0  0  0  0  0  0  0  0  0
    2.5540    0.1514   -0.2933 S   0  0  0  0  0  0  0  0  0  0  0  0
    0.6533   -1.4855    1.4300 H   0  0  0  0  0  0  0  0  0  0  0  0
    0.5923    0.8420    1.7618 H   0  0  0  0  0  0  0  0  0  0  0  0
    0.3601    0.2621   -1.2364 H   0  0  0  0  0  0  0  0  0  0  0  0
    0.8627    1.8190   -0.5688 H   0  0  0  0  0  0  0  0  0  0  0  0
    2.8925    0.5591   -1.5231 H   0  0  0  0  0  0  0  0  0  0  0  0
   -1.3752    2.2657    0.0859 N   0  0  0  0  0  0  0  0  0  0  0  0
   -2.5598    3.0751   -0.0794 C   0  0  2  0  0  0  0  0  0  0  0  0
   -2.2808    4.0998   -1.1711 C   0  0  0  0  0  0  0  0  0  0  0  0
   -1.1459    4.4499   -1.4882 O   0  0  0  0  0  0  0  0  0  0  0  0
   -2.9484    3.7595    1.2219 C   0  0  0  0  0  0  0  0  0  0  0  0
   -0.5302    2.5585   -0.3957 H   0  0  0  0  0  0  0  0  0  0  0  0
   -3.3599    2.4018   -0.4056 H   0  0  0  0  0  0  0  0  0  0  0  0
   -2.1588    4.4383    1.5645 H   0  0  0  0  0  0  0  0  0  0  0  0
   -3.8628    4.3499    1.1021 H   0  0  0  0  0  0  0  0  0  0  0  0
   -3.1197    3.0224    2.0139 H   0  0  0  0  0  0  0  0  0  0  0  0
   -3.4494    4.6090   -1.7198 N   0  0  0  0  0  0  0  0  0  0  0  0
   -3.4501    5.6056   -2.7652 C   0  0  0  0  0  0  0  0  0  0  0  0
   -4.3463    4.2472   -1.4093 H   0  0  0  0  0  0  0  0  0  0  0  0
   -3.5053    6.6084   -2.3164 H   0  0  0  0  0  0  0  0  0  0  0  0
   -2.5259    5.5185   -3.3553 H   0  0  0  0  0  0  0  0  0  0  0  0
   -4.3197    5.4490   -3.4204 H   0  0  0  0  0  0  0  0  0  0  0  0
  1  3  1  0  0  0  0
  1  7  1  0  0  0  0
  1  2  2  0  0  0  0
 29 30  1  0  0  0  0
 30 38  1  0  0  0  0
 30 31  2  0  0  0  0
  8  9  1  0  0  0  0
  9 17  1  0  0  0  0
  9 10  2  0  0  0  0
 18 19  1  0  0  0  0
 19 28  1  0  0  0  0
 19 20  2  0  0  0  0
 29 32  1  0  0  0  0
  8 11  1  0  0  0  0
 38 39  1  0  0  0  0
 18 21  1  0  0  0  0
 21 22  1  0  0  0  0
 28 29  1  0  0  0  0
  7  8  1  0  0  0  0
 17 18  1  0  0  0  0
  3  4  1  0  0  0  0
  3  5  1  0  0  0  0
  3  6  1  0  0  0  0
 32 35  1  0  0  0  0
 32 36  1  0  0  0  0
 32 37  1  0  0  0  0
 11 14  1  0  0  0  0
 11 15  1  0  0  0  0
 11 16  1  0  0  0  0
 39 41  1  0  0  0  0
 39 42  1  0  0  0  0
 39 43  1  0  0  0  0
 21 25  1  0  0  0  0
 21 26  1  0  0  0  0
 29 34  1  0  0  0  0
  8 13  1  0  0  0  0
 18 24  1  0  0  0  0
 38 40  1  0  0  0  0
  7 12  1  0  0  0  0
 28 33  1  0  0  0  0
 17 23  1  0  0  0  0
 22 27  1  0  0  0  0
M  END
$$$$

  -OEChem-05262214473D

 43 42  0     1  0  0  0  0  0999 V2000
   -2.8661   -4.7415    2.2943 C   0  0  0  0  0  0  0  0  0  0  0  0
   -2.0233   -5.5727    2.6109 O   0  0  0  0  0  0  0  0  0  0  0  0
   -4.3078   -5.0134    2.5698 C   0  0  0  0  0  0  0  0  0  0  0  0
   -4.8057   -5.5295    1.7332 H   0  0  0  0  0  0  0  0  0  0  0  0
   -4.4526   -5.6688    3.4436 H   0  0  0  0  0  0  0  0  0  0  0  0
   -4.9255   -4.1233    2.7700 H   0  0  0  0  0  0  0  0  0  0  0  0
   -2.6241   -3.5219    1.6838 N   0  0  0  0  0  0  0  0  0  0  0  0
   -1.3070   -3.0608    1.3315 C   0  0  2  0  0  0  0  0  0  0  0  0
   -1.3931   -1.5680    1.0422 C   0  0  0  0  0  0  0  0  0  0  0  0
   -2.4385   -1.0059    0.7226 O   0  0  0  0  0  0  0  0  0  0  0  0
   -0.7590   -3.8164    0.1309 C   0  0  0  0  0  0  0  0  0  0  0  0
   -3.4188   -2.9207    1.4735 H   0  0  0  0  0  0  0  0  0  0  0  0
   -0.6690   -3.2277    2.2062 H   0  0  0  0  0  0  0  0  0  0  0  0
   -1.3852   -3.6613   -0.7553 H   0  0  0  0  0  0  0  0  0  0  0  0
    0.2542   -3.4843   -0.1182 H   0  0  0  0  0  0  0  0  0  0  0  0
   -0.7257   -4.8930    0.3300 H   0  0  0  0  0  0  0  0  0  0  0  0
   -0.1563   -0.9420    1.1402 N   0  0  0  0  0  0  0  0  0  0  0  0
    0.0261    0.4671    0.9001 C   0  0  2  0  0  0  0  0  0  0  0  0
   -1.3391    1.1518    0.9125 C   0  0  0  0  0  0  0  0  0  0  0  0
   -2.2020    0.9096    1.7540 O   0  0  0  0  0  0  0  0  0  0  0  0
    0.8313    0.7418   -0.3723 C   0  0  0  0  0  0  0  0  0  0  0  0
    2.5540    0.1514   -0.2933 S   0  0  0  0  0  0  0  0  0  0  0  0
    0.6533   -1.4855    1.4300 H   0  0  0  0  0  0  0  0  0  0  0  0
    0.5923    0.8420    1.7618 H   0  0  0  0  0  0  0  0  0  0  0  0
    0.3601    0.2621   -1.2364 H   0  0  0  0  0  0  0  0  0  0  0  0
    0.8627    1.8190   -0.5688 H   0  0  0  0  0  0  0  0  0  0  0  0
    2.8925    0.5591   -1.5231 H   0  0  0  0  0  0  0  0  0  0  0  0
   -1.4882    2.0445   -0.1393 N   0  0  0  0  0  0  0  0  0  0  0  0
   -2.6966    2.8073   -0.3484 C   0  0  2  0  0  0  0  0  0  0  0  0
   -2.5620    3.5481   -1.6722 C   0  0  0  0  0  0  0  0  0  0  0  0
   -1.4772    3.8022   -2.1915 O   0  0  0  0  0  0  0  0  0  0  0  0
   -2.9426    3.7787    0.7955 C   0  0  0  0  0  0  0  0  0  0  0  0
   -0.7093    2.2080   -0.7705 H   0  0  0  0  0  0  0  0  0  0  0  0
   -3.5184    2.0860   -0.4147 H   0  0  0  0  0  0  0  0  0  0  0  0
   -2.1295    4.5092    0.8776 H   0  0  0  0  0  0  0  0  0  0  0  0
   -3.8739    4.3358    0.6496 H   0  0  0  0  0  0  0  0  0  0  0  0
   -3.0095    3.2470    1.7508 H   0  0  0  0  0  0  0  0  0  0  0  0
   -3.7942    3.9300   -2.1842 N   0  0  0  0  0  0  0  0  0  0  0  0
   -3.9316    4.6575   -3.4243 C   0  0  0  0  0  0  0  0  0  0  0  0
   -4.6433    3.6602   -1.6963 H   0  0  0  0  0  0  0  0  0  0  0  0
   -3.9502    5.7375   -3.2163 H   0  0  0  0  0  0  0  0  0  0  0  0
   -3.0807    4.4254   -4.0816 H   0  0  0  0  0  0  0  0  0  0  0  0
   -4.8686    4.3634   -3.9198 H   0  0  0  0  0  0  0  0  0  0  0  0
  1  3  1  0  0  0  0
  1  7  1  0  0  0  0
  1  2  2  0  0  0  0
 29 30  1  0  0  0  0
 30 38  1  0  0  0  0
 30 31  2  0  0  0  0
  8  9  1  0  0  0  0
  9 17  1  0  0  0  0
  9 10  2  0  0  0  0
 18 19  1  0  0  0  0
 19 28  1  0  0  0  0
 19 20  2  0  0  0  0
 29 32  1  0  0  0  0
  8 11  1  0  0  0  0
 38 39  1  0  0  0  0
 18 21  1  0  0  0  0
 21 22  1  0  0  0  0
 28 29  1  0  0  0  0
  7  8  1  0  0  0  0
 17 18  1  0  0  0  0
  3  4  1  0  0  0  0
  3  5  1  0  0  0  0
  3  6  1  0  0  0  0
 32 35  1  0  0  0  0
 32 36  1  0  0  0  0
 32 37  1  0  0  0  0
 11 14  1  0  0  0  0
 11 15  1  0  0  0  0
 11 16  1  0  0  0  0
 39 41  1  0  0  0  0
 39 42  1  0  0  0  0
 39 43  1  0  0  0  0
 21 25  1  0  0  0  0
 21 26  1  0  0  0  0
 29 34  1  0  0  0  0
  8 13  1  0  0  0  0
 18 24  1  0  0  0  0
 38 40  1  0  0  0  0
  7 12  1  0  0  0  0
 28 33  1  0  0  0  0
 17 23  1  0  0  0  0
 22 27  1  0  0  0  0
M  END
$$$$

  -OEChem-05262214473D

 43 42  0     1  0  0  0  0  0999 V2000
   -2.8661   -4.7415    2.2943 C   0  0  0  0  0  0  0  0  0  0  0  0
   -2.0233   -5.5727    2.6109 O   0  0  0  0  0  0  0  0  0  0  0  0
   -4.3078   -5.0134    2.5698 C   0  0  0  0  0  0  0  0  0  0  0  0
   -4.8057   -5.5295    1.7332 H   0  0  0  0  0  0  0  0  0  0  0  0
   -4.4526   -5.6688    3.4436 H   0  0  0  0  0  0  0  0  0  0  0  0
   -4.9255   -4.1233    2.7700 H   0  0  0  0  0  0  0  0  0  0  0  0
   -2.6241   -3.5219    1.6838 N   0  0  0  0  0  0  0  0  0  0  0  0
   -1.3070   -3.0608    1.3315 C   0  0  2  0  0  0  0  0  0  0  0  0
   -1.3931   -1.5680    1.0422 C   0  0  0  0  0  0  0  0  0  0  0  0
   -2.4385   -1.0059    0.7226 O   0  0  0  0  0  0  0  0  0  0  0  0
   -0.7590   -3.8164    0.1309 C   0  0  0  0  0  0  0  0  0  0  0  0
   -3.4188   -2.9207    1.4735 H   0  0  0  0  0  0  0  0  0  0  0  0
   -0.6690   -3.2277    2.2062 H   0  0  0  0  0  0  0  0  0  0  0  0
   -1.3852   -3.6613   -0.7553 H   0  0  0  0  0  0  0  0  0  0  0  0
    0.2542   -3.4843   -0.1182 H   0  0  0  0  0  0  0  0  0  0  0  0
   -0.7257   -4.8930    0.3300 H   0  0  0  0  0  0  0  0  0  0  0  0
   -0.1563   -0.9420    1.1402 N   0  0  0  0  0  0  0  0  0  0  0  0
    0.0261    0.4671    0.9001 C   0  0  2  0  0  0  0  0  0  0  0  0
   -1.3391    1.1518    0.9125 C   0  0  0  0  0  0  0  0  0  0  0  0
   -2.0949    1.1209    1.8817 O   0  0  0  0  0  0  0  0  0  0  0  0
    0.8313    0.7418   -0.3723 C   0  0  0  0  0  0  0  0  0  0  0  0
    2.5540    0.1514   -0.2933 S   0  0  0  0  0  0  0  0  0  0  0  0
    0.6533   -1.4855    1.4300 H   0  0  0  0  0  0  0  0  0  0  0  0
    0.5923    0.8420    1.7618 H   0  0  0  0  0  0  0  0  0  0  0  0
    0.3601    0.2621   -1.2364 H   0  0  0  0  0  0  0  0  0  0  0  0
    0.8627    1.8190   -0.5688 H   0  0  0  0  0  0  0  0  0  0  0  0
    2.8925    0.5591   -1.5231 H   0  0  0  0  0  0  0  0  0  0  0  0
   -1.6230    1.7784   -0.2926 N   0  0  0  0  0  0  0  0  0  0  0  0
   -2.8594    2.4860   -0.5304 C   0  0  2  0  0  0  0  0  0  0  0  0
   -2.8906    2.8986   -1.9961 C   0  0  0  0  0  0  0  0  0  0  0  0
   -1.8773    3.0131   -2.6825 O   0  0  0  0  0  0  0  0  0  0  0  0
   -2.9866    3.6986    0.3785 C   0  0  0  0  0  0  0  0  0  0  0  0
   -0.9251    1.7824   -1.0306 H   0  0  0  0  0  0  0  0  0  0  0  0
   -3.6718    1.7785   -0.3322 H   0  0  0  0  0  0  0  0  0  0  0  0
   -2.1811    4.4188    0.1944 H   0  0  0  0  0  0  0  0  0  0  0  0
   -3.9372    4.2175    0.2170 H   0  0  0  0  0  0  0  0  0  0  0  0
   -2.9340    3.4032    1.4320 H   0  0  0  0  0  0  0  0  0  0  0  0
   -4.1797    3.1659   -2.4356 N   0  0  0  0  0  0  0  0  0  0  0  0
   -4.4712    3.5881   -3.7857 C   0  0  0  0  0  0  0  0  0  0  0  0
   -4.9622    3.0262   -1.8033 H   0  0  0  0  0  0  0  0  0  0  0  0
   -4.4826    4.6870   -3.8323 H   0  0  0  0  0  0  0  0  0  0  0  0
   -3.6985    3.2004   -4.4659 H   0  0  0  0  0  0  0  0  0  0  0  0
   -5.4545    3.1982   -4.0874 H   0  0  0  0  0  0  0  0  0  0  0  0
  1  3  1  0  0  0  0
  1  7  1  0  0  0  0
  1  2  2  0  0  0  0
 29 30  1  0  0  0  0
 30 38  1  0  0  0  0
 30 31  2  0  0  0  0
  8  9  1  0  0  0  0
  9 17  1  0  0  0  0
  9 10  2  0  0  0  0
 18 19  1  0  0  0  0
 19 28  1  0  0  0  0
 19 20  2  0  0  0  0
 29 32  1  0  0  0  0
  8 11  1  0  0  0  0
 38 39  1  0  0  0  0
 18 21  1  0  0  0  0
 21 22  1  0  0  0  0
 28 29  1  0  0  0  0
  7  8  1  0  0  0  0
 17 18  1  0  0  0  0
  3  4  1  0  0  0  0
  3  5  1  0  0  0  0
  3  6  1  0  0  0  0
 32 35  1  0  0  0  0
 32 36  1  0  0  0  0
 32 37  1  0  0  0  0
 11 14  1  0  0  0  0
 11 15  1  0  0  0  0
 11 16  1  0  0  0  0
 39 41  1  0  0  0  0
 39 42  1  0  0  0  0
 39 43  1  0  0  0  0
 21 25  1  0  0  0  0
 21 26  1  0  0  0  0
 29 34  1  0  0  0  0
  8 13  1  0  0  0  0
 18 24  1  0  0  0  0
 38 40  1  0  0  0  0
  7 12  1  0  0  0  0
 28 33  1  0  0  0  0
 17 23  1  0  0  0  0
 22 27  1  0  0  0  0
M  END
$$$$

  -OEChem-05262214473D

 43 42  0     1  0  0  0  0  0999 V2000
   -2.8661   -4.7415    2.2943 C   0  0  0  0  0  0  0  0  0  0  0  0
   -2.0233   -5.5727    2.6109 O   0  0  0  0  0  0  0  0  0  0  0  0
   -4.3078   -5.0134    2.5698 C   0  0  0  0  0  0  0  0  0  0  0  0
   -4.8057   -5.5295    1.7332 H   0  0  0  0  0  0  0  0  0  0  0  0
   -4.4526   -5.6688    3.4436 H   0  0  0  0  0  0  0  0  0  0  0  0
   -4.9255   -4.1233    2.7700 H   0  0  0  0  0  0  0  0  0  0  0  0
   -2.6241   -3.5219    1.6838 N   0  0  0  0  0  0  0  0  0  0  0  0
   -1.3070   -3.0608    1.3315 C   0  0  2  0  0  0  0  0  0  0  0  0
   -1.3931   -1.5680    1.0422 C   0  0  0  0  0  0  0  0  0  0  0  0
   -2.4385   -1.0059    0.7226 O   0  0  0  0  0  0  0  0  0  0  0  0
   -0.7590   -3.8164    0.1309 C   0  0  0  0  0  0  0  0  0  0  0  0
   -3.4188   -2.9207    1.4735 H   0  0  0  0  0  0  0  0  0  0  0  0
   -0.6690   -3.2277    2.2062 H   0  0  0  0  0  0  0  0  0  0  0  0
   -1.3852   -3.6613   -0.7553 H   0  0  0  0  0  0  0  0  0  0  0  0
    0.2542   -3.4843   -0.1182 H   0  0  0  0  0  0  0  0  0  0  0  0
   -0.7257   -4.8930    0.3300 H   0  0  0  0  0  0  0  0  0  0  0  0
   -0.1563   -0.9420    1.1402 N   0  0  0  0  0  0  0  0  0  0  0  0
    0.0261    0.4671    0.9001 C   0  0  2  0  0  0  0  0  0  0  0  0
   -1.3391    1.1518    0.9125 C   0  0  0  0  0  0  0  0  0  0  0  0
   -1.9770    1.3548    1.9437 O   0  0  0  0  0  0  0  0  0  0  0  0
    0.8313    0.7418   -0.3723 C   0  0  0  0  0  0  0  0  0  0  0  0
    2.5540    0.1514   -0.2933 S   0  0  0  0  0  0  0  0  0  0  0  0
    0.6533   -1.4855    1.4300 H   0  0  0  0  0  0  0  0  0  0  0  0
    0.5923    0.8420    1.7618 H   0  0  0  0  0  0  0  0  0  0  0  0
    0.3601    0.2621   -1.2364 H   0  0  0  0  0  0  0  0  0  0  0  0
    0.8627    1.8190   -0.5688 H   0  0  0  0  0  0  0  0  0  0  0  0
    2.8925    0.5591   -1.5231 H   0  0  0  0  0  0  0  0  0  0  0  0
   -1.7704    1.4857   -0.3634 N   0  0  0  0  0  0  0  0  0  0  0  0
   -3.0370    2.1332   -0.6130 C   0  0  2  0  0  0  0  0  0  0  0  0
   -3.2443    2.1957   -2.1205 C   0  0  0  0  0  0  0  0  0  0  0  0
   -2.3192    2.1365   -2.9278 O   0  0  0  0  0  0  0  0  0  0  0  0
   -3.0773    3.5247   -0.0006 C   0  0  0  0  0  0  0  0  0  0  0  0
   -1.1629    1.3107   -1.1583 H   0  0  0  0  0  0  0  0  0  0  0  0
   -3.8098    1.5002   -0.1634 H   0  0  0  0  0  0  0  0  0  0  0  0
   -2.3099    4.1733   -0.4386 H   0  0  0  0  0  0  0  0  0  0  0  0
   -4.0482    4.0031   -0.1661 H   0  0  0  0  0  0  0  0  0  0  0  0
   -2.8984    3.4806    1.0791 H   0  0  0  0  0  0  0  0  0  0  0  0
   -4.5796    2.3688   -2.4570 N   0  0  0  0  0  0  0  0  0  0  0  0
   -5.0320    2.4704   -3.8248 C   0  0  0  0  0  0  0  0  0  0  0  0
   -5.2814    2.3884   -1.7229 H   0  0  0  0  0  0  0  0  0  0  0  0
   -5.0661    3.5288   -4.1226 H   0  0  0  0  0  0  0  0  0  0  0  0
   -4.3373    1.9269   -4.4820 H   0  0  0  0  0  0  0  0  0  0  0  0
   -6.0374    2.0326   -3.9118 H   0  0  0  0  0  0  0  0  0  0  0  0
  1  3  1  0  0  0  0
  1  7  1  0  0  0  0
  1  2  2  0  0  0  0
 29 30  1  0  0  0  0
 30 38  1  0  0  0  0
 30 31  2  0  0  0  0
  8  9  1  0  0  0  0
  9 17  1  0  0  0  0
  9 10  2  0  0  0  0
 18 19  1  0  0  0  0
 19 28  1  0  0  0  0
 19 20  2  0  0  0  0
 29 32  1  0  0  0  0
  8 11  1  0  0  0  0
 38 39  1  0  0  0  0
 18 21  1  0  0  0  0
 21 22  1  0  0  0  0
 28 29  1  0  0  0  0
  7  8  1  0  0  0  0
 17 18  1  0  0  0  0
  3  4  1  0  0  0  0
  3  5  1  0  0  0  0
  3  6  1  0  0  0  0
 32 35  1  0  0  0  0
 32 36  1  0  0  0  0
 32 37  1  0  0  0  0
 11 14  1  0  0  0  0
 11 15  1  0  0  0  0
 11 16  1  0  0  0  0
 39 41  1  0  0  0  0
 39 42  1  0  0  0  0
 39 43  1  0  0  0  0
 21 25  1  0  0  0  0
 21 26  1  0  0  0  0
 29 34  1  0  0  0  0
  8 13  1  0  0  0  0
 18 24  1  0  0  0  0
 38 40  1  0  0  0  0
  7 12  1  0  0  0  0
 28 33  1  0  0  0  0
 17 23  1  0  0  0  0
 22 27  1  0  0  0  0
M  END
$$$$

  -OEChem-05262214473D

 43 42  0     1  0  0  0  0  0999 V2000
   -2.8661   -4.7415    2.2943 C   0  0  0  0  0  0  0  0  0  0  0  0
   -2.0233   -5.5727    2.6109 O   0  0  0  0  0  0  0  0  0  0  0  0
   -4.3078   -5.0134    2.5698 C   0  0  0  0  0  0  0  0  0  0  0  0
   -4.8057   -5.5295    1.7332 H   0  0  0  0  0  0  0  0  0  0  0  0
   -4.4526   -5.6688    3.4436 H   0  0  0  0  0  0  0  0  0  0  0  0
   -4.9255   -4.1233    2.7700 H   0  0  0  0  0  0  0  0  0  0  0  0
   -2.6241   -3.5219    1.6838 N   0  0  0  0  0  0  0  0  0  0  0  0
   -1.3070   -3.0608    1.3315 C   0  0  2  0  0  0  0  0  0  0  0  0
   -1.3931   -1.5680    1.0422 C   0  0  0  0  0  0  0  0  0  0  0  0
   -2.4385   -1.0059    0.7226 O   0  0  0  0  0  0  0  0  0  0  0  0
   -0.7590   -3.8164    0.1309 C   0  0  0  0  0  0  0  0  0  0  0  0
   -3.4188   -2.9207    1.4735 H   0  0  0  0  0  0  0  0  0  0  0  0
   -0.6690   -3.2277    2.2062 H   0  0  0  0  0  0  0  0  0  0  0  0
   -1.3852   -3.6613   -0.7553 H   0  0  0  0  0  0  0  0  0  0  0  0
    0.2542   -3.4843   -0.1182 H   0  0  0  0  0  0  0  0  0  0  0  0
   -0.7257   -4.8930    0.3300 H   0  0  0  0  0  0  0  0  0  0  0  0
   -0.1563   -0.9420    1.1402 N   0  0  0  0  0  0  0  0  0  0  0  0
    0.0261    0.4671    0.9001 C   0  0  2  0  0  0  0  0  0  0  0  0
   -1.3391    1.1518    0.9125 C   0  0  0  0  0  0  0  0  0  0  0  0
   -1.8565    1.5953    1.9357 O   0  0  0  0  0  0  0  0  0  0  0  0
    0.8313    0.7418   -0.3723 C   0  0  0  0  0  0  0  0  0  0  0  0
    2.5540    0.1514   -0.2933 S   0  0  0  0  0  0  0  0  0  0  0  0
    0.6533   -1.4855    1.4300 H   0  0  0  0  0  0  0  0  0  0  0  0
    0.5923    0.8420    1.7618 H   0  0  0  0  0  0  0  0  0  0  0  0
    0.3601    0.2621   -1.2364 H   0  0  0  0  0  0  0  0  0  0  0  0
    0.8627    1.8190   -0.5688 H   0  0  0  0  0  0  0  0  0  0  0  0
    2.8925    0.5591   -1.5231 H   0  0  0  0  0  0  0  0  0  0  0  0
   -1.9205    1.1862   -0.3470 N   0  0  0  0  0  0  0  0  0  0  0  0
   -3.2175    1.7730   -0.5905 C   0  0  2  0  0  0  0  0  0  0  0  0
   -3.5988    1.4872   -2.0370 C   0  0  0  0  0  0  0  0  0  0  0  0
   -2.7726    1.2320   -2.9107 O   0  0  0  0  0  0  0  0  0  0  0  0
   -3.2085    3.2688   -0.3161 C   0  0  0  0  0  0  0  0  0  0  0  0
   -1.4063    0.8250   -1.1450 H   0  0  0  0  0  0  0  0  0  0  0  0
   -3.9230    1.2702    0.0799 H   0  0  0  0  0  0  0  0  0  0  0  0
   -2.5073    3.7895   -0.9784 H   0  0  0  0  0  0  0  0  0  0  0  0
   -4.1995    3.7070   -0.4737 H   0  0  0  0  0  0  0  0  0  0  0  0
   -2.9051    3.4738    0.7163 H   0  0  0  0  0  0  0  0  0  0  0  0
   -4.9666    1.5931   -2.2468 N   0  0  0  0  0  0  0  0  0  0  0  0
   -5.5760    1.3806   -3.5389 C   0  0  0  0  0  0  0  0  0  0  0  0
   -5.5790    1.7902   -1.4607 H   0  0  0  0  0  0  0  0  0  0  0  0
   -5.6610    2.3416   -4.0674 H   0  0  0  0  0  0  0  0  0  0  0  0
   -4.9535    0.6917   -4.1288 H   0  0  0  0  0  0  0  0  0  0  0  0
   -6.5776    0.9462   -3.4048 H   0  0  0  0  0  0  0  0  0  0  0  0
  1  3  1  0  0  0  0
  1  7  1  0  0  0  0
  1  2  2  0  0  0  0
 29 30  1  0  0  0  0
 30 38  1  0  0  0  0
 30 31  2  0  0  0  0
  8  9  1  0  0  0  0
  9 17  1  0  0  0  0
  9 10  2  0  0  0  0
 18 19  1  0  0  0  0
 19 28  1  0  0  0  0
 19 20  2  0  0  0  0
 29 32  1  0  0  0  0
  8 11  1  0  0  0  0
 38 39  1  0  0  0  0
 18 21  1  0  0  0  0
 21 22  1  0  0  0  0
 28 29  1  0  0  0  0
  7  8  1  0  0  0  0
 17 18  1  0  0  0  0
  3  4  1  0  0  0  0
  3  5  1  0  0  0  0
  3  6  1  0  0  0  0
 32 35  1  0  0  0  0
 32 36  1  0  0  0  0
 32 37  1  0  0  0  0
 11 14  1  0  0  0  0
 11 15  1  0  0  0  0
 11 16  1  0  0  0  0
 39 41  1  0  0  0  0
 39 42  1  0  0  0  0
 39 43  1  0  0  0  0
 21 25  1  0  0  0  0
 21 26  1  0  0  0  0
 29 34  1  0  0  0  0
  8 13  1  0  0  0  0
 18 24  1  0  0  0  0
 38 40  1  0  0  0  0
  7 12  1  0  0  0  0
 28 33  1  0  0  0  0
 17 23  1  0  0  0  0
 22 27  1  0  0  0  0
M  END
$$$$

  -OEChem-05262214473D

 43 42  0     1  0  0  0  0  0999 V2000
   -2.8661   -4.7415    2.2943 C   0  0  0  0  0  0  0  0  0  0  0  0
   -2.0233   -5.5727    2.6109 O   0  0  0  0  0  0  0  0  0  0  0  0
   -4.3078   -5.0134    2.5698 C   0  0  0  0  0  0  0  0  0  0  0  0
   -4.8057   -5.5295    1.7332 H   0  0  0  0  0  0  0  0  0  0  0  0
   -4.4526   -5.6688    3.4436 H   0  0  0  0  0  0  0  0  0  0  0  0
   -4.9255   -4.1233    2.7700 H   0  0  0  0  0  0  0  0  0  0  0  0
   -2.6241   -3.5219    1.6838 N   0  0  0  0  0  0  0  0  0  0  0  0
   -1.3070   -3.0608    1.3315 C   0  0  2  0  0  0  0  0  0  0  0  0
   -1.3931   -1.5680    1.0422 C   0  0  0  0  0  0  0  0  0  0  0  0
   -2.4385   -1.0059    0.7226 O   0  0  0  0  0  0  0  0  0  0  0  0
   -0.7590   -3.8164    0.1309 C   0  0  0  0  0  0  0  0  0  0  0  0
   -3.4188   -2.9207    1.4735 H   0  0  0  0  0  0  0  0  0  0  0  0
   -0.6690   -3.2277    2.2062 H   0  0  0  0  0  0  0  0  0  0  0  0
   -1.3852   -3.6613   -0.7553 H   0  0  0  0  0  0  0  0  0  0  0  0
    0.2542   -3.4843   -0.1182 H   0  0  0  0  0  0  0  0  0  0  0  0
   -0.7257   -4.8930    0.3300 H   0  0  0  0  0  0  0  0  0  0  0  0
   -0.1563   -0.9420    1.1402 N   0  0  0  0  0  0  0  0  0  0  0  0
    0.0261    0.4671    0.9001 C   0  0  2  0  0  0  0  0  0  0  0  0
   -1.3391    1.1518    0.9125 C   0  0  0  0  0  0  0  0  0  0  0  0
   -1.7414    1.8261    1.8585 O   0  0  0  0  0  0  0  0  0  0  0  0
    0.8313    0.7418   -0.3723 C   0  0  0  0  0  0  0  0  0  0  0  0
    2.5540    0.1514   -0.2933 S   0  0  0  0  0  0  0  0  0  0  0  0
    0.6533   -1.4855    1.4300 H   0  0  0  0  0  0  0  0  0  0  0  0
    0.5923    0.8420    1.7618 H   0  0  0  0  0  0  0  0  0  0  0  0
    0.3601    0.2621   -1.2364 H   0  0  0  0  0  0  0  0  0  0  0  0
    0.8627    1.8190   -0.5688 H   0  0  0  0  0  0  0  0  0  0  0  0
    2.8925    0.5591   -1.5231 H   0  0  0  0  0  0  0  0  0  0  0  0
   -2.0628    0.9005   -0.2444 N   0  0  0  0  0  0  0  0  0  0  0  0
   -3.3884    1.4298   -0.4645 C   0  0  2  0  0  0  0  0  0  0  0  0
   -3.9301    0.8214   -1.7514 C   0  0  0  0  0  0  0  0  0  0  0  0
   -3.2066    0.3614   -2.6323 O   0  0  0  0  0  0  0  0  0  0  0  0
   -3.3713    2.9483   -0.5464 C   0  0  0  0  0  0  0  0  0  0  0  0
   -1.6389    0.3584   -0.9915 H   0  0  0  0  0  0  0  0  0  0  0  0
   -4.0035    1.1041    0.3813 H   0  0  0  0  0  0  0  0  0  0  0  0
   -2.7598    3.2935   -1.3881 H   0  0  0  0  0  0  0  0  0  0  0  0
   -4.3806    3.3496   -0.6847 H   0  0  0  0  0  0  0  0  0  0  0  0
   -2.9537    3.3832    0.3681 H   0  0  0  0  0  0  0  0  0  0  0  0
   -5.3145    0.8917   -1.8195 N   0  0  0  0  0  0  0  0  0  0  0  0
   -6.0659    0.3929   -2.9476 C   0  0  0  0  0  0  0  0  0  0  0  0
   -5.8347    1.2724   -1.0345 H   0  0  0  0  0  0  0  0  0  0  0  0
   -6.2267    1.2064   -3.6703 H   0  0  0  0  0  0  0  0  0  0  0  0
   -5.5052   -0.4210   -3.4305 H   0  0  0  0  0  0  0  0  0  0  0  0
   -7.0383    0.0129   -2.6011 H   0  0  0  0  0  0  0  0  0  0  0  0
  1  3  1  0  0  0  0
  1  7  1  0  0  0  0
  1  2  2  0  0  0  0
 29 30  1  0  0  0  0
 30 38  1  0  0  0  0
 30 31  2  0  0  0  0
  8  9  1  0  0  0  0
  9 17  1  0  0  0  0
  9 10  2  0  0  0  0
 18 19  1  0  0  0  0
 19 28  1  0  0  0  0
 19 20  2  0  0  0  0
 29 32  1  0  0  0  0
  8 11  1  0  0  0  0
 38 39  1  0  0  0  0
 18 21  1  0  0  0  0
 21 22  1  0  0  0  0
 28 29  1  0  0  0  0
  7  8  1  0  0  0  0
 17 18  1  0  0  0  0
  3  4  1  0  0  0  0
  3  5  1  0  0  0  0
  3  6  1  0  0  0  0
 32 35  1  0  0  0  0
 32 36  1  0  0  0  0
 32 37  1  0  0  0  0
 11 14  1  0  0  0  0
 11 15  1  0  0  0  0
 11 16  1  0  0  0  0
 39 41  1  0  0  0  0
 39 42  1  0  0  0  0
 39 43  1  0  0  0  0
 21 25  1  0  0  0  0
 21 26  1  0  0  0  0
 29 34  1  0  0  0  0
  8 13  1  0  0  0  0
 18 24  1  0  0  0  0
 38 40  1  0  0  0  0
  7 12  1  0  0  0  0
 28 33  1  0  0  0  0
 17 23  1  0  0  0  0
 22 27  1  0  0  0  0
M  END
$$$$

  -OEChem-05262214473D

 43 42  0     1  0  0  0  0  0999 V2000
   -2.8661   -4.7415    2.2943 C   0  0  0  0  0  0  0  0  0  0  0  0
   -2.0233   -5.5727    2.6109 O   0  0  0  0  0  0  0  0  0  0  0  0
   -4.3078   -5.0134    2.5698 C   0  0  0  0  0  0  0  0  0  0  0  0
   -4.8057   -5.5295    1.7332 H   0  0  0  0  0  0  0  0  0  0  0  0
   -4.4526   -5.6688    3.4436 H   0  0  0  0  0  0  0  0  0  0  0  0
   -4.9255   -4.1233    2.7700 H   0  0  0  0  0  0  0  0  0  0  0  0
   -2.6241   -3.5219    1.6838 N   0  0  0  0  0  0  0  0  0  0  0  0
   -1.3070   -3.0608    1.3315 C   0  0  2  0  0  0  0  0  0  0  0  0
   -1.3931   -1.5680    1.0422 C   0  0  0  0  0  0  0  0  0  0  0  0
   -2.4385   -1.0059    0.7226 O   0  0  0  0  0  0  0  0  0  0  0  0
   -0.7590   -3.8164    0.1309 C   0  0  0  0  0  0  0  0  0  0  0  0
   -3.4188   -2.9207    1.4735 H   0  0  0  0  0  0  0  0  0  0  0  0
   -0.6690   -3.2277    2.2062 H   0  0  0  0  0  0  0  0  0  0  0  0
   -1.3852   -3.6613   -0.7553 H   0  0  0  0  0  0  0  0  0  0  0  0
    0.2542   -3.4843   -0.1182 H   0  0  0  0  0  0  0  0  0  0  0  0
   -0.7257   -4.8930    0.3300 H   0  0  0  0  0  0  0  0  0  0  0  0
   -0.1563   -0.9420    1.1402 N   0  0  0  0  0  0  0  0  0  0  0  0
    0.0261    0.4671    0.9001 C   0  0  2  0  0  0  0  0  0  0  0  0
   -1.3391    1.1518    0.9125 C   0  0  0  0  0  0  0  0  0  0  0  0
   -1.6398    2.0313    1.7171 O   0  0  0  0  0  0  0  0  0  0  0  0
    0.8313    0.7418   -0.3723 C   0  0  0  0  0  0  0  0  0  0  0  0
    2.5540    0.1514   -0.2933 S   0  0  0  0  0  0  0  0  0  0  0  0
    0.6533   -1.4855    1.4300 H   0  0  0  0  0  0  0  0  0  0  0  0
    0.5923    0.8420    1.7618 H   0  0  0  0  0  0  0  0  0  0  0  0
    0.3601    0.2621   -1.2364 H   0  0  0  0  0  0  0  0  0  0  0  0
    0.8627    1.8190   -0.5688 H   0  0  0  0  0  0  0  0  0  0  0  0
    2.8925    0.5591   -1.5231 H   0  0  0  0  0  0  0  0  0  0  0  0
   -2.1879    0.6479   -0.0628 N   0  0  0  0  0  0  0  0  0  0  0  0
   -3.5382    1.1272   -0.2437 C   0  0  2  0  0  0  0  0  0  0  0  0
   -4.2156    0.2437   -1.2830 C   0  0  0  0  0  0  0  0  0  0  0  0
   -3.5918   -0.4160   -2.1117 O   0  0  0  0  0  0  0  0  0  0  0  0
   -3.5546    2.5852   -0.6758 C   0  0  0  0  0  0  0  0  0  0  0  0
   -1.8448   -0.0573   -0.7083 H   0  0  0  0  0  0  0  0  0  0  0  0
   -4.0460    1.0132    0.7202 H   0  0  0  0  0  0  0  0  0  0  0  0
   -3.0501    2.7191   -1.6397 H   0  0  0  0  0  0  0  0  0  0  0  0
   -4.5794    2.9552   -0.7848 H   0  0  0  0  0  0  0  0  0  0  0  0
   -3.0409    3.2151    0.0584 H   0  0  0  0  0  0  0  0  0  0  0  0
   -5.5995    0.3123   -1.2040 N   0  0  0  0  0  0  0  0  0  0  0  0
   -6.4685   -0.4254   -2.0910 C   0  0  0  0  0  0  0  0  0  0  0  0
   -6.0313    0.8703   -0.4734 H   0  0  0  0  0  0  0  0  0  0  0  0
   -6.7246    0.2005   -2.9585 H   0  0  0  0  0  0  0  0  0  0  0  0
   -5.9546   -1.3353   -2.4344 H   0  0  0  0  0  0  0  0  0  0  0  0
   -7.3881   -0.7036   -1.5554 H   0  0  0  0  0  0  0  0  0  0  0  0
  1  3  1  0  0  0  0
  1  7  1  0  0  0  0
  1  2  2  0  0  0  0
 29 30  1  0  0  0  0
 30 38  1  0  0  0  0
 30 31  2  0  0  0  0
  8  9  1  0  0  0  0
  9 17  1  0  0  0  0
  9 10  2  0  0  0  0
 18 19  1  0  0  0  0
 19 28  1  0  0  0  0
 19 20  2  0  0  0  0
 29 32  1  0  0  0  0
  8 11  1  0  0  0  0
 38 39  1  0  0  0  0
 18 21  1  0  0  0  0
 21 22  1  0  0  0  0
 28 29  1  0  0  0  0
  7  8  1  0  0  0  0
 17 18  1  0  0  0  0
  3  4  1  0  0  0  0
  3  5  1  0  0  0  0
  3  6  1  0  0  0  0
 32 35  1  0  0  0  0
 32 36  1  0  0  0  0
 32 37  1  0  0  0  0
 11 14  1  0  0  0  0
 11 15  1  0  0  0  0
 11 16  1  0  0  0  0
 39 41  1  0  0  0  0
 39 42  1  0  0  0  0
 39 43  1  0  0  0  0
 21 25  1  0  0  0  0
 21 26  1  0  0  0  0
 29 34  1  0  0  0  0
  8 13  1  0  0  0  0
 18 24  1  0  0  0  0
 38 40  1  0  0  0  0
  7 12  1  0  0  0  0
 28 33  1  0  0  0  0
 17 23  1  0  0  0  0
 22 27  1  0  0  0  0
M  END
$$$$

  -OEChem-05262214473D

 43 42  0     1  0  0  0  0  0999 V2000
   -2.8661   -4.7415    2.2943 C   0  0  0  0  0  0  0  0  0  0  0  0
   -2.0233   -5.5727    2.6109 O   0  0  0  0  0  0  0  0  0  0  0  0
   -4.3078   -5.0134    2.5698 C   0  0  0  0  0  0  0  0  0  0  0  0
   -4.8057   -5.5295    1.7332 H   0  0  0  0  0  0  0  0  0  0  0  0
   -4.4526   -5.6688    3.4436 H   0  0  0  0  0  0  0  0  0  0  0  0
   -4.9255   -4.1233    2.7700 H   0  0  0  0  0  0  0  0  0  0  0  0
   -2.6241   -3.5219    1.6838 N   0  0  0  0  0  0  0  0  0  0  0  0
   -1.3070   -3.0608    1.3315 C   0  0  2  0  0  0  0  0  0  0  0  0
   -1.3931   -1.5680    1.0422 C   0  0  0  0  0  0  0  0  0  0  0  0
   -2.4385   -1.0059    0.7226 O   0  0  0  0  0  0  0  0  0  0  0  0
   -0.7590   -3.8164    0.1309 C   0  0  0  0  0  0  0  0  0  0  0  0
   -3.4188   -2.9207    1.4735 H   0  0  0  0  0  0  0  0  0  0  0  0
   -0.6690   -3.2277    2.2062 H   0  0  0  0  0  0  0  0  0  0  0  0
   -1.3852   -3.6613   -0.7553 H   0  0  0  0  0  0  0  0  0  0  0  0
    0.2542   -3.4843   -0.1182 H   0  0  0  0  0  0  0  0  0  0  0  0
   -0.7257   -4.8930    0.3300 H   0  0  0  0  0  0  0  0  0  0  0  0
   -0.1563   -0.9420    1.1402 N   0  0  0  0  0  0  0  0  0  0  0  0
    0.0261    0.4671    0.9001 C   0  0  2  0  0  0  0  0  0  0  0  0
   -1.3391    1.1518    0.9125 C   0  0  0  0  0  0  0  0  0  0  0  0
   -1.5585    2.1971    1.5213 O   0  0  0  0  0  0  0  0  0  0  0  0
    0.8313    0.7418   -0.3723 C   0  0  0  0  0  0  0  0  0  0  0  0
    2.5540    0.1514   -0.2933 S   0  0  0  0  0  0  0  0  0  0  0  0
    0.6533   -1.4855    1.4300 H   0  0  0  0  0  0  0  0  0  0  0  0
    0.5923    0.8420    1.7618 H   0  0  0  0  0  0  0  0  0  0  0  0
    0.3601    0.2621   -1.2364 H   0  0  0  0  0  0  0  0  0  0  0  0
    0.8627    1.8190   -0.5688 H   0  0  0  0  0  0  0  0  0  0  0  0
    2.8925    0.5591   -1.5231 H   0  0  0  0  0  0  0  0  0  0  0  0
   -2.2870    0.4456    0.1857 N   0  0  0  0  0  0  0  0  0  0  0  0
   -3.6566    0.8856    0.0571 C   0  0  2  0  0  0  0  0  0  0  0  0
   -4.4357   -0.2065   -0.6638 C   0  0  0  0  0  0  0  0  0  0  0  0
   -3.9018   -1.0473   -1.3842 O   0  0  0  0  0  0  0  0  0  0  0  0
   -3.7458    2.2041   -0.6955 C   0  0  0  0  0  0  0  0  0  0  0  0
   -2.0099   -0.3937   -0.3148 H   0  0  0  0  0  0  0  0  0  0  0  0
   -4.0476    1.0037    1.0736 H   0  0  0  0  0  0  0  0  0  0  0  0
   -3.3586    2.1054   -1.7162 H   0  0  0  0  0  0  0  0  0  0  0  0
   -4.7821    2.5506   -0.7673 H   0  0  0  0  0  0  0  0  0  0  0  0
   -3.1606    2.9808   -0.1917 H   0  0  0  0  0  0  0  0  0  0  0  0
   -5.8021   -0.1056   -0.4425 N   0  0  0  0  0  0  0  0  0  0  0  0
   -6.7562   -1.0184   -1.0276 C   0  0  0  0  0  0  0  0  0  0  0  0
   -6.1551    0.6114    0.1845 H   0  0  0  0  0  0  0  0  0  0  0  0
   -7.1209   -0.6074   -1.9805 H   0  0  0  0  0  0  0  0  0  0  0  0
   -6.2713   -1.9891   -1.2087 H   0  0  0  0  0  0  0  0  0  0  0  0
   -7.6032   -1.1545   -0.3390 H   0  0  0  0  0  0  0  0  0  0  0  0
  1  3  1  0  0  0  0
  1  7  1  0  0  0  0
  1  2  2  0  0  0  0
 29 30  1  0  0  0  0
 30 38  1  0  0  0  0
 30 31  2  0  0  0  0
  8  9  1  0  0  0  0
  9 17  1  0  0  0  0
  9 10  2  0  0  0  0
 18 19  1  0  0  0  0
 19 28  1  0  0  0  0
 19 20  2  0  0  0  0
 29 32  1  0  0  0  0
  8 11  1  0  0  0  0
 38 39  1  0  0  0  0
 18 21  1  0  0  0  0
 21 22  1  0  0  0  0
 28 29  1  0  0  0  0
  7  8  1  0  0  0  0
 17 18  1  0  0  0  0
  3  4  1  0  0  0  0
  3  5  1  0  0  0  0
  3  6  1  0  0  0  0
 32 35  1  0  0  0  0
 32 36  1  0  0  0  0
 32 37  1  0  0  0  0
 11 14  1  0  0  0  0
 11 15  1  0  0  0  0
 11 16  1  0  0  0  0
 39 41  1  0  0  0  0
 39 42  1  0  0  0  0
 39 43  1  0  0  0  0
 21 25  1  0  0  0  0
 21 26  1  0  0  0  0
 29 34  1  0  0  0  0
  8 13  1  0  0  0  0
 18 24  1  0  0  0  0
 38 40  1  0  0  0  0
  7 12  1  0  0  0  0
 28 33  1  0  0  0  0
 17 23  1  0  0  0  0
 22 27  1  0  0  0  0
M  END
$$$$

  -OEChem-05262214473D

 43 42  0     1  0  0  0  0  0999 V2000
   -2.8661   -4.7415    2.2943 C   0  0  0  0  0  0  0  0  0  0  0  0
   -2.0233   -5.5727    2.6109 O   0  0  0  0  0  0  0  0  0  0  0  0
   -4.3078   -5.0134    2.5698 C   0  0  0  0  0  0  0  0  0  0  0  0
   -4.8057   -5.5295    1.7332 H   0  0  0  0  0  0  0  0  0  0  0  0
   -4.4526   -5.6688    3.4436 H   0  0  0  0  0  0  0  0  0  0  0  0
   -4.9255   -4.1233    2.7700 H   0  0  0  0  0  0  0  0  0  0  0  0
   -2.6241   -3.5219    1.6838 N   0  0  0  0  0  0  0  0  0  0  0  0
   -1.3070   -3.0608    1.3315 C   0  0  2  0  0  0  0  0  0  0  0  0
   -1.3931   -1.5680    1.0422 C   0  0  0  0  0  0  0  0  0  0  0  0
   -2.4385   -1.0059    0.7226 O   0  0  0  0  0  0  0  0  0  0  0  0
   -0.7590   -3.8164    0.1309 C   0  0  0  0  0  0  0  0  0  0  0  0
   -3.4188   -2.9207    1.4735 H   0  0  0  0  0  0  0  0  0  0  0  0
   -0.6690   -3.2277    2.2062 H   0  0  0  0  0  0  0  0  0  0  0  0
   -1.3852   -3.6613   -0.7553 H   0  0  0  0  0  0  0  0  0  0  0  0
    0.2542   -3.4843   -0.1182 H   0  0  0  0  0  0  0  0  0  0  0  0
   -0.7257   -4.8930    0.3300 H   0  0  0  0  0  0  0  0  0  0  0  0
   -0.1563   -0.9420    1.1402 N   0  0  0  0  0  0  0  0  0  0  0  0
    0.0261    0.4671    0.9001 C   0  0  2  0  0  0  0  0  0  0  0  0
   -1.3391    1.1518    0.9125 C   0  0  0  0  0  0  0  0  0  0  0  0
   -1.5030    2.3121    1.2843 O   0  0  0  0  0  0  0  0  0  0  0  0
    0.8313    0.7418   -0.3723 C   0  0  0  0  0  0  0  0  0  0  0  0
    2.5540    0.1514   -0.2933 S   0  0  0  0  0  0  0  0  0  0  0  0
    0.6533   -1.4855    1.4300 H   0  0  0  0  0  0  0  0  0  0  0  0
    0.5923    0.8420    1.7618 H   0  0  0  0  0  0  0  0  0  0  0  0
    0.3601    0.2621   -1.2364 H   0  0  0  0  0  0  0  0  0  0  0  0
    0.8627    1.8190   -0.5688 H   0  0  0  0  0  0  0  0  0  0  0  0
    2.8925    0.5591   -1.5231 H   0  0  0  0  0  0  0  0  0  0  0  0
   -2.3536    0.3075    0.4839 N   0  0  0  0  0  0  0  0  0  0  0  0
   -3.7356    0.7216    0.4172 C   0  0  2  0  0  0  0  0  0  0  0  0
   -4.5756   -0.4987    0.0640 C   0  0  0  0  0  0  0  0  0  0  0  0
   -4.1154   -1.4895   -0.4995 O   0  0  0  0  0  0  0  0  0  0  0  0
   -3.9321    1.8310   -0.6042 C   0  0  0  0  0  0  0  0  0  0  0  0
   -2.1231   -0.6280    0.1624 H   0  0  0  0  0  0  0  0  0  0  0  0
   -4.0081    1.0763    1.4172 H   0  0  0  0  0  0  0  0  0  0  0  0
   -3.6641    1.4942   -1.6123 H   0  0  0  0  0  0  0  0  0  0  0  0
   -4.9750    2.1634   -0.6332 H   0  0  0  0  0  0  0  0  0  0  0  0
   -3.3048    2.6965   -0.3652 H   0  0  0  0  0  0  0  0  0  0  0  0
   -5.9086   -0.3335    0.4133 N   0  0  0  0  0  0  0  0  0  0  0  0
   -6.9095   -1.3459    0.1701 C   0  0  0  0  0  0  0  0  0  0  0  0
   -6.1979    0.5132    0.8942 H   0  0  0  0  0  0  0  0  0  0  0  0
   -7.3885   -1.1625   -0.8030 H   0  0  0  0  0  0  0  0  0  0  0  0
   -6.4336   -2.3376    0.1633 H   0  0  0  0  0  0  0  0  0  0  0  0
   -7.6688   -1.3091    0.9652 H   0  0  0  0  0  0  0  0  0  0  0  0
  1  3  1  0  0  0  0
  1  7  1  0  0  0  0
  1  2  2  0  0  0  0
 29 30  1  0  0  0  0
 30 38  1  0  0  0  0
 30 31  2  0  0  0  0
  8  9  1  0  0  0  0
  9 17  1  0  0  0  0
  9 10  2  0  0  0  0
 18 19  1  0  0  0  0
 19 28  1  0  0  0  0
 19 20  2  0  0  0  0
 29 32  1  0  0  0  0
  8 11  1  0  0  0  0
 38 39  1  0  0  0  0
 18 21  1  0  0  0  0
 21 22  1  0  0  0  0
 28 29  1  0  0  0  0
  7  8  1  0  0  0  0
 17 18  1  0  0  0  0
  3  4  1  0  0  0  0
  3  5  1  0  0  0  0
  3  6  1  0  0  0  0
 32 35  1  0  0  0  0
 32 36  1  0  0  0  0
 32 37  1  0  0  0  0
 11 14  1  0  0  0  0
 11 15  1  0  0  0  0
 11 16  1  0  0  0  0
 39 41  1  0  0  0  0
 39 42  1  0  0  0  0
 39 43  1  0  0  0  0
 21 25  1  0  0  0  0
 21 26  1  0  0  0  0
 29 34  1  0  0  0  0
  8 13  1  0  0  0  0
 18 24  1  0  0  0  0
 38 40  1  0  0  0  0
  7 12  1  0  0  0  0
 28 33  1  0  0  0  0
 17 23  1  0  0  0  0
 22 27  1  0  0  0  0
M  END
$$$$

  -OEChem-05262214473D

 43 42  0     1  0  0  0  0  0999 V2000
   -2.8661   -4.7415    2.2943 C   0  0  0  0  0  0  0  0  0  0  0  0
   -2.0233   -5.5727    2.6109 O   0  0  0  0  0  0  0  0  0  0  0  0
   -4.3078   -5.0134    2.5698 C   0  0  0  0  0  0  0  0  0  0  0  0
   -4.8057   -5.5295    1.7332 H   0  0  0  0  0  0  0  0  0  0  0  0
   -4.4526   -5.6688    3.4436 H   0  0  0  0  0  0  0  0  0  0  0  0
   -4.9255   -4.1233    2.7700 H   0  0  0  0  0  0  0  0  0  0  0  0
   -2.6241   -3.5219    1.6838 N   0  0  0  0  0  0  0  0  0  0  0  0
   -1.3070   -3.0608    1.3315 C   0  0  2  0  0  0  0  0  0  0  0  0
   -1.3931   -1.5680    1.0422 C   0  0  0  0  0  0  0  0  0  0  0  0
   -2.4385   -1.0059    0.7226 O   0  0  0  0  0  0  0  0  0  0  0  0
   -0.7590   -3.8164    0.1309 C   0  0  0  0  0  0  0  0  0  0  0  0
   -3.4188   -2.9207    1.4735 H   0  0  0  0  0  0  0  0  0  0  0  0
   -0.6690   -3.2277    2.2062 H   0  0  0  0  0  0  0  0  0  0  0  0
   -1.3852   -3.6613   -0.7553 H   0  0  0  0  0  0  0  0  0  0  0  0
    0.2542   -3.4843   -0.1182 H   0  0  0  0  0  0  0  0  0  0  0  0
   -0.7257   -4.8930    0.3300 H   0  0  0  0  0  0  0  0  0  0  0  0
   -0.1563   -0.9420    1.1402 N   0  0  0  0  0  0  0  0  0  0  0  0
    0.0261    0.4671    0.9001 C   0  0  2  0  0  0  0  0  0  0  0  0
   -1.3391    1.1518    0.9125 C   0  0  0  0  0  0  0  0  0  0  0  0
   -1.4771    2.3684    1.0224 O   0  0  0  0  0  0  0  0  0  0  0  0
    0.8313    0.7418   -0.3723 C   0  0  0  0  0  0  0  0  0  0  0  0
    2.5540    0.1514   -0.2933 S   0  0  0  0  0  0  0  0  0  0  0  0
    0.6533   -1.4855    1.4300 H   0  0  0  0  0  0  0  0  0  0  0  0
    0.5923    0.8420    1.7618 H   0  0  0  0  0  0  0  0  0  0  0  0
    0.3601    0.2621   -1.2364 H   0  0  0  0  0  0  0  0  0  0  0  0
    0.8627    1.8190   -0.5688 H   0  0  0  0  0  0  0  0  0  0  0  0
    2.8925    0.5591   -1.5231 H   0  0  0  0  0  0  0  0  0  0  0  0
   -2.3829    0.2430    0.8117 N   0  0  0  0  0  0  0  0  0  0  0  0
   -3.7697    0.6463    0.8122 C   0  0  2  0  0  0  0  0  0  0  0  0
   -4.6257   -0.6128    0.8509 C   0  0  0  0  0  0  0  0  0  0  0  0
   -4.2183   -1.7124    0.4821 O   0  0  0  0  0  0  0  0  0  0  0  0
   -4.1007    1.4913   -0.4081 C   0  0  0  0  0  0  0  0  0  0  0  0
   -2.1765   -0.7441    0.6906 H   0  0  0  0  0  0  0  0  0  0  0  0
   -3.9302    1.2260    1.7278 H   0  0  0  0  0  0  0  0  0  0  0  0
   -3.9459    0.9273   -1.3352 H   0  0  0  0  0  0  0  0  0  0  0  0
   -5.1450    1.8201   -0.3917 H   0  0  0  0  0  0  0  0  0  0  0  0
   -3.4636    2.3814   -0.4503 H   0  0  0  0  0  0  0  0  0  0  0  0
   -5.9117   -0.3558    1.3050 N   0  0  0  0  0  0  0  0  0  0  0  0
   -6.9179   -1.3854    1.4206 C   0  0  0  0  0  0  0  0  0  0  0  0
   -6.1567    0.5824    1.6074 H   0  0  0  0  0  0  0  0  0  0  0  0
   -7.5092   -1.4267    0.4939 H   0  0  0  0  0  0  0  0  0  0  0  0
   -6.4305   -2.3572    1.5880 H   0  0  0  0  0  0  0  0  0  0  0  0
   -7.5806   -1.1568    2.2683 H   0  0  0  0  0  0  0  0  0  0  0  0
  1  3  1  0  0  0  0
  1  7  1  0  0  0  0
  1  2  2  0  0  0  0
 29 30  1  0  0  0  0
 30 38  1  0  0  0  0
 30 31  2  0  0  0  0
  8  9  1  0  0  0  0
  9 17  1  0  0  0  0
  9 10  2  0  0  0  0
 18 19  1  0  0  0  0
 19 28  1  0  0  0  0
 19 20  2  0  0  0  0
 29 32  1  0  0  0  0
  8 11  1  0  0  0  0
 38 39  1  0  0  0  0
 18 21  1  0  0  0  0
 21 22  1  0  0  0  0
 28 29  1  0  0  0  0
  7  8  1  0  0  0  0
 17 18  1  0  0  0  0
  3  4  1  0  0  0  0
  3  5  1  0  0  0  0
  3  6  1  0  0  0  0
 32 35  1  0  0  0  0
 32 36  1  0  0  0  0
 32 37  1  0  0  0  0
 11 14  1  0  0  0  0
 11 15  1  0  0  0  0
 11 16  1  0  0  0  0
 39 41  1  0  0  0  0
 39 42  1  0  0  0  0
 39 43  1  0  0  0  0
 21 25  1  0  0  0  0
 21 26  1  0  0  0  0
 29 34  1  0  0  0  0
  8 13  1  0  0  0  0
 18 24  1  0  0  0  0
 38 40  1  0  0  0  0
  7 12  1  0  0  0  0
 28 33  1  0  0  0  0
 17 23  1  0  0  0  0
 22 27  1  0  0  0  0
M  END
$$$$

  -OEChem-05262214473D

 43 42  0     1  0  0  0  0  0999 V2000
   -2.8661   -4.7415    2.2943 C   0  0  0  0  0  0  0  0  0  0  0  0
   -2.0233   -5.5727    2.6109 O   0  0  0  0  0  0  0  0  0  0  0  0
   -4.3078   -5.0134    2.5698 C   0  0  0  0  0  0  0  0  0  0  0  0
   -4.8057   -5.5295    1.7332 H   0  0  0  0  0  0  0  0  0  0  0  0
   -4.4526   -5.6688    3.4436 H   0  0  0  0  0  0  0  0  0  0  0  0
   -4.9255   -4.1233    2.7700 H   0  0  0  0  0  0  0  0  0  0  0  0
   -2.6241   -3.5219    1.6838 N   0  0  0  0  0  0  0  0  0  0  0  0
   -1.3070   -3.0608    1.3315 C   0  0  2  0  0  0  0  0  0  0  0  0
   -1.3931   -1.5680    1.0422 C   0  0  0  0  0  0  0  0  0  0  0  0
   -2.4385   -1.0059    0.7226 O   0  0  0  0  0  0  0  0  0  0  0  0
   -0.7590   -3.8164    0.1309 C   0  0  0  0  0  0  0  0  0  0  0  0
   -3.4188   -2.9207    1.4735 H   0  0  0  0  0  0  0  0  0  0  0  0
   -0.6690   -3.2277    2.2062 H   0  0  0  0  0  0  0  0  0  0  0  0
   -1.3852   -3.6613   -0.7553 H   0  0  0  0  0  0  0  0  0  0  0  0
    0.2542   -3.4843   -0.1182 H   0  0  0  0  0  0  0  0  0  0  0  0
   -0.7257   -4.8930    0.3300 H   0  0  0  0  0  0  0  0  0  0  0  0
   -0.1563   -0.9420    1.1402 N   0  0  0  0  0  0  0  0  0  0  0  0
    0.0261    0.4671    0.9001 C   0  0  2  0  0  0  0  0  0  0  0  0
   -1.3391    1.1518    0.9125 C   0  0  0  0  0  0  0  0  0  0  0  0
   -1.4826    2.3623    0.7534 O   0  0  0  0  0  0  0  0  0  0  0  0
    0.8313    0.7418   -0.3723 C   0  0  0  0  0  0  0  0  0  0  0  0
    2.5540    0.1514   -0.2933 S   0  0  0  0  0  0  0  0  0  0  0  0
    0.6533   -1.4855    1.4300 H   0  0  0  0  0  0  0  0  0  0  0  0
    0.5923    0.8420    1.7618 H   0  0  0  0  0  0  0  0  0  0  0  0
    0.3601    0.2621   -1.2364 H   0  0  0  0  0  0  0  0  0  0  0  0
    0.8627    1.8190   -0.5688 H   0  0  0  0  0  0  0  0  0  0  0  0
    2.8925    0.5591   -1.5231 H   0  0  0  0  0  0  0  0  0  0  0  0
   -2.3731    0.2565    1.1466 N   0  0  0  0  0  0  0  0  0  0  0  0
   -3.7567    0.6650    1.2151 C   0  0  2  0  0  0  0  0  0  0  0  0
   -4.5825   -0.5410    1.6431 C   0  0  0  0  0  0  0  0  0  0  0  0
   -4.2033   -1.7008    1.4938 O   0  0  0  0  0  0  0  0  0  0  0  0
   -4.2400    1.2083   -0.1206 C   0  0  0  0  0  0  0  0  0  0  0  0
   -2.1666   -0.7342    1.2339 H   0  0  0  0  0  0  0  0  0  0  0  0
   -3.8192    1.4426    1.9841 H   0  0  0  0  0  0  0  0  0  0  0  0
   -4.1847    0.4433   -0.9036 H   0  0  0  0  0  0  0  0  0  0  0  0
   -5.2805    1.5439   -0.0593 H   0  0  0  0  0  0  0  0  0  0  0  0
   -3.6262    2.0569   -0.4412 H   0  0  0  0  0  0  0  0  0  0  0  0
   -5.8112   -0.1711    2.1719 N   0  0  0  0  0  0  0  0  0  0  0  0
   -6.7809   -1.1343    2.6386 C   0  0  0  0  0  0  0  0  0  0  0  0
   -6.0343    0.8144    2.2755 H   0  0  0  0  0  0  0  0  0  0  0  0
   -7.4748   -1.3821    1.8218 H   0  0  0  0  0  0  0  0  0  0  0  0
   -6.2621   -2.0465    2.9683 H   0  0  0  0  0  0  0  0  0  0  0  0
   -7.3445   -0.7080    3.4816 H   0  0  0  0  0  0  0  0  0  0  0  0
  1  3  1  0  0  0  0
  1  7  1  0  0  0  0
  1  2  2  0  0  0  0
 29 30  1  0  0  0  0
 30 38  1  0  0  0  0
 30 31  2  0  0  0  0
  8  9  1  0  0  0  0
  9 17  1  0  0  0  0
  9 10  2  0  0  0  0
 18 19  1  0  0  0  0
 19 28  1  0  0  0  0
 19 20  2  0  0  0  0
 29 32  1  0  0  0  0
  8 11  1  0  0  0  0
 38 39  1  0  0  0  0
 18 21  1  0  0  0  0
 21 22  1  0  0  0  0
 28 29  1  0  0  0  0
  7  8  1  0  0  0  0
 17 18  1  0  0  0  0
  3  4  1  0  0  0  0
  3  5  1  0  0  0  0
  3  6  1  0  0  0  0
 32 35  1  0  0  0  0
 32 36  1  0  0  0  0
 32 37  1  0  0  0  0
 11 14  1  0  0  0  0
 11 15  1  0  0  0  0
 11 16  1  0  0  0  0
 39 41  1  0  0  0  0
 39 42  1  0  0  0  0
 39 43  1  0  0  0  0
 21 25  1  0  0  0  0
 21 26  1  0  0  0  0
 29 34  1  0  0  0  0
  8 13  1  0  0  0  0
 18 24  1  0  0  0  0
 38 40  1  0  0  0  0
  7 12  1  0  0  0  0
 28 33  1  0  0  0  0
 17 23  1  0  0  0  0
 22 27  1  0  0  0  0
M  END
$$$$

  -OEChem-05262214473D

 43 42  0     1  0  0  0  0  0999 V2000
   -2.8661   -4.7415    2.2943 C   0  0  0  0  0  0  0  0  0  0  0  0
   -2.0233   -5.5727    2.6109 O   0  0  0  0  0  0  0  0  0  0  0  0
   -4.3078   -5.0134    2.5698 C   0  0  0  0  0  0  0  0  0  0  0  0
   -4.8057   -5.5295    1.7332 H   0  0  0  0  0  0  0  0  0  0  0  0
   -4.4526   -5.6688    3.4436 H   0  0  0  0  0  0  0  0  0  0  0  0
   -4.9255   -4.1233    2.7700 H   0  0  0  0  0  0  0  0  0  0  0  0
   -2.6241   -3.5219    1.6838 N   0  0  0  0  0  0  0  0  0  0  0  0
   -1.3070   -3.0608    1.3315 C   0  0  2  0  0  0  0  0  0  0  0  0
   -1.3931   -1.5680    1.0422 C   0  0  0  0  0  0  0  0  0  0  0  0
   -2.4385   -1.0059    0.7226 O   0  0  0  0  0  0  0  0  0  0  0  0
   -0.7590   -3.8164    0.1309 C   0  0  0  0  0  0  0  0  0  0  0  0
   -3.4188   -2.9207    1.4735 H   0  0  0  0  0  0  0  0  0  0  0  0
   -0.6690   -3.2277    2.2062 H   0  0  0  0  0  0  0  0  0  0  0  0
   -1.3852   -3.6613   -0.7553 H   0  0  0  0  0  0  0  0  0  0  0  0
    0.2542   -3.4843   -0.1182 H   0  0  0  0  0  0  0  0  0  0  0  0
   -0.7257   -4.8930    0.3300 H   0  0  0  0  0  0  0  0  0  0  0  0
   -0.1563   -0.9420    1.1402 N   0  0  0  0  0  0  0  0  0  0  0  0
    0.0261    0.4671    0.9001 C   0  0  2  0  0  0  0  0  0  0  0  0
   -1.3391    1.1518    0.9125 C   0  0  0  0  0  0  0  0  0  0  0  0
   -1.5191    2.2942    0.4956 O   0  0  0  0  0  0  0  0  0  0  0  0
    0.8313    0.7418   -0.3723 C   0  0  0  0  0  0  0  0  0  0  0  0
    2.5540    0.1514   -0.2933 S   0  0  0  0  0  0  0  0  0  0  0  0
    0.6533   -1.4855    1.4300 H   0  0  0  0  0  0  0  0  0  0  0  0
    0.5923    0.8420    1.7618 H   0  0  0  0  0  0  0  0  0  0  0  0
    0.3601    0.2621   -1.2364 H   0  0  0  0  0  0  0  0  0  0  0  0
    0.8627    1.8190   -0.5688 H   0  0  0  0  0  0  0  0  0  0  0  0
    2.8925    0.5591   -1.5231 H   0  0  0  0  0  0  0  0  0  0  0  0
   -2.3248    0.3470    1.4659 N   0  0  0  0  0  0  0  0  0  0  0  0
   -3.6974    0.7762    1.5984 C   0  0  2  0  0  0  0  0  0  0  0  0
   -4.4490   -0.2884    2.3867 C   0  0  0  0  0  0  0  0  0  0  0  0
   -4.0714   -1.4555    2.4666 O   0  0  0  0  0  0  0  0  0  0  0  0
   -4.3406    1.0011    0.2389 C   0  0  0  0  0  0  0  0  0  0  0  0
   -2.0940   -0.5989    1.7553 H   0  0  0  0  0  0  0  0  0  0  0  0
   -3.6827    1.7114    2.1687 H   0  0  0  0  0  0  0  0  0  0  0  0
   -4.3643    0.0750   -0.3470 H   0  0  0  0  0  0  0  0  0  0  0  0
   -5.3722    1.3538    0.3414 H   0  0  0  0  0  0  0  0  0  0  0  0
   -3.7815    1.7454   -0.3384 H   0  0  0  0  0  0  0  0  0  0  0  0
   -5.6139    0.2081    2.9548 N   0  0  0  0  0  0  0  0  0  0  0  0
   -6.5078   -0.6097    3.7411 C   0  0  0  0  0  0  0  0  0  0  0  0
   -5.8390    1.1933    2.8529 H   0  0  0  0  0  0  0  0  0  0  0  0
   -7.2876   -1.0318    3.0901 H   0  0  0  0  0  0  0  0  0  0  0  0
   -5.9400   -1.4267    4.2101 H   0  0  0  0  0  0  0  0  0  0  0  0
   -6.9767    0.0066    4.5223 H   0  0  0  0  0  0  0  0  0  0  0  0
  1  3  1  0  0  0  0
  1  7  1  0  0  0  0
  1  2  2  0  0  0  0
 29 30  1  0  0  0  0
 30 38  1  0  0  0  0
 30 31  2  0  0  0  0
  8  9  1  0  0  0  0
  9 17  1  0  0  0  0
  9 10  2  0  0  0  0
 18 19  1  0  0  0  0
 19 28  1  0  0  0  0
 19 20  2  0  0  0  0
 29 32  1  0  0  0  0
  8 11  1  0  0  0  0
 38 39  1  0  0  0  0
 18 21  1  0  0  0  0
 21 22  1  0  0  0  0
 28 29  1  0  0  0  0
  7  8  1  0  0  0  0
 17 18  1  0  0  0  0
  3  4  1  0  0  0  0
  3  5  1  0  0  0  0
  3  6  1  0  0  0  0
 32 35  1  0  0  0  0
 32 36  1  0  0  0  0
 32 37  1  0  0  0  0
 11 14  1  0  0  0  0
 11 15  1  0  0  0  0
 11 16  1  0  0  0  0
 39 41  1  0  0  0  0
 39 42  1  0  0  0  0
 39 43  1  0  0  0  0
 21 25  1  0  0  0  0
 21 26  1  0  0  0  0
 29 34  1  0  0  0  0
  8 13  1  0  0  0  0
 18 24  1  0  0  0  0
 38 40  1  0  0  0  0
  7 12  1  0  0  0  0
 28 33  1  0  0  0  0
 17 23  1  0  0  0  0
 22 27  1  0  0  0  0
M  END
$$$$

  -OEChem-05262214473D

 43 42  0     1  0  0  0  0  0999 V2000
   -2.8661   -4.7415    2.2943 C   0  0  0  0  0  0  0  0  0  0  0  0
   -2.0233   -5.5727    2.6109 O   0  0  0  0  0  0  0  0  0  0  0  0
   -4.3078   -5.0134    2.5698 C   0  0  0  0  0  0  0  0  0  0  0  0
   -4.8057   -5.5295    1.7332 H   0  0  0  0  0  0  0  0  0  0  0  0
   -4.4526   -5.6688    3.4436 H   0  0  0  0  0  0  0  0  0  0  0  0
   -4.9255   -4.1233    2.7700 H   0  0  0  0  0  0  0  0  0  0  0  0
   -2.6241   -3.5219    1.6838 N   0  0  0  0  0  0  0  0  0  0  0  0
   -1.3070   -3.0608    1.3315 C   0  0  2  0  0  0  0  0  0  0  0  0
   -1.3931   -1.5680    1.0422 C   0  0  0  0  0  0  0  0  0  0  0  0
   -2.4385   -1.0059    0.7226 O   0  0  0  0  0  0  0  0  0  0  0  0
   -0.7590   -3.8164    0.1309 C   0  0  0  0  0  0  0  0  0  0  0  0
   -3.4188   -2.9207    1.4735 H   0  0  0  0  0  0  0  0  0  0  0  0
   -0.6690   -3.2277    2.2062 H   0  0  0  0  0  0  0  0  0  0  0  0
   -1.3852   -3.6613   -0.7553 H   0  0  0  0  0  0  0  0  0  0  0  0
    0.2542   -3.4843   -0.1182 H   0  0  0  0  0  0  0  0  0  0  0  0
   -0.7257   -4.8930    0.3300 H   0  0  0  0  0  0  0  0  0  0  0  0
   -0.1563   -0.9420    1.1402 N   0  0  0  0  0  0  0  0  0  0  0  0
    0.0261    0.4671    0.9001 C   0  0  2  0  0  0  0  0  0  0  0  0
   -1.3391    1.1518    0.9125 C   0  0  0  0  0  0  0  0  0  0  0  0
   -1.5841    2.1687    0.2666 O   0  0  0  0  0  0  0  0  0  0  0  0
    0.8313    0.7418   -0.3723 C   0  0  0  0  0  0  0  0  0  0  0  0
    2.5540    0.1514   -0.2933 S   0  0  0  0  0  0  0  0  0  0  0  0
    0.6533   -1.4855    1.4300 H   0  0  0  0  0  0  0  0  0  0  0  0
    0.5923    0.8420    1.7618 H   0  0  0  0  0  0  0  0  0  0  0  0
    0.3601    0.2621   -1.2364 H   0  0  0  0  0  0  0  0  0  0  0  0
    0.8627    1.8190   -0.5688 H   0  0  0  0  0  0  0  0  0  0  0  0
    2.8925    0.5591   -1.5231 H   0  0  0  0  0  0  0  0  0  0  0  0
   -2.2413    0.5084    1.7477 N   0  0  0  0  0  0  0  0  0  0  0  0
   -3.5960    0.9724    1.9361 C   0  0  2  0  0  0  0  0  0  0  0  0
   -4.2344    0.1280    3.0311 C   0  0  0  0  0  0  0  0  0  0  0  0
   -3.8317   -0.9932    3.3342 O   0  0  0  0  0  0  0  0  0  0  0  0
   -4.3957    0.8839    0.6456 C   0  0  0  0  0  0  0  0  0  0  0  0
   -1.9637   -0.3474    2.2191 H   0  0  0  0  0  0  0  0  0  0  0  0
   -3.5301    2.0140    2.2690 H   0  0  0  0  0  0  0  0  0  0  0  0
   -4.4725   -0.1523    0.2966 H   0  0  0  0  0  0  0  0  0  0  0  0
   -5.4138    1.2627    0.7830 H   0  0  0  0  0  0  0  0  0  0  0  0
   -3.9190    1.4678   -0.1491 H   0  0  0  0  0  0  0  0  0  0  0  0
   -5.3333    0.7558    3.6005 N   0  0  0  0  0  0  0  0  0  0  0  0
   -6.1172    0.1527    4.6529 C   0  0  0  0  0  0  0  0  0  0  0  0
   -5.5842    1.6933    3.3004 H   0  0  0  0  0  0  0  0  0  0  0  0
   -6.9603   -0.3996    4.2124 H   0  0  0  0  0  0  0  0  0  0  0  0
   -5.4861   -0.5401    5.2289 H   0  0  0  0  0  0  0  0  0  0  0  0
   -6.5021    0.9385    5.3196 H   0  0  0  0  0  0  0  0  0  0  0  0
  1  3  1  0  0  0  0
  1  7  1  0  0  0  0
  1  2  2  0  0  0  0
 29 30  1  0  0  0  0
 30 38  1  0  0  0  0
 30 31  2  0  0  0  0
  8  9  1  0  0  0  0
  9 17  1  0  0  0  0
  9 10  2  0  0  0  0
 18 19  1  0  0  0  0
 19 28  1  0  0  0  0
 19 20  2  0  0  0  0
 29 32  1  0  0  0  0
  8 11  1  0  0  0  0
 38 39  1  0  0  0  0
 18 21  1  0  0  0  0
 21 22  1  0  0  0  0
 28 29  1  0  0  0  0
  7  8  1  0  0  0  0
 17 18  1  0  0  0  0
  3  4  1  0  0  0  0
  3  5  1  0  0  0  0
  3  6  1  0  0  0  0
 32 35  1  0  0  0  0
 32 36  1  0  0  0  0
 32 37  1  0  0  0  0
 11 14  1  0  0  0  0
 11 15  1  0  0  0  0
 11 16  1  0  0  0  0
 39 41  1  0  0  0  0
 39 42  1  0  0  0  0
 39 43  1  0  0  0  0
 21 25  1  0  0  0  0
 21 26  1  0  0  0  0
 29 34  1  0  0  0  0
  8 13  1  0  0  0  0
 18 24  1  0  0  0  0
 38 40  1  0  0  0  0
  7 12  1  0  0  0  0
 28 33  1  0  0  0  0
 17 23  1  0  0  0  0
 22 27  1  0  0  0  0
M  END
$$$$

  -OEChem-05262214473D

 43 42  0     1  0  0  0  0  0999 V2000
   -2.8661   -4.7415    2.2943 C   0  0  0  0  0  0  0  0  0  0  0  0
   -2.0233   -5.5727    2.6109 O   0  0  0  0  0  0  0  0  0  0  0  0
   -4.3078   -5.0134    2.5698 C   0  0  0  0  0  0  0  0  0  0  0  0
   -4.8057   -5.5295    1.7332 H   0  0  0  0  0  0  0  0  0  0  0  0
   -4.4526   -5.6688    3.4436 H   0  0  0  0  0  0  0  0  0  0  0  0
   -4.9255   -4.1233    2.7700 H   0  0  0  0  0  0  0  0  0  0  0  0
   -2.6241   -3.5219    1.6838 N   0  0  0  0  0  0  0  0  0  0  0  0
   -1.3070   -3.0608    1.3315 C   0  0  2  0  0  0  0  0  0  0  0  0
   -1.3931   -1.5680    1.0422 C   0  0  0  0  0  0  0  0  0  0  0  0
   -2.4385   -1.0059    0.7226 O   0  0  0  0  0  0  0  0  0  0  0  0
   -0.7590   -3.8164    0.1309 C   0  0  0  0  0  0  0  0  0  0  0  0
   -3.4188   -2.9207    1.4735 H   0  0  0  0  0  0  0  0  0  0  0  0
   -0.6690   -3.2277    2.2062 H   0  0  0  0  0  0  0  0  0  0  0  0
   -1.3852   -3.6613   -0.7553 H   0  0  0  0  0  0  0  0  0  0  0  0
    0.2542   -3.4843   -0.1182 H   0  0  0  0  0  0  0  0  0  0  0  0
   -0.7257   -4.8930    0.3300 H   0  0  0  0  0  0  0  0  0  0  0  0
   -0.1563   -0.9420    1.1402 N   0  0  0  0  0  0  0  0  0  0  0  0
    0.0261    0.4671    0.9001 C   0  0  2  0  0  0  0  0  0  0  0  0
   -1.3391    1.1518    0.9125 C   0  0  0  0  0  0  0  0  0  0  0  0
   -1.6733    1.9943    0.0819 O   0  0  0  0  0  0  0  0  0  0  0  0
    0.8313    0.7418   -0.3723 C   0  0  0  0  0  0  0  0  0  0  0  0
    2.5540    0.1514   -0.2933 S   0  0  0  0  0  0  0  0  0  0  0  0
    0.6533   -1.4855    1.4300 H   0  0  0  0  0  0  0  0  0  0  0  0
    0.5923    0.8420    1.7618 H   0  0  0  0  0  0  0  0  0  0  0  0
    0.3601    0.2621   -1.2364 H   0  0  0  0  0  0  0  0  0  0  0  0
    0.8627    1.8190   -0.5688 H   0  0  0  0  0  0  0  0  0  0  0  0
    2.8925    0.5591   -1.5231 H   0  0  0  0  0  0  0  0  0  0  0  0
   -2.1283    0.7296    1.9729 N   0  0  0  0  0  0  0  0  0  0  0  0
   -3.4592    1.2403    2.2051 C   0  0  2  0  0  0  0  0  0  0  0  0
   -3.9531    0.6797    3.5322 C   0  0  0  0  0  0  0  0  0  0  0  0
   -3.5005   -0.3455    4.0375 O   0  0  0  0  0  0  0  0  0  0  0  0
   -4.4014    0.8647    1.0720 C   0  0  0  0  0  0  0  0  0  0  0  0
   -1.7845    0.0031    2.5939 H   0  0  0  0  0  0  0  0  0  0  0  0
   -3.3716    2.3298    2.2782 H   0  0  0  0  0  0  0  0  0  0  0  0
   -4.5018   -0.2232    0.9834 H   0  0  0  0  0  0  0  0  0  0  0  0
   -5.4027    1.2768    1.2356 H   0  0  0  0  0  0  0  0  0  0  0  0
   -4.0292    1.2433    0.1139 H   0  0  0  0  0  0  0  0  0  0  0  0
   -4.9885    1.4349    4.0648 N   0  0  0  0  0  0  0  0  0  0  0  0
   -5.6357    1.1009    5.3120 C   0  0  0  0  0  0  0  0  0  0  0  0
   -5.2872    2.2803    3.5874 H   0  0  0  0  0  0  0  0  0  0  0  0
   -6.5153    0.4714    5.1122 H   0  0  0  0  0  0  0  0  0  0  0  0
   -4.9313    0.5530    5.9552 H   0  0  0  0  0  0  0  0  0  0  0  0
   -5.9532    2.0240    5.8190 H   0  0  0  0  0  0  0  0  0  0  0  0
  1  3  1  0  0  0  0
  1  7  1  0  0  0  0
  1  2  2  0  0  0  0
 29 30  1  0  0  0  0
 30 38  1  0  0  0  0
 30 31  2  0  0  0  0
  8  9  1  0  0  0  0
  9 17  1  0  0  0  0
  9 10  2  0  0  0  0
 18 19  1  0  0  0  0
 19 28  1  0  0  0  0
 19 20  2  0  0  0  0
 29 32  1  0  0  0  0
  8 11  1  0  0  0  0
 38 39  1  0  0  0  0
 18 21  1  0  0  0  0
 21 22  1  0  0  0  0
 28 29  1  0  0  0  0
  7  8  1  0  0  0  0
 17 18  1  0  0  0  0
  3  4  1  0  0  0  0
  3  5  1  0  0  0  0
  3  6  1  0  0  0  0
 32 35  1  0  0  0  0
 32 36  1  0  0  0  0
 32 37  1  0  0  0  0
 11 14  1  0  0  0  0
 11 15  1  0  0  0  0
 11 16  1  0  0  0  0
 39 41  1  0  0  0  0
 39 42  1  0  0  0  0
 39 43  1  0  0  0  0
 21 25  1  0  0  0  0
 21 26  1  0  0  0  0
 29 34  1  0  0  0  0
  8 13  1  0  0  0  0
 18 24  1  0  0  0  0
 38 40  1  0  0  0  0
  7 12  1  0  0  0  0
 28 33  1  0  0  0  0
 17 23  1  0  0  0  0
 22 27  1  0  0  0  0
M  END
$$$$

  -OEChem-05262214473D

 43 42  0     1  0  0  0  0  0999 V2000
   -2.8661   -4.7415    2.2943 C   0  0  0  0  0  0  0  0  0  0  0  0
   -2.0233   -5.5727    2.6109 O   0  0  0  0  0  0  0  0  0  0  0  0
   -4.3078   -5.0134    2.5698 C   0  0  0  0  0  0  0  0  0  0  0  0
   -4.8057   -5.5295    1.7332 H   0  0  0  0  0  0  0  0  0  0  0  0
   -4.4526   -5.6688    3.4436 H   0  0  0  0  0  0  0  0  0  0  0  0
   -4.9255   -4.1233    2.7700 H   0  0  0  0  0  0  0  0  0  0  0  0
   -2.6241   -3.5219    1.6838 N   0  0  0  0  0  0  0  0  0  0  0  0
   -1.3070   -3.0608    1.3315 C   0  0  2  0  0  0  0  0  0  0  0  0
   -1.3931   -1.5680    1.0422 C   0  0  0  0  0  0  0  0  0  0  0  0
   -2.4385   -1.0059    0.7226 O   0  0  0  0  0  0  0  0  0  0  0  0
   -0.7590   -3.8164    0.1309 C   0  0  0  0  0  0  0  0  0  0  0  0
   -3.4188   -2.9207    1.4735 H   0  0  0  0  0  0  0  0  0  0  0  0
   -0.6690   -3.2277    2.2062 H   0  0  0  0  0  0  0  0  0  0  0  0
   -1.3852   -3.6613   -0.7553 H   0  0  0  0  0  0  0  0  0  0  0  0
    0.2542   -3.4843   -0.1182 H   0  0  0  0  0  0  0  0  0  0  0  0
   -0.7257   -4.8930    0.3300 H   0  0  0  0  0  0  0  0  0  0  0  0
   -0.1563   -0.9420    1.1402 N   0  0  0  0  0  0  0  0  0  0  0  0
    0.0261    0.4671    0.9001 C   0  0  2  0  0  0  0  0  0  0  0  0
   -1.3391    1.1518    0.9125 C   0  0  0  0  0  0  0  0  0  0  0  0
   -1.7804    1.7829   -0.0457 O   0  0  0  0  0  0  0  0  0  0  0  0
    0.8313    0.7418   -0.3723 C   0  0  0  0  0  0  0  0  0  0  0  0
    2.5540    0.1514   -0.2933 S   0  0  0  0  0  0  0  0  0  0  0  0
    0.6533   -1.4855    1.4300 H   0  0  0  0  0  0  0  0  0  0  0  0
    0.5923    0.8420    1.7618 H   0  0  0  0  0  0  0  0  0  0  0  0
    0.3601    0.2621   -1.2364 H   0  0  0  0  0  0  0  0  0  0  0  0
    0.8627    1.8190   -0.5688 H   0  0  0  0  0  0  0  0  0  0  0  0
    2.8925    0.5591   -1.5231 H   0  0  0  0  0  0  0  0  0  0  0  0
   -1.9935    0.9957    2.1262 N   0  0  0  0  0  0  0  0  0  0  0  0
   -3.2964    1.5615    2.3871 C   0  0  2  0  0  0  0  0  0  0  0  0
   -3.6245    1.3291    3.8561 C   0  0  0  0  0  0  0  0  0  0  0  0
   -3.1003    0.4436    4.5285 O   0  0  0  0  0  0  0  0  0  0  0  0
   -4.3575    0.9448    1.4890 C   0  0  0  0  0  0  0  0  0  0  0  0
   -1.5687    0.4287    2.8540 H   0  0  0  0  0  0  0  0  0  0  0  0
   -3.2182    2.6373    2.1956 H   0  0  0  0  0  0  0  0  0  0  0  0
   -4.4502   -0.1328    1.6666 H   0  0  0  0  0  0  0  0  0  0  0  0
   -5.3394    1.3950    1.6681 H   0  0  0  0  0  0  0  0  0  0  0  0
   -4.1046    1.0870    0.4328 H   0  0  0  0  0  0  0  0  0  0  0  0
   -4.6031    2.1990    4.3162 N   0  0  0  0  0  0  0  0  0  0  0  0
   -5.0961    2.1703    5.6735 C   0  0  0  0  0  0  0  0  0  0  0  0
   -4.9683    2.9143    3.6944 H   0  0  0  0  0  0  0  0  0  0  0  0
   -5.9830    1.5218    5.7283 H   0  0  0  0  0  0  0  0  0  0  0  0
   -4.3135    1.7780    6.3395 H   0  0  0  0  0  0  0  0  0  0  0  0
   -5.3673    3.1893    5.9866 H   0  0  0  0  0  0  0  0  0  0  0  0
  1  3  1  0  0  0  0
  1  7  1  0  0  0  0
  1  2  2  0  0  0  0
 29 30  1  0  0  0  0
 30 38  1  0  0  0  0
 30 31  2  0  0  0  0
  8  9  1  0  0  0  0
  9 17  1  0  0  0  0
  9 10  2  0  0  0  0
 18 19  1  0  0  0  0
 19 28  1  0  0  0  0
 19 20  2  0  0  0  0
 29 32  1  0  0  0  0
  8 11  1  0  0  0  0
 38 39  1  0  0  0  0
 18 21  1  0  0  0  0
 21 22  1  0  0  0  0
 28 29  1  0  0  0  0
  7  8  1  0  0  0  0
 17 18  1  0  0  0  0
  3  4  1  0  0  0  0
  3  5  1  0  0  0  0
  3  6  1  0  0  0  0
 32 35  1  0  0  0  0
 32 36  1  0  0  0  0
 32 37  1  0  0  0  0
 11 14  1  0  0  0  0
 11 15  1  0  0  0  0
 11 16  1  0  0  0  0
 39 41  1  0  0  0  0
 39 42  1  0  0  0  0
 39 43  1  0  0  0  0
 21 25  1  0  0  0  0
 21 26  1  0  0  0  0
 29 34  1  0  0  0  0
  8 13  1  0  0  0  0
 18 24  1  0  0  0  0
 38 40  1  0  0  0  0
  7 12  1  0  0  0  0
 28 33  1  0  0  0  0
 17 23  1  0  0  0  0
 22 27  1  0  0  0  0
M  END
$$$$

  -OEChem-05262214473D

 43 42  0     1  0  0  0  0  0999 V2000
   -2.8661   -4.7415    2.2943 C   0  0  0  0  0  0  0  0  0  0  0  0
   -2.0233   -5.5727    2.6109 O   0  0  0  0  0  0  0  0  0  0  0  0
   -4.3078   -5.0134    2.5698 C   0  0  0  0  0  0  0  0  0  0  0  0
   -4.8057   -5.5295    1.7332 H   0  0  0  0  0  0  0  0  0  0  0  0
   -4.4526   -5.6688    3.4436 H   0  0  0  0  0  0  0  0  0  0  0  0
   -4.9255   -4.1233    2.7700 H   0  0  0  0  0  0  0  0  0  0  0  0
   -2.6241   -3.5219    1.6838 N   0  0  0  0  0  0  0  0  0  0  0  0
   -1.3070   -3.0608    1.3315 C   0  0  2  0  0  0  0  0  0  0  0  0
   -1.3931   -1.5680    1.0422 C   0  0  0  0  0  0  0  0  0  0  0  0
   -2.4385   -1.0059    0.7226 O   0  0  0  0  0  0  0  0  0  0  0  0
   -0.7590   -3.8164    0.1309 C   0  0  0  0  0  0  0  0  0  0  0  0
   -3.4188   -2.9207    1.4735 H   0  0  0  0  0  0  0  0  0  0  0  0
   -0.6690   -3.2277    2.2062 H   0  0  0  0  0  0  0  0  0  0  0  0
   -1.3852   -3.6613   -0.7553 H   0  0  0  0  0  0  0  0  0  0  0  0
    0.2542   -3.4843   -0.1182 H   0  0  0  0  0  0  0  0  0  0  0  0
   -0.7257   -4.8930    0.3300 H   0  0  0  0  0  0  0  0  0  0  0  0
   -0.1563   -0.9420    1.1402 N   0  0  0  0  0  0  0  0  0  0  0  0
    0.0261    0.4671    0.9001 C   0  0  2  0  0  0  0  0  0  0  0  0
   -1.3391    1.1518    0.9125 C   0  0  0  0  0  0  0  0  0  0  0  0
   -1.8983    1.5490   -0.1077 O   0  0  0  0  0  0  0  0  0  0  0  0
    0.8313    0.7418   -0.3723 C   0  0  0  0  0  0  0  0  0  0  0  0
    2.5540    0.1514   -0.2933 S   0  0  0  0  0  0  0  0  0  0  0  0
    0.6533   -1.4855    1.4300 H   0  0  0  0  0  0  0  0  0  0  0  0
    0.5923    0.8420    1.7618 H   0  0  0  0  0  0  0  0  0  0  0  0
    0.3601    0.2621   -1.2364 H   0  0  0  0  0  0  0  0  0  0  0  0
    0.8627    1.8190   -0.5688 H   0  0  0  0  0  0  0  0  0  0  0  0
    2.8925    0.5591   -1.5231 H   0  0  0  0  0  0  0  0  0  0  0  0
   -1.8461    1.2884    2.1970 N   0  0  0  0  0  0  0  0  0  0  0  0
   -3.1188    1.9143    2.4697 C   0  0  2  0  0  0  0  0  0  0  0  0
   -3.2709    2.0320    3.9805 C   0  0  0  0  0  0  0  0  0  0  0  0
   -2.6584    1.3202    4.7738 O   0  0  0  0  0  0  0  0  0  0  0  0
   -4.2668    1.1188    1.8682 C   0  0  0  0  0  0  0  0  0  0  0  0
   -1.3310    0.9004    2.9817 H   0  0  0  0  0  0  0  0  0  0  0  0
   -3.0802    2.9155    2.0268 H   0  0  0  0  0  0  0  0  0  0  0  0
   -4.3214    0.1126    2.2997 H   0  0  0  0  0  0  0  0  0  0  0  0
   -5.2284    1.6095    2.0512 H   0  0  0  0  0  0  0  0  0  0  0  0
   -4.1402    1.0096    0.7856 H   0  0  0  0  0  0  0  0  0  0  0  0
   -4.2032    2.9961    4.3376 N   0  0  0  0  0  0  0  0  0  0  0  0
   -4.5353    3.2879    5.7126 C   0  0  0  0  0  0  0  0  0  0  0  0
   -4.6492    3.5521    3.6140 H   0  0  0  0  0  0  0  0  0  0  0  0
   -5.3995    2.6801    6.0186 H   0  0  0  0  0  0  0  0  0  0  0  0
   -3.6747    3.0515    6.3556 H   0  0  0  0  0  0  0  0  0  0  0  0
   -4.7844    4.3548    5.8110 H   0  0  0  0  0  0  0  0  0  0  0  0
  1  3  1  0  0  0  0
  1  7  1  0  0  0  0
  1  2  2  0  0  0  0
 29 30  1  0  0  0  0
 30 38  1  0  0  0  0
 30 31  2  0  0  0  0
  8  9  1  0  0  0  0
  9 17  1  0  0  0  0
  9 10  2  0  0  0  0
 18 19  1  0  0  0  0
 19 28  1  0  0  0  0
 19 20  2  0  0  0  0
 29 32  1  0  0  0  0
  8 11  1  0  0  0  0
 38 39  1  0  0  0  0
 18 21  1  0  0  0  0
 21 22  1  0  0  0  0
 28 29  1  0  0  0  0
  7  8  1  0  0  0  0
 17 18  1  0  0  0  0
  3  4  1  0  0  0  0
  3  5  1  0  0  0  0
  3  6  1  0  0  0  0
 32 35  1  0  0  0  0
 32 36  1  0  0  0  0
 32 37  1  0  0  0  0
 11 14  1  0  0  0  0
 11 15  1  0  0  0  0
 11 16  1  0  0  0  0
 39 41  1  0  0  0  0
 39 42  1  0  0  0  0
 39 43  1  0  0  0  0
 21 25  1  0  0  0  0
 21 26  1  0  0  0  0
 29 34  1  0  0  0  0
  8 13  1  0  0  0  0
 18 24  1  0  0  0  0
 38 40  1  0  0  0  0
  7 12  1  0  0  0  0
 28 33  1  0  0  0  0
 17 23  1  0  0  0  0
 22 27  1  0  0  0  0
M  END
$$$$

  -OEChem-05262214473D

 43 42  0     1  0  0  0  0  0999 V2000
   -2.8661   -4.7415    2.2943 C   0  0  0  0  0  0  0  0  0  0  0  0
   -2.0233   -5.5727    2.6109 O   0  0  0  0  0  0  0  0  0  0  0  0
   -4.3078   -5.0134    2.5698 C   0  0  0  0  0  0  0  0  0  0  0  0
   -4.8057   -5.5295    1.7332 H   0  0  0  0  0  0  0  0  0  0  0  0
   -4.4526   -5.6688    3.4436 H   0  0  0  0  0  0  0  0  0  0  0  0
   -4.9255   -4.1233    2.7700 H   0  0  0  0  0  0  0  0  0  0  0  0
   -2.6241   -3.5219    1.6838 N   0  0  0  0  0  0  0  0  0  0  0  0
   -1.3070   -3.0608    1.3315 C   0  0  2  0  0  0  0  0  0  0  0  0
   -1.3931   -1.5680    1.0422 C   0  0  0  0  0  0  0  0  0  0  0  0
   -2.4385   -1.0059    0.7226 O   0  0  0  0  0  0  0  0  0  0  0  0
   -0.7590   -3.8164    0.1309 C   0  0  0  0  0  0  0  0  0  0  0  0
   -3.4188   -2.9207    1.4735 H   0  0  0  0  0  0  0  0  0  0  0  0
   -0.6690   -3.2277    2.2062 H   0  0  0  0  0  0  0  0  0  0  0  0
   -1.3852   -3.6613   -0.7553 H   0  0  0  0  0  0  0  0  0  0  0  0
    0.2542   -3.4843   -0.1182 H   0  0  0  0  0  0  0  0  0  0  0  0
   -0.7257   -4.8930    0.3300 H   0  0  0  0  0  0  0  0  0  0  0  0
   -0.1563   -0.9420    1.1402 N   0  0  0  0  0  0  0  0  0  0  0  0
    0.0261    0.4671    0.9001 C   0  0  2  0  0  0  0  0  0  0  0  0
   -1.3391    1.1518    0.9125 C   0  0  0  0  0  0  0  0  0  0  0  0
   -2.0188    1.3085   -0.0998 O   0  0  0  0  0  0  0  0  0  0  0  0
    0.8313    0.7418   -0.3723 C   0  0  0  0  0  0  0  0  0  0  0  0
    2.5540    0.1514   -0.2933 S   0  0  0  0  0  0  0  0  0  0  0  0
    0.6533   -1.4855    1.4300 H   0  0  0  0  0  0  0  0  0  0  0  0
    0.5923    0.8420    1.7618 H   0  0  0  0  0  0  0  0  0  0  0  0
    0.3601    0.2621   -1.2364 H   0  0  0  0  0  0  0  0  0  0  0  0
    0.8627    1.8190   -0.5688 H   0  0  0  0  0  0  0  0  0  0  0  0
    2.8925    0.5591   -1.5231 H   0  0  0  0  0  0  0  0  0  0  0  0
   -1.6960    1.5879    2.1806 N   0  0  0  0  0  0  0  0  0  0  0  0
   -2.9383    2.2745    2.4472 C   0  0  2  0  0  0  0  0  0  0  0  0
   -2.9163    2.7405    3.8970 C   0  0  0  0  0  0  0  0  0  0  0  0
   -2.2050    2.2246    4.7567 O   0  0  0  0  0  0  0  0  0  0  0  0
   -4.1356    1.3747    2.1836 C   0  0  0  0  0  0  0  0  0  0  0  0
   -1.0875    1.3861    2.9684 H   0  0  0  0  0  0  0  0  0  0  0  0
   -2.9670    3.1455    1.7835 H   0  0  0  0  0  0  0  0  0  0  0  0
   -4.1240    0.4965    2.8394 H   0  0  0  0  0  0  0  0  0  0  0  0
   -5.0771    1.9055    2.3588 H   0  0  0  0  0  0  0  0  0  0  0  0
   -4.1335    1.0165    1.1485 H   0  0  0  0  0  0  0  0  0  0  0  0
   -3.8161    3.7718    4.1275 N   0  0  0  0  0  0  0  0  0  0  0  0
   -3.9913    4.3778    5.4267 C   0  0  0  0  0  0  0  0  0  0  0  0
   -4.3516    4.1503    3.3518 H   0  0  0  0  0  0  0  0  0  0  0  0
   -4.8046    3.8672    5.9633 H   0  0  0  0  0  0  0  0  0  0  0  0
   -3.0585    4.2867    6.0025 H   0  0  0  0  0  0  0  0  0  0  0  0
   -4.2441    5.4413    5.3040 H   0  0  0  0  0  0  0  0  0  0  0  0
  1  3  1  0  0  0  0
  1  7  1  0  0  0  0
  1  2  2  0  0  0  0
 29 30  1  0  0  0  0
 30 38  1  0  0  0  0
 30 31  2  0  0  0  0
  8  9  1  0  0  0  0
  9 17  1  0  0  0  0
  9 10  2  0  0  0  0
 18 19  1  0  0  0  0
 19 28  1  0  0  0  0
 19 20  2  0  0  0  0
 29 32  1  0  0  0  0
  8 11  1  0  0  0  0
 38 39  1  0  0  0  0
 18 21  1  0  0  0  0
 21 22  1  0  0  0  0
 28 29  1  0  0  0  0
  7  8  1  0  0  0  0
 17 18  1  0  0  0  0
  3  4  1  0  0  0  0
  3  5  1  0  0  0  0
  3  6  1  0  0  0  0
 32 35  1  0  0  0  0
 32 36  1  0  0  0  0
 32 37  1  0  0  0  0
 11 14  1  0  0  0  0
 11 15  1  0  0  0  0
 11 16  1  0  0  0  0
 39 41  1  0  0  0  0
 39 42  1  0  0  0  0
 39 43  1  0  0  0  0
 21 25  1  0  0  0  0
 21 26  1  0  0  0  0
 29 34  1  0  0  0  0
  8 13  1  0  0  0  0
 18 24  1  0  0  0  0
 38 40  1  0  0  0  0
  7 12  1  0  0  0  0
 28 33  1  0  0  0  0
 17 23  1  0  0  0  0
 22 27  1  0  0  0  0
M  END
$$$$

  -OEChem-05262214473D

 43 42  0     1  0  0  0  0  0999 V2000
   -2.8661   -4.7415    2.2943 C   0  0  0  0  0  0  0  0  0  0  0  0
   -2.0233   -5.5727    2.6109 O   0  0  0  0  0  0  0  0  0  0  0  0
   -4.3078   -5.0134    2.5698 C   0  0  0  0  0  0  0  0  0  0  0  0
   -4.8057   -5.5295    1.7332 H   0  0  0  0  0  0  0  0  0  0  0  0
   -4.4526   -5.6688    3.4436 H   0  0  0  0  0  0  0  0  0  0  0  0
   -4.9255   -4.1233    2.7700 H   0  0  0  0  0  0  0  0  0  0  0  0
   -2.6241   -3.5219    1.6838 N   0  0  0  0  0  0  0  0  0  0  0  0
   -1.3070   -3.0608    1.3315 C   0  0  2  0  0  0  0  0  0  0  0  0
   -1.3931   -1.5680    1.0422 C   0  0  0  0  0  0  0  0  0  0  0  0
   -2.4385   -1.0059    0.7226 O   0  0  0  0  0  0  0  0  0  0  0  0
   -0.7590   -3.8164    0.1309 C   0  0  0  0  0  0  0  0  0  0  0  0
   -3.4188   -2.9207    1.4735 H   0  0  0  0  0  0  0  0  0  0  0  0
   -0.6690   -3.2277    2.2062 H   0  0  0  0  0  0  0  0  0  0  0  0
   -1.3852   -3.6613   -0.7553 H   0  0  0  0  0  0  0  0  0  0  0  0
    0.2542   -3.4843   -0.1182 H   0  0  0  0  0  0  0  0  0  0  0  0
   -0.7257   -4.8930    0.3300 H   0  0  0  0  0  0  0  0  0  0  0  0
   -0.1563   -0.9420    1.1402 N   0  0  0  0  0  0  0  0  0  0  0  0
    0.0261    0.4671    0.9001 C   0  0  2  0  0  0  0  0  0  0  0  0
   -1.3391    1.1518    0.9125 C   0  0  0  0  0  0  0  0  0  0  0  0
   -2.1338    1.0778   -0.0225 O   0  0  0  0  0  0  0  0  0  0  0  0
    0.8313    0.7418   -0.3723 C   0  0  0  0  0  0  0  0  0  0  0  0
    2.5540    0.1514   -0.2933 S   0  0  0  0  0  0  0  0  0  0  0  0
    0.6533   -1.4855    1.4300 H   0  0  0  0  0  0  0  0  0  0  0  0
    0.5923    0.8420    1.7618 H   0  0  0  0  0  0  0  0  0  0  0  0
    0.3601    0.2621   -1.2364 H   0  0  0  0  0  0  0  0  0  0  0  0
    0.8627    1.8190   -0.5688 H   0  0  0  0  0  0  0  0  0  0  0  0
    2.8925    0.5591   -1.5231 H   0  0  0  0  0  0  0  0  0  0  0  0
   -1.5537    1.8737    2.0781 N   0  0  0  0  0  0  0  0  0  0  0  0
   -2.7674    2.6177    2.3213 C   0  0  2  0  0  0  0  0  0  0  0  0
   -2.5850    3.4063    3.6114 C   0  0  0  0  0  0  0  0  0  0  0  0
   -1.7710    3.0952    4.4783 O   0  0  0  0  0  0  0  0  0  0  0  0
   -3.9728    1.6951    2.4139 C   0  0  0  0  0  0  0  0  0  0  0  0
   -0.8549    1.8527    2.8149 H   0  0  0  0  0  0  0  0  0  0  0  0
   -2.8865    3.3116    1.4821 H   0  0  0  0  0  0  0  0  0  0  0  0
   -3.8715    0.9925    3.2491 H   0  0  0  0  0  0  0  0  0  0  0  0
   -4.8960    2.2629    2.5698 H   0  0  0  0  0  0  0  0  0  0  0  0
   -4.0849    1.1071    1.4966 H   0  0  0  0  0  0  0  0  0  0  0  0
   -3.4682    4.4732    3.7001 N   0  0  0  0  0  0  0  0  0  0  0  0
   -3.5014    5.3655    4.8353 C   0  0  0  0  0  0  0  0  0  0  0  0
   -4.0958    4.6681    2.9256 H   0  0  0  0  0  0  0  0  0  0  0  0
   -4.2389    5.0024    5.5663 H   0  0  0  0  0  0  0  0  0  0  0  0
   -2.5069    5.3994    5.3041 H   0  0  0  0  0  0  0  0  0  0  0  0
   -3.7834    6.3745    4.5003 H   0  0  0  0  0  0  0  0  0  0  0  0
  1  3  1  0  0  0  0
  1  7  1  0  0  0  0
  1  2  2  0  0  0  0
 29 30  1  0  0  0  0
 30 38  1  0  0  0  0
 30 31  2  0  0  0  0
  8  9  1  0  0  0  0
  9 17  1  0  0  0  0
  9 10  2  0  0  0  0
 18 19  1  0  0  0  0
 19 28  1  0  0  0  0
 19 20  2  0  0  0  0
 29 32  1  0  0  0  0
  8 11  1  0  0  0  0
 38 39  1  0  0  0  0
 18 21  1  0  0  0  0
 21 22  1  0  0  0  0
 28 29  1  0  0  0  0
  7  8  1  0  0  0  0
 17 18  1  0  0  0  0
  3  4  1  0  0  0  0
  3  5  1  0  0  0  0
  3  6  1  0  0  0  0
 32 35  1  0  0  0  0
 32 36  1  0  0  0  0
 32 37  1  0  0  0  0
 11 14  1  0  0  0  0
 11 15  1  0  0  0  0
 11 16  1  0  0  0  0
 39 41  1  0  0  0  0
 39 42  1  0  0  0  0
 39 43  1  0  0  0  0
 21 25  1  0  0  0  0
 21 26  1  0  0  0  0
 29 34  1  0  0  0  0
  8 13  1  0  0  0  0
 18 24  1  0  0  0  0
 38 40  1  0  0  0  0
  7 12  1  0  0  0  0
 28 33  1  0  0  0  0
 17 23  1  0  0  0  0
 22 27  1  0  0  0  0
M  END
$$$$

  -OEChem-05262214473D

 43 42  0     1  0  0  0  0  0999 V2000
   -2.8661   -4.7415    2.2943 C   0  0  0  0  0  0  0  0  0  0  0  0
   -2.0233   -5.5727    2.6109 O   0  0  0  0  0  0  0  0  0  0  0  0
   -4.3078   -5.0134    2.5698 C   0  0  0  0  0  0  0  0  0  0  0  0
   -4.8057   -5.5295    1.7332 H   0  0  0  0  0  0  0  0  0  0  0  0
   -4.4526   -5.6688    3.4436 H   0  0  0  0  0  0  0  0  0  0  0  0
   -4.9255   -4.1233    2.7700 H   0  0  0  0  0  0  0  0  0  0  0  0
   -2.6241   -3.5219    1.6838 N   0  0  0  0  0  0  0  0  0  0  0  0
   -1.3070   -3.0608    1.3315 C   0  0  2  0  0  0  0  0  0  0  0  0
   -1.3931   -1.5680    1.0422 C   0  0  0  0  0  0  0  0  0  0  0  0
   -2.4385   -1.0059    0.7226 O   0  0  0  0  0  0  0  0  0  0  0  0
   -0.7590   -3.8164    0.1309 C   0  0  0  0  0  0  0  0  0  0  0  0
   -3.4188   -2.9207    1.4735 H   0  0  0  0  0  0  0  0  0  0  0  0
   -0.6690   -3.2277    2.2062 H   0  0  0  0  0  0  0  0  0  0  0  0
   -1.3852   -3.6613   -0.7553 H   0  0  0  0  0  0  0  0  0  0  0  0
    0.2542   -3.4843   -0.1182 H   0  0  0  0  0  0  0  0  0  0  0  0
   -0.7257   -4.8930    0.3300 H   0  0  0  0  0  0  0  0  0  0  0  0
   -0.1563   -0.9420    1.1402 N   0  0  0  0  0  0  0  0  0  0  0  0
    0.0261    0.4671    0.9001 C   0  0  2  0  0  0  0  0  0  0  0  0
   -1.3391    1.1518    0.9125 C   0  0  0  0  0  0  0  0  0  0  0  0
   -2.2355    0.8725    0.1189 O   0  0  0  0  0  0  0  0  0  0  0  0
    0.8313    0.7418   -0.3723 C   0  0  0  0  0  0  0  0  0  0  0  0
    2.5540    0.1514   -0.2933 S   0  0  0  0  0  0  0  0  0  0  0  0
    0.6533   -1.4855    1.4300 H   0  0  0  0  0  0  0  0  0  0  0  0
    0.5923    0.8420    1.7618 H   0  0  0  0  0  0  0  0  0  0  0  0
    0.3601    0.2621   -1.2364 H   0  0  0  0  0  0  0  0  0  0  0  0
    0.8627    1.8190   -0.5688 H   0  0  0  0  0  0  0  0  0  0  0  0
    2.8925    0.5591   -1.5231 H   0  0  0  0  0  0  0  0  0  0  0  0
   -1.4286    2.1263    1.8964 N   0  0  0  0  0  0  0  0  0  0  0  0
   -2.6176    2.9203    2.1004 C   0  0  2  0  0  0  0  0  0  0  0  0
   -2.2996    3.9840    3.1430 C   0  0  0  0  0  0  0  0  0  0  0  0
   -1.3858    3.8727    3.9577 O   0  0  0  0  0  0  0  0  0  0  0  0
   -3.7895    2.0583    2.5433 C   0  0  0  0  0  0  0  0  0  0  0  0
   -0.6490    2.2684    2.5317 H   0  0  0  0  0  0  0  0  0  0  0  0
   -2.8440    3.4025    1.1432 H   0  0  0  0  0  0  0  0  0  0  0  0
   -3.5812    1.5669    3.5008 H   0  0  0  0  0  0  0  0  0  0  0  0
   -4.6973    2.6574    2.6700 H   0  0  0  0  0  0  0  0  0  0  0  0
   -3.9978    1.2752    1.8063 H   0  0  0  0  0  0  0  0  0  0  0  0
   -3.1833    5.0526    3.0847 N   0  0  0  0  0  0  0  0  0  0  0  0
   -3.0988    6.1837    3.9788 C   0  0  0  0  0  0  0  0  0  0  0  0
   -3.8993    5.0702    2.3644 H   0  0  0  0  0  0  0  0  0  0  0  0
   -3.7410    6.0083    4.8545 H   0  0  0  0  0  0  0  0  0  0  0  0
   -2.0574    6.3137    4.3081 H   0  0  0  0  0  0  0  0  0  0  0  0
   -3.4336    7.0910    3.4546 H   0  0  0  0  0  0  0  0  0  0  0  0
  1  3  1  0  0  0  0
  1  7  1  0  0  0  0
  1  2  2  0  0  0  0
 29 30  1  0  0  0  0
 30 38  1  0  0  0  0
 30 31  2  0  0  0  0
  8  9  1  0  0  0  0
  9 17  1  0  0  0  0
  9 10  2  0  0  0  0
 18 19  1  0  0  0  0
 19 28  1  0  0  0  0
 19 20  2  0  0  0  0
 29 32  1  0  0  0  0
  8 11  1  0  0  0  0
 38 39  1  0  0  0  0
 18 21  1  0  0  0  0
 21 22  1  0  0  0  0
 28 29  1  0  0  0  0
  7  8  1  0  0  0  0
 17 18  1  0  0  0  0
  3  4  1  0  0  0  0
  3  5  1  0  0  0  0
  3  6  1  0  0  0  0
 32 35  1  0  0  0  0
 32 36  1  0  0  0  0
 32 37  1  0  0  0  0
 11 14  1  0  0  0  0
 11 15  1  0  0  0  0
 11 16  1  0  0  0  0
 39 41  1  0  0  0  0
 39 42  1  0  0  0  0
 39 43  1  0  0  0  0
 21 25  1  0  0  0  0
 21 26  1  0  0  0  0
 29 34  1  0  0  0  0
  8 13  1  0  0  0  0
 18 24  1  0  0  0  0
 38 40  1  0  0  0  0
  7 12  1  0  0  0  0
 28 33  1  0  0  0  0
 17 23  1  0  0  0  0
 22 27  1  0  0  0  0
M  END
$$$$

  -OEChem-05262214473D

 43 42  0     1  0  0  0  0  0999 V2000
   -2.8661   -4.7415    2.2943 C   0  0  0  0  0  0  0  0  0  0  0  0
   -2.0233   -5.5727    2.6109 O   0  0  0  0  0  0  0  0  0  0  0  0
   -4.3078   -5.0134    2.5698 C   0  0  0  0  0  0  0  0  0  0  0  0
   -4.8057   -5.5295    1.7332 H   0  0  0  0  0  0  0  0  0  0  0  0
   -4.4526   -5.6688    3.4436 H   0  0  0  0  0  0  0  0  0  0  0  0
   -4.9255   -4.1233    2.7700 H   0  0  0  0  0  0  0  0  0  0  0  0
   -2.6241   -3.5219    1.6838 N   0  0  0  0  0  0  0  0  0  0  0  0
   -1.3070   -3.0608    1.3315 C   0  0  2  0  0  0  0  0  0  0  0  0
   -1.3931   -1.5680    1.0422 C   0  0  0  0  0  0  0  0  0  0  0  0
   -2.4385   -1.0059    0.7226 O   0  0  0  0  0  0  0  0  0  0  0  0
   -0.7590   -3.8164    0.1309 C   0  0  0  0  0  0  0  0  0  0  0  0
   -3.4188   -2.9207    1.4735 H   0  0  0  0  0  0  0  0  0  0  0  0
   -0.6690   -3.2277    2.2062 H   0  0  0  0  0  0  0  0  0  0  0  0
   -1.3852   -3.6613   -0.7553 H   0  0  0  0  0  0  0  0  0  0  0  0
    0.2542   -3.4843   -0.1182 H   0  0  0  0  0  0  0  0  0  0  0  0
   -0.7257   -4.8930    0.3300 H   0  0  0  0  0  0  0  0  0  0  0  0
   -0.1563   -0.9420    1.1402 N   0  0  0  0  0  0  0  0  0  0  0  0
    0.0261    0.4671    0.9001 C   0  0  2  0  0  0  0  0  0  0  0  0
   -1.3391    1.1518    0.9125 C   0  0  0  0  0  0  0  0  0  0  0  0
   -2.3168    0.7068    0.3147 O   0  0  0  0  0  0  0  0  0  0  0  0
    0.8313    0.7418   -0.3723 C   0  0  0  0  0  0  0  0  0  0  0  0
    2.5540    0.1514   -0.2933 S   0  0  0  0  0  0  0  0  0  0  0  0
    0.6533   -1.4855    1.4300 H   0  0  0  0  0  0  0  0  0  0  0  0
    0.5923    0.8420    1.7618 H   0  0  0  0  0  0  0  0  0  0  0  0
    0.3601    0.2621   -1.2364 H   0  0  0  0  0  0  0  0  0  0  0  0
    0.8627    1.8190   -0.5688 H   0  0  0  0  0  0  0  0  0  0  0  0
    2.8925    0.5591   -1.5231 H   0  0  0  0  0  0  0  0  0  0  0  0
   -1.3295    2.3285    1.6479 N   0  0  0  0  0  0  0  0  0  0  0  0
   -2.4992    3.1619    1.7996 C   0  0  2  0  0  0  0  0  0  0  0  0
   -2.0794    4.4343    2.5238 C   0  0  0  0  0  0  0  0  0  0  0  0
   -1.0758    4.5040    3.2302 O   0  0  0  0  0  0  0  0  0  0  0  0
   -3.5982    2.4394    2.5631 C   0  0  0  0  0  0  0  0  0  0  0  0
   -0.4839    2.6048    2.1382 H   0  0  0  0  0  0  0  0  0  0  0  0
   -2.8424    3.4120    0.7898 H   0  0  0  0  0  0  0  0  0  0  0  0
   -3.2727    2.1806    3.5773 H   0  0  0  0  0  0  0  0  0  0  0  0
   -4.4945    3.0620    2.6524 H   0  0  0  0  0  0  0  0  0  0  0  0
   -3.8780    1.5094    2.0564 H   0  0  0  0  0  0  0  0  0  0  0  0
   -2.9806    5.4705    2.3231 N   0  0  0  0  0  0  0  0  0  0  0  0
   -2.8111    6.7768    2.9154 C   0  0  0  0  0  0  0  0  0  0  0  0
   -3.7754    5.3291    1.7066 H   0  0  0  0  0  0  0  0  0  0  0  0
   -3.3447    6.8163    3.8765 H   0  0  0  0  0  0  0  0  0  0  0  0
   -1.7407    6.9675    3.0823 H   0  0  0  0  0  0  0  0  0  0  0  0
   -3.2186    7.5419    2.2382 H   0  0  0  0  0  0  0  0  0  0  0  0
  1  3  1  0  0  0  0
  1  7  1  0  0  0  0
  1  2  2  0  0  0  0
 29 30  1  0  0  0  0
 30 38  1  0  0  0  0
 30 31  2  0  0  0  0
  8  9  1  0  0  0  0
  9 17  1  0  0  0  0
  9 10  2  0  0  0  0
 18 19  1  0  0  0  0
 19 28  1  0  0  0  0
 19 20  2  0  0  0  0
 29 32  1  0  0  0  0
  8 11  1  0  0  0  0
 38 39  1  0  0  0  0
 18 21  1  0  0  0  0
 21 22  1  0  0  0  0
 28 29  1  0  0  0  0
  7  8  1  0  0  0  0
 17 18  1  0  0  0  0
  3  4  1  0  0  0  0
  3  5  1  0  0  0  0
  3  6  1  0  0  0  0
 32 35  1  0  0  0  0
 32 36  1  0  0  0  0
 32 37  1  0  0  0  0
 11 14  1  0  0  0  0
 11 15  1  0  0  0  0
 11 16  1  0  0  0  0
 39 41  1  0  0  0  0
 39 42  1  0  0  0  0
 39 43  1  0  0  0  0
 21 25  1  0  0  0  0
 21 26  1  0  0  0  0
 29 34  1  0  0  0  0
  8 13  1  0  0  0  0
 18 24  1  0  0  0  0
 38 40  1  0  0  0  0
  7 12  1  0  0  0  0
 28 33  1  0  0  0  0
 17 23  1  0  0  0  0
 22 27  1  0  0  0  0
M  END
$$$$

  -OEChem-05262214473D

 43 42  0     1  0  0  0  0  0999 V2000
   -2.8661   -4.7415    2.2943 C   0  0  0  0  0  0  0  0  0  0  0  0
   -2.0233   -5.5727    2.6109 O   0  0  0  0  0  0  0  0  0  0  0  0
   -4.3078   -5.0134    2.5698 C   0  0  0  0  0  0  0  0  0  0  0  0
   -4.8057   -5.5295    1.7332 H   0  0  0  0  0  0  0  0  0  0  0  0
   -4.4526   -5.6688    3.4436 H   0  0  0  0  0  0  0  0  0  0  0  0
   -4.9255   -4.1233    2.7700 H   0  0  0  0  0  0  0  0  0  0  0  0
   -2.6241   -3.5219    1.6838 N   0  0  0  0  0  0  0  0  0  0  0  0
   -1.3070   -3.0608    1.3315 C   0  0  2  0  0  0  0  0  0  0  0  0
   -1.3931   -1.5680    1.0422 C   0  0  0  0  0  0  0  0  0  0  0  0
   -2.4385   -1.0059    0.7226 O   0  0  0  0  0  0  0  0  0  0  0  0
   -0.7590   -3.8164    0.1309 C   0  0  0  0  0  0  0  0  0  0  0  0
   -3.4188   -2.9207    1.4735 H   0  0  0  0  0  0  0  0  0  0  0  0
   -0.6690   -3.2277    2.2062 H   0  0  0  0  0  0  0  0  0  0  0  0
   -1.3852   -3.6613   -0.7553 H   0  0  0  0  0  0  0  0  0  0  0  0
    0.2542   -3.4843   -0.1182 H   0  0  0  0  0  0  0  0  0  0  0  0
   -0.7257   -4.8930    0.3300 H   0  0  0  0  0  0  0  0  0  0  0  0
   -0.1563   -0.9420    1.1402 N   0  0  0  0  0  0  0  0  0  0  0  0
    0.0261    0.4671    0.9001 C   0  0  2  0  0  0  0  0  0  0  0  0
   -1.3391    1.1518    0.9125 C   0  0  0  0  0  0  0  0  0  0  0  0
   -2.3723    0.5918    0.5516 O   0  0  0  0  0  0  0  0  0  0  0  0
    0.8313    0.7418   -0.3723 C   0  0  0  0  0  0  0  0  0  0  0  0
    2.5540    0.1514   -0.2933 S   0  0  0  0  0  0  0  0  0  0  0  0
    0.6533   -1.4855    1.4300 H   0  0  0  0  0  0  0  0  0  0  0  0
    0.5923    0.8420    1.7618 H   0  0  0  0  0  0  0  0  0  0  0  0
    0.3601    0.2621   -1.2364 H   0  0  0  0  0  0  0  0  0  0  0  0
    0.8627    1.8190   -0.5688 H   0  0  0  0  0  0  0  0  0  0  0  0
    2.8925    0.5591   -1.5231 H   0  0  0  0  0  0  0  0  0  0  0  0
   -1.2630    2.4666    1.3497 N   0  0  0  0  0  0  0  0  0  0  0  0
   -2.4202    3.3259    1.4395 C   0  0  2  0  0  0  0  0  0  0  0  0
   -1.9395    4.7264    1.7960 C   0  0  0  0  0  0  0  0  0  0  0  0
   -0.8622    4.9462    2.3455 O   0  0  0  0  0  0  0  0  0  0  0  0
   -3.4119    2.8124    2.4718 C   0  0  0  0  0  0  0  0  0  0  0  0
   -0.3708    2.8391    1.6610 H   0  0  0  0  0  0  0  0  0  0  0  0
   -2.8820    3.3394    0.4462 H   0  0  0  0  0  0  0  0  0  0  0  0
   -2.9672    2.7917    3.4734 H   0  0  0  0  0  0  0  0  0  0  0  0
   -4.3016    3.4491    2.5183 H   0  0  0  0  0  0  0  0  0  0  0  0
   -3.7339    1.7938    2.2300 H   0  0  0  0  0  0  0  0  0  0  0  0
   -2.8741    5.6984    1.4673 N   0  0  0  0  0  0  0  0  0  0  0  0
   -2.6578    7.1042    1.7176 C   0  0  0  0  0  0  0  0  0  0  0  0
   -3.7326    5.4273    0.9969 H   0  0  0  0  0  0  0  0  0  0  0  0
   -3.0771    7.3713    2.6989 H   0  0  0  0  0  0  0  0  0  0  0  0
   -1.5784    7.3160    1.7103 H   0  0  0  0  0  0  0  0  0  0  0  0
   -3.1529    7.6965    0.9340 H   0  0  0  0  0  0  0  0  0  0  0  0
  1  3  1  0  0  0  0
  1  7  1  0  0  0  0
  1  2  2  0  0  0  0
 29 30  1  0  0  0  0
 30 38  1  0  0  0  0
 30 31  2  0  0  0  0
  8  9  1  0  0  0  0
  9 17  1  0  0  0  0
  9 10  2  0  0  0  0
 18 19  1  0  0  0  0
 19 28  1  0  0  0  0
 19 20  2  0  0  0  0
 29 32  1  0  0  0  0
  8 11  1  0  0  0  0
 38 39  1  0  0  0  0
 18 21  1  0  0  0  0
 21 22  1  0  0  0  0
 28 29  1  0  0  0  0
  7  8  1  0  0  0  0
 17 18  1  0  0  0  0
  3  4  1  0  0  0  0
  3  5  1  0  0  0  0
  3  6  1  0  0  0  0
 32 35  1  0  0  0  0
 32 36  1  0  0  0  0
 32 37  1  0  0  0  0
 11 14  1  0  0  0  0
 11 15  1  0  0  0  0
 11 16  1  0  0  0  0
 39 41  1  0  0  0  0
 39 42  1  0  0  0  0
 39 43  1  0  0  0  0
 21 25  1  0  0  0  0
 21 26  1  0  0  0  0
 29 34  1  0  0  0  0
  8 13  1  0  0  0  0
 18 24  1  0  0  0  0
 38 40  1  0  0  0  0
  7 12  1  0  0  0  0
 28 33  1  0  0  0  0
 17 23  1  0  0  0  0
 22 27  1  0  0  0  0
M  END
$$$$

  -OEChem-05262214473D

 43 42  0     1  0  0  0  0  0999 V2000
   -2.8661   -4.7415    2.2943 C   0  0  0  0  0  0  0  0  0  0  0  0
   -2.0233   -5.5727    2.6109 O   0  0  0  0  0  0  0  0  0  0  0  0
   -4.3078   -5.0134    2.5698 C   0  0  0  0  0  0  0  0  0  0  0  0
   -4.8057   -5.5295    1.7332 H   0  0  0  0  0  0  0  0  0  0  0  0
   -4.4526   -5.6688    3.4436 H   0  0  0  0  0  0  0  0  0  0  0  0
   -4.9255   -4.1233    2.7700 H   0  0  0  0  0  0  0  0  0  0  0  0
   -2.6241   -3.5219    1.6838 N   0  0  0  0  0  0  0  0  0  0  0  0
   -1.3070   -3.0608    1.3315 C   0  0  2  0  0  0  0  0  0  0  0  0
   -1.3931   -1.5680    1.0422 C   0  0  0  0  0  0  0  0  0  0  0  0
   -2.4385   -1.0059    0.7226 O   0  0  0  0  0  0  0  0  0  0  0  0
   -0.7590   -3.8164    0.1309 C   0  0  0  0  0  0  0  0  0  0  0  0
   -3.4188   -2.9207    1.4735 H   0  0  0  0  0  0  0  0  0  0  0  0
   -0.6690   -3.2277    2.2062 H   0  0  0  0  0  0  0  0  0  0  0  0
   -1.3852   -3.6613   -0.7553 H   0  0  0  0  0  0  0  0  0  0  0  0
    0.2542   -3.4843   -0.1182 H   0  0  0  0  0  0  0  0  0  0  0  0
   -0.7257   -4.8930    0.3300 H   0  0  0  0  0  0  0  0  0  0  0  0
   -0.1563   -0.9420    1.1402 N   0  0  0  0  0  0  0  0  0  0  0  0
    0.0261    0.4671    0.9001 C   0  0  2  0  0  0  0  0  0  0  0  0
   -1.3391    1.1518    0.9125 C   0  0  0  0  0  0  0  0  0  0  0  0
   -2.3982    0.5354    0.8135 O   0  0  0  0  0  0  0  0  0  0  0  0
    0.8313    0.7418   -0.3723 C   0  0  0  0  0  0  0  0  0  0  0  0
    2.5540    0.1514   -0.2933 S   0  0  0  0  0  0  0  0  0  0  0  0
    0.6533   -1.4855    1.4300 H   0  0  0  0  0  0  0  0  0  0  0  0
    0.5923    0.8420    1.7618 H   0  0  0  0  0  0  0  0  0  0  0  0
    0.3601    0.2621   -1.2364 H   0  0  0  0  0  0  0  0  0  0  0  0
    0.8627    1.8190   -0.5688 H   0  0  0  0  0  0  0  0  0  0  0  0
    2.8925    0.5591   -1.5231 H   0  0  0  0  0  0  0  0  0  0  0  0
   -1.2336    2.5311    1.0219 N   0  0  0  0  0  0  0  0  0  0  0  0
   -2.3861    3.4012    1.0445 C   0  0  2  0  0  0  0  0  0  0  0  0
   -1.8895    4.8405    1.0091 C   0  0  0  0  0  0  0  0  0  0  0  0
   -0.7593    5.1691    1.3639 O   0  0  0  0  0  0  0  0  0  0  0  0
   -3.2434    3.1521    2.2757 C   0  0  0  0  0  0  0  0  0  0  0  0
   -0.3173    2.9552    1.1328 H   0  0  0  0  0  0  0  0  0  0  0  0
   -2.9599    3.1897    0.1356 H   0  0  0  0  0  0  0  0  0  0  0  0
   -2.6854    3.3587    3.1962 H   0  0  0  0  0  0  0  0  0  0  0  0
   -4.1316    3.7925    2.2768 H   0  0  0  0  0  0  0  0  0  0  0  0
   -3.5750    2.1089    2.3151 H   0  0  0  0  0  0  0  0  0  0  0  0
   -2.8710    5.7207    0.5756 N   0  0  0  0  0  0  0  0  0  0  0  0
   -2.6494    7.1438    0.4672 C   0  0  0  0  0  0  0  0  0  0  0  0
   -3.7738    5.3581    0.2837 H   0  0  0  0  0  0  0  0  0  0  0  0
   -2.9564    7.6355    1.4020 H   0  0  0  0  0  0  0  0  0  0  0  0
   -1.5815    7.3356    0.2857 H   0  0  0  0  0  0  0  0  0  0  0  0
   -3.2412    7.5442   -0.3691 H   0  0  0  0  0  0  0  0  0  0  0  0
  1  3  1  0  0  0  0
  1  7  1  0  0  0  0
  1  2  2  0  0  0  0
 29 30  1  0  0  0  0
 30 38  1  0  0  0  0
 30 31  2  0  0  0  0
  8  9  1  0  0  0  0
  9 17  1  0  0  0  0
  9 10  2  0  0  0  0
 18 19  1  0  0  0  0
 19 28  1  0  0  0  0
 19 20  2  0  0  0  0
 29 32  1  0  0  0  0
  8 11  1  0  0  0  0
 38 39  1  0  0  0  0
 18 21  1  0  0  0  0
 21 22  1  0  0  0  0
 28 29  1  0  0  0  0
  7  8  1  0  0  0  0
 17 18  1  0  0  0  0
  3  4  1  0  0  0  0
  3  5  1  0  0  0  0
  3  6  1  0  0  0  0
 32 35  1  0  0  0  0
 32 36  1  0  0  0  0
 32 37  1  0  0  0  0
 11 14  1  0  0  0  0
 11 15  1  0  0  0  0
 11 16  1  0  0  0  0
 39 41  1  0  0  0  0
 39 42  1  0  0  0  0
 39 43  1  0  0  0  0
 21 25  1  0  0  0  0
 21 26  1  0  0  0  0
 29 34  1  0  0  0  0
  8 13  1  0  0  0  0
 18 24  1  0  0  0  0
 38 40  1  0  0  0  0
  7 12  1  0  0  0  0
 28 33  1  0  0  0  0
 17 23  1  0  0  0  0
 22 27  1  0  0  0  0
M  END
$$$$

  -OEChem-05262214473D

 43 42  0     1  0  0  0  0  0999 V2000
   -2.8661   -4.7415    2.2943 C   0  0  0  0  0  0  0  0  0  0  0  0
   -2.0233   -5.5727    2.6109 O   0  0  0  0  0  0  0  0  0  0  0  0
   -4.3078   -5.0134    2.5698 C   0  0  0  0  0  0  0  0  0  0  0  0
   -4.8057   -5.5295    1.7332 H   0  0  0  0  0  0  0  0  0  0  0  0
   -4.4526   -5.6688    3.4436 H   0  0  0  0  0  0  0  0  0  0  0  0
   -4.9255   -4.1233    2.7700 H   0  0  0  0  0  0  0  0  0  0  0  0
   -2.6241   -3.5219    1.6838 N   0  0  0  0  0  0  0  0  0  0  0  0
   -1.3070   -3.0608    1.3315 C   0  0  2  0  0  0  0  0  0  0  0  0
   -1.3931   -1.5680    1.0422 C   0  0  0  0  0  0  0  0  0  0  0  0
   -2.4385   -1.0059    0.7226 O   0  0  0  0  0  0  0  0  0  0  0  0
   -0.7590   -3.8164    0.1309 C   0  0  0  0  0  0  0  0  0  0  0  0
   -3.4188   -2.9207    1.4735 H   0  0  0  0  0  0  0  0  0  0  0  0
   -0.6690   -3.2277    2.2062 H   0  0  0  0  0  0  0  0  0  0  0  0
   -1.3852   -3.6613   -0.7553 H   0  0  0  0  0  0  0  0  0  0  0  0
    0.2542   -3.4843   -0.1182 H   0  0  0  0  0  0  0  0  0  0  0  0
   -0.7257   -4.8930    0.3300 H   0  0  0  0  0  0  0  0  0  0  0  0
   -0.1563   -0.9420    1.1402 N   0  0  0  0  0  0  0  0  0  0  0  0
    0.0261    0.4671    0.9001 C   0  0  2  0  0  0  0  0  0  0  0  0
   -1.2578    1.2034    1.2773 C   0  0  0  0  0  0  0  0  0  0  0  0
   -2.2620    0.6285    1.6925 O   0  0  0  0  0  0  0  0  0  0  0  0
    0.4962    0.7589   -0.5271 C   0  0  0  0  0  0  0  0  0  0  0  0
    2.1531    0.0992   -0.9039 S   0  0  0  0  0  0  0  0  0  0  0  0
    0.6533   -1.4855    1.4300 H   0  0  0  0  0  0  0  0  0  0  0  0
    0.8086    0.7864    1.5998 H   0  0  0  0  0  0  0  0  0  0  0  0
   -0.2000    0.3313   -1.2560 H   0  0  0  0  0  0  0  0  0  0  0  0
    0.5280    1.8407   -0.6957 H   0  0  0  0  0  0  0  0  0  0  0  0
    2.1892    0.5403   -2.1678 H   0  0  0  0  0  0  0  0  0  0  0  0
   -1.1575    2.5721    1.0721 N   0  0  0  0  0  0  0  0  0  0  0  0
   -2.2450    3.4825    1.3451 C   0  0  2  0  0  0  0  0  0  0  0  0
   -1.8357    4.8647    0.8538 C   0  0  0  0  0  0  0  0  0  0  0  0
   -0.6637    5.2026    0.7012 O   0  0  0  0  0  0  0  0  0  0  0  0
   -2.5840    3.5108    2.8273 C   0  0  0  0  0  0  0  0  0  0  0  0
   -0.2765    2.9672    0.7569 H   0  0  0  0  0  0  0  0  0  0  0  0
   -3.1060    3.1290    0.7674 H   0  0  0  0  0  0  0  0  0  0  0  0
   -1.7333    3.8624    3.4224 H   0  0  0  0  0  0  0  0  0  0  0  0
   -3.4272    4.1797    3.0287 H   0  0  0  0  0  0  0  0  0  0  0  0
   -2.8493    2.5103    3.1856 H   0  0  0  0  0  0  0  0  0  0  0  0
   -2.9317    5.6907    0.6470 N   0  0  0  0  0  0  0  0  0  0  0  0
   -2.8045    7.0558    0.1926 C   0  0  0  0  0  0  0  0  0  0  0  0
   -3.8683    5.3210    0.7805 H   0  0  0  0  0  0  0  0  0  0  0  0
   -2.7608    7.7293    1.0612 H   0  0  0  0  0  0  0  0  0  0  0  0
   -1.8833    7.1607   -0.3993 H   0  0  0  0  0  0  0  0  0  0  0  0
   -3.6725    7.3170   -0.4305 H   0  0  0  0  0  0  0  0  0  0  0  0
  1  3  1  0  0  0  0
  1  7  1  0  0  0  0
  1  2  2  0  0  0  0
 29 30  1  0  0  0  0
 30 38  1  0  0  0  0
 30 31  2  0  0  0  0
  8  9  1  0  0  0  0
  9 17  1  0  0  0  0
  9 10  2  0  0  0  0
 18 19  1  0  0  0  0
 19 28  1  0  0  0  0
 19 20  2  0  0  0  0
 29 32  1  0  0  0  0
  8 11  1  0  0  0  0
 38 39  1  0  0  0  0
 18 21  1  0  0  0  0
 21 22  1  0  0  0  0
 28 29  1  0  0  0  0
  7  8  1  0  0  0  0
 17 18  1  0  0  0  0
  3  4  1  0  0  0  0
  3  5  1  0  0  0  0
  3  6  1  0  0  0  0
 32 35  1  0  0  0  0
 32 36  1  0  0  0  0
 32 37  1  0  0  0  0
 11 14  1  0  0  0  0
 11 15  1  0  0  0  0
 11 16  1  0  0  0  0
 39 41  1  0  0  0  0
 39 42  1  0  0  0  0
 39 43  1  0  0  0  0
 21 25  1  0  0  0  0
 21 26  1  0  0  0  0
 29 34  1  0  0  0  0
  8 13  1  0  0  0  0
 18 24  1  0  0  0  0
 38 40  1  0  0  0  0
  7 12  1  0  0  0  0
 28 33  1  0  0  0  0
 17 23  1  0  0  0  0
 22 27  1  0  0  0  0
M  END
$$$$

  -OEChem-05262214473D

 43 42  0     1  0  0  0  0  0999 V2000
   -2.8661   -4.7415    2.2943 C   0  0  0  0  0  0  0  0  0  0  0  0
   -2.0233   -5.5727    2.6109 O   0  0  0  0  0  0  0  0  0  0  0  0
   -4.3078   -5.0134    2.5698 C   0  0  0  0  0  0  0  0  0  0  0  0
   -4.8057   -5.5295    1.7332 H   0  0  0  0  0  0  0  0  0  0  0  0
   -4.4526   -5.6688    3.4436 H   0  0  0  0  0  0  0  0  0  0  0  0
   -4.9255   -4.1233    2.7700 H   0  0  0  0  0  0  0  0  0  0  0  0
   -2.6241   -3.5219    1.6838 N   0  0  0  0  0  0  0  0  0  0  0  0
   -1.3070   -3.0608    1.3315 C   0  0  2  0  0  0  0  0  0  0  0  0
   -1.3931   -1.5680    1.0422 C   0  0  0  0  0  0  0  0  0  0  0  0
   -2.4385   -1.0059    0.7226 O   0  0  0  0  0  0  0  0  0  0  0  0
   -0.7590   -3.8164    0.1309 C   0  0  0  0  0  0  0  0  0  0  0  0
   -3.4188   -2.9207    1.4735 H   0  0  0  0  0  0  0  0  0  0  0  0
   -0.6690   -3.2277    2.2062 H   0  0  0  0  0  0  0  0  0  0  0  0
   -1.3852   -3.6613   -0.7553 H   0  0  0  0  0  0  0  0  0  0  0  0
    0.2542   -3.4843   -0.1182 H   0  0  0  0  0  0  0  0  0  0  0  0
   -0.7257   -4.8930    0.3300 H   0  0  0  0  0  0  0  0  0  0  0  0
   -0.1563   -0.9420    1.1402 N   0  0  0  0  0  0  0  0  0  0  0  0
    0.0261    0.4671    0.9001 C   0  0  2  0  0  0  0  0  0  0  0  0
   -1.2578    1.2034    1.2773 C   0  0  0  0  0  0  0  0  0  0  0  0
   -2.1584    0.6853    1.9343 O   0  0  0  0  0  0  0  0  0  0  0  0
    0.4962    0.7589   -0.5271 C   0  0  0  0  0  0  0  0  0  0  0  0
    2.1531    0.0992   -0.9039 S   0  0  0  0  0  0  0  0  0  0  0  0
    0.6533   -1.4855    1.4300 H   0  0  0  0  0  0  0  0  0  0  0  0
    0.8086    0.7864    1.5998 H   0  0  0  0  0  0  0  0  0  0  0  0
   -0.2000    0.3313   -1.2560 H   0  0  0  0  0  0  0  0  0  0  0  0
    0.5280    1.8407   -0.6957 H   0  0  0  0  0  0  0  0  0  0  0  0
    2.1892    0.5403   -2.1678 H   0  0  0  0  0  0  0  0  0  0  0  0
   -1.2890    2.4959    0.7732 N   0  0  0  0  0  0  0  0  0  0  0  0
   -2.4042    3.3884    0.9865 C   0  0  2  0  0  0  0  0  0  0  0  0
   -2.1644    4.6462    0.1618 C   0  0  0  0  0  0  0  0  0  0  0  0
   -1.0483    5.0001   -0.2126 O   0  0  0  0  0  0  0  0  0  0  0  0
   -2.5677    3.7275    2.4599 C   0  0  0  0  0  0  0  0  0  0  0  0
   -0.4846    2.8549    0.2676 H   0  0  0  0  0  0  0  0  0  0  0  0
   -3.2971    2.8730    0.6162 H   0  0  0  0  0  0  0  0  0  0  0  0
   -1.6827    4.2445    2.8487 H   0  0  0  0  0  0  0  0  0  0  0  0
   -3.4307    4.3813    2.6232 H   0  0  0  0  0  0  0  0  0  0  0  0
   -2.7103    2.8193    3.0553 H   0  0  0  0  0  0  0  0  0  0  0  0
   -3.3379    5.3498   -0.0702 N   0  0  0  0  0  0  0  0  0  0  0  0
   -3.3715    6.5848   -0.8183 C   0  0  0  0  0  0  0  0  0  0  0  0
   -4.2207    4.9724    0.2614 H   0  0  0  0  0  0  0  0  0  0  0  0
   -3.2784    7.4355   -0.1271 H   0  0  0  0  0  0  0  0  0  0  0  0
   -2.5373    6.6020   -1.5351 H   0  0  0  0  0  0  0  0  0  0  0  0
   -4.3245    6.6576   -1.3629 H   0  0  0  0  0  0  0  0  0  0  0  0
  1  3  1  0  0  0  0
  1  7  1  0  0  0  0
  1  2  2  0  0  0  0
 29 30  1  0  0  0  0
 30 38  1  0  0  0  0
 30 31  2  0  0  0  0
  8  9  1  0  0  0  0
  9 17  1  0  0  0  0
  9 10  2  0  0  0  0
 18 19  1  0  0  0  0
 19 28  1  0  0  0  0
 19 20  2  0  0  0  0
 29 32  1  0  0  0  0
  8 11  1  0  0  0  0
 38 39  1  0  0  0  0
 18 21  1  0  0  0  0
 21 22  1  0  0  0  0
 28 29  1  0  0  0  0
  7  8  1  0  0  0  0
 17 18  1  0  0  0  0
  3  4  1  0  0  0  0
  3  5  1  0  0  0  0
  3  6  1  0  0  0  0
 32 35  1  0  0  0  0
 32 36  1  0  0  0  0
 32 37  1  0  0  0  0
 11 14  1  0  0  0  0
 11 15  1  0  0  0  0
 11 16  1  0  0  0  0
 39 41  1  0  0  0  0
 39 42  1  0  0  0  0
 39 43  1  0  0  0  0
 21 25  1  0  0  0  0
 21 26  1  0  0  0  0
 29 34  1  0  0  0  0
  8 13  1  0  0  0  0
 18 24  1  0  0  0  0
 38 40  1  0  0  0  0
  7 12  1  0  0  0  0
 28 33  1  0  0  0  0
 17 23  1  0  0  0  0
 22 27  1  0  0  0  0
M  END
$$$$

  -OEChem-05262214473D

 43 42  0     1  0  0  0  0  0999 V2000
   -2.8661   -4.7415    2.2943 C   0  0  0  0  0  0  0  0  0  0  0  0
   -2.0233   -5.5727    2.6109 O   0  0  0  0  0  0  0  0  0  0  0  0
   -4.3078   -5.0134    2.5698 C   0  0  0  0  0  0  0  0  0  0  0  0
   -4.8057   -5.5295    1.7332 H   0  0  0  0  0  0  0  0  0  0  0  0
   -4.4526   -5.6688    3.4436 H   0  0  0  0  0  0  0  0  0  0  0  0
   -4.9255   -4.1233    2.7700 H   0  0  0  0  0  0  0  0  0  0  0  0
   -2.6241   -3.5219    1.6838 N   0  0  0  0  0  0  0  0  0  0  0  0
   -1.3070   -3.0608    1.3315 C   0  0  2  0  0  0  0  0  0  0  0  0
   -1.3931   -1.5680    1.0422 C   0  0  0  0  0  0  0  0  0  0  0  0
   -2.4385   -1.0059    0.7226 O   0  0  0  0  0  0  0  0  0  0  0  0
   -0.7590   -3.8164    0.1309 C   0  0  0  0  0  0  0  0  0  0  0  0
   -3.4188   -2.9207    1.4735 H   0  0  0  0  0  0  0  0  0  0  0  0
   -0.6690   -3.2277    2.2062 H   0  0  0  0  0  0  0  0  0  0  0  0
   -1.3852   -3.6613   -0.7553 H   0  0  0  0  0  0  0  0  0  0  0  0
    0.2542   -3.4843   -0.1182 H   0  0  0  0  0  0  0  0  0  0  0  0
   -0.7257   -4.8930    0.3300 H   0  0  0  0  0  0  0  0  0  0  0  0
   -0.1563   -0.9420    1.1402 N   0  0  0  0  0  0  0  0  0  0  0  0
    0.0261    0.4671    0.9001 C   0  0  2  0  0  0  0  0  0  0  0  0
   -1.2578    1.2034    1.2773 C   0  0  0  0  0  0  0  0  0  0  0  0
   -2.0318    0.7993    2.1427 O   0  0  0  0  0  0  0  0  0  0  0  0
    0.4962    0.7589   -0.5271 C   0  0  0  0  0  0  0  0  0  0  0  0
    2.1531    0.0992   -0.9039 S   0  0  0  0  0  0  0  0  0  0  0  0
    0.6533   -1.4855    1.4300 H   0  0  0  0  0  0  0  0  0  0  0  0
    0.8086    0.7864    1.5998 H   0  0  0  0  0  0  0  0  0  0  0  0
   -0.2000    0.3313   -1.2560 H   0  0  0  0  0  0  0  0  0  0  0  0
    0.5280    1.8407   -0.6957 H   0  0  0  0  0  0  0  0  0  0  0  0
    2.1892    0.5403   -2.1678 H   0  0  0  0  0  0  0  0  0  0  0  0
   -1.4485    2.3488    0.5175 N   0  0  0  0  0  0  0  0  0  0  0  0
   -2.5968    3.2094    0.6804 C   0  0  2  0  0  0  0  0  0  0  0  0
   -2.5542    4.2635   -0.4181 C   0  0  0  0  0  0  0  0  0  0  0  0
   -1.5208    4.5811   -1.0032 O   0  0  0  0  0  0  0  0  0  0  0  0
   -2.6115    3.8580    2.0558 C   0  0  0  0  0  0  0  0  0  0  0  0
   -0.7395    2.6267   -0.1546 H   0  0  0  0  0  0  0  0  0  0  0  0
   -3.4843    2.5807    0.5497 H   0  0  0  0  0  0  0  0  0  0  0  0
   -1.7299    4.4919    2.2051 H   0  0  0  0  0  0  0  0  0  0  0  0
   -3.4976    4.4877    2.1881 H   0  0  0  0  0  0  0  0  0  0  0  0
   -2.6121    3.0983    2.8449 H   0  0  0  0  0  0  0  0  0  0  0  0
   -3.7980    4.8385   -0.6382 N   0  0  0  0  0  0  0  0  0  0  0  0
   -4.0153    5.8737   -1.6216 C   0  0  0  0  0  0  0  0  0  0  0  0
   -4.6036    4.5002   -0.1202 H   0  0  0  0  0  0  0  0  0  0  0  0
   -3.9079    6.8600   -1.1464 H   0  0  0  0  0  0  0  0  0  0  0  0
   -3.2751    5.7733   -2.4291 H   0  0  0  0  0  0  0  0  0  0  0  0
   -5.0285    5.7762   -2.0386 H   0  0  0  0  0  0  0  0  0  0  0  0
  1  3  1  0  0  0  0
  1  7  1  0  0  0  0
  1  2  2  0  0  0  0
 29 30  1  0  0  0  0
 30 38  1  0  0  0  0
 30 31  2  0  0  0  0
  8  9  1  0  0  0  0
  9 17  1  0  0  0  0
  9 10  2  0  0  0  0
 18 19  1  0  0  0  0
 19 28  1  0  0  0  0
 19 20  2  0  0  0  0
 29 32  1  0  0  0  0
  8 11  1  0  0  0  0
 38 39  1  0  0  0  0
 18 21  1  0  0  0  0
 21 22  1  0  0  0  0
 28 29  1  0  0  0  0
  7  8  1  0  0  0  0
 17 18  1  0  0  0  0
  3  4  1  0  0  0  0
  3  5  1  0  0  0  0
  3  6  1  0  0  0  0
 32 35  1  0  0  0  0
 32 36  1  0  0  0  0
 32 37  1  0  0  0  0
 11 14  1  0  0  0  0
 11 15  1  0  0  0  0
 11 16  1  0  0  0  0
 39 41  1  0  0  0  0
 39 42  1  0  0  0  0
 39 43  1  0  0  0  0
 21 25  1  0  0  0  0
 21 26  1  0  0  0  0
 29 34  1  0  0  0  0
  8 13  1  0  0  0  0
 18 24  1  0  0  0  0
 38 40  1  0  0  0  0
  7 12  1  0  0  0  0
 28 33  1  0  0  0  0
 17 23  1  0  0  0  0
 22 27  1  0  0  0  0
M  END
$$$$

  -OEChem-05262214473D

 43 42  0     1  0  0  0  0  0999 V2000
   -2.8661   -4.7415    2.2943 C   0  0  0  0  0  0  0  0  0  0  0  0
   -2.0233   -5.5727    2.6109 O   0  0  0  0  0  0  0  0  0  0  0  0
   -4.3078   -5.0134    2.5698 C   0  0  0  0  0  0  0  0  0  0  0  0
   -4.8057   -5.5295    1.7332 H   0  0  0  0  0  0  0  0  0  0  0  0
   -4.4526   -5.6688    3.4436 H   0  0  0  0  0  0  0  0  0  0  0  0
   -4.9255   -4.1233    2.7700 H   0  0  0  0  0  0  0  0  0  0  0  0
   -2.6241   -3.5219    1.6838 N   0  0  0  0  0  0  0  0  0  0  0  0
   -1.3070   -3.0608    1.3315 C   0  0  2  0  0  0  0  0  0  0  0  0
   -1.3931   -1.5680    1.0422 C   0  0  0  0  0  0  0  0  0  0  0  0
   -2.4385   -1.0059    0.7226 O   0  0  0  0  0  0  0  0  0  0  0  0
   -0.7590   -3.8164    0.1309 C   0  0  0  0  0  0  0  0  0  0  0  0
   -3.4188   -2.9207    1.4735 H   0  0  0  0  0  0  0  0  0  0  0  0
   -0.6690   -3.2277    2.2062 H   0  0  0  0  0  0  0  0  0  0  0  0
   -1.3852   -3.6613   -0.7553 H   0  0  0  0  0  0  0  0  0  0  0  0
    0.2542   -3.4843   -0.1182 H   0  0  0  0  0  0  0  0  0  0  0  0
   -0.7257   -4.8930    0.3300 H   0  0  0  0  0  0  0  0  0  0  0  0
   -0.1563   -0.9420    1.1402 N   0  0  0  0  0  0  0  0  0  0  0  0
    0.0261    0.4671    0.9001 C   0  0  2  0  0  0  0  0  0  0  0  0
   -1.2578    1.2034    1.2773 C   0  0  0  0  0  0  0  0  0  0  0  0
   -1.8909    0.9629    2.3033 O   0  0  0  0  0  0  0  0  0  0  0  0
    0.4962    0.7589   -0.5271 C   0  0  0  0  0  0  0  0  0  0  0  0
    2.1531    0.0992   -0.9039 S   0  0  0  0  0  0  0  0  0  0  0  0
    0.6533   -1.4855    1.4300 H   0  0  0  0  0  0  0  0  0  0  0  0
    0.8086    0.7864    1.5998 H   0  0  0  0  0  0  0  0  0  0  0  0
   -0.2000    0.3313   -1.2560 H   0  0  0  0  0  0  0  0  0  0  0  0
    0.5280    1.8407   -0.6957 H   0  0  0  0  0  0  0  0  0  0  0  0
    2.1892    0.5403   -2.1678 H   0  0  0  0  0  0  0  0  0  0  0  0
   -1.6250    2.1409    0.3224 N   0  0  0  0  0  0  0  0  0  0  0  0
   -2.8096    2.9576    0.4477 C   0  0  2  0  0  0  0  0  0  0  0  0
   -2.9786    3.7428   -0.8463 C   0  0  0  0  0  0  0  0  0  0  0  0
   -2.0491    3.9742   -1.6167 O   0  0  0  0  0  0  0  0  0  0  0  0
   -2.7127    3.8933    1.6426 C   0  0  0  0  0  0  0  0  0  0  0  0
   -1.0238    2.2981   -0.4811 H   0  0  0  0  0  0  0  0  0  0  0  0
   -3.6547    2.2718    0.5725 H   0  0  0  0  0  0  0  0  0  0  0  0
   -1.8715    4.5879    1.5355 H   0  0  0  0  0  0  0  0  0  0  0  0
   -3.6232    4.4914    1.7530 H   0  0  0  0  0  0  0  0  0  0  0  0
   -2.5614    3.3283    2.5688 H   0  0  0  0  0  0  0  0  0  0  0  0
   -4.2805    4.1916   -1.0181 N   0  0  0  0  0  0  0  0  0  0  0  0
   -4.6919    4.9709   -2.1624 C   0  0  0  0  0  0  0  0  0  0  0  0
   -4.9908    3.9367   -0.3383 H   0  0  0  0  0  0  0  0  0  0  0  0
   -4.6062    6.0421   -1.9272 H   0  0  0  0  0  0  0  0  0  0  0  0
   -4.0463    4.7313   -3.0203 H   0  0  0  0  0  0  0  0  0  0  0  0
   -5.7364    4.7328   -2.4118 H   0  0  0  0  0  0  0  0  0  0  0  0
  1  3  1  0  0  0  0
  1  7  1  0  0  0  0
  1  2  2  0  0  0  0
 29 30  1  0  0  0  0
 30 38  1  0  0  0  0
 30 31  2  0  0  0  0
  8  9  1  0  0  0  0
  9 17  1  0  0  0  0
  9 10  2  0  0  0  0
 18 19  1  0  0  0  0
 19 28  1  0  0  0  0
 19 20  2  0  0  0  0
 29 32  1  0  0  0  0
  8 11  1  0  0  0  0
 38 39  1  0  0  0  0
 18 21  1  0  0  0  0
 21 22  1  0  0  0  0
 28 29  1  0  0  0  0
  7  8  1  0  0  0  0
 17 18  1  0  0  0  0
  3  4  1  0  0  0  0
  3  5  1  0  0  0  0
  3  6  1  0  0  0  0
 32 35  1  0  0  0  0
 32 36  1  0  0  0  0
 32 37  1  0  0  0  0
 11 14  1  0  0  0  0
 11 15  1  0  0  0  0
 11 16  1  0  0  0  0
 39 41  1  0  0  0  0
 39 42  1  0  0  0  0
 39 43  1  0  0  0  0
 21 25  1  0  0  0  0
 21 26  1  0  0  0  0
 29 34  1  0  0  0  0
  8 13  1  0  0  0  0
 18 24  1  0  0  0  0
 38 40  1  0  0  0  0
  7 12  1  0  0  0  0
 28 33  1  0  0  0  0
 17 23  1  0  0  0  0
 22 27  1  0  0  0  0
M  END
$$$$

  -OEChem-05262214473D

 43 42  0     1  0  0  0  0  0999 V2000
   -2.8661   -4.7415    2.2943 C   0  0  0  0  0  0  0  0  0  0  0  0
   -2.0233   -5.5727    2.6109 O   0  0  0  0  0  0  0  0  0  0  0  0
   -4.3078   -5.0134    2.5698 C   0  0  0  0  0  0  0  0  0  0  0  0
   -4.8057   -5.5295    1.7332 H   0  0  0  0  0  0  0  0  0  0  0  0
   -4.4526   -5.6688    3.4436 H   0  0  0  0  0  0  0  0  0  0  0  0
   -4.9255   -4.1233    2.7700 H   0  0  0  0  0  0  0  0  0  0  0  0
   -2.6241   -3.5219    1.6838 N   0  0  0  0  0  0  0  0  0  0  0  0
   -1.3070   -3.0608    1.3315 C   0  0  2  0  0  0  0  0  0  0  0  0
   -1.3931   -1.5680    1.0422 C   0  0  0  0  0  0  0  0  0  0  0  0
   -2.4385   -1.0059    0.7226 O   0  0  0  0  0  0  0  0  0  0  0  0
   -0.7590   -3.8164    0.1309 C   0  0  0  0  0  0  0  0  0  0  0  0
   -3.4188   -2.9207    1.4735 H   0  0  0  0  0  0  0  0  0  0  0  0
   -0.6690   -3.2277    2.2062 H   0  0  0  0  0  0  0  0  0  0  0  0
   -1.3852   -3.6613   -0.7553 H   0  0  0  0  0  0  0  0  0  0  0  0
    0.2542   -3.4843   -0.1182 H   0  0  0  0  0  0  0  0  0  0  0  0
   -0.7257   -4.8930    0.3300 H   0  0  0  0  0  0  0  0  0  0  0  0
   -0.1563   -0.9420    1.1402 N   0  0  0  0  0  0  0  0  0  0  0  0
    0.0261    0.4671    0.9001 C   0  0  2  0  0  0  0  0  0  0  0  0
   -1.2578    1.2034    1.2773 C   0  0  0  0  0  0  0  0  0  0  0  0
   -1.7451    1.1649    2.4053 O   0  0  0  0  0  0  0  0  0  0  0  0
    0.4962    0.7589   -0.5271 C   0  0  0  0  0  0  0  0  0  0  0  0
    2.1531    0.0992   -0.9039 S   0  0  0  0  0  0  0  0  0  0  0  0
    0.6533   -1.4855    1.4300 H   0  0  0  0  0  0  0  0  0  0  0  0
    0.8086    0.7864    1.5998 H   0  0  0  0  0  0  0  0  0  0  0  0
   -0.2000    0.3313   -1.2560 H   0  0  0  0  0  0  0  0  0  0  0  0
    0.5280    1.8407   -0.6957 H   0  0  0  0  0  0  0  0  0  0  0  0
    2.1892    0.5403   -2.1678 H   0  0  0  0  0  0  0  0  0  0  0  0
   -1.8066    1.8863    0.2012 N   0  0  0  0  0  0  0  0  0  0  0  0
   -3.0280    2.6501    0.3043 C   0  0  2  0  0  0  0  0  0  0  0  0
   -3.4086    3.1195   -1.0936 C   0  0  0  0  0  0  0  0  0  0  0  0
   -2.5971    3.2207   -2.0114 O   0  0  0  0  0  0  0  0  0  0  0  0
   -2.8642    3.8310    1.2484 C   0  0  0  0  0  0  0  0  0  0  0  0
   -1.3182    1.8915   -0.6894 H   0  0  0  0  0  0  0  0  0  0  0  0
   -3.7968    1.9676    0.6829 H   0  0  0  0  0  0  0  0  0  0  0  0
   -2.0981    4.5258    0.8856 H   0  0  0  0  0  0  0  0  0  0  0  0
   -3.7991    4.3923    1.3477 H   0  0  0  0  0  0  0  0  0  0  0  0
   -2.5615    3.4937    2.2456 H   0  0  0  0  0  0  0  0  0  0  0  0
   -4.7527    3.4533   -1.1842 N   0  0  0  0  0  0  0  0  0  0  0  0
   -5.3552    3.9380   -2.4041 C   0  0  0  0  0  0  0  0  0  0  0  0
   -5.3561    3.3201   -0.3780 H   0  0  0  0  0  0  0  0  0  0  0  0
   -5.3260    5.0376   -2.4163 H   0  0  0  0  0  0  0  0  0  0  0  0
   -4.7984    3.5469   -3.2684 H   0  0  0  0  0  0  0  0  0  0  0  0
   -6.4001    3.5985   -2.4568 H   0  0  0  0  0  0  0  0  0  0  0  0
  1  3  1  0  0  0  0
  1  7  1  0  0  0  0
  1  2  2  0  0  0  0
 29 30  1  0  0  0  0
 30 38  1  0  0  0  0
 30 31  2  0  0  0  0
  8  9  1  0  0  0  0
  9 17  1  0  0  0  0
  9 10  2  0  0  0  0
 18 19  1  0  0  0  0
 19 28  1  0  0  0  0
 19 20  2  0  0  0  0
 29 32  1  0  0  0  0
  8 11  1  0  0  0  0
 38 39  1  0  0  0  0
 18 21  1  0  0  0  0
 21 22  1  0  0  0  0
 28 29  1  0  0  0  0
  7  8  1  0  0  0  0
 17 18  1  0  0  0  0
  3  4  1  0  0  0  0
  3  5  1  0  0  0  0
  3  6  1  0  0  0  0
 32 35  1  0  0  0  0
 32 36  1  0  0  0  0
 32 37  1  0  0  0  0
 11 14  1  0  0  0  0
 11 15  1  0  0  0  0
 11 16  1  0  0  0  0
 39 41  1  0  0  0  0
 39 42  1  0  0  0  0
 39 43  1  0  0  0  0
 21 25  1  0  0  0  0
 21 26  1  0  0  0  0
 29 34  1  0  0  0  0
  8 13  1  0  0  0  0
 18 24  1  0  0  0  0
 38 40  1  0  0  0  0
  7 12  1  0  0  0  0
 28 33  1  0  0  0  0
 17 23  1  0  0  0  0
 22 27  1  0  0  0  0
M  END
$$$$

  -OEChem-05262214473D

 43 42  0     1  0  0  0  0  0999 V2000
   -2.8661   -4.7415    2.2943 C   0  0  0  0  0  0  0  0  0  0  0  0
   -2.0233   -5.5727    2.6109 O   0  0  0  0  0  0  0  0  0  0  0  0
   -4.3078   -5.0134    2.5698 C   0  0  0  0  0  0  0  0  0  0  0  0
   -4.8057   -5.5295    1.7332 H   0  0  0  0  0  0  0  0  0  0  0  0
   -4.4526   -5.6688    3.4436 H   0  0  0  0  0  0  0  0  0  0  0  0
   -4.9255   -4.1233    2.7700 H   0  0  0  0  0  0  0  0  0  0  0  0
   -2.6241   -3.5219    1.6838 N   0  0  0  0  0  0  0  0  0  0  0  0
   -1.3070   -3.0608    1.3315 C   0  0  2  0  0  0  0  0  0  0  0  0
   -1.3931   -1.5680    1.0422 C   0  0  0  0  0  0  0  0  0  0  0  0
   -2.4385   -1.0059    0.7226 O   0  0  0  0  0  0  0  0  0  0  0  0
   -0.7590   -3.8164    0.1309 C   0  0  0  0  0  0  0  0  0  0  0  0
   -3.4188   -2.9207    1.4735 H   0  0  0  0  0  0  0  0  0  0  0  0
   -0.6690   -3.2277    2.2062 H   0  0  0  0  0  0  0  0  0  0  0  0
   -1.3852   -3.6613   -0.7553 H   0  0  0  0  0  0  0  0  0  0  0  0
    0.2542   -3.4843   -0.1182 H   0  0  0  0  0  0  0  0  0  0  0  0
   -0.7257   -4.8930    0.3300 H   0  0  0  0  0  0  0  0  0  0  0  0
   -0.1563   -0.9420    1.1402 N   0  0  0  0  0  0  0  0  0  0  0  0
    0.0261    0.4671    0.9001 C   0  0  2  0  0  0  0  0  0  0  0  0
   -1.2578    1.2034    1.2773 C   0  0  0  0  0  0  0  0  0  0  0  0
   -1.6044    1.3914    2.4417 O   0  0  0  0  0  0  0  0  0  0  0  0
    0.4962    0.7589   -0.5271 C   0  0  0  0  0  0  0  0  0  0  0  0
    2.1531    0.0992   -0.9039 S   0  0  0  0  0  0  0  0  0  0  0  0
    0.6533   -1.4855    1.4300 H   0  0  0  0  0  0  0  0  0  0  0  0
    0.8086    0.7864    1.5998 H   0  0  0  0  0  0  0  0  0  0  0  0
   -0.2000    0.3313   -1.2560 H   0  0  0  0  0  0  0  0  0  0  0  0
    0.5280    1.8407   -0.6957 H   0  0  0  0  0  0  0  0  0  0  0  0
    2.1892    0.5403   -2.1678 H   0  0  0  0  0  0  0  0  0  0  0  0
   -1.9809    1.6025    0.1622 N   0  0  0  0  0  0  0  0  0  0  0  0
   -3.2373    2.3079    0.2600 C   0  0  2  0  0  0  0  0  0  0  0  0
   -3.8151    2.4362   -1.1433 C   0  0  0  0  0  0  0  0  0  0  0  0
   -3.1275    2.3719   -2.1603 O   0  0  0  0  0  0  0  0  0  0  0  0
   -3.0558    3.6754    0.9001 C   0  0  0  0  0  0  0  0  0  0  0  0
   -1.6025    1.4346   -0.7654 H   0  0  0  0  0  0  0  0  0  0  0  0
   -3.9007    1.6887    0.8735 H   0  0  0  0  0  0  0  0  0  0  0  0
   -2.3940    4.3100    0.2995 H   0  0  0  0  0  0  0  0  0  0  0  0
   -4.0133    4.1972    0.9996 H   0  0  0  0  0  0  0  0  0  0  0  0
   -2.6125    3.5830    1.8975 H   0  0  0  0  0  0  0  0  0  0  0  0
   -5.1823    2.6738   -1.1250 N   0  0  0  0  0  0  0  0  0  0  0  0
   -5.9600    2.8453   -2.3299 C   0  0  0  0  0  0  0  0  0  0  0  0
   -5.6744    2.6925   -0.2367 H   0  0  0  0  0  0  0  0  0  0  0  0
   -6.0180    3.9148   -2.5804 H   0  0  0  0  0  0  0  0  0  0  0  0
   -5.4802    2.3007   -3.1565 H   0  0  0  0  0  0  0  0  0  0  0  0
   -6.9744    2.4506   -2.1708 H   0  0  0  0  0  0  0  0  0  0  0  0
  1  3  1  0  0  0  0
  1  7  1  0  0  0  0
  1  2  2  0  0  0  0
 29 30  1  0  0  0  0
 30 38  1  0  0  0  0
 30 31  2  0  0  0  0
  8  9  1  0  0  0  0
  9 17  1  0  0  0  0
  9 10  2  0  0  0  0
 18 19  1  0  0  0  0
 19 28  1  0  0  0  0
 19 20  2  0  0  0  0
 29 32  1  0  0  0  0
  8 11  1  0  0  0  0
 38 39  1  0  0  0  0
 18 21  1  0  0  0  0
 21 22  1  0  0  0  0
 28 29  1  0  0  0  0
  7  8  1  0  0  0  0
 17 18  1  0  0  0  0
  3  4  1  0  0  0  0
  3  5  1  0  0  0  0
  3  6  1  0  0  0  0
 32 35  1  0  0  0  0
 32 36  1  0  0  0  0
 32 37  1  0  0  0  0
 11 14  1  0  0  0  0
 11 15  1  0  0  0  0
 11 16  1  0  0  0  0
 39 41  1  0  0  0  0
 39 42  1  0  0  0  0
 39 43  1  0  0  0  0
 21 25  1  0  0  0  0
 21 26  1  0  0  0  0
 29 34  1  0  0  0  0
  8 13  1  0  0  0  0
 18 24  1  0  0  0  0
 38 40  1  0  0  0  0
  7 12  1  0  0  0  0
 28 33  1  0  0  0  0
 17 23  1  0  0  0  0
 22 27  1  0  0  0  0
M  END
$$$$

  -OEChem-05262214473D

 43 42  0     1  0  0  0  0  0999 V2000
   -2.8661   -4.7415    2.2943 C   0  0  0  0  0  0  0  0  0  0  0  0
   -2.0233   -5.5727    2.6109 O   0  0  0  0  0  0  0  0  0  0  0  0
   -4.3078   -5.0134    2.5698 C   0  0  0  0  0  0  0  0  0  0  0  0
   -4.8057   -5.5295    1.7332 H   0  0  0  0  0  0  0  0  0  0  0  0
   -4.4526   -5.6688    3.4436 H   0  0  0  0  0  0  0  0  0  0  0  0
   -4.9255   -4.1233    2.7700 H   0  0  0  0  0  0  0  0  0  0  0  0
   -2.6241   -3.5219    1.6838 N   0  0  0  0  0  0  0  0  0  0  0  0
   -1.3070   -3.0608    1.3315 C   0  0  2  0  0  0  0  0  0  0  0  0
   -1.3931   -1.5680    1.0422 C   0  0  0  0  0  0  0  0  0  0  0  0
   -2.4385   -1.0059    0.7226 O   0  0  0  0  0  0  0  0  0  0  0  0
   -0.7590   -3.8164    0.1309 C   0  0  0  0  0  0  0  0  0  0  0  0
   -3.4188   -2.9207    1.4735 H   0  0  0  0  0  0  0  0  0  0  0  0
   -0.6690   -3.2277    2.2062 H   0  0  0  0  0  0  0  0  0  0  0  0
   -1.3852   -3.6613   -0.7553 H   0  0  0  0  0  0  0  0  0  0  0  0
    0.2542   -3.4843   -0.1182 H   0  0  0  0  0  0  0  0  0  0  0  0
   -0.7257   -4.8930    0.3300 H   0  0  0  0  0  0  0  0  0  0  0  0
   -0.1563   -0.9420    1.1402 N   0  0  0  0  0  0  0  0  0  0  0  0
    0.0261    0.4671    0.9001 C   0  0  2  0  0  0  0  0  0  0  0  0
   -1.2578    1.2034    1.2773 C   0  0  0  0  0  0  0  0  0  0  0  0
   -1.4786    1.6272    2.4100 O   0  0  0  0  0  0  0  0  0  0  0  0
    0.4962    0.7589   -0.5271 C   0  0  0  0  0  0  0  0  0  0  0  0
    2.1531    0.0992   -0.9039 S   0  0  0  0  0  0  0  0  0  0  0  0
    0.6533   -1.4855    1.4300 H   0  0  0  0  0  0  0  0  0  0  0  0
    0.8086    0.7864    1.5998 H   0  0  0  0  0  0  0  0  0  0  0  0
   -0.2000    0.3313   -1.2560 H   0  0  0  0  0  0  0  0  0  0  0  0
    0.5280    1.8407   -0.6957 H   0  0  0  0  0  0  0  0  0  0  0  0
    2.1892    0.5403   -2.1678 H   0  0  0  0  0  0  0  0  0  0  0  0
   -2.1359    1.3087    0.2080 N   0  0  0  0  0  0  0  0  0  0  0  0
   -3.4231    1.9544    0.3177 C   0  0  2  0  0  0  0  0  0  0  0  0
   -4.1702    1.7393   -0.9919 C   0  0  0  0  0  0  0  0  0  0  0  0
   -3.6042    1.4859   -2.0533 O   0  0  0  0  0  0  0  0  0  0  0  0
   -3.2743    3.4370    0.6214 C   0  0  0  0  0  0  0  0  0  0  0  0
   -1.8575    0.9586   -0.7039 H   0  0  0  0  0  0  0  0  0  0  0  0
   -3.9595    1.4541    1.1313 H   0  0  0  0  0  0  0  0  0  0  0  0
   -2.7391    3.9551   -0.1827 H   0  0  0  0  0  0  0  0  0  0  0  0
   -4.2511    3.9193    0.7325 H   0  0  0  0  0  0  0  0  0  0  0  0
   -2.7109    3.5904    1.5482 H   0  0  0  0  0  0  0  0  0  0  0  0
   -5.5401    1.9063   -0.8447 N   0  0  0  0  0  0  0  0  0  0  0  0
   -6.4652    1.7673   -1.9452 C   0  0  0  0  0  0  0  0  0  0  0  0
   -5.9242    2.0968    0.0761 H   0  0  0  0  0  0  0  0  0  0  0  0
   -6.6352    2.7504   -2.4084 H   0  0  0  0  0  0  0  0  0  0  0  0
   -6.0451    1.0779   -2.6923 H   0  0  0  0  0  0  0  0  0  0  0  0
   -7.4200    1.3674   -1.5731 H   0  0  0  0  0  0  0  0  0  0  0  0
  1  3  1  0  0  0  0
  1  7  1  0  0  0  0
  1  2  2  0  0  0  0
 29 30  1  0  0  0  0
 30 38  1  0  0  0  0
 30 31  2  0  0  0  0
  8  9  1  0  0  0  0
  9 17  1  0  0  0  0
  9 10  2  0  0  0  0
 18 19  1  0  0  0  0
 19 28  1  0  0  0  0
 19 20  2  0  0  0  0
 29 32  1  0  0  0  0
  8 11  1  0  0  0  0
 38 39  1  0  0  0  0
 18 21  1  0  0  0  0
 21 22  1  0  0  0  0
 28 29  1  0  0  0  0
  7  8  1  0  0  0  0
 17 18  1  0  0  0  0
  3  4  1  0  0  0  0
  3  5  1  0  0  0  0
  3  6  1  0  0  0  0
 32 35  1  0  0  0  0
 32 36  1  0  0  0  0
 32 37  1  0  0  0  0
 11 14  1  0  0  0  0
 11 15  1  0  0  0  0
 11 16  1  0  0  0  0
 39 41  1  0  0  0  0
 39 42  1  0  0  0  0
 39 43  1  0  0  0  0
 21 25  1  0  0  0  0
 21 26  1  0  0  0  0
 29 34  1  0  0  0  0
  8 13  1  0  0  0  0
 18 24  1  0  0  0  0
 38 40  1  0  0  0  0
  7 12  1  0  0  0  0
 28 33  1  0  0  0  0
 17 23  1  0  0  0  0
 22 27  1  0  0  0  0
M  END
$$$$

  -OEChem-05262214473D

 43 42  0     1  0  0  0  0  0999 V2000
   -2.8661   -4.7415    2.2943 C   0  0  0  0  0  0  0  0  0  0  0  0
   -2.0233   -5.5727    2.6109 O   0  0  0  0  0  0  0  0  0  0  0  0
   -4.3078   -5.0134    2.5698 C   0  0  0  0  0  0  0  0  0  0  0  0
   -4.8057   -5.5295    1.7332 H   0  0  0  0  0  0  0  0  0  0  0  0
   -4.4526   -5.6688    3.4436 H   0  0  0  0  0  0  0  0  0  0  0  0
   -4.9255   -4.1233    2.7700 H   0  0  0  0  0  0  0  0  0  0  0  0
   -2.6241   -3.5219    1.6838 N   0  0  0  0  0  0  0  0  0  0  0  0
   -1.3070   -3.0608    1.3315 C   0  0  2  0  0  0  0  0  0  0  0  0
   -1.3931   -1.5680    1.0422 C   0  0  0  0  0  0  0  0  0  0  0  0
   -2.4385   -1.0059    0.7226 O   0  0  0  0  0  0  0  0  0  0  0  0
   -0.7590   -3.8164    0.1309 C   0  0  0  0  0  0  0  0  0  0  0  0
   -3.4188   -2.9207    1.4735 H   0  0  0  0  0  0  0  0  0  0  0  0
   -0.6690   -3.2277    2.2062 H   0  0  0  0  0  0  0  0  0  0  0  0
   -1.3852   -3.6613   -0.7553 H   0  0  0  0  0  0  0  0  0  0  0  0
    0.2542   -3.4843   -0.1182 H   0  0  0  0  0  0  0  0  0  0  0  0
   -0.7257   -4.8930    0.3300 H   0  0  0  0  0  0  0  0  0  0  0  0
   -0.1563   -0.9420    1.1402 N   0  0  0  0  0  0  0  0  0  0  0  0
    0.0261    0.4671    0.9001 C   0  0  2  0  0  0  0  0  0  0  0  0
   -1.2578    1.2034    1.2773 C   0  0  0  0  0  0  0  0  0  0  0  0
   -1.3760    1.8561    2.3123 O   0  0  0  0  0  0  0  0  0  0  0  0
    0.4962    0.7589   -0.5271 C   0  0  0  0  0  0  0  0  0  0  0  0
    2.1531    0.0992   -0.9039 S   0  0  0  0  0  0  0  0  0  0  0  0
    0.6533   -1.4855    1.4300 H   0  0  0  0  0  0  0  0  0  0  0  0
    0.8086    0.7864    1.5998 H   0  0  0  0  0  0  0  0  0  0  0  0
   -0.2000    0.3313   -1.2560 H   0  0  0  0  0  0  0  0  0  0  0  0
    0.5280    1.8407   -0.6957 H   0  0  0  0  0  0  0  0  0  0  0  0
    2.1892    0.5403   -2.1678 H   0  0  0  0  0  0  0  0  0  0  0  0
   -2.2611    1.0250    0.3355 N   0  0  0  0  0  0  0  0  0  0  0  0
   -3.5727    1.6136    0.4735 C   0  0  2  0  0  0  0  0  0  0  0  0
   -4.4498    1.0765   -0.6498 C   0  0  0  0  0  0  0  0  0  0  0  0
   -3.9947    0.6228   -1.6977 O   0  0  0  0  0  0  0  0  0  0  0  0
   -3.5049    3.1322    0.4314 C   0  0  0  0  0  0  0  0  0  0  0  0
   -2.0656    0.4959   -0.5092 H   0  0  0  0  0  0  0  0  0  0  0  0
   -3.9692    1.2798    1.4386 H   0  0  0  0  0  0  0  0  0  0  0  0
   -3.1100    3.4854   -0.5282 H   0  0  0  0  0  0  0  0  0  0  0  0
   -4.4964    3.5775    0.5647 H   0  0  0  0  0  0  0  0  0  0  0  0
   -2.8500    3.5152    1.2214 H   0  0  0  0  0  0  0  0  0  0  0  0
   -5.8017    1.2031   -0.3623 N   0  0  0  0  0  0  0  0  0  0  0  0
   -6.8362    0.7775   -1.2759 C   0  0  0  0  0  0  0  0  0  0  0  0
   -6.0883    1.5734    0.5390 H   0  0  0  0  0  0  0  0  0  0  0  0
   -7.1354    1.6237   -1.9118 H   0  0  0  0  0  0  0  0  0  0  0  0
   -6.4547   -0.0385   -1.9073 H   0  0  0  0  0  0  0  0  0  0  0  0
   -7.7066    0.4226   -0.7045 H   0  0  0  0  0  0  0  0  0  0  0  0
  1  3  1  0  0  0  0
  1  7  1  0  0  0  0
  1  2  2  0  0  0  0
 29 30  1  0  0  0  0
 30 38  1  0  0  0  0
 30 31  2  0  0  0  0
  8  9  1  0  0  0  0
  9 17  1  0  0  0  0
  9 10  2  0  0  0  0
 18 19  1  0  0  0  0
 19 28  1  0  0  0  0
 19 20  2  0  0  0  0
 29 32  1  0  0  0  0
  8 11  1  0  0  0  0
 38 39  1  0  0  0  0
 18 21  1  0  0  0  0
 21 22  1  0  0  0  0
 28 29  1  0  0  0  0
  7  8  1  0  0  0  0
 17 18  1  0  0  0  0
  3  4  1  0  0  0  0
  3  5  1  0  0  0  0
  3  6  1  0  0  0  0
 32 35  1  0  0  0  0
 32 36  1  0  0  0  0
 32 37  1  0  0  0  0
 11 14  1  0  0  0  0
 11 15  1  0  0  0  0
 11 16  1  0  0  0  0
 39 41  1  0  0  0  0
 39 42  1  0  0  0  0
 39 43  1  0  0  0  0
 21 25  1  0  0  0  0
 21 26  1  0  0  0  0
 29 34  1  0  0  0  0
  8 13  1  0  0  0  0
 18 24  1  0  0  0  0
 38 40  1  0  0  0  0
  7 12  1  0  0  0  0
 28 33  1  0  0  0  0
 17 23  1  0  0  0  0
 22 27  1  0  0  0  0
M  END
$$$$

  -OEChem-05262214473D

 43 42  0     1  0  0  0  0  0999 V2000
   -2.8661   -4.7415    2.2943 C   0  0  0  0  0  0  0  0  0  0  0  0
   -2.0233   -5.5727    2.6109 O   0  0  0  0  0  0  0  0  0  0  0  0
   -4.3078   -5.0134    2.5698 C   0  0  0  0  0  0  0  0  0  0  0  0
   -4.8057   -5.5295    1.7332 H   0  0  0  0  0  0  0  0  0  0  0  0
   -4.4526   -5.6688    3.4436 H   0  0  0  0  0  0  0  0  0  0  0  0
   -4.9255   -4.1233    2.7700 H   0  0  0  0  0  0  0  0  0  0  0  0
   -2.6241   -3.5219    1.6838 N   0  0  0  0  0  0  0  0  0  0  0  0
   -1.3070   -3.0608    1.3315 C   0  0  2  0  0  0  0  0  0  0  0  0
   -1.3931   -1.5680    1.0422 C   0  0  0  0  0  0  0  0  0  0  0  0
   -2.4385   -1.0059    0.7226 O   0  0  0  0  0  0  0  0  0  0  0  0
   -0.7590   -3.8164    0.1309 C   0  0  0  0  0  0  0  0  0  0  0  0
   -3.4188   -2.9207    1.4735 H   0  0  0  0  0  0  0  0  0  0  0  0
   -0.6690   -3.2277    2.2062 H   0  0  0  0  0  0  0  0  0  0  0  0
   -1.3852   -3.6613   -0.7553 H   0  0  0  0  0  0  0  0  0  0  0  0
    0.2542   -3.4843   -0.1182 H   0  0  0  0  0  0  0  0  0  0  0  0
   -0.7257   -4.8930    0.3300 H   0  0  0  0  0  0  0  0  0  0  0  0
   -0.1563   -0.9420    1.1402 N   0  0  0  0  0  0  0  0  0  0  0  0
    0.0261    0.4671    0.9001 C   0  0  2  0  0  0  0  0  0  0  0  0
   -1.2578    1.2034    1.2773 C   0  0  0  0  0  0  0  0  0  0  0  0
   -1.3037    2.0625    2.1554 O   0  0  0  0  0  0  0  0  0  0  0  0
    0.4962    0.7589   -0.5271 C   0  0  0  0  0  0  0  0  0  0  0  0
    2.1531    0.0992   -0.9039 S   0  0  0  0  0  0  0  0  0  0  0  0
    0.6533   -1.4855    1.4300 H   0  0  0  0  0  0  0  0  0  0  0  0
    0.8086    0.7864    1.5998 H   0  0  0  0  0  0  0  0  0  0  0  0
   -0.2000    0.3313   -1.2560 H   0  0  0  0  0  0  0  0  0  0  0  0
    0.5280    1.8407   -0.6957 H   0  0  0  0  0  0  0  0  0  0  0  0
    2.1892    0.5403   -2.1678 H   0  0  0  0  0  0  0  0  0  0  0  0
   -2.3481    0.7706    0.5360 N   0  0  0  0  0  0  0  0  0  0  0  0
   -3.6761    1.3087    0.7168 C   0  0  2  0  0  0  0  0  0  0  0  0
   -4.6349    0.4928   -0.1402 C   0  0  0  0  0  0  0  0  0  0  0  0
   -4.2724   -0.1585   -1.1177 O   0  0  0  0  0  0  0  0  0  0  0  0
   -3.7319    2.7817    0.3429 C   0  0  0  0  0  0  0  0  0  0  0  0
   -2.2128    0.0780   -0.1945 H   0  0  0  0  0  0  0  0  0  0  0  0
   -3.9290    1.1777    1.7746 H   0  0  0  0  0  0  0  0  0  0  0  0
   -3.4814    2.9327   -0.7135 H   0  0  0  0  0  0  0  0  0  0  0  0
   -4.7324    3.1952    0.5076 H   0  0  0  0  0  0  0  0  0  0  0  0
   -3.0203    3.3626    0.9396 H   0  0  0  0  0  0  0  0  0  0  0  0
   -5.9492    0.6121    0.2893 N   0  0  0  0  0  0  0  0  0  0  0  0
   -7.0478   -0.0567   -0.3678 C   0  0  0  0  0  0  0  0  0  0  0  0
   -6.1557    1.1581    1.1205 H   0  0  0  0  0  0  0  0  0  0  0  0
   -7.4847    0.6115   -1.1246 H   0  0  0  0  0  0  0  0  0  0  0  0
   -6.6810   -0.9721   -0.8551 H   0  0  0  0  0  0  0  0  0  0  0  0
   -7.8147   -0.3192    0.3758 H   0  0  0  0  0  0  0  0  0  0  0  0
  1  3  1  0  0  0  0
  1  7  1  0  0  0  0
  1  2  2  0  0  0  0
 29 30  1  0  0  0  0
 30 38  1  0  0  0  0
 30 31  2  0  0  0  0
  8  9  1  0  0  0  0
  9 17  1  0  0  0  0
  9 10  2  0  0  0  0
 18 19  1  0  0  0  0
 19 28  1  0  0  0  0
 19 20  2  0  0  0  0
 29 32  1  0  0  0  0
  8 11  1  0  0  0  0
 38 39  1  0  0  0  0
 18 21  1  0  0  0  0
 21 22  1  0  0  0  0
 28 29  1  0  0  0  0
  7  8  1  0  0  0  0
 17 18  1  0  0  0  0
  3  4  1  0  0  0  0
  3  5  1  0  0  0  0
  3  6  1  0  0  0  0
 32 35  1  0  0  0  0
 32 36  1  0  0  0  0
 32 37  1  0  0  0  0
 11 14  1  0  0  0  0
 11 15  1  0  0  0  0
 11 16  1  0  0  0  0
 39 41  1  0  0  0  0
 39 42  1  0  0  0  0
 39 43  1  0  0  0  0
 21 25  1  0  0  0  0
 21 26  1  0  0  0  0
 29 34  1  0  0  0  0
  8 13  1  0  0  0  0
 18 24  1  0  0  0  0
 38 40  1  0  0  0  0
  7 12  1  0  0  0  0
 28 33  1  0  0  0  0
 17 23  1  0  0  0  0
 22 27  1  0  0  0  0
M  END
$$$$

  -OEChem-05262214473D

 43 42  0     1  0  0  0  0  0999 V2000
   -2.8661   -4.7415    2.2943 C   0  0  0  0  0  0  0  0  0  0  0  0
   -2.0233   -5.5727    2.6109 O   0  0  0  0  0  0  0  0  0  0  0  0
   -4.3078   -5.0134    2.5698 C   0  0  0  0  0  0  0  0  0  0  0  0
   -4.8057   -5.5295    1.7332 H   0  0  0  0  0  0  0  0  0  0  0  0
   -4.4526   -5.6688    3.4436 H   0  0  0  0  0  0  0  0  0  0  0  0
   -4.9255   -4.1233    2.7700 H   0  0  0  0  0  0  0  0  0  0  0  0
   -2.6241   -3.5219    1.6838 N   0  0  0  0  0  0  0  0  0  0  0  0
   -1.3070   -3.0608    1.3315 C   0  0  2  0  0  0  0  0  0  0  0  0
   -1.3931   -1.5680    1.0422 C   0  0  0  0  0  0  0  0  0  0  0  0
   -2.4385   -1.0059    0.7226 O   0  0  0  0  0  0  0  0  0  0  0  0
   -0.7590   -3.8164    0.1309 C   0  0  0  0  0  0  0  0  0  0  0  0
   -3.4188   -2.9207    1.4735 H   0  0  0  0  0  0  0  0  0  0  0  0
   -0.6690   -3.2277    2.2062 H   0  0  0  0  0  0  0  0  0  0  0  0
   -1.3852   -3.6613   -0.7553 H   0  0  0  0  0  0  0  0  0  0  0  0
    0.2542   -3.4843   -0.1182 H   0  0  0  0  0  0  0  0  0  0  0  0
   -0.7257   -4.8930    0.3300 H   0  0  0  0  0  0  0  0  0  0  0  0
   -0.1563   -0.9420    1.1402 N   0  0  0  0  0  0  0  0  0  0  0  0
    0.0261    0.4671    0.9001 C   0  0  2  0  0  0  0  0  0  0  0  0
   -1.2578    1.2034    1.2773 C   0  0  0  0  0  0  0  0  0  0  0  0
   -1.2667    2.2324    1.9500 O   0  0  0  0  0  0  0  0  0  0  0  0
    0.4962    0.7589   -0.5271 C   0  0  0  0  0  0  0  0  0  0  0  0
    2.1531    0.0992   -0.9039 S   0  0  0  0  0  0  0  0  0  0  0  0
    0.6533   -1.4855    1.4300 H   0  0  0  0  0  0  0  0  0  0  0  0
    0.8086    0.7864    1.5998 H   0  0  0  0  0  0  0  0  0  0  0  0
   -0.2000    0.3313   -1.2560 H   0  0  0  0  0  0  0  0  0  0  0  0
    0.5280    1.8407   -0.6957 H   0  0  0  0  0  0  0  0  0  0  0  0
    2.1892    0.5403   -2.1678 H   0  0  0  0  0  0  0  0  0  0  0  0
   -2.3908    0.5630    0.7959 N   0  0  0  0  0  0  0  0  0  0  0  0
   -3.7260    1.0606    1.0311 C   0  0  2  0  0  0  0  0  0  0  0  0
   -4.7127    0.0280    0.5021 C   0  0  0  0  0  0  0  0  0  0  0  0
   -4.4183   -0.8047   -0.3528 O   0  0  0  0  0  0  0  0  0  0  0  0
   -3.9398    2.4094    0.3620 C   0  0  0  0  0  0  0  0  0  0  0  0
   -2.2890   -0.2666    0.2188 H   0  0  0  0  0  0  0  0  0  0  0  0
   -3.8418    1.1548    2.1164 H   0  0  0  0  0  0  0  0  0  0  0  0
   -3.8278    2.3349   -0.7259 H   0  0  0  0  0  0  0  0  0  0  0  0
   -4.9430    2.7985    0.5650 H   0  0  0  0  0  0  0  0  0  0  0  0
   -3.2103    3.1429    0.7217 H   0  0  0  0  0  0  0  0  0  0  0  0
   -5.9726    0.1735    1.0656 N   0  0  0  0  0  0  0  0  0  0  0  0
   -7.0856   -0.6785    0.7172 C   0  0  0  0  0  0  0  0  0  0  0  0
   -6.1217    0.8791    1.7809 H   0  0  0  0  0  0  0  0  0  0  0  0
   -7.6591   -0.2174   -0.1004 H   0  0  0  0  0  0  0  0  0  0  0  0
   -6.7087   -1.6596    0.3926 H   0  0  0  0  0  0  0  0  0  0  0  0
   -7.7369   -0.8077    1.5942 H   0  0  0  0  0  0  0  0  0  0  0  0
  1  3  1  0  0  0  0
  1  7  1  0  0  0  0
  1  2  2  0  0  0  0
 29 30  1  0  0  0  0
 30 38  1  0  0  0  0
 30 31  2  0  0  0  0
  8  9  1  0  0  0  0
  9 17  1  0  0  0  0
  9 10  2  0  0  0  0
 18 19  1  0  0  0  0
 19 28  1  0  0  0  0
 19 20  2  0  0  0  0
 29 32  1  0  0  0  0
  8 11  1  0  0  0  0
 38 39  1  0  0  0  0
 18 21  1  0  0  0  0
 21 22  1  0  0  0  0
 28 29  1  0  0  0  0
  7  8  1  0  0  0  0
 17 18  1  0  0  0  0
  3  4  1  0  0  0  0
  3  5  1  0  0  0  0
  3  6  1  0  0  0  0
 32 35  1  0  0  0  0
 32 36  1  0  0  0  0
 32 37  1  0  0  0  0
 11 14  1  0  0  0  0
 11 15  1  0  0  0  0
 11 16  1  0  0  0  0
 39 41  1  0  0  0  0
 39 42  1  0  0  0  0
 39 43  1  0  0  0  0
 21 25  1  0  0  0  0
 21 26  1  0  0  0  0
 29 34  1  0  0  0  0
  8 13  1  0  0  0  0
 18 24  1  0  0  0  0
 38 40  1  0  0  0  0
  7 12  1  0  0  0  0
 28 33  1  0  0  0  0
 17 23  1  0  0  0  0
 22 27  1  0  0  0  0
M  END
$$$$

  -OEChem-05262214473D

 43 42  0     1  0  0  0  0  0999 V2000
   -2.8661   -4.7415    2.2943 C   0  0  0  0  0  0  0  0  0  0  0  0
   -2.0233   -5.5727    2.6109 O   0  0  0  0  0  0  0  0  0  0  0  0
   -4.3078   -5.0134    2.5698 C   0  0  0  0  0  0  0  0  0  0  0  0
   -4.8057   -5.5295    1.7332 H   0  0  0  0  0  0  0  0  0  0  0  0
   -4.4526   -5.6688    3.4436 H   0  0  0  0  0  0  0  0  0  0  0  0
   -4.9255   -4.1233    2.7700 H   0  0  0  0  0  0  0  0  0  0  0  0
   -2.6241   -3.5219    1.6838 N   0  0  0  0  0  0  0  0  0  0  0  0
   -1.3070   -3.0608    1.3315 C   0  0  2  0  0  0  0  0  0  0  0  0
   -1.3931   -1.5680    1.0422 C   0  0  0  0  0  0  0  0  0  0  0  0
   -2.4385   -1.0059    0.7226 O   0  0  0  0  0  0  0  0  0  0  0  0
   -0.7590   -3.8164    0.1309 C   0  0  0  0  0  0  0  0  0  0  0  0
   -3.4188   -2.9207    1.4735 H   0  0  0  0  0  0  0  0  0  0  0  0
   -0.6690   -3.2277    2.2062 H   0  0  0  0  0  0  0  0  0  0  0  0
   -1.3852   -3.6613   -0.7553 H   0  0  0  0  0  0  0  0  0  0  0  0
    0.2542   -3.4843   -0.1182 H   0  0  0  0  0  0  0  0  0  0  0  0
   -0.7257   -4.8930    0.3300 H   0  0  0  0  0  0  0  0  0  0  0  0
   -0.1563   -0.9420    1.1402 N   0  0  0  0  0  0  0  0  0  0  0  0
    0.0261    0.4671    0.9001 C   0  0  2  0  0  0  0  0  0  0  0  0
   -1.2578    1.2034    1.2773 C   0  0  0  0  0  0  0  0  0  0  0  0
   -1.2674    2.3541    1.7099 O   0  0  0  0  0  0  0  0  0  0  0  0
    0.4962    0.7589   -0.5271 C   0  0  0  0  0  0  0  0  0  0  0  0
    2.1531    0.0992   -0.9039 S   0  0  0  0  0  0  0  0  0  0  0  0
    0.6533   -1.4855    1.4300 H   0  0  0  0  0  0  0  0  0  0  0  0
    0.8086    0.7864    1.5998 H   0  0  0  0  0  0  0  0  0  0  0  0
   -0.2000    0.3313   -1.2560 H   0  0  0  0  0  0  0  0  0  0  0  0
    0.5280    1.8407   -0.6957 H   0  0  0  0  0  0  0  0  0  0  0  0
    2.1892    0.5403   -2.1678 H   0  0  0  0  0  0  0  0  0  0  0  0
   -2.3864    0.4163    1.0974 N   0  0  0  0  0  0  0  0  0  0  0  0
   -3.7192    0.8861    1.3949 C   0  0  2  0  0  0  0  0  0  0  0  0
   -4.6780   -0.2861    1.2334 C   0  0  0  0  0  0  0  0  0  0  0  0
   -4.4224   -1.2718    0.5448 O   0  0  0  0  0  0  0  0  0  0  0  0
   -4.1145    2.0406    0.4874 C   0  0  0  0  0  0  0  0  0  0  0  0
   -2.2890   -0.5144    0.7025 H   0  0  0  0  0  0  0  0  0  0  0  0
   -3.7135    1.2125    2.4406 H   0  0  0  0  0  0  0  0  0  0  0  0
   -4.1258    1.7326   -0.5645 H   0  0  0  0  0  0  0  0  0  0  0  0
   -5.1140    2.4143    0.7331 H   0  0  0  0  0  0  0  0  0  0  0  0
   -3.4069    2.8712    0.5828 H   0  0  0  0  0  0  0  0  0  0  0  0
   -5.8704   -0.0827    1.9139 N   0  0  0  0  0  0  0  0  0  0  0  0
   -6.9470   -1.0454    1.9053 C   0  0  0  0  0  0  0  0  0  0  0  0
   -5.9886    0.7555    2.4753 H   0  0  0  0  0  0  0  0  0  0  0  0
   -7.6469   -0.8063    1.0910 H   0  0  0  0  0  0  0  0  0  0  0  0
   -6.5358   -2.0538    1.7509 H   0  0  0  0  0  0  0  0  0  0  0  0
   -7.4785   -1.0095    2.8677 H   0  0  0  0  0  0  0  0  0  0  0  0
  1  3  1  0  0  0  0
  1  7  1  0  0  0  0
  1  2  2  0  0  0  0
 29 30  1  0  0  0  0
 30 38  1  0  0  0  0
 30 31  2  0  0  0  0
  8  9  1  0  0  0  0
  9 17  1  0  0  0  0
  9 10  2  0  0  0  0
 18 19  1  0  0  0  0
 19 28  1  0  0  0  0
 19 20  2  0  0  0  0
 29 32  1  0  0  0  0
  8 11  1  0  0  0  0
 38 39  1  0  0  0  0
 18 21  1  0  0  0  0
 21 22  1  0  0  0  0
 28 29  1  0  0  0  0
  7  8  1  0  0  0  0
 17 18  1  0  0  0  0
  3  4  1  0  0  0  0
  3  5  1  0  0  0  0
  3  6  1  0  0  0  0
 32 35  1  0  0  0  0
 32 36  1  0  0  0  0
 32 37  1  0  0  0  0
 11 14  1  0  0  0  0
 11 15  1  0  0  0  0
 11 16  1  0  0  0  0
 39 41  1  0  0  0  0
 39 42  1  0  0  0  0
 39 43  1  0  0  0  0
 21 25  1  0  0  0  0
 21 26  1  0  0  0  0
 29 34  1  0  0  0  0
  8 13  1  0  0  0  0
 18 24  1  0  0  0  0
 38 40  1  0  0  0  0
  7 12  1  0  0  0  0
 28 33  1  0  0  0  0
 17 23  1  0  0  0  0
 22 27  1  0  0  0  0
M  END
$$$$

  -OEChem-05262214473D

 43 42  0     1  0  0  0  0  0999 V2000
   -2.8661   -4.7415    2.2943 C   0  0  0  0  0  0  0  0  0  0  0  0
   -2.0233   -5.5727    2.6109 O   0  0  0  0  0  0  0  0  0  0  0  0
   -4.3078   -5.0134    2.5698 C   0  0  0  0  0  0  0  0  0  0  0  0
   -4.8057   -5.5295    1.7332 H   0  0  0  0  0  0  0  0  0  0  0  0
   -4.4526   -5.6688    3.4436 H   0  0  0  0  0  0  0  0  0  0  0  0
   -4.9255   -4.1233    2.7700 H   0  0  0  0  0  0  0  0  0  0  0  0
   -2.6241   -3.5219    1.6838 N   0  0  0  0  0  0  0  0  0  0  0  0
   -1.3070   -3.0608    1.3315 C   0  0  2  0  0  0  0  0  0  0  0  0
   -1.3931   -1.5680    1.0422 C   0  0  0  0  0  0  0  0  0  0  0  0
   -2.4385   -1.0059    0.7226 O   0  0  0  0  0  0  0  0  0  0  0  0
   -0.7590   -3.8164    0.1309 C   0  0  0  0  0  0  0  0  0  0  0  0
   -3.4188   -2.9207    1.4735 H   0  0  0  0  0  0  0  0  0  0  0  0
   -0.6690   -3.2277    2.2062 H   0  0  0  0  0  0  0  0  0  0  0  0
   -1.3852   -3.6613   -0.7553 H   0  0  0  0  0  0  0  0  0  0  0  0
    0.2542   -3.4843   -0.1182 H   0  0  0  0  0  0  0  0  0  0  0  0
   -0.7257   -4.8930    0.3300 H   0  0  0  0  0  0  0  0  0  0  0  0
   -0.1563   -0.9420    1.1402 N   0  0  0  0  0  0  0  0  0  0  0  0
    0.0261    0.4671    0.9001 C   0  0  2  0  0  0  0  0  0  0  0  0
   -1.2578    1.2034    1.2773 C   0  0  0  0  0  0  0  0  0  0  0  0
   -1.3058    2.4194    1.4517 O   0  0  0  0  0  0  0  0  0  0  0  0
    0.4962    0.7589   -0.5271 C   0  0  0  0  0  0  0  0  0  0  0  0
    2.1531    0.0992   -0.9039 S   0  0  0  0  0  0  0  0  0  0  0  0
    0.6533   -1.4855    1.4300 H   0  0  0  0  0  0  0  0  0  0  0  0
    0.8086    0.7864    1.5998 H   0  0  0  0  0  0  0  0  0  0  0  0
   -0.2000    0.3313   -1.2560 H   0  0  0  0  0  0  0  0  0  0  0  0
    0.5280    1.8407   -0.6957 H   0  0  0  0  0  0  0  0  0  0  0  0
    2.1892    0.5403   -2.1678 H   0  0  0  0  0  0  0  0  0  0  0  0
   -2.3351    0.3405    1.4200 N   0  0  0  0  0  0  0  0  0  0  0  0
   -3.6561    0.7971    1.7834 C   0  0  2  0  0  0  0  0  0  0  0  0
   -4.5332   -0.4283    2.0038 C   0  0  0  0  0  0  0  0  0  0  0  0
   -4.2847   -1.5280    1.5139 O   0  0  0  0  0  0  0  0  0  0  0  0
   -4.2440    1.7005    0.7105 C   0  0  0  0  0  0  0  0  0  0  0  0
   -2.2129   -0.6486    1.2236 H   0  0  0  0  0  0  0  0  0  0  0  0
   -3.5527    1.3471    2.7252 H   0  0  0  0  0  0  0  0  0  0  0  0
   -4.3551    1.1669   -0.2405 H   0  0  0  0  0  0  0  0  0  0  0  0
   -5.2336    2.0688    1.0004 H   0  0  0  0  0  0  0  0  0  0  0  0
   -3.5967    2.5660    0.5323 H   0  0  0  0  0  0  0  0  0  0  0  0
   -5.6494   -0.1391    2.7763 N   0  0  0  0  0  0  0  0  0  0  0  0
   -6.6415   -1.1324    3.1154 C   0  0  0  0  0  0  0  0  0  0  0  0
   -5.7655    0.7957    3.1563 H   0  0  0  0  0  0  0  0  0  0  0  0
   -7.4487   -1.1151    2.3684 H   0  0  0  0  0  0  0  0  0  0  0  0
   -6.1741   -2.1281    3.1270 H   0  0  0  0  0  0  0  0  0  0  0  0
   -7.0572   -0.9108    4.1094 H   0  0  0  0  0  0  0  0  0  0  0  0
  1  3  1  0  0  0  0
  1  7  1  0  0  0  0
  1  2  2  0  0  0  0
 29 30  1  0  0  0  0
 30 38  1  0  0  0  0
 30 31  2  0  0  0  0
  8  9  1  0  0  0  0
  9 17  1  0  0  0  0
  9 10  2  0  0  0  0
 18 19  1  0  0  0  0
 19 28  1  0  0  0  0
 19 20  2  0  0  0  0
 29 32  1  0  0  0  0
  8 11  1  0  0  0  0
 38 39  1  0  0  0  0
 18 21  1  0  0  0  0
 21 22  1  0  0  0  0
 28 29  1  0  0  0  0
  7  8  1  0  0  0  0
 17 18  1  0  0  0  0
  3  4  1  0  0  0  0
  3  5  1  0  0  0  0
  3  6  1  0  0  0  0
 32 35  1  0  0  0  0
 32 36  1  0  0  0  0
 32 37  1  0  0  0  0
 11 14  1  0  0  0  0
 11 15  1  0  0  0  0
 11 16  1  0  0  0  0
 39 41  1  0  0  0  0
 39 42  1  0  0  0  0
 39 43  1  0  0  0  0
 21 25  1  0  0  0  0
 21 26  1  0  0  0  0
 29 34  1  0  0  0  0
  8 13  1  0  0  0  0
 18 24  1  0  0  0  0
 38 40  1  0  0  0  0
  7 12  1  0  0  0  0
 28 33  1  0  0  0  0
 17 23  1  0  0  0  0
 22 27  1  0  0  0  0
M  END
$$$$

  -OEChem-05262214473D

 43 42  0     1  0  0  0  0  0999 V2000
   -2.8661   -4.7415    2.2943 C   0  0  0  0  0  0  0  0  0  0  0  0
   -2.0233   -5.5727    2.6109 O   0  0  0  0  0  0  0  0  0  0  0  0
   -4.3078   -5.0134    2.5698 C   0  0  0  0  0  0  0  0  0  0  0  0
   -4.8057   -5.5295    1.7332 H   0  0  0  0  0  0  0  0  0  0  0  0
   -4.4526   -5.6688    3.4436 H   0  0  0  0  0  0  0  0  0  0  0  0
   -4.9255   -4.1233    2.7700 H   0  0  0  0  0  0  0  0  0  0  0  0
   -2.6241   -3.5219    1.6838 N   0  0  0  0  0  0  0  0  0  0  0  0
   -1.3070   -3.0608    1.3315 C   0  0  2  0  0  0  0  0  0  0  0  0
   -1.3931   -1.5680    1.0422 C   0  0  0  0  0  0  0  0  0  0  0  0
   -2.4385   -1.0059    0.7226 O   0  0  0  0  0  0  0  0  0  0  0  0
   -0.7590   -3.8164    0.1309 C   0  0  0  0  0  0  0  0  0  0  0  0
   -3.4188   -2.9207    1.4735 H   0  0  0  0  0  0  0  0  0  0  0  0
   -0.6690   -3.2277    2.2062 H   0  0  0  0  0  0  0  0  0  0  0  0
   -1.3852   -3.6613   -0.7553 H   0  0  0  0  0  0  0  0  0  0  0  0
    0.2542   -3.4843   -0.1182 H   0  0  0  0  0  0  0  0  0  0  0  0
   -0.7257   -4.8930    0.3300 H   0  0  0  0  0  0  0  0  0  0  0  0
   -0.1563   -0.9420    1.1402 N   0  0  0  0  0  0  0  0  0  0  0  0
    0.0261    0.4671    0.9001 C   0  0  2  0  0  0  0  0  0  0  0  0
   -1.2578    1.2034    1.2773 C   0  0  0  0  0  0  0  0  0  0  0  0
   -1.3793    2.4238    1.1928 O   0  0  0  0  0  0  0  0  0  0  0  0
    0.4962    0.7589   -0.5271 C   0  0  0  0  0  0  0  0  0  0  0  0
    2.1531    0.0992   -0.9039 S   0  0  0  0  0  0  0  0  0  0  0  0
    0.6533   -1.4855    1.4300 H   0  0  0  0  0  0  0  0  0  0  0  0
    0.8086    0.7864    1.5998 H   0  0  0  0  0  0  0  0  0  0  0  0
   -0.2000    0.3313   -1.2560 H   0  0  0  0  0  0  0  0  0  0  0  0
    0.5280    1.8407   -0.6957 H   0  0  0  0  0  0  0  0  0  0  0  0
    2.1892    0.5403   -2.1678 H   0  0  0  0  0  0  0  0  0  0  0  0
   -2.2405    0.3407    1.7417 N   0  0  0  0  0  0  0  0  0  0  0  0
   -3.5410    0.7998    2.1701 C   0  0  2  0  0  0  0  0  0  0  0  0
   -4.2882   -0.3887    2.7607 C   0  0  0  0  0  0  0  0  0  0  0  0
   -4.0143   -1.5557    2.4886 O   0  0  0  0  0  0  0  0  0  0  0  0
   -4.3194    1.4123    1.0162 C   0  0  0  0  0  0  0  0  0  0  0  0
   -2.0657   -0.6599    1.7467 H   0  0  0  0  0  0  0  0  0  0  0  0
   -3.3705    1.5492    2.9507 H   0  0  0  0  0  0  0  0  0  0  0  0
   -4.4999    0.6763    0.2242 H   0  0  0  0  0  0  0  0  0  0  0  0
   -5.2937    1.7856    1.3487 H   0  0  0  0  0  0  0  0  0  0  0  0
   -3.7670    2.2481    0.5735 H   0  0  0  0  0  0  0  0  0  0  0  0
   -5.3247    0.0082    3.5939 N   0  0  0  0  0  0  0  0  0  0  0  0
   -6.1898   -0.9337    4.2651 C   0  0  0  0  0  0  0  0  0  0  0  0
   -5.4676    0.9970    3.7775 H   0  0  0  0  0  0  0  0  0  0  0  0
   -7.0782   -1.1228    3.6447 H   0  0  0  0  0  0  0  0  0  0  0  0
   -5.6484   -1.8774    4.4273 H   0  0  0  0  0  0  0  0  0  0  0  0
   -6.5015   -0.5184    5.2348 H   0  0  0  0  0  0  0  0  0  0  0  0
  1  3  1  0  0  0  0
  1  7  1  0  0  0  0
  1  2  2  0  0  0  0
 29 30  1  0  0  0  0
 30 38  1  0  0  0  0
 30 31  2  0  0  0  0
  8  9  1  0  0  0  0
  9 17  1  0  0  0  0
  9 10  2  0  0  0  0
 18 19  1  0  0  0  0
 19 28  1  0  0  0  0
 19 20  2  0  0  0  0
 29 32  1  0  0  0  0
  8 11  1  0  0  0  0
 38 39  1  0  0  0  0
 18 21  1  0  0  0  0
 21 22  1  0  0  0  0
 28 29  1  0  0  0  0
  7  8  1  0  0  0  0
 17 18  1  0  0  0  0
  3  4  1  0  0  0  0
  3  5  1  0  0  0  0
  3  6  1  0  0  0  0
 32 35  1  0  0  0  0
 32 36  1  0  0  0  0
 32 37  1  0  0  0  0
 11 14  1  0  0  0  0
 11 15  1  0  0  0  0
 11 16  1  0  0  0  0
 39 41  1  0  0  0  0
 39 42  1  0  0  0  0
 39 43  1  0  0  0  0
 21 25  1  0  0  0  0
 21 26  1  0  0  0  0
 29 34  1  0  0  0  0
  8 13  1  0  0  0  0
 18 24  1  0  0  0  0
 38 40  1  0  0  0  0
  7 12  1  0  0  0  0
 28 33  1  0  0  0  0
 17 23  1  0  0  0  0
 22 27  1  0  0  0  0
M  END
$$$$

  -OEChem-05262214473D

 43 42  0     1  0  0  0  0  0999 V2000
   -2.8661   -4.7415    2.2943 C   0  0  0  0  0  0  0  0  0  0  0  0
   -2.0233   -5.5727    2.6109 O   0  0  0  0  0  0  0  0  0  0  0  0
   -4.3078   -5.0134    2.5698 C   0  0  0  0  0  0  0  0  0  0  0  0
   -4.8057   -5.5295    1.7332 H   0  0  0  0  0  0  0  0  0  0  0  0
   -4.4526   -5.6688    3.4436 H   0  0  0  0  0  0  0  0  0  0  0  0
   -4.9255   -4.1233    2.7700 H   0  0  0  0  0  0  0  0  0  0  0  0
   -2.6241   -3.5219    1.6838 N   0  0  0  0  0  0  0  0  0  0  0  0
   -1.3070   -3.0608    1.3315 C   0  0  2  0  0  0  0  0  0  0  0  0
   -1.3931   -1.5680    1.0422 C   0  0  0  0  0  0  0  0  0  0  0  0
   -2.4385   -1.0059    0.7226 O   0  0  0  0  0  0  0  0  0  0  0  0
   -0.7590   -3.8164    0.1309 C   0  0  0  0  0  0  0  0  0  0  0  0
   -3.4188   -2.9207    1.4735 H   0  0  0  0  0  0  0  0  0  0  0  0
   -0.6690   -3.2277    2.2062 H   0  0  0  0  0  0  0  0  0  0  0  0
   -1.3852   -3.6613   -0.7553 H   0  0  0  0  0  0  0  0  0  0  0  0
    0.2542   -3.4843   -0.1182 H   0  0  0  0  0  0  0  0  0  0  0  0
   -0.7257   -4.8930    0.3300 H   0  0  0  0  0  0  0  0  0  0  0  0
   -0.1563   -0.9420    1.1402 N   0  0  0  0  0  0  0  0  0  0  0  0
    0.0261    0.4671    0.9001 C   0  0  2  0  0  0  0  0  0  0  0  0
   -1.2578    1.2034    1.2773 C   0  0  0  0  0  0  0  0  0  0  0  0
   -1.4829    2.3671    0.9509 O   0  0  0  0  0  0  0  0  0  0  0  0
    0.4962    0.7589   -0.5271 C   0  0  0  0  0  0  0  0  0  0  0  0
    2.1531    0.0992   -0.9039 S   0  0  0  0  0  0  0  0  0  0  0  0
    0.6533   -1.4855    1.4300 H   0  0  0  0  0  0  0  0  0  0  0  0
    0.8086    0.7864    1.5998 H   0  0  0  0  0  0  0  0  0  0  0  0
   -0.2000    0.3313   -1.2560 H   0  0  0  0  0  0  0  0  0  0  0  0
    0.5280    1.8407   -0.6957 H   0  0  0  0  0  0  0  0  0  0  0  0
    2.1892    0.5403   -2.1678 H   0  0  0  0  0  0  0  0  0  0  0  0
   -2.1089    0.4170    2.0406 N   0  0  0  0  0  0  0  0  0  0  0  0
   -3.3817    0.8938    2.5288 C   0  0  2  0  0  0  0  0  0  0  0  0
   -3.9596   -0.1701    3.4527 C   0  0  0  0  0  0  0  0  0  0  0  0
   -3.6297   -1.3532    3.4024 O   0  0  0  0  0  0  0  0  0  0  0  0
   -4.3358    1.1955    1.3836 C   0  0  0  0  0  0  0  0  0  0  0  0
   -1.8576   -0.5476    2.2360 H   0  0  0  0  0  0  0  0  0  0  0  0
   -3.1793    1.8052    3.1019 H   0  0  0  0  0  0  0  0  0  0  0  0
   -4.5504    0.2942    0.7979 H   0  0  0  0  0  0  0  0  0  0  0  0
   -5.2902    1.5840    1.7542 H   0  0  0  0  0  0  0  0  0  0  0  0
   -3.9059    1.9391    0.7038 H   0  0  0  0  0  0  0  0  0  0  0  0
   -4.9185    0.3491    4.3112 N   0  0  0  0  0  0  0  0  0  0  0  0
   -5.6228   -0.4627    5.2760 C   0  0  0  0  0  0  0  0  0  0  0  0
   -5.1152    1.3456    4.2966 H   0  0  0  0  0  0  0  0  0  0  0  0
   -6.5606   -0.8289    4.8330 H   0  0  0  0  0  0  0  0  0  0  0  0
   -4.9943   -1.3186    5.5632 H   0  0  0  0  0  0  0  0  0  0  0  0
   -5.8495    0.1410    6.1671 H   0  0  0  0  0  0  0  0  0  0  0  0
  1  3  1  0  0  0  0
  1  7  1  0  0  0  0
  1  2  2  0  0  0  0
 29 30  1  0  0  0  0
 30 38  1  0  0  0  0
 30 31  2  0  0  0  0
  8  9  1  0  0  0  0
  9 17  1  0  0  0  0
  9 10  2  0  0  0  0
 18 19  1  0  0  0  0
 19 28  1  0  0  0  0
 19 20  2  0  0  0  0
 29 32  1  0  0  0  0
  8 11  1  0  0  0  0
 38 39  1  0  0  0  0
 18 21  1  0  0  0  0
 21 22  1  0  0  0  0
 28 29  1  0  0  0  0
  7  8  1  0  0  0  0
 17 18  1  0  0  0  0
  3  4  1  0  0  0  0
  3  5  1  0  0  0  0
  3  6  1  0  0  0  0
 32 35  1  0  0  0  0
 32 36  1  0  0  0  0
 32 37  1  0  0  0  0
 11 14  1  0  0  0  0
 11 15  1  0  0  0  0
 11 16  1  0  0  0  0
 39 41  1  0  0  0  0
 39 42  1  0  0  0  0
 39 43  1  0  0  0  0
 21 25  1  0  0  0  0
 21 26  1  0  0  0  0
 29 34  1  0  0  0  0
  8 13  1  0  0  0  0
 18 24  1  0  0  0  0
 38 40  1  0  0  0  0
  7 12  1  0  0  0  0
 28 33  1  0  0  0  0
 17 23  1  0  0  0  0
 22 27  1  0  0  0  0
M  END
$$$$

  -OEChem-05262214473D

 43 42  0     1  0  0  0  0  0999 V2000
   -2.8661   -4.7415    2.2943 C   0  0  0  0  0  0  0  0  0  0  0  0
   -2.0233   -5.5727    2.6109 O   0  0  0  0  0  0  0  0  0  0  0  0
   -4.3078   -5.0134    2.5698 C   0  0  0  0  0  0  0  0  0  0  0  0
   -4.8057   -5.5295    1.7332 H   0  0  0  0  0  0  0  0  0  0  0  0
   -4.4526   -5.6688    3.4436 H   0  0  0  0  0  0  0  0  0  0  0  0
   -4.9255   -4.1233    2.7700 H   0  0  0  0  0  0  0  0  0  0  0  0
   -2.6241   -3.5219    1.6838 N   0  0  0  0  0  0  0  0  0  0  0  0
   -1.3070   -3.0608    1.3315 C   0  0  2  0  0  0  0  0  0  0  0  0
   -1.3931   -1.5680    1.0422 C   0  0  0  0  0  0  0  0  0  0  0  0
   -2.4385   -1.0059    0.7226 O   0  0  0  0  0  0  0  0  0  0  0  0
   -0.7590   -3.8164    0.1309 C   0  0  0  0  0  0  0  0  0  0  0  0
   -3.4188   -2.9207    1.4735 H   0  0  0  0  0  0  0  0  0  0  0  0
   -0.6690   -3.2277    2.2062 H   0  0  0  0  0  0  0  0  0  0  0  0
   -1.3852   -3.6613   -0.7553 H   0  0  0  0  0  0  0  0  0  0  0  0
    0.2542   -3.4843   -0.1182 H   0  0  0  0  0  0  0  0  0  0  0  0
   -0.7257   -4.8930    0.3300 H   0  0  0  0  0  0  0  0  0  0  0  0
   -0.1563   -0.9420    1.1402 N   0  0  0  0  0  0  0  0  0  0  0  0
    0.0261    0.4671    0.9001 C   0  0  2  0  0  0  0  0  0  0  0  0
   -1.2578    1.2034    1.2773 C   0  0  0  0  0  0  0  0  0  0  0  0
   -1.6095    2.2531    0.7426 O   0  0  0  0  0  0  0  0  0  0  0  0
    0.4962    0.7589   -0.5271 C   0  0  0  0  0  0  0  0  0  0  0  0
    2.1531    0.0992   -0.9039 S   0  0  0  0  0  0  0  0  0  0  0  0
    0.6533   -1.4855    1.4300 H   0  0  0  0  0  0  0  0  0  0  0  0
    0.8086    0.7864    1.5998 H   0  0  0  0  0  0  0  0  0  0  0  0
   -0.2000    0.3313   -1.2560 H   0  0  0  0  0  0  0  0  0  0  0  0
    0.5280    1.8407   -0.6957 H   0  0  0  0  0  0  0  0  0  0  0  0
    2.1892    0.5403   -2.1678 H   0  0  0  0  0  0  0  0  0  0  0  0
   -1.9495    0.5640    2.2963 N   0  0  0  0  0  0  0  0  0  0  0  0
   -3.1892    1.0729    2.8349 C   0  0  2  0  0  0  0  0  0  0  0  0
   -3.5698    0.2126    4.0326 C   0  0  0  0  0  0  0  0  0  0  0  0
   -3.1572   -0.9342    4.1929 O   0  0  0  0  0  0  0  0  0  0  0  0
   -4.2919    1.0651    1.7877 C   0  0  0  0  0  0  0  0  0  0  0  0
   -1.6026   -0.3193    2.6583 H   0  0  0  0  0  0  0  0  0  0  0  0
   -2.9921    2.0976    3.1683 H   0  0  0  0  0  0  0  0  0  0  0  0
   -4.5033    0.0468    1.4415 H   0  0  0  0  0  0  0  0  0  0  0  0
   -5.2233    1.4776    2.1893 H   0  0  0  0  0  0  0  0  0  0  0  0
   -4.0041    1.6601    0.9142 H   0  0  0  0  0  0  0  0  0  0  0  0
   -4.4585    0.8604    4.8791 N   0  0  0  0  0  0  0  0  0  0  0  0
   -4.9790    0.2484    6.0793 C   0  0  0  0  0  0  0  0  0  0  0  0
   -4.7323    1.8177    4.6782 H   0  0  0  0  0  0  0  0  0  0  0  0
   -5.9312   -0.2534    5.8523 H   0  0  0  0  0  0  0  0  0  0  0  0
   -4.2565   -0.4900    6.4571 H   0  0  0  0  0  0  0  0  0  0  0  0
   -5.1456    1.0224    6.8429 H   0  0  0  0  0  0  0  0  0  0  0  0
  1  3  1  0  0  0  0
  1  7  1  0  0  0  0
  1  2  2  0  0  0  0
 29 30  1  0  0  0  0
 30 38  1  0  0  0  0
 30 31  2  0  0  0  0
  8  9  1  0  0  0  0
  9 17  1  0  0  0  0
  9 10  2  0  0  0  0
 18 19  1  0  0  0  0
 19 28  1  0  0  0  0
 19 20  2  0  0  0  0
 29 32  1  0  0  0  0
  8 11  1  0  0  0  0
 38 39  1  0  0  0  0
 18 21  1  0  0  0  0
 21 22  1  0  0  0  0
 28 29  1  0  0  0  0
  7  8  1  0  0  0  0
 17 18  1  0  0  0  0
  3  4  1  0  0  0  0
  3  5  1  0  0  0  0
  3  6  1  0  0  0  0
 32 35  1  0  0  0  0
 32 36  1  0  0  0  0
 32 37  1  0  0  0  0
 11 14  1  0  0  0  0
 11 15  1  0  0  0  0
 11 16  1  0  0  0  0
 39 41  1  0  0  0  0
 39 42  1  0  0  0  0
 39 43  1  0  0  0  0
 21 25  1  0  0  0  0
 21 26  1  0  0  0  0
 29 34  1  0  0  0  0
  8 13  1  0  0  0  0
 18 24  1  0  0  0  0
 38 40  1  0  0  0  0
  7 12  1  0  0  0  0
 28 33  1  0  0  0  0
 17 23  1  0  0  0  0
 22 27  1  0  0  0  0
M  END
$$$$

  -OEChem-05262214473D

 43 42  0     1  0  0  0  0  0999 V2000
   -2.8661   -4.7415    2.2943 C   0  0  0  0  0  0  0  0  0  0  0  0
   -2.0233   -5.5727    2.6109 O   0  0  0  0  0  0  0  0  0  0  0  0
   -4.3078   -5.0134    2.5698 C   0  0  0  0  0  0  0  0  0  0  0  0
   -4.8057   -5.5295    1.7332 H   0  0  0  0  0  0  0  0  0  0  0  0
   -4.4526   -5.6688    3.4436 H   0  0  0  0  0  0  0  0  0  0  0  0
   -4.9255   -4.1233    2.7700 H   0  0  0  0  0  0  0  0  0  0  0  0
   -2.6241   -3.5219    1.6838 N   0  0  0  0  0  0  0  0  0  0  0  0
   -1.3070   -3.0608    1.3315 C   0  0  2  0  0  0  0  0  0  0  0  0
   -1.3931   -1.5680    1.0422 C   0  0  0  0  0  0  0  0  0  0  0  0
   -2.4385   -1.0059    0.7226 O   0  0  0  0  0  0  0  0  0  0  0  0
   -0.7590   -3.8164    0.1309 C   0  0  0  0  0  0  0  0  0  0  0  0
   -3.4188   -2.9207    1.4735 H   0  0  0  0  0  0  0  0  0  0  0  0
   -0.6690   -3.2277    2.2062 H   0  0  0  0  0  0  0  0  0  0  0  0
   -1.3852   -3.6613   -0.7553 H   0  0  0  0  0  0  0  0  0  0  0  0
    0.2542   -3.4843   -0.1182 H   0  0  0  0  0  0  0  0  0  0  0  0
   -0.7257   -4.8930    0.3300 H   0  0  0  0  0  0  0  0  0  0  0  0
   -0.1563   -0.9420    1.1402 N   0  0  0  0  0  0  0  0  0  0  0  0
    0.0261    0.4671    0.9001 C   0  0  2  0  0  0  0  0  0  0  0  0
   -1.2578    1.2034    1.2773 C   0  0  0  0  0  0  0  0  0  0  0  0
   -1.7505    2.0895    0.5819 O   0  0  0  0  0  0  0  0  0  0  0  0
    0.4962    0.7589   -0.5271 C   0  0  0  0  0  0  0  0  0  0  0  0
    2.1531    0.0992   -0.9039 S   0  0  0  0  0  0  0  0  0  0  0  0
    0.6533   -1.4855    1.4300 H   0  0  0  0  0  0  0  0  0  0  0  0
    0.8086    0.7864    1.5998 H   0  0  0  0  0  0  0  0  0  0  0  0
   -0.2000    0.3313   -1.2560 H   0  0  0  0  0  0  0  0  0  0  0  0
    0.5280    1.8407   -0.6957 H   0  0  0  0  0  0  0  0  0  0  0  0
    2.1892    0.5403   -2.1678 H   0  0  0  0  0  0  0  0  0  0  0  0
   -1.7729    0.7719    2.4914 N   0  0  0  0  0  0  0  0  0  0  0  0
   -2.9764    1.3247    3.0675 C   0  0  2  0  0  0  0  0  0  0  0  0
   -3.1454    0.7333    4.4608 C   0  0  0  0  0  0  0  0  0  0  0  0
   -2.6289   -0.3273    4.8065 O   0  0  0  0  0  0  0  0  0  0  0  0
   -4.1908    1.0298    2.2009 C   0  0  0  0  0  0  0  0  0  0  0  0
   -1.3183    0.0093    2.9847 H   0  0  0  0  0  0  0  0  0  0  0  0
   -2.8217    2.4064    3.1456 H   0  0  0  0  0  0  0  0  0  0  0  0
   -4.3616   -0.0492    2.1111 H   0  0  0  0  0  0  0  0  0  0  0  0
   -5.0977    1.4739    2.6244 H   0  0  0  0  0  0  0  0  0  0  0  0
   -4.0549    1.4300    1.1904 H   0  0  0  0  0  0  0  0  0  0  0  0
   -3.9759    1.5073    5.2591 N   0  0  0  0  0  0  0  0  0  0  0  0
   -4.3024    1.1511    6.6201 C   0  0  0  0  0  0  0  0  0  0  0  0
   -4.3451    2.3813    4.8963 H   0  0  0  0  0  0  0  0  0  0  0  0
   -5.2328    0.5644    6.6331 H   0  0  0  0  0  0  0  0  0  0  0  0
   -3.4853    0.5520    7.0483 H   0  0  0  0  0  0  0  0  0  0  0  0
   -4.4376    2.0658    7.2160 H   0  0  0  0  0  0  0  0  0  0  0  0
  1  3  1  0  0  0  0
  1  7  1  0  0  0  0
  1  2  2  0  0  0  0
 29 30  1  0  0  0  0
 30 38  1  0  0  0  0
 30 31  2  0  0  0  0
  8  9  1  0  0  0  0
  9 17  1  0  0  0  0
  9 10  2  0  0  0  0
 18 19  1  0  0  0  0
 19 28  1  0  0  0  0
 19 20  2  0  0  0  0
 29 32  1  0  0  0  0
  8 11  1  0  0  0  0
 38 39  1  0  0  0  0
 18 21  1  0  0  0  0
 21 22  1  0  0  0  0
 28 29  1  0  0  0  0
  7  8  1  0  0  0  0
 17 18  1  0  0  0  0
  3  4  1  0  0  0  0
  3  5  1  0  0  0  0
  3  6  1  0  0  0  0
 32 35  1  0  0  0  0
 32 36  1  0  0  0  0
 32 37  1  0  0  0  0
 11 14  1  0  0  0  0
 11 15  1  0  0  0  0
 11 16  1  0  0  0  0
 39 41  1  0  0  0  0
 39 42  1  0  0  0  0
 39 43  1  0  0  0  0
 21 25  1  0  0  0  0
 21 26  1  0  0  0  0
 29 34  1  0  0  0  0
  8 13  1  0  0  0  0
 18 24  1  0  0  0  0
 38 40  1  0  0  0  0
  7 12  1  0  0  0  0
 28 33  1  0  0  0  0
 17 23  1  0  0  0  0
 22 27  1  0  0  0  0
M  END
$$$$

  -OEChem-05262214473D

 43 42  0     1  0  0  0  0  0999 V2000
   -2.8661   -4.7415    2.2943 C   0  0  0  0  0  0  0  0  0  0  0  0
   -2.0233   -5.5727    2.6109 O   0  0  0  0  0  0  0  0  0  0  0  0
   -4.3078   -5.0134    2.5698 C   0  0  0  0  0  0  0  0  0  0  0  0
   -4.8057   -5.5295    1.7332 H   0  0  0  0  0  0  0  0  0  0  0  0
   -4.4526   -5.6688    3.4436 H   0  0  0  0  0  0  0  0  0  0  0  0
   -4.9255   -4.1233    2.7700 H   0  0  0  0  0  0  0  0  0  0  0  0
   -2.6241   -3.5219    1.6838 N   0  0  0  0  0  0  0  0  0  0  0  0
   -1.3070   -3.0608    1.3315 C   0  0  2  0  0  0  0  0  0  0  0  0
   -1.3931   -1.5680    1.0422 C   0  0  0  0  0  0  0  0  0  0  0  0
   -2.4385   -1.0059    0.7226 O   0  0  0  0  0  0  0  0  0  0  0  0
   -0.7590   -3.8164    0.1309 C   0  0  0  0  0  0  0  0  0  0  0  0
   -3.4188   -2.9207    1.4735 H   0  0  0  0  0  0  0  0  0  0  0  0
   -0.6690   -3.2277    2.2062 H   0  0  0  0  0  0  0  0  0  0  0  0
   -1.3852   -3.6613   -0.7553 H   0  0  0  0  0  0  0  0  0  0  0  0
    0.2542   -3.4843   -0.1182 H   0  0  0  0  0  0  0  0  0  0  0  0
   -0.7257   -4.8930    0.3300 H   0  0  0  0  0  0  0  0  0  0  0  0
   -0.1563   -0.9420    1.1402 N   0  0  0  0  0  0  0  0  0  0  0  0
    0.0261    0.4671    0.9001 C   0  0  2  0  0  0  0  0  0  0  0  0
   -1.2578    1.2034    1.2773 C   0  0  0  0  0  0  0  0  0  0  0  0
   -1.8962    1.8875    0.4800 O   0  0  0  0  0  0  0  0  0  0  0  0
    0.4962    0.7589   -0.5271 C   0  0  0  0  0  0  0  0  0  0  0  0
    2.1531    0.0992   -0.9039 S   0  0  0  0  0  0  0  0  0  0  0  0
    0.6533   -1.4855    1.4300 H   0  0  0  0  0  0  0  0  0  0  0  0
    0.8086    0.7864    1.5998 H   0  0  0  0  0  0  0  0  0  0  0  0
   -0.2000    0.3313   -1.2560 H   0  0  0  0  0  0  0  0  0  0  0  0
    0.5280    1.8407   -0.6957 H   0  0  0  0  0  0  0  0  0  0  0  0
    2.1892    0.5403   -2.1678 H   0  0  0  0  0  0  0  0  0  0  0  0
   -1.5914    1.0265    2.6126 N   0  0  0  0  0  0  0  0  0  0  0  0
   -2.7579    1.6322    3.2109 C   0  0  2  0  0  0  0  0  0  0  0  0
   -2.7153    1.3566    4.7082 C   0  0  0  0  0  0  0  0  0  0  0  0
   -2.0809    0.4262    5.2011 O   0  0  0  0  0  0  0  0  0  0  0  0
   -4.0392    1.0921    2.5951 C   0  0  0  0  0  0  0  0  0  0  0  0
   -1.0240    0.4159    3.1930 H   0  0  0  0  0  0  0  0  0  0  0  0
   -2.6797    2.7106    3.0351 H   0  0  0  0  0  0  0  0  0  0  0  0
   -4.1351    0.0129    2.7610 H   0  0  0  0  0  0  0  0  0  0  0  0
   -4.9218    1.5730    3.0297 H   0  0  0  0  0  0  0  0  0  0  0  0
   -4.0547    1.2647    1.5135 H   0  0  0  0  0  0  0  0  0  0  0  0
   -3.5037    2.2456    5.4251 N   0  0  0  0  0  0  0  0  0  0  0  0
   -3.6391    2.1841    6.8618 C   0  0  0  0  0  0  0  0  0  0  0  0
   -3.9798    2.9979    4.9360 H   0  0  0  0  0  0  0  0  0  0  0  0
   -4.5131    1.5690    7.1222 H   0  0  0  0  0  0  0  0  0  0  0  0
   -2.7332    1.7364    7.2964 H   0  0  0  0  0  0  0  0  0  0  0  0
   -3.7739    3.2001    7.2611 H   0  0  0  0  0  0  0  0  0  0  0  0
  1  3  1  0  0  0  0
  1  7  1  0  0  0  0
  1  2  2  0  0  0  0
 29 30  1  0  0  0  0
 30 38  1  0  0  0  0
 30 31  2  0  0  0  0
  8  9  1  0  0  0  0
  9 17  1  0  0  0  0
  9 10  2  0  0  0  0
 18 19  1  0  0  0  0
 19 28  1  0  0  0  0
 19 20  2  0  0  0  0
 29 32  1  0  0  0  0
  8 11  1  0  0  0  0
 38 39  1  0  0  0  0
 18 21  1  0  0  0  0
 21 22  1  0  0  0  0
 28 29  1  0  0  0  0
  7  8  1  0  0  0  0
 17 18  1  0  0  0  0
  3  4  1  0  0  0  0
  3  5  1  0  0  0  0
  3  6  1  0  0  0  0
 32 35  1  0  0  0  0
 32 36  1  0  0  0  0
 32 37  1  0  0  0  0
 11 14  1  0  0  0  0
 11 15  1  0  0  0  0
 11 16  1  0  0  0  0
 39 41  1  0  0  0  0
 39 42  1  0  0  0  0
 39 43  1  0  0  0  0
 21 25  1  0  0  0  0
 21 26  1  0  0  0  0
 29 34  1  0  0  0  0
  8 13  1  0  0  0  0
 18 24  1  0  0  0  0
 38 40  1  0  0  0  0
  7 12  1  0  0  0  0
 28 33  1  0  0  0  0
 17 23  1  0  0  0  0
 22 27  1  0  0  0  0
M  END
$$$$

  -OEChem-05262214473D

 43 42  0     1  0  0  0  0  0999 V2000
   -2.8661   -4.7415    2.2943 C   0  0  0  0  0  0  0  0  0  0  0  0
   -2.0233   -5.5727    2.6109 O   0  0  0  0  0  0  0  0  0  0  0  0
   -4.3078   -5.0134    2.5698 C   0  0  0  0  0  0  0  0  0  0  0  0
   -4.8057   -5.5295    1.7332 H   0  0  0  0  0  0  0  0  0  0  0  0
   -4.4526   -5.6688    3.4436 H   0  0  0  0  0  0  0  0  0  0  0  0
   -4.9255   -4.1233    2.7700 H   0  0  0  0  0  0  0  0  0  0  0  0
   -2.6241   -3.5219    1.6838 N   0  0  0  0  0  0  0  0  0  0  0  0
   -1.3070   -3.0608    1.3315 C   0  0  2  0  0  0  0  0  0  0  0  0
   -1.3931   -1.5680    1.0422 C   0  0  0  0  0  0  0  0  0  0  0  0
   -2.4385   -1.0059    0.7226 O   0  0  0  0  0  0  0  0  0  0  0  0
   -0.7590   -3.8164    0.1309 C   0  0  0  0  0  0  0  0  0  0  0  0
   -3.4188   -2.9207    1.4735 H   0  0  0  0  0  0  0  0  0  0  0  0
   -0.6690   -3.2277    2.2062 H   0  0  0  0  0  0  0  0  0  0  0  0
   -1.3852   -3.6613   -0.7553 H   0  0  0  0  0  0  0  0  0  0  0  0
    0.2542   -3.4843   -0.1182 H   0  0  0  0  0  0  0  0  0  0  0  0
   -0.7257   -4.8930    0.3300 H   0  0  0  0  0  0  0  0  0  0  0  0
   -0.1563   -0.9420    1.1402 N   0  0  0  0  0  0  0  0  0  0  0  0
    0.0261    0.4671    0.9001 C   0  0  2  0  0  0  0  0  0  0  0  0
   -1.2578    1.2034    1.2773 C   0  0  0  0  0  0  0  0  0  0  0  0
   -2.0369    1.6609    0.4436 O   0  0  0  0  0  0  0  0  0  0  0  0
    0.4962    0.7589   -0.5271 C   0  0  0  0  0  0  0  0  0  0  0  0
    2.1531    0.0992   -0.9039 S   0  0  0  0  0  0  0  0  0  0  0  0
    0.6533   -1.4855    1.4300 H   0  0  0  0  0  0  0  0  0  0  0  0
    0.8086    0.7864    1.5998 H   0  0  0  0  0  0  0  0  0  0  0  0
   -0.2000    0.3313   -1.2560 H   0  0  0  0  0  0  0  0  0  0  0  0
    0.5280    1.8407   -0.6957 H   0  0  0  0  0  0  0  0  0  0  0  0
    2.1892    0.5403   -2.1678 H   0  0  0  0  0  0  0  0  0  0  0  0
   -1.4171    1.3103    2.6516 N   0  0  0  0  0  0  0  0  0  0  0  0
   -2.5487    1.9743    3.2553 C   0  0  2  0  0  0  0  0  0  0  0  0
   -2.3088    2.0399    4.7578 C   0  0  0  0  0  0  0  0  0  0  0  0
   -1.5504    1.2749    5.3501 O   0  0  0  0  0  0  0  0  0  0  0  0
   -3.8477    1.2477    2.9434 C   0  0  0  0  0  0  0  0  0  0  0  0
   -0.7396    0.8728    3.2690 H   0  0  0  0  0  0  0  0  0  0  0  0
   -2.5758    2.9895    2.8446 H   0  0  0  0  0  0  0  0  0  0  0  0
   -3.8392    0.2287    3.3471 H   0  0  0  0  0  0  0  0  0  0  0  0
   -4.7076    1.7681    3.3778 H   0  0  0  0  0  0  0  0  0  0  0  0
   -4.0037    1.1753    1.8616 H   0  0  0  0  0  0  0  0  0  0  0  0
   -3.0741    3.0251    5.3660 N   0  0  0  0  0  0  0  0  0  0  0  0
   -3.0343    3.2768    6.7876 C   0  0  0  0  0  0  0  0  0  0  0  0
   -3.6615    3.6254    4.7947 H   0  0  0  0  0  0  0  0  0  0  0  0
   -3.8210    2.6917    7.2863 H   0  0  0  0  0  0  0  0  0  0  0  0
   -2.0515    2.9826    7.1845 H   0  0  0  0  0  0  0  0  0  0  0  0
   -3.1997    4.3480    6.9750 H   0  0  0  0  0  0  0  0  0  0  0  0
  1  3  1  0  0  0  0
  1  7  1  0  0  0  0
  1  2  2  0  0  0  0
 29 30  1  0  0  0  0
 30 38  1  0  0  0  0
 30 31  2  0  0  0  0
  8  9  1  0  0  0  0
  9 17  1  0  0  0  0
  9 10  2  0  0  0  0
 18 19  1  0  0  0  0
 19 28  1  0  0  0  0
 19 20  2  0  0  0  0
 29 32  1  0  0  0  0
  8 11  1  0  0  0  0
 38 39  1  0  0  0  0
 18 21  1  0  0  0  0
 21 22  1  0  0  0  0
 28 29  1  0  0  0  0
  7  8  1  0  0  0  0
 17 18  1  0  0  0  0
  3  4  1  0  0  0  0
  3  5  1  0  0  0  0
  3  6  1  0  0  0  0
 32 35  1  0  0  0  0
 32 36  1  0  0  0  0
 32 37  1  0  0  0  0
 11 14  1  0  0  0  0
 11 15  1  0  0  0  0
 11 16  1  0  0  0  0
 39 41  1  0  0  0  0
 39 42  1  0  0  0  0
 39 43  1  0  0  0  0
 21 25  1  0  0  0  0
 21 26  1  0  0  0  0
 29 34  1  0  0  0  0
  8 13  1  0  0  0  0
 18 24  1  0  0  0  0
 38 40  1  0  0  0  0
  7 12  1  0  0  0  0
 28 33  1  0  0  0  0
 17 23  1  0  0  0  0
 22 27  1  0  0  0  0
M  END
$$$$

  -OEChem-05262214473D

 43 42  0     1  0  0  0  0  0999 V2000
   -2.8661   -4.7415    2.2943 C   0  0  0  0  0  0  0  0  0  0  0  0
   -2.0233   -5.5727    2.6109 O   0  0  0  0  0  0  0  0  0  0  0  0
   -4.3078   -5.0134    2.5698 C   0  0  0  0  0  0  0  0  0  0  0  0
   -4.8057   -5.5295    1.7332 H   0  0  0  0  0  0  0  0  0  0  0  0
   -4.4526   -5.6688    3.4436 H   0  0  0  0  0  0  0  0  0  0  0  0
   -4.9255   -4.1233    2.7700 H   0  0  0  0  0  0  0  0  0  0  0  0
   -2.6241   -3.5219    1.6838 N   0  0  0  0  0  0  0  0  0  0  0  0
   -1.3070   -3.0608    1.3315 C   0  0  2  0  0  0  0  0  0  0  0  0
   -1.3931   -1.5680    1.0422 C   0  0  0  0  0  0  0  0  0  0  0  0
   -2.4385   -1.0059    0.7226 O   0  0  0  0  0  0  0  0  0  0  0  0
   -0.7590   -3.8164    0.1309 C   0  0  0  0  0  0  0  0  0  0  0  0
   -3.4188   -2.9207    1.4735 H   0  0  0  0  0  0  0  0  0  0  0  0
   -0.6690   -3.2277    2.2062 H   0  0  0  0  0  0  0  0  0  0  0  0
   -1.3852   -3.6613   -0.7553 H   0  0  0  0  0  0  0  0  0  0  0  0
    0.2542   -3.4843   -0.1182 H   0  0  0  0  0  0  0  0  0  0  0  0
   -0.7257   -4.8930    0.3300 H   0  0  0  0  0  0  0  0  0  0  0  0
   -0.1563   -0.9420    1.1402 N   0  0  0  0  0  0  0  0  0  0  0  0
    0.0261    0.4671    0.9001 C   0  0  2  0  0  0  0  0  0  0  0  0
   -1.2578    1.2034    1.2773 C   0  0  0  0  0  0  0  0  0  0  0  0
   -2.1628    1.4252    0.4753 O   0  0  0  0  0  0  0  0  0  0  0  0
    0.4962    0.7589   -0.5271 C   0  0  0  0  0  0  0  0  0  0  0  0
    2.1531    0.0992   -0.9039 S   0  0  0  0  0  0  0  0  0  0  0  0
    0.6533   -1.4855    1.4300 H   0  0  0  0  0  0  0  0  0  0  0  0
    0.8086    0.7864    1.5998 H   0  0  0  0  0  0  0  0  0  0  0  0
   -0.2000    0.3313   -1.2560 H   0  0  0  0  0  0  0  0  0  0  0  0
    0.5280    1.8407   -0.6957 H   0  0  0  0  0  0  0  0  0  0  0  0
    2.1892    0.5403   -2.1678 H   0  0  0  0  0  0  0  0  0  0  0  0
   -1.2621    1.6041    2.6058 N   0  0  0  0  0  0  0  0  0  0  0  0
   -2.3629    2.3279    3.1976 C   0  0  2  0  0  0  0  0  0  0  0  0
   -1.9537    2.7367    4.6064 C   0  0  0  0  0  0  0  0  0  0  0  0
   -1.0737    2.1610    5.2431 O   0  0  0  0  0  0  0  0  0  0  0  0
   -3.6292    1.4860    3.2221 C   0  0  0  0  0  0  0  0  0  0  0  0
   -0.4847    1.3488    3.2076 H   0  0  0  0  0  0  0  0  0  0  0  0
   -2.5169    3.2241    2.5868 H   0  0  0  0  0  0  0  0  0  0  0  0
   -3.4940    0.5836    3.8293 H   0  0  0  0  0  0  0  0  0  0  0  0
   -4.4698    2.0460    3.6449 H   0  0  0  0  0  0  0  0  0  0  0  0
   -3.9053    1.1680    2.2110 H   0  0  0  0  0  0  0  0  0  0  0  0
   -2.7163    3.7926    5.0857 N   0  0  0  0  0  0  0  0  0  0  0  0
   -2.5291    4.3548    6.4029 C   0  0  0  0  0  0  0  0  0  0  0  0
   -3.4117    4.2212    4.4819 H   0  0  0  0  0  0  0  0  0  0  0  0
   -3.2039    3.8561    7.1142 H   0  0  0  0  0  0  0  0  0  0  0  0
   -1.4866    4.2055    6.7203 H   0  0  0  0  0  0  0  0  0  0  0  0
   -2.7541    5.4312    6.3773 H   0  0  0  0  0  0  0  0  0  0  0  0
  1  3  1  0  0  0  0
  1  7  1  0  0  0  0
  1  2  2  0  0  0  0
 29 30  1  0  0  0  0
 30 38  1  0  0  0  0
 30 31  2  0  0  0  0
  8  9  1  0  0  0  0
  9 17  1  0  0  0  0
  9 10  2  0  0  0  0
 18 19  1  0  0  0  0
 19 28  1  0  0  0  0
 19 20  2  0  0  0  0
 29 32  1  0  0  0  0
  8 11  1  0  0  0  0
 38 39  1  0  0  0  0
 18 21  1  0  0  0  0
 21 22  1  0  0  0  0
 28 29  1  0  0  0  0
  7  8  1  0  0  0  0
 17 18  1  0  0  0  0
  3  4  1  0  0  0  0
  3  5  1  0  0  0  0
  3  6  1  0  0  0  0
 32 35  1  0  0  0  0
 32 36  1  0  0  0  0
 32 37  1  0  0  0  0
 11 14  1  0  0  0  0
 11 15  1  0  0  0  0
 11 16  1  0  0  0  0
 39 41  1  0  0  0  0
 39 42  1  0  0  0  0
 39 43  1  0  0  0  0
 21 25  1  0  0  0  0
 21 26  1  0  0  0  0
 29 34  1  0  0  0  0
  8 13  1  0  0  0  0
 18 24  1  0  0  0  0
 38 40  1  0  0  0  0
  7 12  1  0  0  0  0
 28 33  1  0  0  0  0
 17 23  1  0  0  0  0
 22 27  1  0  0  0  0
M  END
$$$$

  -OEChem-05262214473D

 43 42  0     1  0  0  0  0  0999 V2000
   -2.8661   -4.7415    2.2943 C   0  0  0  0  0  0  0  0  0  0  0  0
   -2.0233   -5.5727    2.6109 O   0  0  0  0  0  0  0  0  0  0  0  0
   -4.3078   -5.0134    2.5698 C   0  0  0  0  0  0  0  0  0  0  0  0
   -4.8057   -5.5295    1.7332 H   0  0  0  0  0  0  0  0  0  0  0  0
   -4.4526   -5.6688    3.4436 H   0  0  0  0  0  0  0  0  0  0  0  0
   -4.9255   -4.1233    2.7700 H   0  0  0  0  0  0  0  0  0  0  0  0
   -2.6241   -3.5219    1.6838 N   0  0  0  0  0  0  0  0  0  0  0  0
   -1.3070   -3.0608    1.3315 C   0  0  2  0  0  0  0  0  0  0  0  0
   -1.3931   -1.5680    1.0422 C   0  0  0  0  0  0  0  0  0  0  0  0
   -2.4385   -1.0059    0.7226 O   0  0  0  0  0  0  0  0  0  0  0  0
   -0.7590   -3.8164    0.1309 C   0  0  0  0  0  0  0  0  0  0  0  0
   -3.4188   -2.9207    1.4735 H   0  0  0  0  0  0  0  0  0  0  0  0
   -0.6690   -3.2277    2.2062 H   0  0  0  0  0  0  0  0  0  0  0  0
   -1.3852   -3.6613   -0.7553 H   0  0  0  0  0  0  0  0  0  0  0  0
    0.2542   -3.4843   -0.1182 H   0  0  0  0  0  0  0  0  0  0  0  0
   -0.7257   -4.8930    0.3300 H   0  0  0  0  0  0  0  0  0  0  0  0
   -0.1563   -0.9420    1.1402 N   0  0  0  0  0  0  0  0  0  0  0  0
    0.0261    0.4671    0.9001 C   0  0  2  0  0  0  0  0  0  0  0  0
   -1.2578    1.2034    1.2773 C   0  0  0  0  0  0  0  0  0  0  0  0
   -2.2653    1.1963    0.5729 O   0  0  0  0  0  0  0  0  0  0  0  0
    0.4962    0.7589   -0.5271 C   0  0  0  0  0  0  0  0  0  0  0  0
    2.1531    0.0992   -0.9039 S   0  0  0  0  0  0  0  0  0  0  0  0
    0.6533   -1.4855    1.4300 H   0  0  0  0  0  0  0  0  0  0  0  0
    0.8086    0.7864    1.5998 H   0  0  0  0  0  0  0  0  0  0  0  0
   -0.2000    0.3313   -1.2560 H   0  0  0  0  0  0  0  0  0  0  0  0
    0.5280    1.8407   -0.6957 H   0  0  0  0  0  0  0  0  0  0  0  0
    2.1892    0.5403   -2.1678 H   0  0  0  0  0  0  0  0  0  0  0  0
   -1.1368    1.8879    2.4783 N   0  0  0  0  0  0  0  0  0  0  0  0
   -2.2132    2.6687    3.0418 C   0  0  2  0  0  0  0  0  0  0  0  0
   -1.6741    3.3996    4.2643 C   0  0  0  0  0  0  0  0  0  0  0  0
   -0.6833    3.0241    4.8874 O   0  0  0  0  0  0  0  0  0  0  0  0
   -3.3985    1.7908    3.4121 C   0  0  0  0  0  0  0  0  0  0  0  0
   -0.2765    1.8115    3.0128 H   0  0  0  0  0  0  0  0  0  0  0  0
   -2.5073    3.3984    2.2795 H   0  0  0  0  0  0  0  0  0  0  0  0
   -3.1232    1.0533    4.1748 H   0  0  0  0  0  0  0  0  0  0  0  0
   -4.2245    2.3878    3.8127 H   0  0  0  0  0  0  0  0  0  0  0  0
   -3.7662    1.2432    2.5377 H   0  0  0  0  0  0  0  0  0  0  0  0
   -2.4548    4.4959    4.6033 N   0  0  0  0  0  0  0  0  0  0  0  0
   -2.1581    5.3446    5.7336 C   0  0  0  0  0  0  0  0  0  0  0  0
   -3.2475    4.7446    4.0190 H   0  0  0  0  0  0  0  0  0  0  0  0
   -2.7036    4.9828    6.6176 H   0  0  0  0  0  0  0  0  0  0  0  0
   -1.0770    5.3218    5.9353 H   0  0  0  0  0  0  0  0  0  0  0  0
   -2.4675    6.3760    5.5087 H   0  0  0  0  0  0  0  0  0  0  0  0
  1  3  1  0  0  0  0
  1  7  1  0  0  0  0
  1  2  2  0  0  0  0
 29 30  1  0  0  0  0
 30 38  1  0  0  0  0
 30 31  2  0  0  0  0
  8  9  1  0  0  0  0
  9 17  1  0  0  0  0
  9 10  2  0  0  0  0
 18 19  1  0  0  0  0
 19 28  1  0  0  0  0
 19 20  2  0  0  0  0
 29 32  1  0  0  0  0
  8 11  1  0  0  0  0
 38 39  1  0  0  0  0
 18 21  1  0  0  0  0
 21 22  1  0  0  0  0
 28 29  1  0  0  0  0
  7  8  1  0  0  0  0
 17 18  1  0  0  0  0
  3  4  1  0  0  0  0
  3  5  1  0  0  0  0
  3  6  1  0  0  0  0
 32 35  1  0  0  0  0
 32 36  1  0  0  0  0
 32 37  1  0  0  0  0
 11 14  1  0  0  0  0
 11 15  1  0  0  0  0
 11 16  1  0  0  0  0
 39 41  1  0  0  0  0
 39 42  1  0  0  0  0
 39 43  1  0  0  0  0
 21 25  1  0  0  0  0
 21 26  1  0  0  0  0
 29 34  1  0  0  0  0
  8 13  1  0  0  0  0
 18 24  1  0  0  0  0
 38 40  1  0  0  0  0
  7 12  1  0  0  0  0
 28 33  1  0  0  0  0
 17 23  1  0  0  0  0
 22 27  1  0  0  0  0
M  END
$$$$

  -OEChem-05262214473D

 43 42  0     1  0  0  0  0  0999 V2000
   -2.8661   -4.7415    2.2943 C   0  0  0  0  0  0  0  0  0  0  0  0
   -2.0233   -5.5727    2.6109 O   0  0  0  0  0  0  0  0  0  0  0  0
   -4.3078   -5.0134    2.5698 C   0  0  0  0  0  0  0  0  0  0  0  0
   -4.8057   -5.5295    1.7332 H   0  0  0  0  0  0  0  0  0  0  0  0
   -4.4526   -5.6688    3.4436 H   0  0  0  0  0  0  0  0  0  0  0  0
   -4.9255   -4.1233    2.7700 H   0  0  0  0  0  0  0  0  0  0  0  0
   -2.6241   -3.5219    1.6838 N   0  0  0  0  0  0  0  0  0  0  0  0
   -1.3070   -3.0608    1.3315 C   0  0  2  0  0  0  0  0  0  0  0  0
   -1.3931   -1.5680    1.0422 C   0  0  0  0  0  0  0  0  0  0  0  0
   -2.4385   -1.0059    0.7226 O   0  0  0  0  0  0  0  0  0  0  0  0
   -0.7590   -3.8164    0.1309 C   0  0  0  0  0  0  0  0  0  0  0  0
   -3.4188   -2.9207    1.4735 H   0  0  0  0  0  0  0  0  0  0  0  0
   -0.6690   -3.2277    2.2062 H   0  0  0  0  0  0  0  0  0  0  0  0
   -1.3852   -3.6613   -0.7553 H   0  0  0  0  0  0  0  0  0  0  0  0
    0.2542   -3.4843   -0.1182 H   0  0  0  0  0  0  0  0  0  0  0  0
   -0.7257   -4.8930    0.3300 H   0  0  0  0  0  0  0  0  0  0  0  0
   -0.1563   -0.9420    1.1402 N   0  0  0  0  0  0  0  0  0  0  0  0
    0.0261    0.4671    0.9001 C   0  0  2  0  0  0  0  0  0  0  0  0
   -1.2578    1.2034    1.2773 C   0  0  0  0  0  0  0  0  0  0  0  0
   -2.3376    0.9899    0.7298 O   0  0  0  0  0  0  0  0  0  0  0  0
    0.4962    0.7589   -0.5271 C   0  0  0  0  0  0  0  0  0  0  0  0
    2.1531    0.0992   -0.9039 S   0  0  0  0  0  0  0  0  0  0  0  0
    0.6533   -1.4855    1.4300 H   0  0  0  0  0  0  0  0  0  0  0  0
    0.8086    0.7864    1.5998 H   0  0  0  0  0  0  0  0  0  0  0  0
   -0.2000    0.3313   -1.2560 H   0  0  0  0  0  0  0  0  0  0  0  0
    0.5280    1.8407   -0.6957 H   0  0  0  0  0  0  0  0  0  0  0  0
    2.1892    0.5403   -2.1678 H   0  0  0  0  0  0  0  0  0  0  0  0
   -1.0499    2.1422    2.2778 N   0  0  0  0  0  0  0  0  0  0  0  0
   -2.1099    2.9735    2.7984 C   0  0  2  0  0  0  0  0  0  0  0  0
   -1.4891    3.9833    3.7547 C   0  0  0  0  0  0  0  0  0  0  0  0
   -0.4056    3.8054    4.3074 O   0  0  0  0  0  0  0  0  0  0  0  0
   -3.1715    2.1414    3.5006 C   0  0  0  0  0  0  0  0  0  0  0  0
   -0.1293    2.2294    2.6981 H   0  0  0  0  0  0  0  0  0  0  0  0
   -2.5474    3.5005    1.9435 H   0  0  0  0  0  0  0  0  0  0  0  0
   -2.7518    1.6060    4.3601 H   0  0  0  0  0  0  0  0  0  0  0  0
   -3.9885    2.7701    3.8698 H   0  0  0  0  0  0  0  0  0  0  0  0
   -3.5959    1.3958    2.8196 H   0  0  0  0  0  0  0  0  0  0  0  0
   -2.3072    5.0869    3.9517 N   0  0  0  0  0  0  0  0  0  0  0  0
   -1.9465    6.1788    4.8255 C   0  0  0  0  0  0  0  0  0  0  0  0
   -3.1802    5.1599    3.4375 H   0  0  0  0  0  0  0  0  0  0  0  0
   -2.3544    5.9950    5.8304 H   0  0  0  0  0  0  0  0  0  0  0  0
   -0.8507    6.2555    4.8831 H   0  0  0  0  0  0  0  0  0  0  0  0
   -2.3594    7.1178    4.4284 H   0  0  0  0  0  0  0  0  0  0  0  0
  1  3  1  0  0  0  0
  1  7  1  0  0  0  0
  1  2  2  0  0  0  0
 29 30  1  0  0  0  0
 30 38  1  0  0  0  0
 30 31  2  0  0  0  0
  8  9  1  0  0  0  0
  9 17  1  0  0  0  0
  9 10  2  0  0  0  0
 18 19  1  0  0  0  0
 19 28  1  0  0  0  0
 19 20  2  0  0  0  0
 29 32  1  0  0  0  0
  8 11  1  0  0  0  0
 38 39  1  0  0  0  0
 18 21  1  0  0  0  0
 21 22  1  0  0  0  0
 28 29  1  0  0  0  0
  7  8  1  0  0  0  0
 17 18  1  0  0  0  0
  3  4  1  0  0  0  0
  3  5  1  0  0  0  0
  3  6  1  0  0  0  0
 32 35  1  0  0  0  0
 32 36  1  0  0  0  0
 32 37  1  0  0  0  0
 11 14  1  0  0  0  0
 11 15  1  0  0  0  0
 11 16  1  0  0  0  0
 39 41  1  0  0  0  0
 39 42  1  0  0  0  0
 39 43  1  0  0  0  0
 21 25  1  0  0  0  0
 21 26  1  0  0  0  0
 29 34  1  0  0  0  0
  8 13  1  0  0  0  0
 18 24  1  0  0  0  0
 38 40  1  0  0  0  0
  7 12  1  0  0  0  0
 28 33  1  0  0  0  0
 17 23  1  0  0  0  0
 22 27  1  0  0  0  0
M  END
$$$$

  -OEChem-05262214473D

 43 42  0     1  0  0  0  0  0999 V2000
   -2.8661   -4.7415    2.2943 C   0  0  0  0  0  0  0  0  0  0  0  0
   -2.0233   -5.5727    2.6109 O   0  0  0  0  0  0  0  0  0  0  0  0
   -4.3078   -5.0134    2.5698 C   0  0  0  0  0  0  0  0  0  0  0  0
   -4.8057   -5.5295    1.7332 H   0  0  0  0  0  0  0  0  0  0  0  0
   -4.4526   -5.6688    3.4436 H   0  0  0  0  0  0  0  0  0  0  0  0
   -4.9255   -4.1233    2.7700 H   0  0  0  0  0  0  0  0  0  0  0  0
   -2.6241   -3.5219    1.6838 N   0  0  0  0  0  0  0  0  0  0  0  0
   -1.3070   -3.0608    1.3315 C   0  0  2  0  0  0  0  0  0  0  0  0
   -1.3931   -1.5680    1.0422 C   0  0  0  0  0  0  0  0  0  0  0  0
   -2.4385   -1.0059    0.7226 O   0  0  0  0  0  0  0  0  0  0  0  0
   -0.7590   -3.8164    0.1309 C   0  0  0  0  0  0  0  0  0  0  0  0
   -3.4188   -2.9207    1.4735 H   0  0  0  0  0  0  0  0  0  0  0  0
   -0.6690   -3.2277    2.2062 H   0  0  0  0  0  0  0  0  0  0  0  0
   -1.3852   -3.6613   -0.7553 H   0  0  0  0  0  0  0  0  0  0  0  0
    0.2542   -3.4843   -0.1182 H   0  0  0  0  0  0  0  0  0  0  0  0
   -0.7257   -4.8930    0.3300 H   0  0  0  0  0  0  0  0  0  0  0  0
   -0.1563   -0.9420    1.1402 N   0  0  0  0  0  0  0  0  0  0  0  0
    0.0261    0.4671    0.9001 C   0  0  2  0  0  0  0  0  0  0  0  0
   -1.2578    1.2034    1.2773 C   0  0  0  0  0  0  0  0  0  0  0  0
   -2.3746    0.8200    0.9353 O   0  0  0  0  0  0  0  0  0  0  0  0
    0.4962    0.7589   -0.5271 C   0  0  0  0  0  0  0  0  0  0  0  0
    2.1531    0.0992   -0.9039 S   0  0  0  0  0  0  0  0  0  0  0  0
    0.6533   -1.4855    1.4300 H   0  0  0  0  0  0  0  0  0  0  0  0
    0.8086    0.7864    1.5998 H   0  0  0  0  0  0  0  0  0  0  0  0
   -0.2000    0.3313   -1.2560 H   0  0  0  0  0  0  0  0  0  0  0  0
    0.5280    1.8407   -0.6957 H   0  0  0  0  0  0  0  0  0  0  0  0
    2.1892    0.5403   -2.1678 H   0  0  0  0  0  0  0  0  0  0  0  0
   -1.0072    2.3498    2.0179 N   0  0  0  0  0  0  0  0  0  0  0  0
   -2.0599    3.2217    2.4841 C   0  0  2  0  0  0  0  0  0  0  0  0
   -1.4112    4.4480    3.1124 C   0  0  0  0  0  0  0  0  0  0  0  0
   -0.2597    4.4516    3.5426 O   0  0  0  0  0  0  0  0  0  0  0  0
   -2.9636    2.5137    3.4815 C   0  0  0  0  0  0  0  0  0  0  0  0
   -0.0531    2.5740    2.2848 H   0  0  0  0  0  0  0  0  0  0  0  0
   -2.6347    3.5234    1.6017 H   0  0  0  0  0  0  0  0  0  0  0  0
   -2.4053    2.2038    4.3725 H   0  0  0  0  0  0  0  0  0  0  0  0
   -3.7779    3.1668    3.8124 H   0  0  0  0  0  0  0  0  0  0  0  0
   -3.4060    1.6154    3.0374 H   0  0  0  0  0  0  0  0  0  0  0  0
   -2.2838    5.5255    3.1753 N   0  0  0  0  0  0  0  0  0  0  0  0
   -1.9087    6.8005    3.7405 C   0  0  0  0  0  0  0  0  0  0  0  0
   -3.2142    5.4389    2.7771 H   0  0  0  0  0  0  0  0  0  0  0  0
   -2.1799    6.8239    4.8063 H   0  0  0  0  0  0  0  0  0  0  0  0
   -0.8230    6.9429    3.6354 H   0  0  0  0  0  0  0  0  0  0  0  0
   -2.4371    7.6063    3.2100 H   0  0  0  0  0  0  0  0  0  0  0  0
  1  3  1  0  0  0  0
  1  7  1  0  0  0  0
  1  2  2  0  0  0  0
 29 30  1  0  0  0  0
 30 38  1  0  0  0  0
 30 31  2  0  0  0  0
  8  9  1  0  0  0  0
  9 17  1  0  0  0  0
  9 10  2  0  0  0  0
 18 19  1  0  0  0  0
 19 28  1  0  0  0  0
 19 20  2  0  0  0  0
 29 32  1  0  0  0  0
  8 11  1  0  0  0  0
 38 39  1  0  0  0  0
 18 21  1  0  0  0  0
 21 22  1  0  0  0  0
 28 29  1  0  0  0  0
  7  8  1  0  0  0  0
 17 18  1  0  0  0  0
  3  4  1  0  0  0  0
  3  5  1  0  0  0  0
  3  6  1  0  0  0  0
 32 35  1  0  0  0  0
 32 36  1  0  0  0  0
 32 37  1  0  0  0  0
 11 14  1  0  0  0  0
 11 15  1  0  0  0  0
 11 16  1  0  0  0  0
 39 41  1  0  0  0  0
 39 42  1  0  0  0  0
 39 43  1  0  0  0  0
 21 25  1  0  0  0  0
 21 26  1  0  0  0  0
 29 34  1  0  0  0  0
  8 13  1  0  0  0  0
 18 24  1  0  0  0  0
 38 40  1  0  0  0  0
  7 12  1  0  0  0  0
 28 33  1  0  0  0  0
 17 23  1  0  0  0  0
 22 27  1  0  0  0  0
M  END
$$$$

  -OEChem-05262214473D

 43 42  0     1  0  0  0  0  0999 V2000
   -2.8661   -4.7415    2.2943 C   0  0  0  0  0  0  0  0  0  0  0  0
   -2.0233   -5.5727    2.6109 O   0  0  0  0  0  0  0  0  0  0  0  0
   -4.3078   -5.0134    2.5698 C   0  0  0  0  0  0  0  0  0  0  0  0
   -4.8057   -5.5295    1.7332 H   0  0  0  0  0  0  0  0  0  0  0  0
   -4.4526   -5.6688    3.4436 H   0  0  0  0  0  0  0  0  0  0  0  0
   -4.9255   -4.1233    2.7700 H   0  0  0  0  0  0  0  0  0  0  0  0
   -2.6241   -3.5219    1.6838 N   0  0  0  0  0  0  0  0  0  0  0  0
   -1.3070   -3.0608    1.3315 C   0  0  2  0  0  0  0  0  0  0  0  0
   -1.3931   -1.5680    1.0422 C   0  0  0  0  0  0  0  0  0  0  0  0
   -2.4385   -1.0059    0.7226 O   0  0  0  0  0  0  0  0  0  0  0  0
   -0.7590   -3.8164    0.1309 C   0  0  0  0  0  0  0  0  0  0  0  0
   -3.4188   -2.9207    1.4735 H   0  0  0  0  0  0  0  0  0  0  0  0
   -0.6690   -3.2277    2.2062 H   0  0  0  0  0  0  0  0  0  0  0  0
   -1.3852   -3.6613   -0.7553 H   0  0  0  0  0  0  0  0  0  0  0  0
    0.2542   -3.4843   -0.1182 H   0  0  0  0  0  0  0  0  0  0  0  0
   -0.7257   -4.8930    0.3300 H   0  0  0  0  0  0  0  0  0  0  0  0
   -0.1563   -0.9420    1.1402 N   0  0  0  0  0  0  0  0  0  0  0  0
    0.0261    0.4671    0.9001 C   0  0  2  0  0  0  0  0  0  0  0  0
   -1.2578    1.2034    1.2773 C   0  0  0  0  0  0  0  0  0  0  0  0
   -2.3739    0.6983    1.1753 O   0  0  0  0  0  0  0  0  0  0  0  0
    0.4962    0.7589   -0.5271 C   0  0  0  0  0  0  0  0  0  0  0  0
    2.1531    0.0992   -0.9039 S   0  0  0  0  0  0  0  0  0  0  0  0
    0.6533   -1.4855    1.4300 H   0  0  0  0  0  0  0  0  0  0  0  0
    0.8086    0.7864    1.5998 H   0  0  0  0  0  0  0  0  0  0  0  0
   -0.2000    0.3313   -1.2560 H   0  0  0  0  0  0  0  0  0  0  0  0
    0.5280    1.8407   -0.6957 H   0  0  0  0  0  0  0  0  0  0  0  0
    2.1892    0.5403   -2.1678 H   0  0  0  0  0  0  0  0  0  0  0  0
   -1.0116    2.4965    1.7164 N   0  0  0  0  0  0  0  0  0  0  0  0
   -2.0667    3.3962    2.1203 C   0  0  2  0  0  0  0  0  0  0  0  0
   -1.4459    4.7622    2.3811 C   0  0  0  0  0  0  0  0  0  0  0  0
   -0.2555    4.9187    2.6450 O   0  0  0  0  0  0  0  0  0  0  0  0
   -2.7890    2.8825    3.3562 C   0  0  0  0  0  0  0  0  0  0  0  0
   -0.0531    2.8218    1.8011 H   0  0  0  0  0  0  0  0  0  0  0  0
   -2.7630    3.4657    1.2775 H   0  0  0  0  0  0  0  0  0  0  0  0
   -2.1073    2.8061    4.2111 H   0  0  0  0  0  0  0  0  0  0  0  0
   -3.6069    3.5510    3.6443 H   0  0  0  0  0  0  0  0  0  0  0  0
   -3.2094    1.8871    3.1763 H   0  0  0  0  0  0  0  0  0  0  0  0
   -2.3861    5.7816    2.3270 N   0  0  0  0  0  0  0  0  0  0  0  0
   -2.0473    7.1674    2.5524 C   0  0  0  0  0  0  0  0  0  0  0  0
   -3.3473    5.5624    2.0827 H   0  0  0  0  0  0  0  0  0  0  0  0
   -2.1922    7.4128    3.6149 H   0  0  0  0  0  0  0  0  0  0  0  0
   -0.9959    7.3371    2.2772 H   0  0  0  0  0  0  0  0  0  0  0  0
   -2.6955    7.8081    1.9366 H   0  0  0  0  0  0  0  0  0  0  0  0
  1  3  1  0  0  0  0
  1  7  1  0  0  0  0
  1  2  2  0  0  0  0
 29 30  1  0  0  0  0
 30 38  1  0  0  0  0
 30 31  2  0  0  0  0
  8  9  1  0  0  0  0
  9 17  1  0  0  0  0
  9 10  2  0  0  0  0
 18 19  1  0  0  0  0
 19 28  1  0  0  0  0
 19 20  2  0  0  0  0
 29 32  1  0  0  0  0
  8 11  1  0  0  0  0
 38 39  1  0  0  0  0
 18 21  1  0  0  0  0
 21 22  1  0  0  0  0
 28 29  1  0  0  0  0
  7  8  1  0  0  0  0
 17 18  1  0  0  0  0
  3  4  1  0  0  0  0
  3  5  1  0  0  0  0
  3  6  1  0  0  0  0
 32 35  1  0  0  0  0
 32 36  1  0  0  0  0
 32 37  1  0  0  0  0
 11 14  1  0  0  0  0
 11 15  1  0  0  0  0
 11 16  1  0  0  0  0
 39 41  1  0  0  0  0
 39 42  1  0  0  0  0
 39 43  1  0  0  0  0
 21 25  1  0  0  0  0
 21 26  1  0  0  0  0
 29 34  1  0  0  0  0
  8 13  1  0  0  0  0
 18 24  1  0  0  0  0
 38 40  1  0  0  0  0
  7 12  1  0  0  0  0
 28 33  1  0  0  0  0
 17 23  1  0  0  0  0
 22 27  1  0  0  0  0
M  END
$$$$

  -OEChem-05262214473D

 43 42  0     1  0  0  0  0  0999 V2000
   -2.8661   -4.7415    2.2943 C   0  0  0  0  0  0  0  0  0  0  0  0
   -2.0233   -5.5727    2.6109 O   0  0  0  0  0  0  0  0  0  0  0  0
   -4.3078   -5.0134    2.5698 C   0  0  0  0  0  0  0  0  0  0  0  0
   -4.8057   -5.5295    1.7332 H   0  0  0  0  0  0  0  0  0  0  0  0
   -4.4526   -5.6688    3.4436 H   0  0  0  0  0  0  0  0  0  0  0  0
   -4.9255   -4.1233    2.7700 H   0  0  0  0  0  0  0  0  0  0  0  0
   -2.6241   -3.5219    1.6838 N   0  0  0  0  0  0  0  0  0  0  0  0
   -1.3070   -3.0608    1.3315 C   0  0  2  0  0  0  0  0  0  0  0  0
   -1.3931   -1.5680    1.0422 C   0  0  0  0  0  0  0  0  0  0  0  0
   -2.4385   -1.0059    0.7226 O   0  0  0  0  0  0  0  0  0  0  0  0
   -0.7590   -3.8164    0.1309 C   0  0  0  0  0  0  0  0  0  0  0  0
   -3.4188   -2.9207    1.4735 H   0  0  0  0  0  0  0  0  0  0  0  0
   -0.6690   -3.2277    2.2062 H   0  0  0  0  0  0  0  0  0  0  0  0
   -1.3852   -3.6613   -0.7553 H   0  0  0  0  0  0  0  0  0  0  0  0
    0.2542   -3.4843   -0.1182 H   0  0  0  0  0  0  0  0  0  0  0  0
   -0.7257   -4.8930    0.3300 H   0  0  0  0  0  0  0  0  0  0  0  0
   -0.1563   -0.9420    1.1402 N   0  0  0  0  0  0  0  0  0  0  0  0
    0.0261    0.4671    0.9001 C   0  0  2  0  0  0  0  0  0  0  0  0
   -1.2578    1.2034    1.2773 C   0  0  0  0  0  0  0  0  0  0  0  0
   -2.3355    0.6330    1.4336 O   0  0  0  0  0  0  0  0  0  0  0  0
    0.4962    0.7589   -0.5271 C   0  0  0  0  0  0  0  0  0  0  0  0
    2.1531    0.0992   -0.9039 S   0  0  0  0  0  0  0  0  0  0  0  0
    0.6533   -1.4855    1.4300 H   0  0  0  0  0  0  0  0  0  0  0  0
    0.8086    0.7864    1.5998 H   0  0  0  0  0  0  0  0  0  0  0  0
   -0.2000    0.3313   -1.2560 H   0  0  0  0  0  0  0  0  0  0  0  0
    0.5280    1.8407   -0.6957 H   0  0  0  0  0  0  0  0  0  0  0  0
    2.1892    0.5403   -2.1678 H   0  0  0  0  0  0  0  0  0  0  0  0
   -1.0629    2.5723    1.3938 N   0  0  0  0  0  0  0  0  0  0  0  0
   -2.1298    3.4851    1.7318 C   0  0  2  0  0  0  0  0  0  0  0  0
   -1.5907    4.9043    1.6108 C   0  0  0  0  0  0  0  0  0  0  0  0
   -0.3933    5.1748    1.6759 O   0  0  0  0  0  0  0  0  0  0  0  0
   -2.6595    3.2226    3.1330 C   0  0  0  0  0  0  0  0  0  0  0  0
   -0.1293    2.9559    1.2800 H   0  0  0  0  0  0  0  0  0  0  0  0
   -2.9238    3.3311    0.9929 H   0  0  0  0  0  0  0  0  0  0  0  0
   -1.8781    3.3718    3.8871 H   0  0  0  0  0  0  0  0  0  0  0  0
   -3.4873    3.8965    3.3770 H   0  0  0  0  0  0  0  0  0  0  0  0
   -3.0195    2.1923    3.2269 H   0  0  0  0  0  0  0  0  0  0  0  0
   -2.6071    5.8380    1.4647 N   0  0  0  0  0  0  0  0  0  0  0  0
   -2.3528    7.2545    1.3423 C   0  0  0  0  0  0  0  0  0  0  0  0
   -3.5704    5.5222    1.4017 H   0  0  0  0  0  0  0  0  0  0  0  0
   -2.3903    7.7216    2.3375 H   0  0  0  0  0  0  0  0  0  0  0  0
   -1.3575    7.4114    0.9010 H   0  0  0  0  0  0  0  0  0  0  0  0
   -3.1169    7.7094    0.6948 H   0  0  0  0  0  0  0  0  0  0  0  0
  1  3  1  0  0  0  0
  1  7  1  0  0  0  0
  1  2  2  0  0  0  0
 29 30  1  0  0  0  0
 30 38  1  0  0  0  0
 30 31  2  0  0  0  0
  8  9  1  0  0  0  0
  9 17  1  0  0  0  0
  9 10  2  0  0  0  0
 18 19  1  0  0  0  0
 19 28  1  0  0  0  0
 19 20  2  0  0  0  0
 29 32  1  0  0  0  0
  8 11  1  0  0  0  0
 38 39  1  0  0  0  0
 18 21  1  0  0  0  0
 21 22  1  0  0  0  0
 28 29  1  0  0  0  0
  7  8  1  0  0  0  0
 17 18  1  0  0  0  0
  3  4  1  0  0  0  0
  3  5  1  0  0  0  0
  3  6  1  0  0  0  0
 32 35  1  0  0  0  0
 32 36  1  0  0  0  0
 32 37  1  0  0  0  0
 11 14  1  0  0  0  0
 11 15  1  0  0  0  0
 11 16  1  0  0  0  0
 39 41  1  0  0  0  0
 39 42  1  0  0  0  0
 39 43  1  0  0  0  0
 21 25  1  0  0  0  0
 21 26  1  0  0  0  0
 29 34  1  0  0  0  0
  8 13  1  0  0  0  0
 18 24  1  0  0  0  0
 38 40  1  0  0  0  0
  7 12  1  0  0  0  0
 28 33  1  0  0  0  0
 17 23  1  0  0  0  0
 22 27  1  0  0  0  0
M  END
$$$$

  -OEChem-05262214473D

 43 42  0     1  0  0  0  0  0999 V2000
   -2.8661   -4.7415    2.2943 C   0  0  0  0  0  0  0  0  0  0  0  0
   -2.0233   -5.5727    2.6109 O   0  0  0  0  0  0  0  0  0  0  0  0
   -4.3078   -5.0134    2.5698 C   0  0  0  0  0  0  0  0  0  0  0  0
   -4.8057   -5.5295    1.7332 H   0  0  0  0  0  0  0  0  0  0  0  0
   -4.4526   -5.6688    3.4436 H   0  0  0  0  0  0  0  0  0  0  0  0
   -4.9255   -4.1233    2.7700 H   0  0  0  0  0  0  0  0  0  0  0  0
   -2.6241   -3.5219    1.6838 N   0  0  0  0  0  0  0  0  0  0  0  0
   -1.3070   -3.0608    1.3315 C   0  0  2  0  0  0  0  0  0  0  0  0
   -1.3931   -1.5680    1.0422 C   0  0  0  0  0  0  0  0  0  0  0  0
   -2.4385   -1.0059    0.7226 O   0  0  0  0  0  0  0  0  0  0  0  0
   -0.7590   -3.8164    0.1309 C   0  0  0  0  0  0  0  0  0  0  0  0
   -3.4188   -2.9207    1.4735 H   0  0  0  0  0  0  0  0  0  0  0  0
   -0.6690   -3.2277    2.2062 H   0  0  0  0  0  0  0  0  0  0  0  0
   -1.3852   -3.6613   -0.7553 H   0  0  0  0  0  0  0  0  0  0  0  0
    0.2542   -3.4843   -0.1182 H   0  0  0  0  0  0  0  0  0  0  0  0
   -0.7257   -4.8930    0.3300 H   0  0  0  0  0  0  0  0  0  0  0  0
   -0.1563   -0.9420    1.1402 N   0  0  0  0  0  0  0  0  0  0  0  0
    0.0261    0.4671    0.9001 C   0  0  2  0  0  0  0  0  0  0  0  0
   -1.0847    1.2378    1.6107 C   0  0  0  0  0  0  0  0  0  0  0  0
   -1.9777    0.6870    2.2514 O   0  0  0  0  0  0  0  0  0  0  0  0
    0.1341    0.7948   -0.5912 C   0  0  0  0  0  0  0  0  0  0  0  0
    1.6091    0.0862   -1.3940 S   0  0  0  0  0  0  0  0  0  0  0  0
    0.6533   -1.4855    1.4300 H   0  0  0  0  0  0  0  0  0  0  0  0
    0.9740    0.7286    1.3867 H   0  0  0  0  0  0  0  0  0  0  0  0
   -0.7430    0.4230   -1.1309 H   0  0  0  0  0  0  0  0  0  0  0  0
    0.1734    1.8803   -0.7328 H   0  0  0  0  0  0  0  0  0  0  0  0
    1.3459    0.5736   -2.6132 H   0  0  0  0  0  0  0  0  0  0  0  0
   -0.9748    2.6084    1.4241 N   0  0  0  0  0  0  0  0  0  0  0  0
   -1.9138    3.5493    1.9889 C   0  0  2  0  0  0  0  0  0  0  0  0
   -1.5768    4.9324    1.4476 C   0  0  0  0  0  0  0  0  0  0  0  0
   -0.4666    5.2300    1.0118 O   0  0  0  0  0  0  0  0  0  0  0  0
   -1.8660    3.5339    3.5088 C   0  0  0  0  0  0  0  0  0  0  0  0
   -0.1841    2.9808    0.9065 H   0  0  0  0  0  0  0  0  0  0  0  0
   -2.9084    3.2520    1.6392 H   0  0  0  0  0  0  0  0  0  0  0  0
   -0.8770    3.8292    3.8778 H   0  0  0  0  0  0  0  0  0  0  0  0
   -2.5985    4.2270    3.9358 H   0  0  0  0  0  0  0  0  0  0  0  0
   -2.0794    2.5315    3.8953 H   0  0  0  0  0  0  0  0  0  0  0  0
   -2.6491    5.8077    1.5483 N   0  0  0  0  0  0  0  0  0  0  0  0
   -2.5762    7.1832    1.1139 C   0  0  0  0  0  0  0  0  0  0  0  0
   -3.5381    5.4699    1.9051 H   0  0  0  0  0  0  0  0  0  0  0  0
   -2.2829    7.8208    1.9609 H   0  0  0  0  0  0  0  0  0  0  0  0
   -1.8303    7.2748    0.3106 H   0  0  0  0  0  0  0  0  0  0  0  0
   -3.5600    7.5017    0.7387 H   0  0  0  0  0  0  0  0  0  0  0  0
  1  3  1  0  0  0  0
  1  7  1  0  0  0  0
  1  2  2  0  0  0  0
 29 30  1  0  0  0  0
 30 38  1  0  0  0  0
 30 31  2  0  0  0  0
  8  9  1  0  0  0  0
  9 17  1  0  0  0  0
  9 10  2  0  0  0  0
 18 19  1  0  0  0  0
 19 28  1  0  0  0  0
 19 20  2  0  0  0  0
 29 32  1  0  0  0  0
  8 11  1  0  0  0  0
 38 39  1  0  0  0  0
 18 21  1  0  0  0  0
 21 22  1  0  0  0  0
 28 29  1  0  0  0  0
  7  8  1  0  0  0  0
 17 18  1  0  0  0  0
  3  4  1  0  0  0  0
  3  5  1  0  0  0  0
  3  6  1  0  0  0  0
 32 35  1  0  0  0  0
 32 36  1  0  0  0  0
 32 37  1  0  0  0  0
 11 14  1  0  0  0  0
 11 15  1  0  0  0  0
 11 16  1  0  0  0  0
 39 41  1  0  0  0  0
 39 42  1  0  0  0  0
 39 43  1  0  0  0  0
 21 25  1  0  0  0  0
 21 26  1  0  0  0  0
 29 34  1  0  0  0  0
  8 13  1  0  0  0  0
 18 24  1  0  0  0  0
 38 40  1  0  0  0  0
  7 12  1  0  0  0  0
 28 33  1  0  0  0  0
 17 23  1  0  0  0  0
 22 27  1  0  0  0  0
M  END
$$$$

  -OEChem-05262214473D

 43 42  0     1  0  0  0  0  0999 V2000
   -2.8661   -4.7415    2.2943 C   0  0  0  0  0  0  0  0  0  0  0  0
   -2.0233   -5.5727    2.6109 O   0  0  0  0  0  0  0  0  0  0  0  0
   -4.3078   -5.0134    2.5698 C   0  0  0  0  0  0  0  0  0  0  0  0
   -4.8057   -5.5295    1.7332 H   0  0  0  0  0  0  0  0  0  0  0  0
   -4.4526   -5.6688    3.4436 H   0  0  0  0  0  0  0  0  0  0  0  0
   -4.9255   -4.1233    2.7700 H   0  0  0  0  0  0  0  0  0  0  0  0
   -2.6241   -3.5219    1.6838 N   0  0  0  0  0  0  0  0  0  0  0  0
   -1.3070   -3.0608    1.3315 C   0  0  2  0  0  0  0  0  0  0  0  0
   -1.3931   -1.5680    1.0422 C   0  0  0  0  0  0  0  0  0  0  0  0
   -2.4385   -1.0059    0.7226 O   0  0  0  0  0  0  0  0  0  0  0  0
   -0.7590   -3.8164    0.1309 C   0  0  0  0  0  0  0  0  0  0  0  0
   -3.4188   -2.9207    1.4735 H   0  0  0  0  0  0  0  0  0  0  0  0
   -0.6690   -3.2277    2.2062 H   0  0  0  0  0  0  0  0  0  0  0  0
   -1.3852   -3.6613   -0.7553 H   0  0  0  0  0  0  0  0  0  0  0  0
    0.2542   -3.4843   -0.1182 H   0  0  0  0  0  0  0  0  0  0  0  0
   -0.7257   -4.8930    0.3300 H   0  0  0  0  0  0  0  0  0  0  0  0
   -0.1563   -0.9420    1.1402 N   0  0  0  0  0  0  0  0  0  0  0  0
    0.0261    0.4671    0.9001 C   0  0  2  0  0  0  0  0  0  0  0  0
   -1.0847    1.2378    1.6107 C   0  0  0  0  0  0  0  0  0  0  0  0
   -1.8139    0.7303    2.4605 O   0  0  0  0  0  0  0  0  0  0  0  0
    0.1341    0.7948   -0.5912 C   0  0  0  0  0  0  0  0  0  0  0  0
    1.6091    0.0862   -1.3940 S   0  0  0  0  0  0  0  0  0  0  0  0
    0.6533   -1.4855    1.4300 H   0  0  0  0  0  0  0  0  0  0  0  0
    0.9740    0.7286    1.3867 H   0  0  0  0  0  0  0  0  0  0  0  0
   -0.7430    0.4230   -1.1309 H   0  0  0  0  0  0  0  0  0  0  0  0
    0.1734    1.8803   -0.7328 H   0  0  0  0  0  0  0  0  0  0  0  0
    1.3459    0.5736   -2.6132 H   0  0  0  0  0  0  0  0  0  0  0  0
   -1.1809    2.5489    1.1664 N   0  0  0  0  0  0  0  0  0  0  0  0
   -2.1627    3.4753    1.6800 C   0  0  2  0  0  0  0  0  0  0  0  0
   -2.0794    4.7535    0.8560 C   0  0  0  0  0  0  0  0  0  0  0  0
   -1.0784    5.0778    0.2204 O   0  0  0  0  0  0  0  0  0  0  0  0
   -1.9327    3.7638    3.1553 C   0  0  0  0  0  0  0  0  0  0  0  0
   -0.5141    2.8955    0.4832 H   0  0  0  0  0  0  0  0  0  0  0  0
   -3.1435    3.0096    1.5346 H   0  0  0  0  0  0  0  0  0  0  0  0
   -0.9548    4.2306    3.3207 H   0  0  0  0  0  0  0  0  0  0  0  0
   -2.6946    4.4440    3.5501 H   0  0  0  0  0  0  0  0  0  0  0  0
   -1.9633    2.8396    3.7425 H   0  0  0  0  0  0  0  0  0  0  0  0
   -3.2388    5.5106    0.9487 N   0  0  0  0  0  0  0  0  0  0  0  0
   -3.4016    6.7737    0.2675 C   0  0  0  0  0  0  0  0  0  0  0  0
   -4.0262    5.1554    1.4831 H   0  0  0  0  0  0  0  0  0  0  0  0
   -3.0969    7.5930    0.9353 H   0  0  0  0  0  0  0  0  0  0  0  0
   -2.7755    6.7859   -0.6368 H   0  0  0  0  0  0  0  0  0  0  0  0
   -4.4566    6.9044   -0.0152 H   0  0  0  0  0  0  0  0  0  0  0  0
  1  3  1  0  0  0  0
  1  7  1  0  0  0  0
  1  2  2  0  0  0  0
 29 30  1  0  0  0  0
 30 38  1  0  0  0  0
 30 31  2  0  0  0  0
  8  9  1  0  0  0  0
  9 17  1  0  0  0  0
  9 10  2  0  0  0  0
 18 19  1  0  0  0  0
 19 28  1  0  0  0  0
 19 20  2  0  0  0  0
 29 32  1  0  0  0  0
  8 11  1  0  0  0  0
 38 39  1  0  0  0  0
 18 21  1  0  0  0  0
 21 22  1  0  0  0  0
 28 29  1  0  0  0  0
  7  8  1  0  0  0  0
 17 18  1  0  0  0  0
  3  4  1  0  0  0  0
  3  5  1  0  0  0  0
  3  6  1  0  0  0  0
 32 35  1  0  0  0  0
 32 36  1  0  0  0  0
 32 37  1  0  0  0  0
 11 14  1  0  0  0  0
 11 15  1  0  0  0  0
 11 16  1  0  0  0  0
 39 41  1  0  0  0  0
 39 42  1  0  0  0  0
 39 43  1  0  0  0  0
 21 25  1  0  0  0  0
 21 26  1  0  0  0  0
 29 34  1  0  0  0  0
  8 13  1  0  0  0  0
 18 24  1  0  0  0  0
 38 40  1  0  0  0  0
  7 12  1  0  0  0  0
 28 33  1  0  0  0  0
 17 23  1  0  0  0  0
 22 27  1  0  0  0  0
M  END
$$$$

  -OEChem-05262214473D

 43 42  0     1  0  0  0  0  0999 V2000
   -2.8661   -4.7415    2.2943 C   0  0  0  0  0  0  0  0  0  0  0  0
   -2.0233   -5.5727    2.6109 O   0  0  0  0  0  0  0  0  0  0  0  0
   -4.3078   -5.0134    2.5698 C   0  0  0  0  0  0  0  0  0  0  0  0
   -4.8057   -5.5295    1.7332 H   0  0  0  0  0  0  0  0  0  0  0  0
   -4.4526   -5.6688    3.4436 H   0  0  0  0  0  0  0  0  0  0  0  0
   -4.9255   -4.1233    2.7700 H   0  0  0  0  0  0  0  0  0  0  0  0
   -2.6241   -3.5219    1.6838 N   0  0  0  0  0  0  0  0  0  0  0  0
   -1.3070   -3.0608    1.3315 C   0  0  2  0  0  0  0  0  0  0  0  0
   -1.3931   -1.5680    1.0422 C   0  0  0  0  0  0  0  0  0  0  0  0
   -2.4385   -1.0059    0.7226 O   0  0  0  0  0  0  0  0  0  0  0  0
   -0.7590   -3.8164    0.1309 C   0  0  0  0  0  0  0  0  0  0  0  0
   -3.4188   -2.9207    1.4735 H   0  0  0  0  0  0  0  0  0  0  0  0
   -0.6690   -3.2277    2.2062 H   0  0  0  0  0  0  0  0  0  0  0  0
   -1.3852   -3.6613   -0.7553 H   0  0  0  0  0  0  0  0  0  0  0  0
    0.2542   -3.4843   -0.1182 H   0  0  0  0  0  0  0  0  0  0  0  0
   -0.7257   -4.8930    0.3300 H   0  0  0  0  0  0  0  0  0  0  0  0
   -0.1563   -0.9420    1.1402 N   0  0  0  0  0  0  0  0  0  0  0  0
    0.0261    0.4671    0.9001 C   0  0  2  0  0  0  0  0  0  0  0  0
   -1.0847    1.2378    1.6107 C   0  0  0  0  0  0  0  0  0  0  0  0
   -1.6335    0.8313    2.6329 O   0  0  0  0  0  0  0  0  0  0  0  0
    0.1341    0.7948   -0.5912 C   0  0  0  0  0  0  0  0  0  0  0  0
    1.6091    0.0862   -1.3940 S   0  0  0  0  0  0  0  0  0  0  0  0
    0.6533   -1.4855    1.4300 H   0  0  0  0  0  0  0  0  0  0  0  0
    0.9740    0.7286    1.3867 H   0  0  0  0  0  0  0  0  0  0  0  0
   -0.7430    0.4230   -1.1309 H   0  0  0  0  0  0  0  0  0  0  0  0
    0.1734    1.8803   -0.7328 H   0  0  0  0  0  0  0  0  0  0  0  0
    1.3459    0.5736   -2.6132 H   0  0  0  0  0  0  0  0  0  0  0  0
   -1.4065    2.4180    0.9557 N   0  0  0  0  0  0  0  0  0  0  0  0
   -2.4345    3.3158    1.4280 C   0  0  2  0  0  0  0  0  0  0  0  0
   -2.6206    4.4087    0.3839 C   0  0  0  0  0  0  0  0  0  0  0  0
   -1.7545    4.7081   -0.4355 O   0  0  0  0  0  0  0  0  0  0  0  0
   -2.0709    3.9112    2.7793 C   0  0  0  0  0  0  0  0  0  0  0  0
   -0.8778    2.6937    0.1334 H   0  0  0  0  0  0  0  0  0  0  0  0
   -3.3550    2.7275    1.5099 H   0  0  0  0  0  0  0  0  0  0  0  0
   -1.1511    4.5042    2.7172 H   0  0  0  0  0  0  0  0  0  0  0  0
   -2.8640    4.5694    3.1492 H   0  0  0  0  0  0  0  0  0  0  0  0
   -1.9083    3.1225    3.5218 H   0  0  0  0  0  0  0  0  0  0  0  0
   -3.8510    5.0397    0.5024 N   0  0  0  0  0  0  0  0  0  0  0  0
   -4.2602    6.1195   -0.3651 C   0  0  0  0  0  0  0  0  0  0  0  0
   -4.5149    4.7134    1.1985 H   0  0  0  0  0  0  0  0  0  0  0  0
   -3.9898    7.0819    0.0939 H   0  0  0  0  0  0  0  0  0  0  0  0
   -3.7534    6.0215   -1.3365 H   0  0  0  0  0  0  0  0  0  0  0  0
   -5.3493    6.0776   -0.5139 H   0  0  0  0  0  0  0  0  0  0  0  0
  1  3  1  0  0  0  0
  1  7  1  0  0  0  0
  1  2  2  0  0  0  0
 29 30  1  0  0  0  0
 30 38  1  0  0  0  0
 30 31  2  0  0  0  0
  8  9  1  0  0  0  0
  9 17  1  0  0  0  0
  9 10  2  0  0  0  0
 18 19  1  0  0  0  0
 19 28  1  0  0  0  0
 19 20  2  0  0  0  0
 29 32  1  0  0  0  0
  8 11  1  0  0  0  0
 38 39  1  0  0  0  0
 18 21  1  0  0  0  0
 21 22  1  0  0  0  0
 28 29  1  0  0  0  0
  7  8  1  0  0  0  0
 17 18  1  0  0  0  0
  3  4  1  0  0  0  0
  3  5  1  0  0  0  0
  3  6  1  0  0  0  0
 32 35  1  0  0  0  0
 32 36  1  0  0  0  0
 32 37  1  0  0  0  0
 11 14  1  0  0  0  0
 11 15  1  0  0  0  0
 11 16  1  0  0  0  0
 39 41  1  0  0  0  0
 39 42  1  0  0  0  0
 39 43  1  0  0  0  0
 21 25  1  0  0  0  0
 21 26  1  0  0  0  0
 29 34  1  0  0  0  0
  8 13  1  0  0  0  0
 18 24  1  0  0  0  0
 38 40  1  0  0  0  0
  7 12  1  0  0  0  0
 28 33  1  0  0  0  0
 17 23  1  0  0  0  0
 22 27  1  0  0  0  0
M  END
$$$$

  -OEChem-05262214473D

 43 42  0     1  0  0  0  0  0999 V2000
   -2.8661   -4.7415    2.2943 C   0  0  0  0  0  0  0  0  0  0  0  0
   -2.0233   -5.5727    2.6109 O   0  0  0  0  0  0  0  0  0  0  0  0
   -4.3078   -5.0134    2.5698 C   0  0  0  0  0  0  0  0  0  0  0  0
   -4.8057   -5.5295    1.7332 H   0  0  0  0  0  0  0  0  0  0  0  0
   -4.4526   -5.6688    3.4436 H   0  0  0  0  0  0  0  0  0  0  0  0
   -4.9255   -4.1233    2.7700 H   0  0  0  0  0  0  0  0  0  0  0  0
   -2.6241   -3.5219    1.6838 N   0  0  0  0  0  0  0  0  0  0  0  0
   -1.3070   -3.0608    1.3315 C   0  0  2  0  0  0  0  0  0  0  0  0
   -1.3931   -1.5680    1.0422 C   0  0  0  0  0  0  0  0  0  0  0  0
   -2.4385   -1.0059    0.7226 O   0  0  0  0  0  0  0  0  0  0  0  0
   -0.7590   -3.8164    0.1309 C   0  0  0  0  0  0  0  0  0  0  0  0
   -3.4188   -2.9207    1.4735 H   0  0  0  0  0  0  0  0  0  0  0  0
   -0.6690   -3.2277    2.2062 H   0  0  0  0  0  0  0  0  0  0  0  0
   -1.3852   -3.6613   -0.7553 H   0  0  0  0  0  0  0  0  0  0  0  0
    0.2542   -3.4843   -0.1182 H   0  0  0  0  0  0  0  0  0  0  0  0
   -0.7257   -4.8930    0.3300 H   0  0  0  0  0  0  0  0  0  0  0  0
   -0.1563   -0.9420    1.1402 N   0  0  0  0  0  0  0  0  0  0  0  0
    0.0261    0.4671    0.9001 C   0  0  2  0  0  0  0  0  0  0  0  0
   -1.0847    1.2378    1.6107 C   0  0  0  0  0  0  0  0  0  0  0  0
   -1.4490    0.9830    2.7569 O   0  0  0  0  0  0  0  0  0  0  0  0
    0.1341    0.7948   -0.5912 C   0  0  0  0  0  0  0  0  0  0  0  0
    1.6091    0.0862   -1.3940 S   0  0  0  0  0  0  0  0  0  0  0  0
    0.6533   -1.4855    1.4300 H   0  0  0  0  0  0  0  0  0  0  0  0
    0.9740    0.7286    1.3867 H   0  0  0  0  0  0  0  0  0  0  0  0
   -0.7430    0.4230   -1.1309 H   0  0  0  0  0  0  0  0  0  0  0  0
    0.1734    1.8803   -0.7328 H   0  0  0  0  0  0  0  0  0  0  0  0
    1.3459    0.5736   -2.6132 H   0  0  0  0  0  0  0  0  0  0  0  0
   -1.6362    2.2248    0.8062 N   0  0  0  0  0  0  0  0  0  0  0  0
   -2.7108    3.0815    1.2502 C   0  0  2  0  0  0  0  0  0  0  0  0
   -3.1635    3.9217    0.0634 C   0  0  0  0  0  0  0  0  0  0  0  0
   -2.4486    4.1461   -0.9112 O   0  0  0  0  0  0  0  0  0  0  0  0
   -2.2713    3.9663    2.4064 C   0  0  0  0  0  0  0  0  0  0  0  0
   -1.2505    2.3891   -0.1190 H   0  0  0  0  0  0  0  0  0  0  0  0
   -3.5286    2.4249    1.5667 H   0  0  0  0  0  0  0  0  0  0  0  0
   -1.4525    4.6312    2.1083 H   0  0  0  0  0  0  0  0  0  0  0  0
   -3.0951    4.5947    2.7606 H   0  0  0  0  0  0  0  0  0  0  0  0
   -1.9180    3.3608    3.2481 H   0  0  0  0  0  0  0  0  0  0  0  0
   -4.4439    4.4272    0.2399 N   0  0  0  0  0  0  0  0  0  0  0  0
   -5.0933    5.2652   -0.7409 C   0  0  0  0  0  0  0  0  0  0  0  0
   -4.9709    4.1741    1.0706 H   0  0  0  0  0  0  0  0  0  0  0  0
   -4.9005    6.3224   -0.5061 H   0  0  0  0  0  0  0  0  0  0  0  0
   -4.6973    5.0337   -1.7407 H   0  0  0  0  0  0  0  0  0  0  0  0
   -6.1771    5.0776   -0.7234 H   0  0  0  0  0  0  0  0  0  0  0  0
  1  3  1  0  0  0  0
  1  7  1  0  0  0  0
  1  2  2  0  0  0  0
 29 30  1  0  0  0  0
 30 38  1  0  0  0  0
 30 31  2  0  0  0  0
  8  9  1  0  0  0  0
  9 17  1  0  0  0  0
  9 10  2  0  0  0  0
 18 19  1  0  0  0  0
 19 28  1  0  0  0  0
 19 20  2  0  0  0  0
 29 32  1  0  0  0  0
  8 11  1  0  0  0  0
 38 39  1  0  0  0  0
 18 21  1  0  0  0  0
 21 22  1  0  0  0  0
 28 29  1  0  0  0  0
  7  8  1  0  0  0  0
 17 18  1  0  0  0  0
  3  4  1  0  0  0  0
  3  5  1  0  0  0  0
  3  6  1  0  0  0  0
 32 35  1  0  0  0  0
 32 36  1  0  0  0  0
 32 37  1  0  0  0  0
 11 14  1  0  0  0  0
 11 15  1  0  0  0  0
 11 16  1  0  0  0  0
 39 41  1  0  0  0  0
 39 42  1  0  0  0  0
 39 43  1  0  0  0  0
 21 25  1  0  0  0  0
 21 26  1  0  0  0  0
 29 34  1  0  0  0  0
  8 13  1  0  0  0  0
 18 24  1  0  0  0  0
 38 40  1  0  0  0  0
  7 12  1  0  0  0  0
 28 33  1  0  0  0  0
 17 23  1  0  0  0  0
 22 27  1  0  0  0  0
M  END
$$$$

  -OEChem-05262214473D

 43 42  0     1  0  0  0  0  0999 V2000
   -2.8661   -4.7415    2.2943 C   0  0  0  0  0  0  0  0  0  0  0  0
   -2.0233   -5.5727    2.6109 O   0  0  0  0  0  0  0  0  0  0  0  0
   -4.3078   -5.0134    2.5698 C   0  0  0  0  0  0  0  0  0  0  0  0
   -4.8057   -5.5295    1.7332 H   0  0  0  0  0  0  0  0  0  0  0  0
   -4.4526   -5.6688    3.4436 H   0  0  0  0  0  0  0  0  0  0  0  0
   -4.9255   -4.1233    2.7700 H   0  0  0  0  0  0  0  0  0  0  0  0
   -2.6241   -3.5219    1.6838 N   0  0  0  0  0  0  0  0  0  0  0  0
   -1.3070   -3.0608    1.3315 C   0  0  2  0  0  0  0  0  0  0  0  0
   -1.3931   -1.5680    1.0422 C   0  0  0  0  0  0  0  0  0  0  0  0
   -2.4385   -1.0059    0.7226 O   0  0  0  0  0  0  0  0  0  0  0  0
   -0.7590   -3.8164    0.1309 C   0  0  0  0  0  0  0  0  0  0  0  0
   -3.4188   -2.9207    1.4735 H   0  0  0  0  0  0  0  0  0  0  0  0
   -0.6690   -3.2277    2.2062 H   0  0  0  0  0  0  0  0  0  0  0  0
   -1.3852   -3.6613   -0.7553 H   0  0  0  0  0  0  0  0  0  0  0  0
    0.2542   -3.4843   -0.1182 H   0  0  0  0  0  0  0  0  0  0  0  0
   -0.7257   -4.8930    0.3300 H   0  0  0  0  0  0  0  0  0  0  0  0
   -0.1563   -0.9420    1.1402 N   0  0  0  0  0  0  0  0  0  0  0  0
    0.0261    0.4671    0.9001 C   0  0  2  0  0  0  0  0  0  0  0  0
   -1.0847    1.2378    1.6107 C   0  0  0  0  0  0  0  0  0  0  0  0
   -1.2728    1.1750    2.8240 O   0  0  0  0  0  0  0  0  0  0  0  0
    0.1341    0.7948   -0.5912 C   0  0  0  0  0  0  0  0  0  0  0  0
    1.6091    0.0862   -1.3940 S   0  0  0  0  0  0  0  0  0  0  0  0
    0.6533   -1.4855    1.4300 H   0  0  0  0  0  0  0  0  0  0  0  0
    0.9740    0.7286    1.3867 H   0  0  0  0  0  0  0  0  0  0  0  0
   -0.7430    0.4230   -1.1309 H   0  0  0  0  0  0  0  0  0  0  0  0
    0.1734    1.8803   -0.7328 H   0  0  0  0  0  0  0  0  0  0  0  0
    1.3459    0.5736   -2.6132 H   0  0  0  0  0  0  0  0  0  0  0  0
   -1.8544    1.9823    0.7282 N   0  0  0  0  0  0  0  0  0  0  0  0
   -2.9727    2.7885    1.1587 C   0  0  2  0  0  0  0  0  0  0  0  0
   -3.6711    3.3256   -0.0836 C   0  0  0  0  0  0  0  0  0  0  0  0
   -3.1135    3.4302   -1.1742 O   0  0  0  0  0  0  0  0  0  0  0  0
   -2.5201    3.9251    2.0620 C   0  0  0  0  0  0  0  0  0  0  0  0
   -1.6068    2.0026   -0.2567 H   0  0  0  0  0  0  0  0  0  0  0  0
   -3.6524    2.1224    1.7013 H   0  0  0  0  0  0  0  0  0  0  0  0
   -1.8383    4.6030    1.5357 H   0  0  0  0  0  0  0  0  0  0  0  0
   -3.3721    4.5181    2.4106 H   0  0  0  0  0  0  0  0  0  0  0  0
   -1.9919    3.5382    2.9402 H   0  0  0  0  0  0  0  0  0  0  0  0
   -4.9771    3.7147    0.1791 N   0  0  0  0  0  0  0  0  0  0  0  0
   -5.8443    4.2688   -0.8343 C   0  0  0  0  0  0  0  0  0  0  0  0
   -5.3631    3.5742    1.1081 H   0  0  0  0  0  0  0  0  0  0  0  0
   -5.7671    5.3661   -0.8236 H   0  0  0  0  0  0  0  0  0  0  0  0
   -5.5429    3.8898   -1.8219 H   0  0  0  0  0  0  0  0  0  0  0  0
   -6.8836    3.9725   -0.6294 H   0  0  0  0  0  0  0  0  0  0  0  0
  1  3  1  0  0  0  0
  1  7  1  0  0  0  0
  1  2  2  0  0  0  0
 29 30  1  0  0  0  0
 30 38  1  0  0  0  0
 30 31  2  0  0  0  0
  8  9  1  0  0  0  0
  9 17  1  0  0  0  0
  9 10  2  0  0  0  0
 18 19  1  0  0  0  0
 19 28  1  0  0  0  0
 19 20  2  0  0  0  0
 29 32  1  0  0  0  0
  8 11  1  0  0  0  0
 38 39  1  0  0  0  0
 18 21  1  0  0  0  0
 21 22  1  0  0  0  0
 28 29  1  0  0  0  0
  7  8  1  0  0  0  0
 17 18  1  0  0  0  0
  3  4  1  0  0  0  0
  3  5  1  0  0  0  0
  3  6  1  0  0  0  0
 32 35  1  0  0  0  0
 32 36  1  0  0  0  0
 32 37  1  0  0  0  0
 11 14  1  0  0  0  0
 11 15  1  0  0  0  0
 11 16  1  0  0  0  0
 39 41  1  0  0  0  0
 39 42  1  0  0  0  0
 39 43  1  0  0  0  0
 21 25  1  0  0  0  0
 21 26  1  0  0  0  0
 29 34  1  0  0  0  0
  8 13  1  0  0  0  0
 18 24  1  0  0  0  0
 38 40  1  0  0  0  0
  7 12  1  0  0  0  0
 28 33  1  0  0  0  0
 17 23  1  0  0  0  0
 22 27  1  0  0  0  0
M  END
$$$$

  -OEChem-05262214473D

 43 42  0     1  0  0  0  0  0999 V2000
   -2.8661   -4.7415    2.2943 C   0  0  0  0  0  0  0  0  0  0  0  0
   -2.0233   -5.5727    2.6109 O   0  0  0  0  0  0  0  0  0  0  0  0
   -4.3078   -5.0134    2.5698 C   0  0  0  0  0  0  0  0  0  0  0  0
   -4.8057   -5.5295    1.7332 H   0  0  0  0  0  0  0  0  0  0  0  0
   -4.4526   -5.6688    3.4436 H   0  0  0  0  0  0  0  0  0  0  0  0
   -4.9255   -4.1233    2.7700 H   0  0  0  0  0  0  0  0  0  0  0  0
   -2.6241   -3.5219    1.6838 N   0  0  0  0  0  0  0  0  0  0  0  0
   -1.3070   -3.0608    1.3315 C   0  0  2  0  0  0  0  0  0  0  0  0
   -1.3931   -1.5680    1.0422 C   0  0  0  0  0  0  0  0  0  0  0  0
   -2.4385   -1.0059    0.7226 O   0  0  0  0  0  0  0  0  0  0  0  0
   -0.7590   -3.8164    0.1309 C   0  0  0  0  0  0  0  0  0  0  0  0
   -3.4188   -2.9207    1.4735 H   0  0  0  0  0  0  0  0  0  0  0  0
   -0.6690   -3.2277    2.2062 H   0  0  0  0  0  0  0  0  0  0  0  0
   -1.3852   -3.6613   -0.7553 H   0  0  0  0  0  0  0  0  0  0  0  0
    0.2542   -3.4843   -0.1182 H   0  0  0  0  0  0  0  0  0  0  0  0
   -0.7257   -4.8930    0.3300 H   0  0  0  0  0  0  0  0  0  0  0  0
   -0.1563   -0.9420    1.1402 N   0  0  0  0  0  0  0  0  0  0  0  0
    0.0261    0.4671    0.9001 C   0  0  2  0  0  0  0  0  0  0  0  0
   -1.0847    1.2378    1.6107 C   0  0  0  0  0  0  0  0  0  0  0  0
   -1.1170    1.3944    2.8296 O   0  0  0  0  0  0  0  0  0  0  0  0
    0.1341    0.7948   -0.5912 C   0  0  0  0  0  0  0  0  0  0  0  0
    1.6091    0.0862   -1.3940 S   0  0  0  0  0  0  0  0  0  0  0  0
    0.6533   -1.4855    1.4300 H   0  0  0  0  0  0  0  0  0  0  0  0
    0.9740    0.7286    1.3867 H   0  0  0  0  0  0  0  0  0  0  0  0
   -0.7430    0.4230   -1.1309 H   0  0  0  0  0  0  0  0  0  0  0  0
    0.1734    1.8803   -0.7328 H   0  0  0  0  0  0  0  0  0  0  0  0
    1.3459    0.5736   -2.6132 H   0  0  0  0  0  0  0  0  0  0  0  0
   -2.0460    1.7072    0.7269 N   0  0  0  0  0  0  0  0  0  0  0  0
   -3.2023    2.4567    1.1596 C   0  0  2  0  0  0  0  0  0  0  0  0
   -4.1088    2.6610   -0.0471 C   0  0  0  0  0  0  0  0  0  0  0  0
   -3.7040    2.6091   -1.2066 O   0  0  0  0  0  0  0  0  0  0  0  0
   -2.8005    3.7905    1.7697 C   0  0  0  0  0  0  0  0  0  0  0  0
   -1.9224    1.5604   -0.2705 H   0  0  0  0  0  0  0  0  0  0  0  0
   -3.7179    1.8407    1.9043 H   0  0  0  0  0  0  0  0  0  0  0  0
   -2.2825    4.4215    1.0383 H   0  0  0  0  0  0  0  0  0  0  0  0
   -3.6762    4.3450    2.1231 H   0  0  0  0  0  0  0  0  0  0  0  0
   -2.1248    3.6428    2.6190 H   0  0  0  0  0  0  0  0  0  0  0  0
   -5.4143    2.9508    0.3241 N   0  0  0  0  0  0  0  0  0  0  0  0
   -6.4619    3.1985   -0.6389 C   0  0  0  0  0  0  0  0  0  0  0  0
   -5.6648    2.9546    1.3084 H   0  0  0  0  0  0  0  0  0  0  0  0
   -6.5305    4.2783   -0.8372 H   0  0  0  0  0  0  0  0  0  0  0  0
   -6.2325    2.6677   -1.5747 H   0  0  0  0  0  0  0  0  0  0  0  0
   -7.4207    2.8377   -0.2383 H   0  0  0  0  0  0  0  0  0  0  0  0
  1  3  1  0  0  0  0
  1  7  1  0  0  0  0
  1  2  2  0  0  0  0
 29 30  1  0  0  0  0
 30 38  1  0  0  0  0
 30 31  2  0  0  0  0
  8  9  1  0  0  0  0
  9 17  1  0  0  0  0
  9 10  2  0  0  0  0
 18 19  1  0  0  0  0
 19 28  1  0  0  0  0
 19 20  2  0  0  0  0
 29 32  1  0  0  0  0
  8 11  1  0  0  0  0
 38 39  1  0  0  0  0
 18 21  1  0  0  0  0
 21 22  1  0  0  0  0
 28 29  1  0  0  0  0
  7  8  1  0  0  0  0
 17 18  1  0  0  0  0
  3  4  1  0  0  0  0
  3  5  1  0  0  0  0
  3  6  1  0  0  0  0
 32 35  1  0  0  0  0
 32 36  1  0  0  0  0
 32 37  1  0  0  0  0
 11 14  1  0  0  0  0
 11 15  1  0  0  0  0
 11 16  1  0  0  0  0
 39 41  1  0  0  0  0
 39 42  1  0  0  0  0
 39 43  1  0  0  0  0
 21 25  1  0  0  0  0
 21 26  1  0  0  0  0
 29 34  1  0  0  0  0
  8 13  1  0  0  0  0
 18 24  1  0  0  0  0
 38 40  1  0  0  0  0
  7 12  1  0  0  0  0
 28 33  1  0  0  0  0
 17 23  1  0  0  0  0
 22 27  1  0  0  0  0
M  END
$$$$

  -OEChem-05262214473D

 43 42  0     1  0  0  0  0  0999 V2000
   -2.8661   -4.7415    2.2943 C   0  0  0  0  0  0  0  0  0  0  0  0
   -2.0233   -5.5727    2.6109 O   0  0  0  0  0  0  0  0  0  0  0  0
   -4.3078   -5.0134    2.5698 C   0  0  0  0  0  0  0  0  0  0  0  0
   -4.8057   -5.5295    1.7332 H   0  0  0  0  0  0  0  0  0  0  0  0
   -4.4526   -5.6688    3.4436 H   0  0  0  0  0  0  0  0  0  0  0  0
   -4.9255   -4.1233    2.7700 H   0  0  0  0  0  0  0  0  0  0  0  0
   -2.6241   -3.5219    1.6838 N   0  0  0  0  0  0  0  0  0  0  0  0
   -1.3070   -3.0608    1.3315 C   0  0  2  0  0  0  0  0  0  0  0  0
   -1.3931   -1.5680    1.0422 C   0  0  0  0  0  0  0  0  0  0  0  0
   -2.4385   -1.0059    0.7226 O   0  0  0  0  0  0  0  0  0  0  0  0
   -0.7590   -3.8164    0.1309 C   0  0  0  0  0  0  0  0  0  0  0  0
   -3.4188   -2.9207    1.4735 H   0  0  0  0  0  0  0  0  0  0  0  0
   -0.6690   -3.2277    2.2062 H   0  0  0  0  0  0  0  0  0  0  0  0
   -1.3852   -3.6613   -0.7553 H   0  0  0  0  0  0  0  0  0  0  0  0
    0.2542   -3.4843   -0.1182 H   0  0  0  0  0  0  0  0  0  0  0  0
   -0.7257   -4.8930    0.3300 H   0  0  0  0  0  0  0  0  0  0  0  0
   -0.1563   -0.9420    1.1402 N   0  0  0  0  0  0  0  0  0  0  0  0
    0.0261    0.4671    0.9001 C   0  0  2  0  0  0  0  0  0  0  0  0
   -1.0847    1.2378    1.6107 C   0  0  0  0  0  0  0  0  0  0  0  0
   -0.9921    1.6262    2.7734 O   0  0  0  0  0  0  0  0  0  0  0  0
    0.1341    0.7948   -0.5912 C   0  0  0  0  0  0  0  0  0  0  0  0
    1.6091    0.0862   -1.3940 S   0  0  0  0  0  0  0  0  0  0  0  0
    0.6533   -1.4855    1.4300 H   0  0  0  0  0  0  0  0  0  0  0  0
    0.9740    0.7286    1.3867 H   0  0  0  0  0  0  0  0  0  0  0  0
   -0.7430    0.4230   -1.1309 H   0  0  0  0  0  0  0  0  0  0  0  0
    0.1734    1.8803   -0.7328 H   0  0  0  0  0  0  0  0  0  0  0  0
    1.3459    0.5736   -2.6132 H   0  0  0  0  0  0  0  0  0  0  0  0
   -2.1982    1.4181    0.8025 N   0  0  0  0  0  0  0  0  0  0  0  0
   -3.3840    2.1087    1.2529 C   0  0  2  0  0  0  0  0  0  0  0  0
   -4.4468    1.9732    0.1705 C   0  0  0  0  0  0  0  0  0  0  0  0
   -4.1796    1.7388   -1.0063 O   0  0  0  0  0  0  0  0  0  0  0  0
   -3.0934    3.5717    1.5492 C   0  0  0  0  0  0  0  0  0  0  0  0
   -2.1759    1.0926   -0.1594 H   0  0  0  0  0  0  0  0  0  0  0  0
   -3.7208    1.5988    2.1621 H   0  0  0  0  0  0  0  0  0  0  0  0
   -2.7546    4.0990    0.6500 H   0  0  0  0  0  0  0  0  0  0  0  0
   -3.9865    4.0869    1.9177 H   0  0  0  0  0  0  0  0  0  0  0  0
   -2.3077    3.6674    2.3064 H   0  0  0  0  0  0  0  0  0  0  0  0
   -5.7257    2.1876    0.6650 N   0  0  0  0  0  0  0  0  0  0  0  0
   -6.9040    2.1270   -0.1680 C   0  0  0  0  0  0  0  0  0  0  0  0
   -5.8555    2.3574    1.6580 H   0  0  0  0  0  0  0  0  0  0  0  0
   -7.1387    3.1330   -0.5459 H   0  0  0  0  0  0  0  0  0  0  0  0
   -6.7192    1.4508   -1.0157 H   0  0  0  0  0  0  0  0  0  0  0  0
   -7.7518    1.7505    0.4232 H   0  0  0  0  0  0  0  0  0  0  0  0
  1  3  1  0  0  0  0
  1  7  1  0  0  0  0
  1  2  2  0  0  0  0
 29 30  1  0  0  0  0
 30 38  1  0  0  0  0
 30 31  2  0  0  0  0
  8  9  1  0  0  0  0
  9 17  1  0  0  0  0
  9 10  2  0  0  0  0
 18 19  1  0  0  0  0
 19 28  1  0  0  0  0
 19 20  2  0  0  0  0
 29 32  1  0  0  0  0
  8 11  1  0  0  0  0
 38 39  1  0  0  0  0
 18 21  1  0  0  0  0
 21 22  1  0  0  0  0
 28 29  1  0  0  0  0
  7  8  1  0  0  0  0
 17 18  1  0  0  0  0
  3  4  1  0  0  0  0
  3  5  1  0  0  0  0
  3  6  1  0  0  0  0
 32 35  1  0  0  0  0
 32 36  1  0  0  0  0
 32 37  1  0  0  0  0
 11 14  1  0  0  0  0
 11 15  1  0  0  0  0
 11 16  1  0  0  0  0
 39 41  1  0  0  0  0
 39 42  1  0  0  0  0
 39 43  1  0  0  0  0
 21 25  1  0  0  0  0
 21 26  1  0  0  0  0
 29 34  1  0  0  0  0
  8 13  1  0  0  0  0
 18 24  1  0  0  0  0
 38 40  1  0  0  0  0
  7 12  1  0  0  0  0
 28 33  1  0  0  0  0
 17 23  1  0  0  0  0
 22 27  1  0  0  0  0
M  END
$$$$

  -OEChem-05262214473D

 43 42  0     1  0  0  0  0  0999 V2000
   -2.8661   -4.7415    2.2943 C   0  0  0  0  0  0  0  0  0  0  0  0
   -2.0233   -5.5727    2.6109 O   0  0  0  0  0  0  0  0  0  0  0  0
   -4.3078   -5.0134    2.5698 C   0  0  0  0  0  0  0  0  0  0  0  0
   -4.8057   -5.5295    1.7332 H   0  0  0  0  0  0  0  0  0  0  0  0
   -4.4526   -5.6688    3.4436 H   0  0  0  0  0  0  0  0  0  0  0  0
   -4.9255   -4.1233    2.7700 H   0  0  0  0  0  0  0  0  0  0  0  0
   -2.6241   -3.5219    1.6838 N   0  0  0  0  0  0  0  0  0  0  0  0
   -1.3070   -3.0608    1.3315 C   0  0  2  0  0  0  0  0  0  0  0  0
   -1.3931   -1.5680    1.0422 C   0  0  0  0  0  0  0  0  0  0  0  0
   -2.4385   -1.0059    0.7226 O   0  0  0  0  0  0  0  0  0  0  0  0
   -0.7590   -3.8164    0.1309 C   0  0  0  0  0  0  0  0  0  0  0  0
   -3.4188   -2.9207    1.4735 H   0  0  0  0  0  0  0  0  0  0  0  0
   -0.6690   -3.2277    2.2062 H   0  0  0  0  0  0  0  0  0  0  0  0
   -1.3852   -3.6613   -0.7553 H   0  0  0  0  0  0  0  0  0  0  0  0
    0.2542   -3.4843   -0.1182 H   0  0  0  0  0  0  0  0  0  0  0  0
   -0.7257   -4.8930    0.3300 H   0  0  0  0  0  0  0  0  0  0  0  0
   -0.1563   -0.9420    1.1402 N   0  0  0  0  0  0  0  0  0  0  0  0
    0.0261    0.4671    0.9001 C   0  0  2  0  0  0  0  0  0  0  0  0
   -1.0847    1.2378    1.6107 C   0  0  0  0  0  0  0  0  0  0  0  0
   -0.9068    1.8545    2.6592 O   0  0  0  0  0  0  0  0  0  0  0  0
    0.1341    0.7948   -0.5912 C   0  0  0  0  0  0  0  0  0  0  0  0
    1.6091    0.0862   -1.3940 S   0  0  0  0  0  0  0  0  0  0  0  0
    0.6533   -1.4855    1.4300 H   0  0  0  0  0  0  0  0  0  0  0  0
    0.9740    0.7286    1.3867 H   0  0  0  0  0  0  0  0  0  0  0  0
   -0.7430    0.4230   -1.1309 H   0  0  0  0  0  0  0  0  0  0  0  0
    0.1734    1.8803   -0.7328 H   0  0  0  0  0  0  0  0  0  0  0  0
    1.3459    0.5736   -2.6132 H   0  0  0  0  0  0  0  0  0  0  0  0
   -2.3005    1.1348    0.9499 N   0  0  0  0  0  0  0  0  0  0  0  0
   -3.5055    1.7682    1.4323 C   0  0  2  0  0  0  0  0  0  0  0  0
   -4.6621    1.3091    0.5542 C   0  0  0  0  0  0  0  0  0  0  0  0
   -4.5081    0.8785   -0.5869 O   0  0  0  0  0  0  0  0  0  0  0  0
   -3.3787    3.2836    1.4157 C   0  0  0  0  0  0  0  0  0  0  0  0
   -2.3498    0.6312    0.0692 H   0  0  0  0  0  0  0  0  0  0  0  0
   -3.6609    1.4134    2.4569 H   0  0  0  0  0  0  0  0  0  0  0  0
   -3.2224    3.6576    0.3972 H   0  0  0  0  0  0  0  0  0  0  0  0
   -4.2821    3.7617    1.8084 H   0  0  0  0  0  0  0  0  0  0  0  0
   -2.5282    3.6102    2.0238 H   0  0  0  0  0  0  0  0  0  0  0  0
   -5.8900    1.4771    1.1787 N   0  0  0  0  0  0  0  0  0  0  0  0
   -7.1406    1.1274    0.5463 C   0  0  0  0  0  0  0  0  0  0  0  0
   -5.9221    1.8235    2.1330 H   0  0  0  0  0  0  0  0  0  0  0  0
   -7.5502    2.0084    0.0305 H   0  0  0  0  0  0  0  0  0  0  0  0
   -6.9698    0.3220   -0.1832 H   0  0  0  0  0  0  0  0  0  0  0  0
   -7.8544    0.7851    1.3101 H   0  0  0  0  0  0  0  0  0  0  0  0
  1  3  1  0  0  0  0
  1  7  1  0  0  0  0
  1  2  2  0  0  0  0
 29 30  1  0  0  0  0
 30 38  1  0  0  0  0
 30 31  2  0  0  0  0
  8  9  1  0  0  0  0
  9 17  1  0  0  0  0
  9 10  2  0  0  0  0
 18 19  1  0  0  0  0
 19 28  1  0  0  0  0
 19 20  2  0  0  0  0
 29 32  1  0  0  0  0
  8 11  1  0  0  0  0
 38 39  1  0  0  0  0
 18 21  1  0  0  0  0
 21 22  1  0  0  0  0
 28 29  1  0  0  0  0
  7  8  1  0  0  0  0
 17 18  1  0  0  0  0
  3  4  1  0  0  0  0
  3  5  1  0  0  0  0
  3  6  1  0  0  0  0
 32 35  1  0  0  0  0
 32 36  1  0  0  0  0
 32 37  1  0  0  0  0
 11 14  1  0  0  0  0
 11 15  1  0  0  0  0
 11 16  1  0  0  0  0
 39 41  1  0  0  0  0
 39 42  1  0  0  0  0
 39 43  1  0  0  0  0
 21 25  1  0  0  0  0
 21 26  1  0  0  0  0
 29 34  1  0  0  0  0
  8 13  1  0  0  0  0
 18 24  1  0  0  0  0
 38 40  1  0  0  0  0
  7 12  1  0  0  0  0
 28 33  1  0  0  0  0
 17 23  1  0  0  0  0
 22 27  1  0  0  0  0
M  END
$$$$

  -OEChem-05262214473D

 43 42  0     1  0  0  0  0  0999 V2000
   -2.8661   -4.7415    2.2943 C   0  0  0  0  0  0  0  0  0  0  0  0
   -2.0233   -5.5727    2.6109 O   0  0  0  0  0  0  0  0  0  0  0  0
   -4.3078   -5.0134    2.5698 C   0  0  0  0  0  0  0  0  0  0  0  0
   -4.8057   -5.5295    1.7332 H   0  0  0  0  0  0  0  0  0  0  0  0
   -4.4526   -5.6688    3.4436 H   0  0  0  0  0  0  0  0  0  0  0  0
   -4.9255   -4.1233    2.7700 H   0  0  0  0  0  0  0  0  0  0  0  0
   -2.6241   -3.5219    1.6838 N   0  0  0  0  0  0  0  0  0  0  0  0
   -1.3070   -3.0608    1.3315 C   0  0  2  0  0  0  0  0  0  0  0  0
   -1.3931   -1.5680    1.0422 C   0  0  0  0  0  0  0  0  0  0  0  0
   -2.4385   -1.0059    0.7226 O   0  0  0  0  0  0  0  0  0  0  0  0
   -0.7590   -3.8164    0.1309 C   0  0  0  0  0  0  0  0  0  0  0  0
   -3.4188   -2.9207    1.4735 H   0  0  0  0  0  0  0  0  0  0  0  0
   -0.6690   -3.2277    2.2062 H   0  0  0  0  0  0  0  0  0  0  0  0
   -1.3852   -3.6613   -0.7553 H   0  0  0  0  0  0  0  0  0  0  0  0
    0.2542   -3.4843   -0.1182 H   0  0  0  0  0  0  0  0  0  0  0  0
   -0.7257   -4.8930    0.3300 H   0  0  0  0  0  0  0  0  0  0  0  0
   -0.1563   -0.9420    1.1402 N   0  0  0  0  0  0  0  0  0  0  0  0
    0.0261    0.4671    0.9001 C   0  0  2  0  0  0  0  0  0  0  0  0
   -1.0847    1.2378    1.6107 C   0  0  0  0  0  0  0  0  0  0  0  0
   -0.8668    2.0638    2.4948 O   0  0  0  0  0  0  0  0  0  0  0  0
    0.1341    0.7948   -0.5912 C   0  0  0  0  0  0  0  0  0  0  0  0
    1.6091    0.0862   -1.3940 S   0  0  0  0  0  0  0  0  0  0  0  0
    0.6533   -1.4855    1.4300 H   0  0  0  0  0  0  0  0  0  0  0  0
    0.9740    0.7286    1.3867 H   0  0  0  0  0  0  0  0  0  0  0  0
   -0.7430    0.4230   -1.1309 H   0  0  0  0  0  0  0  0  0  0  0  0
    0.1734    1.8803   -0.7328 H   0  0  0  0  0  0  0  0  0  0  0  0
    1.3459    0.5736   -2.6132 H   0  0  0  0  0  0  0  0  0  0  0  0
   -2.3460    0.8765    1.1589 N   0  0  0  0  0  0  0  0  0  0  0  0
   -3.5584    1.4585    1.6855 C   0  0  2  0  0  0  0  0  0  0  0  0
   -4.7399    0.7140    1.0780 C   0  0  0  0  0  0  0  0  0  0  0  0
   -4.6671    0.0870    0.0231 O   0  0  0  0  0  0  0  0  0  0  0  0
   -3.6370    2.9458    1.3782 C   0  0  0  0  0  0  0  0  0  0  0  0
   -2.4324    0.2076    0.3994 H   0  0  0  0  0  0  0  0  0  0  0  0
   -3.5421    1.2970    2.7688 H   0  0  0  0  0  0  0  0  0  0  0  0
   -3.6542    3.1274    0.2973 H   0  0  0  0  0  0  0  0  0  0  0  0
   -4.5427    3.3914    1.8026 H   0  0  0  0  0  0  0  0  0  0  0  0
   -2.7711    3.4753    1.7903 H   0  0  0  0  0  0  0  0  0  0  0  0
   -5.8962    0.8677    1.8300 N   0  0  0  0  0  0  0  0  0  0  0  0
   -7.1554    0.2679    1.4553 C   0  0  0  0  0  0  0  0  0  0  0  0
   -5.8601    1.3891    2.7010 H   0  0  0  0  0  0  0  0  0  0  0  0
   -7.7370    0.9811    0.8527 H   0  0  0  0  0  0  0  0  0  0  0  0
   -6.9672   -0.6418    0.8662 H   0  0  0  0  0  0  0  0  0  0  0  0
   -7.7213    0.0071    2.3618 H   0  0  0  0  0  0  0  0  0  0  0  0
  1  3  1  0  0  0  0
  1  7  1  0  0  0  0
  1  2  2  0  0  0  0
 29 30  1  0  0  0  0
 30 38  1  0  0  0  0
 30 31  2  0  0  0  0
  8  9  1  0  0  0  0
  9 17  1  0  0  0  0
  9 10  2  0  0  0  0
 18 19  1  0  0  0  0
 19 28  1  0  0  0  0
 19 20  2  0  0  0  0
 29 32  1  0  0  0  0
  8 11  1  0  0  0  0
 38 39  1  0  0  0  0
 18 21  1  0  0  0  0
 21 22  1  0  0  0  0
 28 29  1  0  0  0  0
  7  8  1  0  0  0  0
 17 18  1  0  0  0  0
  3  4  1  0  0  0  0
  3  5  1  0  0  0  0
  3  6  1  0  0  0  0
 32 35  1  0  0  0  0
 32 36  1  0  0  0  0
 32 37  1  0  0  0  0
 11 14  1  0  0  0  0
 11 15  1  0  0  0  0
 11 16  1  0  0  0  0
 39 41  1  0  0  0  0
 39 42  1  0  0  0  0
 39 43  1  0  0  0  0
 21 25  1  0  0  0  0
 21 26  1  0  0  0  0
 29 34  1  0  0  0  0
  8 13  1  0  0  0  0
 18 24  1  0  0  0  0
 38 40  1  0  0  0  0
  7 12  1  0  0  0  0
 28 33  1  0  0  0  0
 17 23  1  0  0  0  0
 22 27  1  0  0  0  0
M  END
$$$$

  -OEChem-05262214473D

 43 42  0     1  0  0  0  0  0999 V2000
   -2.8661   -4.7415    2.2943 C   0  0  0  0  0  0  0  0  0  0  0  0
   -2.0233   -5.5727    2.6109 O   0  0  0  0  0  0  0  0  0  0  0  0
   -4.3078   -5.0134    2.5698 C   0  0  0  0  0  0  0  0  0  0  0  0
   -4.8057   -5.5295    1.7332 H   0  0  0  0  0  0  0  0  0  0  0  0
   -4.4526   -5.6688    3.4436 H   0  0  0  0  0  0  0  0  0  0  0  0
   -4.9255   -4.1233    2.7700 H   0  0  0  0  0  0  0  0  0  0  0  0
   -2.6241   -3.5219    1.6838 N   0  0  0  0  0  0  0  0  0  0  0  0
   -1.3070   -3.0608    1.3315 C   0  0  2  0  0  0  0  0  0  0  0  0
   -1.3931   -1.5680    1.0422 C   0  0  0  0  0  0  0  0  0  0  0  0
   -2.4385   -1.0059    0.7226 O   0  0  0  0  0  0  0  0  0  0  0  0
   -0.7590   -3.8164    0.1309 C   0  0  0  0  0  0  0  0  0  0  0  0
   -3.4188   -2.9207    1.4735 H   0  0  0  0  0  0  0  0  0  0  0  0
   -0.6690   -3.2277    2.2062 H   0  0  0  0  0  0  0  0  0  0  0  0
   -1.3852   -3.6613   -0.7553 H   0  0  0  0  0  0  0  0  0  0  0  0
    0.2542   -3.4843   -0.1182 H   0  0  0  0  0  0  0  0  0  0  0  0
   -0.7257   -4.8930    0.3300 H   0  0  0  0  0  0  0  0  0  0  0  0
   -0.1563   -0.9420    1.1402 N   0  0  0  0  0  0  0  0  0  0  0  0
    0.0261    0.4671    0.9001 C   0  0  2  0  0  0  0  0  0  0  0  0
   -1.0847    1.2378    1.6107 C   0  0  0  0  0  0  0  0  0  0  0  0
   -0.8748    2.2398    2.2914 O   0  0  0  0  0  0  0  0  0  0  0  0
    0.1341    0.7948   -0.5912 C   0  0  0  0  0  0  0  0  0  0  0  0
    1.6091    0.0862   -1.3940 S   0  0  0  0  0  0  0  0  0  0  0  0
    0.6533   -1.4855    1.4300 H   0  0  0  0  0  0  0  0  0  0  0  0
    0.9740    0.7286    1.3867 H   0  0  0  0  0  0  0  0  0  0  0  0
   -0.7430    0.4230   -1.1309 H   0  0  0  0  0  0  0  0  0  0  0  0
    0.1734    1.8803   -0.7328 H   0  0  0  0  0  0  0  0  0  0  0  0
    1.3459    0.5736   -2.6132 H   0  0  0  0  0  0  0  0  0  0  0  0
   -2.3315    0.6609    1.4154 N   0  0  0  0  0  0  0  0  0  0  0  0
   -3.5391    1.2007    1.9953 C   0  0  2  0  0  0  0  0  0  0  0  0
   -4.6750    0.2283    1.7061 C   0  0  0  0  0  0  0  0  0  0  0  0
   -4.6457   -0.5819    0.7821 O   0  0  0  0  0  0  0  0  0  0  0  0
   -3.8507    2.5814    1.4393 C   0  0  0  0  0  0  0  0  0  0  0  0
   -2.4181   -0.1493    0.8090 H   0  0  0  0  0  0  0  0  0  0  0  0
   -3.3726    1.2576    3.0765 H   0  0  0  0  0  0  0  0  0  0  0  0
   -4.0205    2.5444    0.3570 H   0  0  0  0  0  0  0  0  0  0  0  0
   -4.7506    3.0012    1.9008 H   0  0  0  0  0  0  0  0  0  0  0  0
   -3.0201    3.2717    1.6219 H   0  0  0  0  0  0  0  0  0  0  0  0
   -5.7436    0.4010    2.5747 N   0  0  0  0  0  0  0  0  0  0  0  0
   -6.9476   -0.3930    2.4971 C   0  0  0  0  0  0  0  0  0  0  0  0
   -5.6737    1.0839    3.3233 H   0  0  0  0  0  0  0  0  0  0  0  0
   -7.6864    0.1210    1.8647 H   0  0  0  0  0  0  0  0  0  0  0  0
   -6.7116   -1.3749    2.0609 H   0  0  0  0  0  0  0  0  0  0  0  0
   -7.3618   -0.5304    3.5068 H   0  0  0  0  0  0  0  0  0  0  0  0
  1  3  1  0  0  0  0
  1  7  1  0  0  0  0
  1  2  2  0  0  0  0
 29 30  1  0  0  0  0
 30 38  1  0  0  0  0
 30 31  2  0  0  0  0
  8  9  1  0  0  0  0
  9 17  1  0  0  0  0
  9 10  2  0  0  0  0
 18 19  1  0  0  0  0
 19 28  1  0  0  0  0
 19 20  2  0  0  0  0
 29 32  1  0  0  0  0
  8 11  1  0  0  0  0
 38 39  1  0  0  0  0
 18 21  1  0  0  0  0
 21 22  1  0  0  0  0
 28 29  1  0  0  0  0
  7  8  1  0  0  0  0
 17 18  1  0  0  0  0
  3  4  1  0  0  0  0
  3  5  1  0  0  0  0
  3  6  1  0  0  0  0
 32 35  1  0  0  0  0
 32 36  1  0  0  0  0
 32 37  1  0  0  0  0
 11 14  1  0  0  0  0
 11 15  1  0  0  0  0
 11 16  1  0  0  0  0
 39 41  1  0  0  0  0
 39 42  1  0  0  0  0
 39 43  1  0  0  0  0
 21 25  1  0  0  0  0
 21 26  1  0  0  0  0
 29 34  1  0  0  0  0
  8 13  1  0  0  0  0
 18 24  1  0  0  0  0
 38 40  1  0  0  0  0
  7 12  1  0  0  0  0
 28 33  1  0  0  0  0
 17 23  1  0  0  0  0
 22 27  1  0  0  0  0
M  END
$$$$

  -OEChem-05262214473D

 43 42  0     1  0  0  0  0  0999 V2000
   -2.8661   -4.7415    2.2943 C   0  0  0  0  0  0  0  0  0  0  0  0
   -2.0233   -5.5727    2.6109 O   0  0  0  0  0  0  0  0  0  0  0  0
   -4.3078   -5.0134    2.5698 C   0  0  0  0  0  0  0  0  0  0  0  0
   -4.8057   -5.5295    1.7332 H   0  0  0  0  0  0  0  0  0  0  0  0
   -4.4526   -5.6688    3.4436 H   0  0  0  0  0  0  0  0  0  0  0  0
   -4.9255   -4.1233    2.7700 H   0  0  0  0  0  0  0  0  0  0  0  0
   -2.6241   -3.5219    1.6838 N   0  0  0  0  0  0  0  0  0  0  0  0
   -1.3070   -3.0608    1.3315 C   0  0  2  0  0  0  0  0  0  0  0  0
   -1.3931   -1.5680    1.0422 C   0  0  0  0  0  0  0  0  0  0  0  0
   -2.4385   -1.0059    0.7226 O   0  0  0  0  0  0  0  0  0  0  0  0
   -0.7590   -3.8164    0.1309 C   0  0  0  0  0  0  0  0  0  0  0  0
   -3.4188   -2.9207    1.4735 H   0  0  0  0  0  0  0  0  0  0  0  0
   -0.6690   -3.2277    2.2062 H   0  0  0  0  0  0  0  0  0  0  0  0
   -1.3852   -3.6613   -0.7553 H   0  0  0  0  0  0  0  0  0  0  0  0
    0.2542   -3.4843   -0.1182 H   0  0  0  0  0  0  0  0  0  0  0  0
   -0.7257   -4.8930    0.3300 H   0  0  0  0  0  0  0  0  0  0  0  0
   -0.1563   -0.9420    1.1402 N   0  0  0  0  0  0  0  0  0  0  0  0
    0.0261    0.4671    0.9001 C   0  0  2  0  0  0  0  0  0  0  0  0
   -1.0847    1.2378    1.6107 C   0  0  0  0  0  0  0  0  0  0  0  0
   -0.9303    2.3706    2.0628 O   0  0  0  0  0  0  0  0  0  0  0  0
    0.1341    0.7948   -0.5912 C   0  0  0  0  0  0  0  0  0  0  0  0
    1.6091    0.0862   -1.3940 S   0  0  0  0  0  0  0  0  0  0  0  0
    0.6533   -1.4855    1.4300 H   0  0  0  0  0  0  0  0  0  0  0  0
    0.9740    0.7286    1.3867 H   0  0  0  0  0  0  0  0  0  0  0  0
   -0.7430    0.4230   -1.1309 H   0  0  0  0  0  0  0  0  0  0  0  0
    0.1734    1.8803   -0.7328 H   0  0  0  0  0  0  0  0  0  0  0  0
    1.3459    0.5736   -2.6132 H   0  0  0  0  0  0  0  0  0  0  0  0
   -2.2581    0.5027    1.7017 N   0  0  0  0  0  0  0  0  0  0  0  0
   -3.4490    1.0122    2.3405 C   0  0  2  0  0  0  0  0  0  0  0  0
   -4.4719   -0.1148    2.3958 C   0  0  0  0  0  0  0  0  0  0  0  0
   -4.4453   -1.0825    1.6383 O   0  0  0  0  0  0  0  0  0  0  0  0
   -4.0053    2.2152    1.5948 C   0  0  0  0  0  0  0  0  0  0  0  0
   -2.3077   -0.4153    1.2699 H   0  0  0  0  0  0  0  0  0  0  0  0
   -3.1640    1.2979    3.3590 H   0  0  0  0  0  0  0  0  0  0  0  0
   -4.2963    1.9484    0.5722 H   0  0  0  0  0  0  0  0  0  0  0  0
   -4.8916    2.6177    2.0963 H   0  0  0  0  0  0  0  0  0  0  0  0
   -3.2580    3.0134    1.5301 H   0  0  0  0  0  0  0  0  0  0  0  0
   -5.4429    0.1087    3.3619 N   0  0  0  0  0  0  0  0  0  0  0  0
   -6.5312   -0.8103    3.6006 C   0  0  0  0  0  0  0  0  0  0  0  0
   -5.3757    0.9287    3.9576 H   0  0  0  0  0  0  0  0  0  0  0  0
   -7.4017   -0.5131    2.9974 H   0  0  0  0  0  0  0  0  0  0  0  0
   -6.2204   -1.8274    3.3195 H   0  0  0  0  0  0  0  0  0  0  0  0
   -6.8003   -0.7907    4.6670 H   0  0  0  0  0  0  0  0  0  0  0  0
  1  3  1  0  0  0  0
  1  7  1  0  0  0  0
  1  2  2  0  0  0  0
 29 30  1  0  0  0  0
 30 38  1  0  0  0  0
 30 31  2  0  0  0  0
  8  9  1  0  0  0  0
  9 17  1  0  0  0  0
  9 10  2  0  0  0  0
 18 19  1  0  0  0  0
 19 28  1  0  0  0  0
 19 20  2  0  0  0  0
 29 32  1  0  0  0  0
  8 11  1  0  0  0  0
 38 39  1  0  0  0  0
 18 21  1  0  0  0  0
 21 22  1  0  0  0  0
 28 29  1  0  0  0  0
  7  8  1  0  0  0  0
 17 18  1  0  0  0  0
  3  4  1  0  0  0  0
  3  5  1  0  0  0  0
  3  6  1  0  0  0  0
 32 35  1  0  0  0  0
 32 36  1  0  0  0  0
 32 37  1  0  0  0  0
 11 14  1  0  0  0  0
 11 15  1  0  0  0  0
 11 16  1  0  0  0  0
 39 41  1  0  0  0  0
 39 42  1  0  0  0  0
 39 43  1  0  0  0  0
 21 25  1  0  0  0  0
 21 26  1  0  0  0  0
 29 34  1  0  0  0  0
  8 13  1  0  0  0  0
 18 24  1  0  0  0  0
 38 40  1  0  0  0  0
  7 12  1  0  0  0  0
 28 33  1  0  0  0  0
 17 23  1  0  0  0  0
 22 27  1  0  0  0  0
M  END
$$$$

  -OEChem-05262214473D

 43 42  0     1  0  0  0  0  0999 V2000
   -2.8661   -4.7415    2.2943 C   0  0  0  0  0  0  0  0  0  0  0  0
   -2.0233   -5.5727    2.6109 O   0  0  0  0  0  0  0  0  0  0  0  0
   -4.3078   -5.0134    2.5698 C   0  0  0  0  0  0  0  0  0  0  0  0
   -4.8057   -5.5295    1.7332 H   0  0  0  0  0  0  0  0  0  0  0  0
   -4.4526   -5.6688    3.4436 H   0  0  0  0  0  0  0  0  0  0  0  0
   -4.9255   -4.1233    2.7700 H   0  0  0  0  0  0  0  0  0  0  0  0
   -2.6241   -3.5219    1.6838 N   0  0  0  0  0  0  0  0  0  0  0  0
   -1.3070   -3.0608    1.3315 C   0  0  2  0  0  0  0  0  0  0  0  0
   -1.3931   -1.5680    1.0422 C   0  0  0  0  0  0  0  0  0  0  0  0
   -2.4385   -1.0059    0.7226 O   0  0  0  0  0  0  0  0  0  0  0  0
   -0.7590   -3.8164    0.1309 C   0  0  0  0  0  0  0  0  0  0  0  0
   -3.4188   -2.9207    1.4735 H   0  0  0  0  0  0  0  0  0  0  0  0
   -0.6690   -3.2277    2.2062 H   0  0  0  0  0  0  0  0  0  0  0  0
   -1.3852   -3.6613   -0.7553 H   0  0  0  0  0  0  0  0  0  0  0  0
    0.2542   -3.4843   -0.1182 H   0  0  0  0  0  0  0  0  0  0  0  0
   -0.7257   -4.8930    0.3300 H   0  0  0  0  0  0  0  0  0  0  0  0
   -0.1563   -0.9420    1.1402 N   0  0  0  0  0  0  0  0  0  0  0  0
    0.0261    0.4671    0.9001 C   0  0  2  0  0  0  0  0  0  0  0  0
   -1.0847    1.2378    1.6107 C   0  0  0  0  0  0  0  0  0  0  0  0
   -1.0295    2.4472    1.8246 O   0  0  0  0  0  0  0  0  0  0  0  0
    0.1341    0.7948   -0.5912 C   0  0  0  0  0  0  0  0  0  0  0  0
    1.6091    0.0862   -1.3940 S   0  0  0  0  0  0  0  0  0  0  0  0
    0.6533   -1.4855    1.4300 H   0  0  0  0  0  0  0  0  0  0  0  0
    0.9740    0.7286    1.3867 H   0  0  0  0  0  0  0  0  0  0  0  0
   -0.7430    0.4230   -1.1309 H   0  0  0  0  0  0  0  0  0  0  0  0
    0.1734    1.8803   -0.7328 H   0  0  0  0  0  0  0  0  0  0  0  0
    1.3459    0.5736   -2.6132 H   0  0  0  0  0  0  0  0  0  0  0  0
   -2.1307    0.4126    1.9986 N   0  0  0  0  0  0  0  0  0  0  0  0
   -3.2941    0.9061    2.6977 C   0  0  2  0  0  0  0  0  0  0  0  0
   -4.1443   -0.2918    3.1000 C   0  0  0  0  0  0  0  0  0  0  0  0
   -4.0797   -1.3808    2.5334 O   0  0  0  0  0  0  0  0  0  0  0  0
   -4.0902    1.8721    1.8341 C   0  0  0  0  0  0  0  0  0  0  0  0
   -2.1090   -0.5722    1.7508 H   0  0  0  0  0  0  0  0  0  0  0  0
   -2.9305    1.4151    3.5970 H   0  0  0  0  0  0  0  0  0  0  0  0
   -4.4629    1.3800    0.9283 H   0  0  0  0  0  0  0  0  0  0  0  0
   -4.9561    2.2672    2.3756 H   0  0  0  0  0  0  0  0  0  0  0  0
   -3.4687    2.7180    1.5211 H   0  0  0  0  0  0  0  0  0  0  0  0
   -5.0143    0.0107    4.1381 N   0  0  0  0  0  0  0  0  0  0  0  0
   -5.9346   -0.9555    4.6907 C   0  0  0  0  0  0  0  0  0  0  0  0
   -4.9863    0.9341    4.5605 H   0  0  0  0  0  0  0  0  0  0  0  0
   -6.9025   -0.8782    4.1738 H   0  0  0  0  0  0  0  0  0  0  0  0
   -5.5271   -1.9684    4.5563 H   0  0  0  0  0  0  0  0  0  0  0  0
   -6.0750   -0.7562    5.7634 H   0  0  0  0  0  0  0  0  0  0  0  0
  1  3  1  0  0  0  0
  1  7  1  0  0  0  0
  1  2  2  0  0  0  0
 29 30  1  0  0  0  0
 30 38  1  0  0  0  0
 30 31  2  0  0  0  0
  8  9  1  0  0  0  0
  9 17  1  0  0  0  0
  9 10  2  0  0  0  0
 18 19  1  0  0  0  0
 19 28  1  0  0  0  0
 19 20  2  0  0  0  0
 29 32  1  0  0  0  0
  8 11  1  0  0  0  0
 38 39  1  0  0  0  0
 18 21  1  0  0  0  0
 21 22  1  0  0  0  0
 28 29  1  0  0  0  0
  7  8  1  0  0  0  0
 17 18  1  0  0  0  0
  3  4  1  0  0  0  0
  3  5  1  0  0  0  0
  3  6  1  0  0  0  0
 32 35  1  0  0  0  0
 32 36  1  0  0  0  0
 32 37  1  0  0  0  0
 11 14  1  0  0  0  0
 11 15  1  0  0  0  0
 11 16  1  0  0  0  0
 39 41  1  0  0  0  0
 39 42  1  0  0  0  0
 39 43  1  0  0  0  0
 21 25  1  0  0  0  0
 21 26  1  0  0  0  0
 29 34  1  0  0  0  0
  8 13  1  0  0  0  0
 18 24  1  0  0  0  0
 38 40  1  0  0  0  0
  7 12  1  0  0  0  0
 28 33  1  0  0  0  0
 17 23  1  0  0  0  0
 22 27  1  0  0  0  0
M  END
$$$$

  -OEChem-05262214473D

 43 42  0     1  0  0  0  0  0999 V2000
   -2.8661   -4.7415    2.2943 C   0  0  0  0  0  0  0  0  0  0  0  0
   -2.0233   -5.5727    2.6109 O   0  0  0  0  0  0  0  0  0  0  0  0
   -4.3078   -5.0134    2.5698 C   0  0  0  0  0  0  0  0  0  0  0  0
   -4.8057   -5.5295    1.7332 H   0  0  0  0  0  0  0  0  0  0  0  0
   -4.4526   -5.6688    3.4436 H   0  0  0  0  0  0  0  0  0  0  0  0
   -4.9255   -4.1233    2.7700 H   0  0  0  0  0  0  0  0  0  0  0  0
   -2.6241   -3.5219    1.6838 N   0  0  0  0  0  0  0  0  0  0  0  0
   -1.3070   -3.0608    1.3315 C   0  0  2  0  0  0  0  0  0  0  0  0
   -1.3931   -1.5680    1.0422 C   0  0  0  0  0  0  0  0  0  0  0  0
   -2.4385   -1.0059    0.7226 O   0  0  0  0  0  0  0  0  0  0  0  0
   -0.7590   -3.8164    0.1309 C   0  0  0  0  0  0  0  0  0  0  0  0
   -3.4188   -2.9207    1.4735 H   0  0  0  0  0  0  0  0  0  0  0  0
   -0.6690   -3.2277    2.2062 H   0  0  0  0  0  0  0  0  0  0  0  0
   -1.3852   -3.6613   -0.7553 H   0  0  0  0  0  0  0  0  0  0  0  0
    0.2542   -3.4843   -0.1182 H   0  0  0  0  0  0  0  0  0  0  0  0
   -0.7257   -4.8930    0.3300 H   0  0  0  0  0  0  0  0  0  0  0  0
   -0.1563   -0.9420    1.1402 N   0  0  0  0  0  0  0  0  0  0  0  0
    0.0261    0.4671    0.9001 C   0  0  2  0  0  0  0  0  0  0  0  0
   -1.0847    1.2378    1.6107 C   0  0  0  0  0  0  0  0  0  0  0  0
   -1.1657    2.4644    1.5931 O   0  0  0  0  0  0  0  0  0  0  0  0
    0.1341    0.7948   -0.5912 C   0  0  0  0  0  0  0  0  0  0  0  0
    1.6091    0.0862   -1.3940 S   0  0  0  0  0  0  0  0  0  0  0  0
    0.6533   -1.4855    1.4300 H   0  0  0  0  0  0  0  0  0  0  0  0
    0.9740    0.7286    1.3867 H   0  0  0  0  0  0  0  0  0  0  0  0
   -0.7430    0.4230   -1.1309 H   0  0  0  0  0  0  0  0  0  0  0  0
    0.1734    1.8803   -0.7328 H   0  0  0  0  0  0  0  0  0  0  0  0
    1.3459    0.5736   -2.6132 H   0  0  0  0  0  0  0  0  0  0  0  0
   -1.9581    0.3968    2.2856 N   0  0  0  0  0  0  0  0  0  0  0  0
   -3.0852    0.8894    3.0425 C   0  0  2  0  0  0  0  0  0  0  0  0
   -3.7145   -0.2909    3.7708 C   0  0  0  0  0  0  0  0  0  0  0  0
   -3.5737   -1.4564    3.4064 O   0  0  0  0  0  0  0  0  0  0  0  0
   -4.0997    1.5755    2.1410 C   0  0  0  0  0  0  0  0  0  0  0  0
   -1.8353   -0.6092    2.2189 H   0  0  0  0  0  0  0  0  0  0  0  0
   -2.6879    1.6012    3.7743 H   0  0  0  0  0  0  0  0  0  0  0  0
   -4.5088    0.8779    1.4011 H   0  0  0  0  0  0  0  0  0  0  0  0
   -4.9397    1.9734    2.7199 H   0  0  0  0  0  0  0  0  0  0  0  0
   -3.6379    2.4055    1.5955 H   0  0  0  0  0  0  0  0  0  0  0  0
   -4.4872    0.1138    4.8503 N   0  0  0  0  0  0  0  0  0  0  0  0
   -5.1985   -0.8187    5.6931 C   0  0  0  0  0  0  0  0  0  0  0  0
   -4.5321    1.0996    5.0910 H   0  0  0  0  0  0  0  0  0  0  0  0
   -6.2227   -0.9492    5.3136 H   0  0  0  0  0  0  0  0  0  0  0  0
   -4.6790   -1.7883    5.6869 H   0  0  0  0  0  0  0  0  0  0  0  0
   -5.2354   -0.4291    6.7211 H   0  0  0  0  0  0  0  0  0  0  0  0
  1  3  1  0  0  0  0
  1  7  1  0  0  0  0
  1  2  2  0  0  0  0
 29 30  1  0  0  0  0
 30 38  1  0  0  0  0
 30 31  2  0  0  0  0
  8  9  1  0  0  0  0
  9 17  1  0  0  0  0
  9 10  2  0  0  0  0
 18 19  1  0  0  0  0
 19 28  1  0  0  0  0
 19 20  2  0  0  0  0
 29 32  1  0  0  0  0
  8 11  1  0  0  0  0
 38 39  1  0  0  0  0
 18 21  1  0  0  0  0
 21 22  1  0  0  0  0
 28 29  1  0  0  0  0
  7  8  1  0  0  0  0
 17 18  1  0  0  0  0
  3  4  1  0  0  0  0
  3  5  1  0  0  0  0
  3  6  1  0  0  0  0
 32 35  1  0  0  0  0
 32 36  1  0  0  0  0
 32 37  1  0  0  0  0
 11 14  1  0  0  0  0
 11 15  1  0  0  0  0
 11 16  1  0  0  0  0
 39 41  1  0  0  0  0
 39 42  1  0  0  0  0
 39 43  1  0  0  0  0
 21 25  1  0  0  0  0
 21 26  1  0  0  0  0
 29 34  1  0  0  0  0
  8 13  1  0  0  0  0
 18 24  1  0  0  0  0
 38 40  1  0  0  0  0
  7 12  1  0  0  0  0
 28 33  1  0  0  0  0
 17 23  1  0  0  0  0
 22 27  1  0  0  0  0
M  END
$$$$

  -OEChem-05262214473D

 43 42  0     1  0  0  0  0  0999 V2000
   -2.8661   -4.7415    2.2943 C   0  0  0  0  0  0  0  0  0  0  0  0
   -2.0233   -5.5727    2.6109 O   0  0  0  0  0  0  0  0  0  0  0  0
   -4.3078   -5.0134    2.5698 C   0  0  0  0  0  0  0  0  0  0  0  0
   -4.8057   -5.5295    1.7332 H   0  0  0  0  0  0  0  0  0  0  0  0
   -4.4526   -5.6688    3.4436 H   0  0  0  0  0  0  0  0  0  0  0  0
   -4.9255   -4.1233    2.7700 H   0  0  0  0  0  0  0  0  0  0  0  0
   -2.6241   -3.5219    1.6838 N   0  0  0  0  0  0  0  0  0  0  0  0
   -1.3070   -3.0608    1.3315 C   0  0  2  0  0  0  0  0  0  0  0  0
   -1.3931   -1.5680    1.0422 C   0  0  0  0  0  0  0  0  0  0  0  0
   -2.4385   -1.0059    0.7226 O   0  0  0  0  0  0  0  0  0  0  0  0
   -0.7590   -3.8164    0.1309 C   0  0  0  0  0  0  0  0  0  0  0  0
   -3.4188   -2.9207    1.4735 H   0  0  0  0  0  0  0  0  0  0  0  0
   -0.6690   -3.2277    2.2062 H   0  0  0  0  0  0  0  0  0  0  0  0
   -1.3852   -3.6613   -0.7553 H   0  0  0  0  0  0  0  0  0  0  0  0
    0.2542   -3.4843   -0.1182 H   0  0  0  0  0  0  0  0  0  0  0  0
   -0.7257   -4.8930    0.3300 H   0  0  0  0  0  0  0  0  0  0  0  0
   -0.1563   -0.9420    1.1402 N   0  0  0  0  0  0  0  0  0  0  0  0
    0.0261    0.4671    0.9001 C   0  0  2  0  0  0  0  0  0  0  0  0
   -1.0847    1.2378    1.6107 C   0  0  0  0  0  0  0  0  0  0  0  0
   -1.3295    2.4210    1.3840 O   0  0  0  0  0  0  0  0  0  0  0  0
    0.1341    0.7948   -0.5912 C   0  0  0  0  0  0  0  0  0  0  0  0
    1.6091    0.0862   -1.3940 S   0  0  0  0  0  0  0  0  0  0  0  0
    0.6533   -1.4855    1.4300 H   0  0  0  0  0  0  0  0  0  0  0  0
    0.9740    0.7286    1.3867 H   0  0  0  0  0  0  0  0  0  0  0  0
   -0.7430    0.4230   -1.1309 H   0  0  0  0  0  0  0  0  0  0  0  0
    0.1734    1.8803   -0.7328 H   0  0  0  0  0  0  0  0  0  0  0  0
    1.3459    0.5736   -2.6132 H   0  0  0  0  0  0  0  0  0  0  0  0
   -1.7519    0.4564    2.5433 N   0  0  0  0  0  0  0  0  0  0  0  0
   -2.8363    0.9633    3.3514 C   0  0  2  0  0  0  0  0  0  0  0  0
   -3.2119   -0.1119    4.3624 C   0  0  0  0  0  0  0  0  0  0  0  0
   -2.9618   -1.3042    4.1978 O   0  0  0  0  0  0  0  0  0  0  0  0
   -4.0331    1.3456    2.4945 C   0  0  0  0  0  0  0  0  0  0  0  0
   -1.5053   -0.5240    2.6422 H   0  0  0  0  0  0  0  0  0  0  0  0
   -2.4529    1.8435    3.8789 H   0  0  0  0  0  0  0  0  0  0  0  0
   -4.4310    0.4765    1.9582 H   0  0  0  0  0  0  0  0  0  0  0  0
   -4.8435    1.7564    3.1056 H   0  0  0  0  0  0  0  0  0  0  0  0
   -3.7539    2.0974    1.7483 H   0  0  0  0  0  0  0  0  0  0  0  0
   -3.8975    0.4110    5.4499 N   0  0  0  0  0  0  0  0  0  0  0  0
   -4.3731   -0.4093    6.5395 C   0  0  0  0  0  0  0  0  0  0  0  0
   -4.0440    1.4141    5.5129 H   0  0  0  0  0  0  0  0  0  0  0  0
   -5.4086   -0.7215    6.3392 H   0  0  0  0  0  0  0  0  0  0  0  0
   -3.7337   -1.2994    6.6343 H   0  0  0  0  0  0  0  0  0  0  0  0
   -4.3388    0.1682    7.4751 H   0  0  0  0  0  0  0  0  0  0  0  0
  1  3  1  0  0  0  0
  1  7  1  0  0  0  0
  1  2  2  0  0  0  0
 29 30  1  0  0  0  0
 30 38  1  0  0  0  0
 30 31  2  0  0  0  0
  8  9  1  0  0  0  0
  9 17  1  0  0  0  0
  9 10  2  0  0  0  0
 18 19  1  0  0  0  0
 19 28  1  0  0  0  0
 19 20  2  0  0  0  0
 29 32  1  0  0  0  0
  8 11  1  0  0  0  0
 38 39  1  0  0  0  0
 18 21  1  0  0  0  0
 21 22  1  0  0  0  0
 28 29  1  0  0  0  0
  7  8  1  0  0  0  0
 17 18  1  0  0  0  0
  3  4  1  0  0  0  0
  3  5  1  0  0  0  0
  3  6  1  0  0  0  0
 32 35  1  0  0  0  0
 32 36  1  0  0  0  0
 32 37  1  0  0  0  0
 11 14  1  0  0  0  0
 11 15  1  0  0  0  0
 11 16  1  0  0  0  0
 39 41  1  0  0  0  0
 39 42  1  0  0  0  0
 39 43  1  0  0  0  0
 21 25  1  0  0  0  0
 21 26  1  0  0  0  0
 29 34  1  0  0  0  0
  8 13  1  0  0  0  0
 18 24  1  0  0  0  0
 38 40  1  0  0  0  0
  7 12  1  0  0  0  0
 28 33  1  0  0  0  0
 17 23  1  0  0  0  0
 22 27  1  0  0  0  0
M  END
$$$$

  -OEChem-05262214473D

 43 42  0     1  0  0  0  0  0999 V2000
   -2.8661   -4.7415    2.2943 C   0  0  0  0  0  0  0  0  0  0  0  0
   -2.0233   -5.5727    2.6109 O   0  0  0  0  0  0  0  0  0  0  0  0
   -4.3078   -5.0134    2.5698 C   0  0  0  0  0  0  0  0  0  0  0  0
   -4.8057   -5.5295    1.7332 H   0  0  0  0  0  0  0  0  0  0  0  0
   -4.4526   -5.6688    3.4436 H   0  0  0  0  0  0  0  0  0  0  0  0
   -4.9255   -4.1233    2.7700 H   0  0  0  0  0  0  0  0  0  0  0  0
   -2.6241   -3.5219    1.6838 N   0  0  0  0  0  0  0  0  0  0  0  0
   -1.3070   -3.0608    1.3315 C   0  0  2  0  0  0  0  0  0  0  0  0
   -1.3931   -1.5680    1.0422 C   0  0  0  0  0  0  0  0  0  0  0  0
   -2.4385   -1.0059    0.7226 O   0  0  0  0  0  0  0  0  0  0  0  0
   -0.7590   -3.8164    0.1309 C   0  0  0  0  0  0  0  0  0  0  0  0
   -3.4188   -2.9207    1.4735 H   0  0  0  0  0  0  0  0  0  0  0  0
   -0.6690   -3.2277    2.2062 H   0  0  0  0  0  0  0  0  0  0  0  0
   -1.3852   -3.6613   -0.7553 H   0  0  0  0  0  0  0  0  0  0  0  0
    0.2542   -3.4843   -0.1182 H   0  0  0  0  0  0  0  0  0  0  0  0
   -0.7257   -4.8930    0.3300 H   0  0  0  0  0  0  0  0  0  0  0  0
   -0.1563   -0.9420    1.1402 N   0  0  0  0  0  0  0  0  0  0  0  0
    0.0261    0.4671    0.9001 C   0  0  2  0  0  0  0  0  0  0  0  0
   -1.0847    1.2378    1.6107 C   0  0  0  0  0  0  0  0  0  0  0  0
   -1.5098    2.3201    1.2115 O   0  0  0  0  0  0  0  0  0  0  0  0
    0.1341    0.7948   -0.5912 C   0  0  0  0  0  0  0  0  0  0  0  0
    1.6091    0.0862   -1.3940 S   0  0  0  0  0  0  0  0  0  0  0  0
    0.6533   -1.4855    1.4300 H   0  0  0  0  0  0  0  0  0  0  0  0
    0.9740    0.7286    1.3867 H   0  0  0  0  0  0  0  0  0  0  0  0
   -0.7430    0.4230   -1.1309 H   0  0  0  0  0  0  0  0  0  0  0  0
    0.1734    1.8803   -0.7328 H   0  0  0  0  0  0  0  0  0  0  0  0
    1.3459    0.5736   -2.6132 H   0  0  0  0  0  0  0  0  0  0  0  0
   -1.5263    0.5873    2.7541 N   0  0  0  0  0  0  0  0  0  0  0  0
   -2.5644    1.1229    3.6033 C   0  0  2  0  0  0  0  0  0  0  0  0
   -2.6707    0.2328    4.8345 C   0  0  0  0  0  0  0  0  0  0  0  0
   -2.2858   -0.9345    4.8537 O   0  0  0  0  0  0  0  0  0  0  0  0
   -3.8948    1.1982    2.8705 C   0  0  0  0  0  0  0  0  0  0  0  0
   -1.1416   -0.3222    2.9920 H   0  0  0  0  0  0  0  0  0  0  0  0
   -2.2413    2.1256    3.9036 H   0  0  0  0  0  0  0  0  0  0  0  0
   -4.2347    0.2029    2.5617 H   0  0  0  0  0  0  0  0  0  0  0  0
   -4.6741    1.6310    3.5064 H   0  0  0  0  0  0  0  0  0  0  0  0
   -3.8089    1.8145    1.9691 H   0  0  0  0  0  0  0  0  0  0  0  0
   -3.2853    0.8818    5.8962 N   0  0  0  0  0  0  0  0  0  0  0  0
   -3.5145    0.2449    7.1721 C   0  0  0  0  0  0  0  0  0  0  0  0
   -3.5554    1.8561    5.7975 H   0  0  0  0  0  0  0  0  0  0  0  0
   -4.5158   -0.2104    7.1806 H   0  0  0  0  0  0  0  0  0  0  0  0
   -2.7558   -0.5350    7.3340 H   0  0  0  0  0  0  0  0  0  0  0  0
   -3.4461    0.9950    7.9738 H   0  0  0  0  0  0  0  0  0  0  0  0
  1  3  1  0  0  0  0
  1  7  1  0  0  0  0
  1  2  2  0  0  0  0
 29 30  1  0  0  0  0
 30 38  1  0  0  0  0
 30 31  2  0  0  0  0
  8  9  1  0  0  0  0
  9 17  1  0  0  0  0
  9 10  2  0  0  0  0
 18 19  1  0  0  0  0
 19 28  1  0  0  0  0
 19 20  2  0  0  0  0
 29 32  1  0  0  0  0
  8 11  1  0  0  0  0
 38 39  1  0  0  0  0
 18 21  1  0  0  0  0
 21 22  1  0  0  0  0
 28 29  1  0  0  0  0
  7  8  1  0  0  0  0
 17 18  1  0  0  0  0
  3  4  1  0  0  0  0
  3  5  1  0  0  0  0
  3  6  1  0  0  0  0
 32 35  1  0  0  0  0
 32 36  1  0  0  0  0
 32 37  1  0  0  0  0
 11 14  1  0  0  0  0
 11 15  1  0  0  0  0
 11 16  1  0  0  0  0
 39 41  1  0  0  0  0
 39 42  1  0  0  0  0
 39 43  1  0  0  0  0
 21 25  1  0  0  0  0
 21 26  1  0  0  0  0
 29 34  1  0  0  0  0
  8 13  1  0  0  0  0
 18 24  1  0  0  0  0
 38 40  1  0  0  0  0
  7 12  1  0  0  0  0
 28 33  1  0  0  0  0
 17 23  1  0  0  0  0
 22 27  1  0  0  0  0
M  END
$$$$

  -OEChem-05262214473D

 43 42  0     1  0  0  0  0  0999 V2000
   -2.8661   -4.7415    2.2943 C   0  0  0  0  0  0  0  0  0  0  0  0
   -2.0233   -5.5727    2.6109 O   0  0  0  0  0  0  0  0  0  0  0  0
   -4.3078   -5.0134    2.5698 C   0  0  0  0  0  0  0  0  0  0  0  0
   -4.8057   -5.5295    1.7332 H   0  0  0  0  0  0  0  0  0  0  0  0
   -4.4526   -5.6688    3.4436 H   0  0  0  0  0  0  0  0  0  0  0  0
   -4.9255   -4.1233    2.7700 H   0  0  0  0  0  0  0  0  0  0  0  0
   -2.6241   -3.5219    1.6838 N   0  0  0  0  0  0  0  0  0  0  0  0
   -1.3070   -3.0608    1.3315 C   0  0  2  0  0  0  0  0  0  0  0  0
   -1.3931   -1.5680    1.0422 C   0  0  0  0  0  0  0  0  0  0  0  0
   -2.4385   -1.0059    0.7226 O   0  0  0  0  0  0  0  0  0  0  0  0
   -0.7590   -3.8164    0.1309 C   0  0  0  0  0  0  0  0  0  0  0  0
   -3.4188   -2.9207    1.4735 H   0  0  0  0  0  0  0  0  0  0  0  0
   -0.6690   -3.2277    2.2062 H   0  0  0  0  0  0  0  0  0  0  0  0
   -1.3852   -3.6613   -0.7553 H   0  0  0  0  0  0  0  0  0  0  0  0
    0.2542   -3.4843   -0.1182 H   0  0  0  0  0  0  0  0  0  0  0  0
   -0.7257   -4.8930    0.3300 H   0  0  0  0  0  0  0  0  0  0  0  0
   -0.1563   -0.9420    1.1402 N   0  0  0  0  0  0  0  0  0  0  0  0
    0.0261    0.4671    0.9001 C   0  0  2  0  0  0  0  0  0  0  0  0
   -1.0847    1.2378    1.6107 C   0  0  0  0  0  0  0  0  0  0  0  0
   -1.6944    2.1684    1.0876 O   0  0  0  0  0  0  0  0  0  0  0  0
    0.1341    0.7948   -0.5912 C   0  0  0  0  0  0  0  0  0  0  0  0
    1.6091    0.0862   -1.3940 S   0  0  0  0  0  0  0  0  0  0  0  0
    0.6533   -1.4855    1.4300 H   0  0  0  0  0  0  0  0  0  0  0  0
    0.9740    0.7286    1.3867 H   0  0  0  0  0  0  0  0  0  0  0  0
   -0.7430    0.4230   -1.1309 H   0  0  0  0  0  0  0  0  0  0  0  0
    0.1734    1.8803   -0.7328 H   0  0  0  0  0  0  0  0  0  0  0  0
    1.3459    0.5736   -2.6132 H   0  0  0  0  0  0  0  0  0  0  0  0
   -1.2966    0.7805    2.9036 N   0  0  0  0  0  0  0  0  0  0  0  0
   -2.2881    1.3572    3.7811 C   0  0  2  0  0  0  0  0  0  0  0  0
   -2.1278    0.7198    5.1550 C   0  0  0  0  0  0  0  0  0  0  0  0
   -1.5917   -0.3725    5.3293 O   0  0  0  0  0  0  0  0  0  0  0  0
   -3.6945    1.1432    3.2434 C   0  0  0  0  0  0  0  0  0  0  0  0
   -0.7688   -0.0176    3.2444 H   0  0  0  0  0  0  0  0  0  0  0  0
   -2.0678    2.4282    3.8468 H   0  0  0  0  0  0  0  0  0  0  0  0
   -3.9334    0.0759    3.1705 H   0  0  0  0  0  0  0  0  0  0  0  0
   -4.4431    1.6057    3.8951 H   0  0  0  0  0  0  0  0  0  0  0  0
   -3.7992    1.5763    2.2428 H   0  0  0  0  0  0  0  0  0  0  0  0
   -2.6924    1.4944    6.1587 N   0  0  0  0  0  0  0  0  0  0  0  0
   -2.6814    1.0993    7.5479 C   0  0  0  0  0  0  0  0  0  0  0  0
   -3.0994    2.3954    5.9255 H   0  0  0  0  0  0  0  0  0  0  0  0
   -3.6051    0.5492    7.7806 H   0  0  0  0  0  0  0  0  0  0  0  0
   -1.8119    0.4528    7.7382 H   0  0  0  0  0  0  0  0  0  0  0  0
   -2.6183    1.9950    8.1832 H   0  0  0  0  0  0  0  0  0  0  0  0
  1  3  1  0  0  0  0
  1  7  1  0  0  0  0
  1  2  2  0  0  0  0
 29 30  1  0  0  0  0
 30 38  1  0  0  0  0
 30 31  2  0  0  0  0
  8  9  1  0  0  0  0
  9 17  1  0  0  0  0
  9 10  2  0  0  0  0
 18 19  1  0  0  0  0
 19 28  1  0  0  0  0
 19 20  2  0  0  0  0
 29 32  1  0  0  0  0
  8 11  1  0  0  0  0
 38 39  1  0  0  0  0
 18 21  1  0  0  0  0
 21 22  1  0  0  0  0
 28 29  1  0  0  0  0
  7  8  1  0  0  0  0
 17 18  1  0  0  0  0
  3  4  1  0  0  0  0
  3  5  1  0  0  0  0
  3  6  1  0  0  0  0
 32 35  1  0  0  0  0
 32 36  1  0  0  0  0
 32 37  1  0  0  0  0
 11 14  1  0  0  0  0
 11 15  1  0  0  0  0
 11 16  1  0  0  0  0
 39 41  1  0  0  0  0
 39 42  1  0  0  0  0
 39 43  1  0  0  0  0
 21 25  1  0  0  0  0
 21 26  1  0  0  0  0
 29 34  1  0  0  0  0
  8 13  1  0  0  0  0
 18 24  1  0  0  0  0
 38 40  1  0  0  0  0
  7 12  1  0  0  0  0
 28 33  1  0  0  0  0
 17 23  1  0  0  0  0
 22 27  1  0  0  0  0
M  END
$$$$

  -OEChem-05262214473D

 43 42  0     1  0  0  0  0  0999 V2000
   -2.8661   -4.7415    2.2943 C   0  0  0  0  0  0  0  0  0  0  0  0
   -2.0233   -5.5727    2.6109 O   0  0  0  0  0  0  0  0  0  0  0  0
   -4.3078   -5.0134    2.5698 C   0  0  0  0  0  0  0  0  0  0  0  0
   -4.8057   -5.5295    1.7332 H   0  0  0  0  0  0  0  0  0  0  0  0
   -4.4526   -5.6688    3.4436 H   0  0  0  0  0  0  0  0  0  0  0  0
   -4.9255   -4.1233    2.7700 H   0  0  0  0  0  0  0  0  0  0  0  0
   -2.6241   -3.5219    1.6838 N   0  0  0  0  0  0  0  0  0  0  0  0
   -1.3070   -3.0608    1.3315 C   0  0  2  0  0  0  0  0  0  0  0  0
   -1.3931   -1.5680    1.0422 C   0  0  0  0  0  0  0  0  0  0  0  0
   -2.4385   -1.0059    0.7226 O   0  0  0  0  0  0  0  0  0  0  0  0
   -0.7590   -3.8164    0.1309 C   0  0  0  0  0  0  0  0  0  0  0  0
   -3.4188   -2.9207    1.4735 H   0  0  0  0  0  0  0  0  0  0  0  0
   -0.6690   -3.2277    2.2062 H   0  0  0  0  0  0  0  0  0  0  0  0
   -1.3852   -3.6613   -0.7553 H   0  0  0  0  0  0  0  0  0  0  0  0
    0.2542   -3.4843   -0.1182 H   0  0  0  0  0  0  0  0  0  0  0  0
   -0.7257   -4.8930    0.3300 H   0  0  0  0  0  0  0  0  0  0  0  0
   -0.1563   -0.9420    1.1402 N   0  0  0  0  0  0  0  0  0  0  0  0
    0.0261    0.4671    0.9001 C   0  0  2  0  0  0  0  0  0  0  0  0
   -1.0847    1.2378    1.6107 C   0  0  0  0  0  0  0  0  0  0  0  0
   -1.8706    1.9763    1.0205 O   0  0  0  0  0  0  0  0  0  0  0  0
    0.1341    0.7948   -0.5912 C   0  0  0  0  0  0  0  0  0  0  0  0
    1.6091    0.0862   -1.3940 S   0  0  0  0  0  0  0  0  0  0  0  0
    0.6533   -1.4855    1.4300 H   0  0  0  0  0  0  0  0  0  0  0  0
    0.9740    0.7286    1.3867 H   0  0  0  0  0  0  0  0  0  0  0  0
   -0.7430    0.4230   -1.1309 H   0  0  0  0  0  0  0  0  0  0  0  0
    0.1734    1.8803   -0.7328 H   0  0  0  0  0  0  0  0  0  0  0  0
    1.3459    0.5736   -2.6132 H   0  0  0  0  0  0  0  0  0  0  0  0
   -1.0785    1.0230    2.9816 N   0  0  0  0  0  0  0  0  0  0  0  0
   -2.0263    1.6502    3.8727 C   0  0  2  0  0  0  0  0  0  0  0  0
   -1.6202    1.3159    5.3020 C   0  0  0  0  0  0  0  0  0  0  0  0
   -0.9267    0.3434    5.5923 O   0  0  0  0  0  0  0  0  0  0  0  0
   -3.4456    1.1844    3.5878 C   0  0  0  0  0  0  0  0  0  0  0  0
   -0.4125    0.3689    3.3821 H   0  0  0  0  0  0  0  0  0  0  0  0
   -1.9440    2.7307    3.7123 H   0  0  0  0  0  0  0  0  0  0  0  0
   -3.5475    0.1041    3.7432 H   0  0  0  0  0  0  0  0  0  0  0  0
   -4.1661    1.6822    4.2451 H   0  0  0  0  0  0  0  0  0  0  0  0
   -3.7253    1.3988    2.5507 H   0  0  0  0  0  0  0  0  0  0  0  0
   -2.1592    2.2069    6.2196 N   0  0  0  0  0  0  0  0  0  0  0  0
   -1.9304    2.0956    7.6413 C   0  0  0  0  0  0  0  0  0  0  0  0
   -2.7071    2.9953    5.8880 H   0  0  0  0  0  0  0  0  0  0  0  0
   -2.7385    1.5054    8.0981 H   0  0  0  0  0  0  0  0  0  0  0  0
   -0.9664    1.5967    7.8194 H   0  0  0  0  0  0  0  0  0  0  0  0
   -1.9118    3.1001    8.0892 H   0  0  0  0  0  0  0  0  0  0  0  0
  1  3  1  0  0  0  0
  1  7  1  0  0  0  0
  1  2  2  0  0  0  0
 29 30  1  0  0  0  0
 30 38  1  0  0  0  0
 30 31  2  0  0  0  0
  8  9  1  0  0  0  0
  9 17  1  0  0  0  0
  9 10  2  0  0  0  0
 18 19  1  0  0  0  0
 19 28  1  0  0  0  0
 19 20  2  0  0  0  0
 29 32  1  0  0  0  0
  8 11  1  0  0  0  0
 38 39  1  0  0  0  0
 18 21  1  0  0  0  0
 21 22  1  0  0  0  0
 28 29  1  0  0  0  0
  7  8  1  0  0  0  0
 17 18  1  0  0  0  0
  3  4  1  0  0  0  0
  3  5  1  0  0  0  0
  3  6  1  0  0  0  0
 32 35  1  0  0  0  0
 32 36  1  0  0  0  0
 32 37  1  0  0  0  0
 11 14  1  0  0  0  0
 11 15  1  0  0  0  0
 11 16  1  0  0  0  0
 39 41  1  0  0  0  0
 39 42  1  0  0  0  0
 39 43  1  0  0  0  0
 21 25  1  0  0  0  0
 21 26  1  0  0  0  0
 29 34  1  0  0  0  0
  8 13  1  0  0  0  0
 18 24  1  0  0  0  0
 38 40  1  0  0  0  0
  7 12  1  0  0  0  0
 28 33  1  0  0  0  0
 17 23  1  0  0  0  0
 22 27  1  0  0  0  0
M  END
$$$$

  -OEChem-05262214473D

 43 42  0     1  0  0  0  0  0999 V2000
   -2.8661   -4.7415    2.2943 C   0  0  0  0  0  0  0  0  0  0  0  0
   -2.0233   -5.5727    2.6109 O   0  0  0  0  0  0  0  0  0  0  0  0
   -4.3078   -5.0134    2.5698 C   0  0  0  0  0  0  0  0  0  0  0  0
   -4.8057   -5.5295    1.7332 H   0  0  0  0  0  0  0  0  0  0  0  0
   -4.4526   -5.6688    3.4436 H   0  0  0  0  0  0  0  0  0  0  0  0
   -4.9255   -4.1233    2.7700 H   0  0  0  0  0  0  0  0  0  0  0  0
   -2.6241   -3.5219    1.6838 N   0  0  0  0  0  0  0  0  0  0  0  0
   -1.3070   -3.0608    1.3315 C   0  0  2  0  0  0  0  0  0  0  0  0
   -1.3931   -1.5680    1.0422 C   0  0  0  0  0  0  0  0  0  0  0  0
   -2.4385   -1.0059    0.7226 O   0  0  0  0  0  0  0  0  0  0  0  0
   -0.7590   -3.8164    0.1309 C   0  0  0  0  0  0  0  0  0  0  0  0
   -3.4188   -2.9207    1.4735 H   0  0  0  0  0  0  0  0  0  0  0  0
   -0.6690   -3.2277    2.2062 H   0  0  0  0  0  0  0  0  0  0  0  0
   -1.3852   -3.6613   -0.7553 H   0  0  0  0  0  0  0  0  0  0  0  0
    0.2542   -3.4843   -0.1182 H   0  0  0  0  0  0  0  0  0  0  0  0
   -0.7257   -4.8930    0.3300 H   0  0  0  0  0  0  0  0  0  0  0  0
   -0.1563   -0.9420    1.1402 N   0  0  0  0  0  0  0  0  0  0  0  0
    0.0261    0.4671    0.9001 C   0  0  2  0  0  0  0  0  0  0  0  0
   -1.0847    1.2378    1.6107 C   0  0  0  0  0  0  0  0  0  0  0  0
   -2.0264    1.7569    1.0148 O   0  0  0  0  0  0  0  0  0  0  0  0
    0.1341    0.7948   -0.5912 C   0  0  0  0  0  0  0  0  0  0  0  0
    1.6091    0.0862   -1.3940 S   0  0  0  0  0  0  0  0  0  0  0  0
    0.6533   -1.4855    1.4300 H   0  0  0  0  0  0  0  0  0  0  0  0
    0.9740    0.7286    1.3867 H   0  0  0  0  0  0  0  0  0  0  0  0
   -0.7430    0.4230   -1.1309 H   0  0  0  0  0  0  0  0  0  0  0  0
    0.1734    1.8803   -0.7328 H   0  0  0  0  0  0  0  0  0  0  0  0
    1.3459    0.5736   -2.6132 H   0  0  0  0  0  0  0  0  0  0  0  0
   -0.8868    1.2981    2.9828 N   0  0  0  0  0  0  0  0  0  0  0  0
   -1.7966    1.9820    3.8718 C   0  0  2  0  0  0  0  0  0  0  0  0
   -1.1825    1.9805    5.2655 C   0  0  0  0  0  0  0  0  0  0  0  0
   -0.3363    1.1645    5.6248 O   0  0  0  0  0  0  0  0  0  0  0  0
   -3.1652    1.3190    3.8802 C   0  0  0  0  0  0  0  0  0  0  0  0
   -0.0969    0.8112    3.3959 H   0  0  0  0  0  0  0  0  0  0  0  0
   -1.8784    3.0125    3.5092 H   0  0  0  0  0  0  0  0  0  0  0  0
   -3.1034    0.2856    4.2406 H   0  0  0  0  0  0  0  0  0  0  0  0
   -3.8620    1.8554    4.5326 H   0  0  0  0  0  0  0  0  0  0  0  0
   -3.5924    1.2942    2.8719 H   0  0  0  0  0  0  0  0  0  0  0  0
   -1.7220    2.9708    6.0746 N   0  0  0  0  0  0  0  0  0  0  0  0
   -1.3128    3.1660    7.4458 C   0  0  0  0  0  0  0  0  0  0  0  0
   -2.4054    3.6149    5.6876 H   0  0  0  0  0  0  0  0  0  0  0  0
   -1.9751    2.5933    8.1117 H   0  0  0  0  0  0  0  0  0  0  0  0
   -0.2767    2.8188    7.5721 H   0  0  0  0  0  0  0  0  0  0  0  0
   -1.3747    4.2349    7.6982 H   0  0  0  0  0  0  0  0  0  0  0  0
  1  3  1  0  0  0  0
  1  7  1  0  0  0  0
  1  2  2  0  0  0  0
 29 30  1  0  0  0  0
 30 38  1  0  0  0  0
 30 31  2  0  0  0  0
  8  9  1  0  0  0  0
  9 17  1  0  0  0  0
  9 10  2  0  0  0  0
 18 19  1  0  0  0  0
 19 28  1  0  0  0  0
 19 20  2  0  0  0  0
 29 32  1  0  0  0  0
  8 11  1  0  0  0  0
 38 39  1  0  0  0  0
 18 21  1  0  0  0  0
 21 22  1  0  0  0  0
 28 29  1  0  0  0  0
  7  8  1  0  0  0  0
 17 18  1  0  0  0  0
  3  4  1  0  0  0  0
  3  5  1  0  0  0  0
  3  6  1  0  0  0  0
 32 35  1  0  0  0  0
 32 36  1  0  0  0  0
 32 37  1  0  0  0  0
 11 14  1  0  0  0  0
 11 15  1  0  0  0  0
 11 16  1  0  0  0  0
 39 41  1  0  0  0  0
 39 42  1  0  0  0  0
 39 43  1  0  0  0  0
 21 25  1  0  0  0  0
 21 26  1  0  0  0  0
 29 34  1  0  0  0  0
  8 13  1  0  0  0  0
 18 24  1  0  0  0  0
 38 40  1  0  0  0  0
  7 12  1  0  0  0  0
 28 33  1  0  0  0  0
 17 23  1  0  0  0  0
 22 27  1  0  0  0  0
M  END
$$$$

  -OEChem-05262214473D

 43 42  0     1  0  0  0  0  0999 V2000
   -2.8661   -4.7415    2.2943 C   0  0  0  0  0  0  0  0  0  0  0  0
   -2.0233   -5.5727    2.6109 O   0  0  0  0  0  0  0  0  0  0  0  0
   -4.3078   -5.0134    2.5698 C   0  0  0  0  0  0  0  0  0  0  0  0
   -4.8057   -5.5295    1.7332 H   0  0  0  0  0  0  0  0  0  0  0  0
   -4.4526   -5.6688    3.4436 H   0  0  0  0  0  0  0  0  0  0  0  0
   -4.9255   -4.1233    2.7700 H   0  0  0  0  0  0  0  0  0  0  0  0
   -2.6241   -3.5219    1.6838 N   0  0  0  0  0  0  0  0  0  0  0  0
   -1.3070   -3.0608    1.3315 C   0  0  2  0  0  0  0  0  0  0  0  0
   -1.3931   -1.5680    1.0422 C   0  0  0  0  0  0  0  0  0  0  0  0
   -2.4385   -1.0059    0.7226 O   0  0  0  0  0  0  0  0  0  0  0  0
   -0.7590   -3.8164    0.1309 C   0  0  0  0  0  0  0  0  0  0  0  0
   -3.4188   -2.9207    1.4735 H   0  0  0  0  0  0  0  0  0  0  0  0
   -0.6690   -3.2277    2.2062 H   0  0  0  0  0  0  0  0  0  0  0  0
   -1.3852   -3.6613   -0.7553 H   0  0  0  0  0  0  0  0  0  0  0  0
    0.2542   -3.4843   -0.1182 H   0  0  0  0  0  0  0  0  0  0  0  0
   -0.7257   -4.8930    0.3300 H   0  0  0  0  0  0  0  0  0  0  0  0
   -0.1563   -0.9420    1.1402 N   0  0  0  0  0  0  0  0  0  0  0  0
    0.0261    0.4671    0.9001 C   0  0  2  0  0  0  0  0  0  0  0  0
   -1.0847    1.2378    1.6107 C   0  0  0  0  0  0  0  0  0  0  0  0
   -2.1512    1.5252    1.0710 O   0  0  0  0  0  0  0  0  0  0  0  0
    0.1341    0.7948   -0.5912 C   0  0  0  0  0  0  0  0  0  0  0  0
    1.6091    0.0862   -1.3940 S   0  0  0  0  0  0  0  0  0  0  0  0
    0.6533   -1.4855    1.4300 H   0  0  0  0  0  0  0  0  0  0  0  0
    0.9740    0.7286    1.3867 H   0  0  0  0  0  0  0  0  0  0  0  0
   -0.7430    0.4230   -1.1309 H   0  0  0  0  0  0  0  0  0  0  0  0
    0.1734    1.8803   -0.7328 H   0  0  0  0  0  0  0  0  0  0  0  0
    1.3459    0.5736   -2.6132 H   0  0  0  0  0  0  0  0  0  0  0  0
   -0.7346    1.5872    2.9072 N   0  0  0  0  0  0  0  0  0  0  0  0
   -1.6149    2.3300    3.7785 C   0  0  2  0  0  0  0  0  0  0  0  0
   -0.8445    2.6683    5.0479 C   0  0  0  0  0  0  0  0  0  0  0  0
    0.1394    2.0348    5.4245 O   0  0  0  0  0  0  0  0  0  0  0  0
   -2.8724    1.5377    4.1006 C   0  0  0  0  0  0  0  0  0  0  0  0
    0.1565    1.2789    3.2848 H   0  0  0  0  0  0  0  0  0  0  0  0
   -1.8755    3.2543    3.2514 H   0  0  0  0  0  0  0  0  0  0  0  0
   -2.6313    0.6081    4.6289 H   0  0  0  0  0  0  0  0  0  0  0  0
   -3.5516    2.1134    4.7380 H   0  0  0  0  0  0  0  0  0  0  0  0
   -3.4095    1.2697    3.1844 H   0  0  0  0  0  0  0  0  0  0  0  0
   -1.4106    3.7339    5.7336 N   0  0  0  0  0  0  0  0  0  0  0  0
   -0.8707    4.2375    6.9749 C   0  0  0  0  0  0  0  0  0  0  0  0
   -2.2148    4.2121    5.3380 H   0  0  0  0  0  0  0  0  0  0  0  0
   -1.3669    3.7385    7.8204 H   0  0  0  0  0  0  0  0  0  0  0  0
    0.2100    4.0357    7.0132 H   0  0  0  0  0  0  0  0  0  0  0  0
   -1.0435    5.3220    7.0367 H   0  0  0  0  0  0  0  0  0  0  0  0
  1  3  1  0  0  0  0
  1  7  1  0  0  0  0
  1  2  2  0  0  0  0
 29 30  1  0  0  0  0
 30 38  1  0  0  0  0
 30 31  2  0  0  0  0
  8  9  1  0  0  0  0
  9 17  1  0  0  0  0
  9 10  2  0  0  0  0
 18 19  1  0  0  0  0
 19 28  1  0  0  0  0
 19 20  2  0  0  0  0
 29 32  1  0  0  0  0
  8 11  1  0  0  0  0
 38 39  1  0  0  0  0
 18 21  1  0  0  0  0
 21 22  1  0  0  0  0
 28 29  1  0  0  0  0
  7  8  1  0  0  0  0
 17 18  1  0  0  0  0
  3  4  1  0  0  0  0
  3  5  1  0  0  0  0
  3  6  1  0  0  0  0
 32 35  1  0  0  0  0
 32 36  1  0  0  0  0
 32 37  1  0  0  0  0
 11 14  1  0  0  0  0
 11 15  1  0  0  0  0
 11 16  1  0  0  0  0
 39 41  1  0  0  0  0
 39 42  1  0  0  0  0
 39 43  1  0  0  0  0
 21 25  1  0  0  0  0
 21 26  1  0  0  0  0
 29 34  1  0  0  0  0
  8 13  1  0  0  0  0
 18 24  1  0  0  0  0
 38 40  1  0  0  0  0
  7 12  1  0  0  0  0
 28 33  1  0  0  0  0
 17 23  1  0  0  0  0
 22 27  1  0  0  0  0
M  END
$$$$

  -OEChem-05262214473D

 43 42  0     1  0  0  0  0  0999 V2000
   -2.8661   -4.7415    2.2943 C   0  0  0  0  0  0  0  0  0  0  0  0
   -2.0233   -5.5727    2.6109 O   0  0  0  0  0  0  0  0  0  0  0  0
   -4.3078   -5.0134    2.5698 C   0  0  0  0  0  0  0  0  0  0  0  0
   -4.8057   -5.5295    1.7332 H   0  0  0  0  0  0  0  0  0  0  0  0
   -4.4526   -5.6688    3.4436 H   0  0  0  0  0  0  0  0  0  0  0  0
   -4.9255   -4.1233    2.7700 H   0  0  0  0  0  0  0  0  0  0  0  0
   -2.6241   -3.5219    1.6838 N   0  0  0  0  0  0  0  0  0  0  0  0
   -1.3070   -3.0608    1.3315 C   0  0  2  0  0  0  0  0  0  0  0  0
   -1.3931   -1.5680    1.0422 C   0  0  0  0  0  0  0  0  0  0  0  0
   -2.4385   -1.0059    0.7226 O   0  0  0  0  0  0  0  0  0  0  0  0
   -0.7590   -3.8164    0.1309 C   0  0  0  0  0  0  0  0  0  0  0  0
   -3.4188   -2.9207    1.4735 H   0  0  0  0  0  0  0  0  0  0  0  0
   -0.6690   -3.2277    2.2062 H   0  0  0  0  0  0  0  0  0  0  0  0
   -1.3852   -3.6613   -0.7553 H   0  0  0  0  0  0  0  0  0  0  0  0
    0.2542   -3.4843   -0.1182 H   0  0  0  0  0  0  0  0  0  0  0  0
   -0.7257   -4.8930    0.3300 H   0  0  0  0  0  0  0  0  0  0  0  0
   -0.1563   -0.9420    1.1402 N   0  0  0  0  0  0  0  0  0  0  0  0
    0.0261    0.4671    0.9001 C   0  0  2  0  0  0  0  0  0  0  0  0
   -1.0847    1.2378    1.6107 C   0  0  0  0  0  0  0  0  0  0  0  0
   -2.2366    1.2969    1.1852 O   0  0  0  0  0  0  0  0  0  0  0  0
    0.1341    0.7948   -0.5912 C   0  0  0  0  0  0  0  0  0  0  0  0
    1.6091    0.0862   -1.3940 S   0  0  0  0  0  0  0  0  0  0  0  0
    0.6533   -1.4855    1.4300 H   0  0  0  0  0  0  0  0  0  0  0  0
    0.9740    0.7286    1.3867 H   0  0  0  0  0  0  0  0  0  0  0  0
   -0.7430    0.4230   -1.1309 H   0  0  0  0  0  0  0  0  0  0  0  0
    0.1734    1.8803   -0.7328 H   0  0  0  0  0  0  0  0  0  0  0  0
    1.3459    0.5736   -2.6132 H   0  0  0  0  0  0  0  0  0  0  0  0
   -0.6323    1.8705    2.7599 N   0  0  0  0  0  0  0  0  0  0  0  0
   -1.4934    2.6704    3.5991 C   0  0  2  0  0  0  0  0  0  0  0  0
   -0.6292    3.3324    4.6642 C   0  0  0  0  0  0  0  0  0  0  0  0
    0.4679    2.8951    5.0050 O   0  0  0  0  0  0  0  0  0  0  0  0
   -2.5871    1.8258    4.2342 C   0  0  0  0  0  0  0  0  0  0  0  0
    0.3304    1.7403    3.0563 H   0  0  0  0  0  0  0  0  0  0  0  0
   -1.9354    3.4397    2.9566 H   0  0  0  0  0  0  0  0  0  0  0  0
   -2.1634    1.0495    4.8816 H   0  0  0  0  0  0  0  0  0  0  0  0
   -3.2561    2.4387    4.8473 H   0  0  0  0  0  0  0  0  0  0  0  0
   -3.1891    1.3268    3.4671 H   0  0  0  0  0  0  0  0  0  0  0  0
   -1.2463    4.4444    5.2200 N   0  0  0  0  0  0  0  0  0  0  0  0
   -0.6341    5.2370    6.2606 C   0  0  0  0  0  0  0  0  0  0  0  0
   -2.1482    4.7460    4.8630 H   0  0  0  0  0  0  0  0  0  0  0  0
   -0.9554    4.8631    7.2440 H   0  0  0  0  0  0  0  0  0  0  0  0
    0.4606    5.1645    6.1807 H   0  0  0  0  0  0  0  0  0  0  0  0
   -0.9410    6.2875    6.1498 H   0  0  0  0  0  0  0  0  0  0  0  0
  1  3  1  0  0  0  0
  1  7  1  0  0  0  0
  1  2  2  0  0  0  0
 29 30  1  0  0  0  0
 30 38  1  0  0  0  0
 30 31  2  0  0  0  0
  8  9  1  0  0  0  0
  9 17  1  0  0  0  0
  9 10  2  0  0  0  0
 18 19  1  0  0  0  0
 19 28  1  0  0  0  0
 19 20  2  0  0  0  0
 29 32  1  0  0  0  0
  8 11  1  0  0  0  0
 38 39  1  0  0  0  0
 18 21  1  0  0  0  0
 21 22  1  0  0  0  0
 28 29  1  0  0  0  0
  7  8  1  0  0  0  0
 17 18  1  0  0  0  0
  3  4  1  0  0  0  0
  3  5  1  0  0  0  0
  3  6  1  0  0  0  0
 32 35  1  0  0  0  0
 32 36  1  0  0  0  0
 32 37  1  0  0  0  0
 11 14  1  0  0  0  0
 11 15  1  0  0  0  0
 11 16  1  0  0  0  0
 39 41  1  0  0  0  0
 39 42  1  0  0  0  0
 39 43  1  0  0  0  0
 21 25  1  0  0  0  0
 21 26  1  0  0  0  0
 29 34  1  0  0  0  0
  8 13  1  0  0  0  0
 18 24  1  0  0  0  0
 38 40  1  0  0  0  0
  7 12  1  0  0  0  0
 28 33  1  0  0  0  0
 17 23  1  0  0  0  0
 22 27  1  0  0  0  0
M  END
$$$$

  -OEChem-05262214473D

 43 42  0     1  0  0  0  0  0999 V2000
   -2.8661   -4.7415    2.2943 C   0  0  0  0  0  0  0  0  0  0  0  0
   -2.0233   -5.5727    2.6109 O   0  0  0  0  0  0  0  0  0  0  0  0
   -4.3078   -5.0134    2.5698 C   0  0  0  0  0  0  0  0  0  0  0  0
   -4.8057   -5.5295    1.7332 H   0  0  0  0  0  0  0  0  0  0  0  0
   -4.4526   -5.6688    3.4436 H   0  0  0  0  0  0  0  0  0  0  0  0
   -4.9255   -4.1233    2.7700 H   0  0  0  0  0  0  0  0  0  0  0  0
   -2.6241   -3.5219    1.6838 N   0  0  0  0  0  0  0  0  0  0  0  0
   -1.3070   -3.0608    1.3315 C   0  0  2  0  0  0  0  0  0  0  0  0
   -1.3931   -1.5680    1.0422 C   0  0  0  0  0  0  0  0  0  0  0  0
   -2.4385   -1.0059    0.7226 O   0  0  0  0  0  0  0  0  0  0  0  0
   -0.7590   -3.8164    0.1309 C   0  0  0  0  0  0  0  0  0  0  0  0
   -3.4188   -2.9207    1.4735 H   0  0  0  0  0  0  0  0  0  0  0  0
   -0.6690   -3.2277    2.2062 H   0  0  0  0  0  0  0  0  0  0  0  0
   -1.3852   -3.6613   -0.7553 H   0  0  0  0  0  0  0  0  0  0  0  0
    0.2542   -3.4843   -0.1182 H   0  0  0  0  0  0  0  0  0  0  0  0
   -0.7257   -4.8930    0.3300 H   0  0  0  0  0  0  0  0  0  0  0  0
   -0.1563   -0.9420    1.1402 N   0  0  0  0  0  0  0  0  0  0  0  0
    0.0261    0.4671    0.9001 C   0  0  2  0  0  0  0  0  0  0  0  0
   -1.0847    1.2378    1.6107 C   0  0  0  0  0  0  0  0  0  0  0  0
   -2.2766    1.0876    1.3496 O   0  0  0  0  0  0  0  0  0  0  0  0
    0.1341    0.7948   -0.5912 C   0  0  0  0  0  0  0  0  0  0  0  0
    1.6091    0.0862   -1.3940 S   0  0  0  0  0  0  0  0  0  0  0  0
    0.6533   -1.4855    1.4300 H   0  0  0  0  0  0  0  0  0  0  0  0
    0.9740    0.7286    1.3867 H   0  0  0  0  0  0  0  0  0  0  0  0
   -0.7430    0.4230   -1.1309 H   0  0  0  0  0  0  0  0  0  0  0  0
    0.1734    1.8803   -0.7328 H   0  0  0  0  0  0  0  0  0  0  0  0
    1.3459    0.5736   -2.6132 H   0  0  0  0  0  0  0  0  0  0  0  0
   -0.5868    2.1288    2.5508 N   0  0  0  0  0  0  0  0  0  0  0  0
   -1.4406    2.9801    3.3459 C   0  0  2  0  0  0  0  0  0  0  0  0
   -0.5514    3.9276    4.1404 C   0  0  0  0  0  0  0  0  0  0  0  0
    0.6268    3.6866    4.3950 O   0  0  0  0  0  0  0  0  0  0  0  0
   -2.3288    2.1636    4.2717 C   0  0  0  0  0  0  0  0  0  0  0  0
    0.4131    2.1639    2.7260 H   0  0  0  0  0  0  0  0  0  0  0  0
   -2.0542    3.5561    2.6447 H   0  0  0  0  0  0  0  0  0  0  0  0
   -1.7316    1.5797    4.9815 H   0  0  0  0  0  0  0  0  0  0  0  0
   -2.9954    2.8090    4.8531 H   0  0  0  0  0  0  0  0  0  0  0  0
   -2.9461    1.4618    3.7006 H   0  0  0  0  0  0  0  0  0  0  0  0
   -1.2401    5.0538    4.5686 N   0  0  0  0  0  0  0  0  0  0  0  0
   -0.6193    6.0966    5.3516 C   0  0  0  0  0  0  0  0  0  0  0  0
   -2.2101    5.1804    4.2950 H   0  0  0  0  0  0  0  0  0  0  0  0
   -0.7686    5.8904    6.4218 H   0  0  0  0  0  0  0  0  0  0  0  0
    0.4580    6.1283    5.1313 H   0  0  0  0  0  0  0  0  0  0  0  0
   -1.0741    7.0655    5.0980 H   0  0  0  0  0  0  0  0  0  0  0  0
  1  3  1  0  0  0  0
  1  7  1  0  0  0  0
  1  2  2  0  0  0  0
 29 30  1  0  0  0  0
 30 38  1  0  0  0  0
 30 31  2  0  0  0  0
  8  9  1  0  0  0  0
  9 17  1  0  0  0  0
  9 10  2  0  0  0  0
 18 19  1  0  0  0  0
 19 28  1  0  0  0  0
 19 20  2  0  0  0  0
 29 32  1  0  0  0  0
  8 11  1  0  0  0  0
 38 39  1  0  0  0  0
 18 21  1  0  0  0  0
 21 22  1  0  0  0  0
 28 29  1  0  0  0  0
  7  8  1  0  0  0  0
 17 18  1  0  0  0  0
  3  4  1  0  0  0  0
  3  5  1  0  0  0  0
  3  6  1  0  0  0  0
 32 35  1  0  0  0  0
 32 36  1  0  0  0  0
 32 37  1  0  0  0  0
 11 14  1  0  0  0  0
 11 15  1  0  0  0  0
 11 16  1  0  0  0  0
 39 41  1  0  0  0  0
 39 42  1  0  0  0  0
 39 43  1  0  0  0  0
 21 25  1  0  0  0  0
 21 26  1  0  0  0  0
 29 34  1  0  0  0  0
  8 13  1  0  0  0  0
 18 24  1  0  0  0  0
 38 40  1  0  0  0  0
  7 12  1  0  0  0  0
 28 33  1  0  0  0  0
 17 23  1  0  0  0  0
 22 27  1  0  0  0  0
M  END
$$$$

  -OEChem-05262214473D

 43 42  0     1  0  0  0  0  0999 V2000
   -2.8661   -4.7415    2.2943 C   0  0  0  0  0  0  0  0  0  0  0  0
   -2.0233   -5.5727    2.6109 O   0  0  0  0  0  0  0  0  0  0  0  0
   -4.3078   -5.0134    2.5698 C   0  0  0  0  0  0  0  0  0  0  0  0
   -4.8057   -5.5295    1.7332 H   0  0  0  0  0  0  0  0  0  0  0  0
   -4.4526   -5.6688    3.4436 H   0  0  0  0  0  0  0  0  0  0  0  0
   -4.9255   -4.1233    2.7700 H   0  0  0  0  0  0  0  0  0  0  0  0
   -2.6241   -3.5219    1.6838 N   0  0  0  0  0  0  0  0  0  0  0  0
   -1.3070   -3.0608    1.3315 C   0  0  2  0  0  0  0  0  0  0  0  0
   -1.3931   -1.5680    1.0422 C   0  0  0  0  0  0  0  0  0  0  0  0
   -2.4385   -1.0059    0.7226 O   0  0  0  0  0  0  0  0  0  0  0  0
   -0.7590   -3.8164    0.1309 C   0  0  0  0  0  0  0  0  0  0  0  0
   -3.4188   -2.9207    1.4735 H   0  0  0  0  0  0  0  0  0  0  0  0
   -0.6690   -3.2277    2.2062 H   0  0  0  0  0  0  0  0  0  0  0  0
   -1.3852   -3.6613   -0.7553 H   0  0  0  0  0  0  0  0  0  0  0  0
    0.2542   -3.4843   -0.1182 H   0  0  0  0  0  0  0  0  0  0  0  0
   -0.7257   -4.8930    0.3300 H   0  0  0  0  0  0  0  0  0  0  0  0
   -0.1563   -0.9420    1.1402 N   0  0  0  0  0  0  0  0  0  0  0  0
    0.0261    0.4671    0.9001 C   0  0  2  0  0  0  0  0  0  0  0  0
   -1.0847    1.2378    1.6107 C   0  0  0  0  0  0  0  0  0  0  0  0
   -2.2686    0.9116    1.5530 O   0  0  0  0  0  0  0  0  0  0  0  0
    0.1341    0.7948   -0.5912 C   0  0  0  0  0  0  0  0  0  0  0  0
    1.6091    0.0862   -1.3940 S   0  0  0  0  0  0  0  0  0  0  0  0
    0.6533   -1.4855    1.4300 H   0  0  0  0  0  0  0  0  0  0  0  0
    0.9740    0.7286    1.3867 H   0  0  0  0  0  0  0  0  0  0  0  0
   -0.7430    0.4230   -1.1309 H   0  0  0  0  0  0  0  0  0  0  0  0
    0.1734    1.8803   -0.7328 H   0  0  0  0  0  0  0  0  0  0  0  0
    1.3459    0.5736   -2.6132 H   0  0  0  0  0  0  0  0  0  0  0  0
   -0.6013    2.3444    2.2944 N   0  0  0  0  0  0  0  0  0  0  0  0
   -1.4598    3.2380    3.0361 C   0  0  2  0  0  0  0  0  0  0  0  0
   -0.6163    4.4132    3.5123 C   0  0  0  0  0  0  0  0  0  0  0  0
    0.6054    4.3555    3.6361 O   0  0  0  0  0  0  0  0  0  0  0  0
   -2.1150    2.5280    4.2106 C   0  0  0  0  0  0  0  0  0  0  0  0
    0.3987    2.5209    2.3164 H   0  0  0  0  0  0  0  0  0  0  0  0
   -2.2237    3.5955    2.3370 H   0  0  0  0  0  0  0  0  0  0  0  0
   -1.3653    2.1627    4.9219 H   0  0  0  0  0  0  0  0  0  0  0  0
   -2.7876    3.1992    4.7549 H   0  0  0  0  0  0  0  0  0  0  0  0
   -2.6971    1.6653    3.8690 H   0  0  0  0  0  0  0  0  0  0  0  0
   -1.3927    5.5206    3.8239 N   0  0  0  0  0  0  0  0  0  0  0  0
   -0.8271    6.7575    4.3099 C   0  0  0  0  0  0  0  0  0  0  0  0
   -2.3965    5.4856    3.6727 H   0  0  0  0  0  0  0  0  0  0  0  0
   -0.8192    6.7505    5.4098 H   0  0  0  0  0  0  0  0  0  0  0  0
    0.2024    6.8614    3.9366 H   0  0  0  0  0  0  0  0  0  0  0  0
   -1.4336    7.6030    3.9530 H   0  0  0  0  0  0  0  0  0  0  0  0
  1  3  1  0  0  0  0
  1  7  1  0  0  0  0
  1  2  2  0  0  0  0
 29 30  1  0  0  0  0
 30 38  1  0  0  0  0
 30 31  2  0  0  0  0
  8  9  1  0  0  0  0
  9 17  1  0  0  0  0
  9 10  2  0  0  0  0
 18 19  1  0  0  0  0
 19 28  1  0  0  0  0
 19 20  2  0  0  0  0
 29 32  1  0  0  0  0
  8 11  1  0  0  0  0
 38 39  1  0  0  0  0
 18 21  1  0  0  0  0
 21 22  1  0  0  0  0
 28 29  1  0  0  0  0
  7  8  1  0  0  0  0
 17 18  1  0  0  0  0
  3  4  1  0  0  0  0
  3  5  1  0  0  0  0
  3  6  1  0  0  0  0
 32 35  1  0  0  0  0
 32 36  1  0  0  0  0
 32 37  1  0  0  0  0
 11 14  1  0  0  0  0
 11 15  1  0  0  0  0
 11 16  1  0  0  0  0
 39 41  1  0  0  0  0
 39 42  1  0  0  0  0
 39 43  1  0  0  0  0
 21 25  1  0  0  0  0
 21 26  1  0  0  0  0
 29 34  1  0  0  0  0
  8 13  1  0  0  0  0
 18 24  1  0  0  0  0
 38 40  1  0  0  0  0
  7 12  1  0  0  0  0
 28 33  1  0  0  0  0
 17 23  1  0  0  0  0
 22 27  1  0  0  0  0
M  END
$$$$

  -OEChem-05262214473D

 43 42  0     1  0  0  0  0  0999 V2000
   -2.8661   -4.7415    2.2943 C   0  0  0  0  0  0  0  0  0  0  0  0
   -2.0233   -5.5727    2.6109 O   0  0  0  0  0  0  0  0  0  0  0  0
   -4.3078   -5.0134    2.5698 C   0  0  0  0  0  0  0  0  0  0  0  0
   -4.8057   -5.5295    1.7332 H   0  0  0  0  0  0  0  0  0  0  0  0
   -4.4526   -5.6688    3.4436 H   0  0  0  0  0  0  0  0  0  0  0  0
   -4.9255   -4.1233    2.7700 H   0  0  0  0  0  0  0  0  0  0  0  0
   -2.6241   -3.5219    1.6838 N   0  0  0  0  0  0  0  0  0  0  0  0
   -1.3070   -3.0608    1.3315 C   0  0  2  0  0  0  0  0  0  0  0  0
   -1.3931   -1.5680    1.0422 C   0  0  0  0  0  0  0  0  0  0  0  0
   -2.4385   -1.0059    0.7226 O   0  0  0  0  0  0  0  0  0  0  0  0
   -0.7590   -3.8164    0.1309 C   0  0  0  0  0  0  0  0  0  0  0  0
   -3.4188   -2.9207    1.4735 H   0  0  0  0  0  0  0  0  0  0  0  0
   -0.6690   -3.2277    2.2062 H   0  0  0  0  0  0  0  0  0  0  0  0
   -1.3852   -3.6613   -0.7553 H   0  0  0  0  0  0  0  0  0  0  0  0
    0.2542   -3.4843   -0.1182 H   0  0  0  0  0  0  0  0  0  0  0  0
   -0.7257   -4.8930    0.3300 H   0  0  0  0  0  0  0  0  0  0  0  0
   -0.1563   -0.9420    1.1402 N   0  0  0  0  0  0  0  0  0  0  0  0
    0.0261    0.4671    0.9001 C   0  0  2  0  0  0  0  0  0  0  0  0
   -1.0847    1.2378    1.6107 C   0  0  0  0  0  0  0  0  0  0  0  0
   -2.2131    0.7808    1.7816 O   0  0  0  0  0  0  0  0  0  0  0  0
    0.1341    0.7948   -0.5912 C   0  0  0  0  0  0  0  0  0  0  0  0
    1.6091    0.0862   -1.3940 S   0  0  0  0  0  0  0  0  0  0  0  0
    0.6533   -1.4855    1.4300 H   0  0  0  0  0  0  0  0  0  0  0  0
    0.9740    0.7286    1.3867 H   0  0  0  0  0  0  0  0  0  0  0  0
   -0.7430    0.4230   -1.1309 H   0  0  0  0  0  0  0  0  0  0  0  0
    0.1734    1.8803   -0.7328 H   0  0  0  0  0  0  0  0  0  0  0  0
    1.3459    0.5736   -2.6132 H   0  0  0  0  0  0  0  0  0  0  0  0
   -0.6747    2.5026    2.0080 N   0  0  0  0  0  0  0  0  0  0  0  0
   -1.5499    3.4264    2.6908 C   0  0  2  0  0  0  0  0  0  0  0  0
   -0.8194    4.7563    2.8226 C   0  0  0  0  0  0  0  0  0  0  0  0
    0.4050    4.8561    2.7799 O   0  0  0  0  0  0  0  0  0  0  0  0
   -1.9604    2.8943    4.0550 C   0  0  0  0  0  0  0  0  0  0  0  0
    0.2884    2.7868    1.8555 H   0  0  0  0  0  0  0  0  0  0  0  0
   -2.4323    3.5553    2.0545 H   0  0  0  0  0  0  0  0  0  0  0  0
   -1.0895    2.7587    4.7066 H   0  0  0  0  0  0  0  0  0  0  0  0
   -2.6466    3.5826    4.5594 H   0  0  0  0  0  0  0  0  0  0  0  0
   -2.4592    1.9236    3.9608 H   0  0  0  0  0  0  0  0  0  0  0  0
   -1.6935    5.8129    3.0367 N   0  0  0  0  0  0  0  0  0  0  0  0
   -1.2435    7.1748    3.2063 C   0  0  0  0  0  0  0  0  0  0  0  0
   -2.6945    5.6408    3.0385 H   0  0  0  0  0  0  0  0  0  0  0  0
   -1.1039    7.3847    4.2771 H   0  0  0  0  0  0  0  0  0  0  0  0
   -0.2888    7.3139    2.6780 H   0  0  0  0  0  0  0  0  0  0  0  0
   -1.9951    7.8633    2.7928 H   0  0  0  0  0  0  0  0  0  0  0  0
  1  3  1  0  0  0  0
  1  7  1  0  0  0  0
  1  2  2  0  0  0  0
 29 30  1  0  0  0  0
 30 38  1  0  0  0  0
 30 31  2  0  0  0  0
  8  9  1  0  0  0  0
  9 17  1  0  0  0  0
  9 10  2  0  0  0  0
 18 19  1  0  0  0  0
 19 28  1  0  0  0  0
 19 20  2  0  0  0  0
 29 32  1  0  0  0  0
  8 11  1  0  0  0  0
 38 39  1  0  0  0  0
 18 21  1  0  0  0  0
 21 22  1  0  0  0  0
 28 29  1  0  0  0  0
  7  8  1  0  0  0  0
 17 18  1  0  0  0  0
  3  4  1  0  0  0  0
  3  5  1  0  0  0  0
  3  6  1  0  0  0  0
 32 35  1  0  0  0  0
 32 36  1  0  0  0  0
 32 37  1  0  0  0  0
 11 14  1  0  0  0  0
 11 15  1  0  0  0  0
 11 16  1  0  0  0  0
 39 41  1  0  0  0  0
 39 42  1  0  0  0  0
 39 43  1  0  0  0  0
 21 25  1  0  0  0  0
 21 26  1  0  0  0  0
 29 34  1  0  0  0  0
  8 13  1  0  0  0  0
 18 24  1  0  0  0  0
 38 40  1  0  0  0  0
  7 12  1  0  0  0  0
 28 33  1  0  0  0  0
 17 23  1  0  0  0  0
 22 27  1  0  0  0  0
M  END
$$$$

  -OEChem-05262214473D

 43 42  0     1  0  0  0  0  0999 V2000
   -2.8661   -4.7415    2.2943 C   0  0  0  0  0  0  0  0  0  0  0  0
   -2.0233   -5.5727    2.6109 O   0  0  0  0  0  0  0  0  0  0  0  0
   -4.3078   -5.0134    2.5698 C   0  0  0  0  0  0  0  0  0  0  0  0
   -4.8057   -5.5295    1.7332 H   0  0  0  0  0  0  0  0  0  0  0  0
   -4.4526   -5.6688    3.4436 H   0  0  0  0  0  0  0  0  0  0  0  0
   -4.9255   -4.1233    2.7700 H   0  0  0  0  0  0  0  0  0  0  0  0
   -2.6241   -3.5219    1.6838 N   0  0  0  0  0  0  0  0  0  0  0  0
   -1.3070   -3.0608    1.3315 C   0  0  2  0  0  0  0  0  0  0  0  0
   -1.3931   -1.5680    1.0422 C   0  0  0  0  0  0  0  0  0  0  0  0
   -2.4385   -1.0059    0.7226 O   0  0  0  0  0  0  0  0  0  0  0  0
   -0.7590   -3.8164    0.1309 C   0  0  0  0  0  0  0  0  0  0  0  0
   -3.4188   -2.9207    1.4735 H   0  0  0  0  0  0  0  0  0  0  0  0
   -0.6690   -3.2277    2.2062 H   0  0  0  0  0  0  0  0  0  0  0  0
   -1.3852   -3.6613   -0.7553 H   0  0  0  0  0  0  0  0  0  0  0  0
    0.2542   -3.4843   -0.1182 H   0  0  0  0  0  0  0  0  0  0  0  0
   -0.7257   -4.8930    0.3300 H   0  0  0  0  0  0  0  0  0  0  0  0
   -0.1563   -0.9420    1.1402 N   0  0  0  0  0  0  0  0  0  0  0  0
    0.0261    0.4671    0.9001 C   0  0  2  0  0  0  0  0  0  0  0  0
   -1.0847    1.2378    1.6107 C   0  0  0  0  0  0  0  0  0  0  0  0
   -2.1139    0.7042    2.0198 O   0  0  0  0  0  0  0  0  0  0  0  0
    0.1341    0.7948   -0.5912 C   0  0  0  0  0  0  0  0  0  0  0  0
    1.6091    0.0862   -1.3940 S   0  0  0  0  0  0  0  0  0  0  0  0
    0.6533   -1.4855    1.4300 H   0  0  0  0  0  0  0  0  0  0  0  0
    0.9740    0.7286    1.3867 H   0  0  0  0  0  0  0  0  0  0  0  0
   -0.7430    0.4230   -1.1309 H   0  0  0  0  0  0  0  0  0  0  0  0
    0.1734    1.8803   -0.7328 H   0  0  0  0  0  0  0  0  0  0  0  0
    1.3459    0.5736   -2.6132 H   0  0  0  0  0  0  0  0  0  0  0  0
   -0.8021    2.5927    1.7112 N   0  0  0  0  0  0  0  0  0  0  0  0
   -1.7048    3.5326    2.3337 C   0  0  2  0  0  0  0  0  0  0  0  0
   -1.1471    4.9334    2.1184 C   0  0  0  0  0  0  0  0  0  0  0  0
    0.0394    5.1544    1.8848 O   0  0  0  0  0  0  0  0  0  0  0  0
   -1.8755    3.2374    3.8157 C   0  0  0  0  0  0  0  0  0  0  0  0
    0.0896    2.9437    1.3746 H   0  0  0  0  0  0  0  0  0  0  0  0
   -2.6658    3.4381    1.8165 H   0  0  0  0  0  0  0  0  0  0  0  0
   -0.9229    3.3271    4.3505 H   0  0  0  0  0  0  0  0  0  0  0  0
   -2.5821    3.9332    4.2800 H   0  0  0  0  0  0  0  0  0  0  0  0
   -2.2485    2.2191    3.9698 H   0  0  0  0  0  0  0  0  0  0  0  0
   -2.1220    5.9108    2.2605 N   0  0  0  0  0  0  0  0  0  0  0  0
   -1.8401    7.3200    2.1162 C   0  0  0  0  0  0  0  0  0  0  0  0
   -3.0839    5.6354    2.4356 H   0  0  0  0  0  0  0  0  0  0  0  0
   -1.6031    7.7497    3.1007 H   0  0  0  0  0  0  0  0  0  0  0  0
   -0.9821    7.4549    1.4412 H   0  0  0  0  0  0  0  0  0  0  0  0
   -2.7204    7.8288    1.6965 H   0  0  0  0  0  0  0  0  0  0  0  0
  1  3  1  0  0  0  0
  1  7  1  0  0  0  0
  1  2  2  0  0  0  0
 29 30  1  0  0  0  0
 30 38  1  0  0  0  0
 30 31  2  0  0  0  0
  8  9  1  0  0  0  0
  9 17  1  0  0  0  0
  9 10  2  0  0  0  0
 18 19  1  0  0  0  0
 19 28  1  0  0  0  0
 19 20  2  0  0  0  0
 29 32  1  0  0  0  0
  8 11  1  0  0  0  0
 38 39  1  0  0  0  0
 18 21  1  0  0  0  0
 21 22  1  0  0  0  0
 28 29  1  0  0  0  0
  7  8  1  0  0  0  0
 17 18  1  0  0  0  0
  3  4  1  0  0  0  0
  3  5  1  0  0  0  0
  3  6  1  0  0  0  0
 32 35  1  0  0  0  0
 32 36  1  0  0  0  0
 32 37  1  0  0  0  0
 11 14  1  0  0  0  0
 11 15  1  0  0  0  0
 11 16  1  0  0  0  0
 39 41  1  0  0  0  0
 39 42  1  0  0  0  0
 39 43  1  0  0  0  0
 21 25  1  0  0  0  0
 21 26  1  0  0  0  0
 29 34  1  0  0  0  0
  8 13  1  0  0  0  0
 18 24  1  0  0  0  0
 38 40  1  0  0  0  0
  7 12  1  0  0  0  0
 28 33  1  0  0  0  0
 17 23  1  0  0  0  0
 22 27  1  0  0  0  0
M  END
$$$$

  -OEChem-05262214473D

 43 42  0     1  0  0  0  0  0999 V2000
   -2.8661   -4.7415    2.2943 C   0  0  0  0  0  0  0  0  0  0  0  0
   -2.0233   -5.5727    2.6109 O   0  0  0  0  0  0  0  0  0  0  0  0
   -4.3078   -5.0134    2.5698 C   0  0  0  0  0  0  0  0  0  0  0  0
   -4.8057   -5.5295    1.7332 H   0  0  0  0  0  0  0  0  0  0  0  0
   -4.4526   -5.6688    3.4436 H   0  0  0  0  0  0  0  0  0  0  0  0
   -4.9255   -4.1233    2.7700 H   0  0  0  0  0  0  0  0  0  0  0  0
   -2.6241   -3.5219    1.6838 N   0  0  0  0  0  0  0  0  0  0  0  0
   -1.3070   -3.0608    1.3315 C   0  0  2  0  0  0  0  0  0  0  0  0
   -1.3931   -1.5680    1.0422 C   0  0  0  0  0  0  0  0  0  0  0  0
   -2.4385   -1.0059    0.7226 O   0  0  0  0  0  0  0  0  0  0  0  0
   -0.7590   -3.8164    0.1309 C   0  0  0  0  0  0  0  0  0  0  0  0
   -3.4188   -2.9207    1.4735 H   0  0  0  0  0  0  0  0  0  0  0  0
   -0.6690   -3.2277    2.2062 H   0  0  0  0  0  0  0  0  0  0  0  0
   -1.3852   -3.6613   -0.7553 H   0  0  0  0  0  0  0  0  0  0  0  0
    0.2542   -3.4843   -0.1182 H   0  0  0  0  0  0  0  0  0  0  0  0
   -0.7257   -4.8930    0.3300 H   0  0  0  0  0  0  0  0  0  0  0  0
   -0.1563   -0.9420    1.1402 N   0  0  0  0  0  0  0  0  0  0  0  0
    0.0261    0.4671    0.9001 C   0  0  2  0  0  0  0  0  0  0  0  0
   -0.8316    1.2526    1.8901 C   0  0  0  0  0  0  0  0  0  0  0  0
   -1.5591    0.7128    2.7212 O   0  0  0  0  0  0  0  0  0  0  0  0
   -0.2304    0.8473   -0.5602 C   0  0  0  0  0  0  0  0  0  0  0  0
    0.9591    0.1131   -1.7301 S   0  0  0  0  0  0  0  0  0  0  0  0
    0.6533   -1.4855    1.4300 H   0  0  0  0  0  0  0  0  0  0  0  0
    1.0774    0.6727    1.1371 H   0  0  0  0  0  0  0  0  0  0  0  0
   -1.2318    0.5308   -0.8696 H   0  0  0  0  0  0  0  0  0  0  0  0
   -0.1767    1.9351   -0.6776 H   0  0  0  0  0  0  0  0  0  0  0  0
    0.4201    0.6568   -2.8289 H   0  0  0  0  0  0  0  0  0  0  0  0
   -0.7076    2.6241    1.7191 N   0  0  0  0  0  0  0  0  0  0  0  0
   -1.4280    3.5784    2.5291 C   0  0  2  0  0  0  0  0  0  0  0  0
   -1.1735    4.9671    1.9579 C   0  0  0  0  0  0  0  0  0  0  0  0
   -0.1964    5.2378    1.2628 O   0  0  0  0  0  0  0  0  0  0  0  0
   -0.9990    3.5030    3.9861 C   0  0  0  0  0  0  0  0  0  0  0  0
   -0.0564    2.9849    1.0281 H   0  0  0  0  0  0  0  0  0  0  0  0
   -2.4917    3.3337    2.4353 H   0  0  0  0  0  0  0  0  0  0  0  0
    0.0639    3.7452    4.0999 H   0  0  0  0  0  0  0  0  0  0  0  0
   -1.5663    4.2071    4.6037 H   0  0  0  0  0  0  0  0  0  0  0  0
   -1.1551    2.4955    4.3867 H   0  0  0  0  0  0  0  0  0  0  0  0
   -2.1430    5.8790    2.3513 N   0  0  0  0  0  0  0  0  0  0  0  0
   -2.1170    7.2662    1.9501 C   0  0  0  0  0  0  0  0  0  0  0  0
   -2.9281    5.5626    2.9126 H   0  0  0  0  0  0  0  0  0  0  0  0
   -1.5896    7.8590    2.7120 H   0  0  0  0  0  0  0  0  0  0  0  0
   -1.5945    7.3594    0.9866 H   0  0  0  0  0  0  0  0  0  0  0  0
   -3.1474    7.6369    1.8458 H   0  0  0  0  0  0  0  0  0  0  0  0
  1  3  1  0  0  0  0
  1  7  1  0  0  0  0
  1  2  2  0  0  0  0
 29 30  1  0  0  0  0
 30 38  1  0  0  0  0
 30 31  2  0  0  0  0
  8  9  1  0  0  0  0
  9 17  1  0  0  0  0
  9 10  2  0  0  0  0
 18 19  1  0  0  0  0
 19 28  1  0  0  0  0
 19 20  2  0  0  0  0
 29 32  1  0  0  0  0
  8 11  1  0  0  0  0
 38 39  1  0  0  0  0
 18 21  1  0  0  0  0
 21 22  1  0  0  0  0
 28 29  1  0  0  0  0
  7  8  1  0  0  0  0
 17 18  1  0  0  0  0
  3  4  1  0  0  0  0
  3  5  1  0  0  0  0
  3  6  1  0  0  0  0
 32 35  1  0  0  0  0
 32 36  1  0  0  0  0
 32 37  1  0  0  0  0
 11 14  1  0  0  0  0
 11 15  1  0  0  0  0
 11 16  1  0  0  0  0
 39 41  1  0  0  0  0
 39 42  1  0  0  0  0
 39 43  1  0  0  0  0
 21 25  1  0  0  0  0
 21 26  1  0  0  0  0
 29 34  1  0  0  0  0
  8 13  1  0  0  0  0
 18 24  1  0  0  0  0
 38 40  1  0  0  0  0
  7 12  1  0  0  0  0
 28 33  1  0  0  0  0
 17 23  1  0  0  0  0
 22 27  1  0  0  0  0
M  END
$$$$

  -OEChem-05262214473D

 43 42  0     1  0  0  0  0  0999 V2000
   -2.8661   -4.7415    2.2943 C   0  0  0  0  0  0  0  0  0  0  0  0
   -2.0233   -5.5727    2.6109 O   0  0  0  0  0  0  0  0  0  0  0  0
   -4.3078   -5.0134    2.5698 C   0  0  0  0  0  0  0  0  0  0  0  0
   -4.8057   -5.5295    1.7332 H   0  0  0  0  0  0  0  0  0  0  0  0
   -4.4526   -5.6688    3.4436 H   0  0  0  0  0  0  0  0  0  0  0  0
   -4.9255   -4.1233    2.7700 H   0  0  0  0  0  0  0  0  0  0  0  0
   -2.6241   -3.5219    1.6838 N   0  0  0  0  0  0  0  0  0  0  0  0
   -1.3070   -3.0608    1.3315 C   0  0  2  0  0  0  0  0  0  0  0  0
   -1.3931   -1.5680    1.0422 C   0  0  0  0  0  0  0  0  0  0  0  0
   -2.4385   -1.0059    0.7226 O   0  0  0  0  0  0  0  0  0  0  0  0
   -0.7590   -3.8164    0.1309 C   0  0  0  0  0  0  0  0  0  0  0  0
   -3.4188   -2.9207    1.4735 H   0  0  0  0  0  0  0  0  0  0  0  0
   -0.6690   -3.2277    2.2062 H   0  0  0  0  0  0  0  0  0  0  0  0
   -1.3852   -3.6613   -0.7553 H   0  0  0  0  0  0  0  0  0  0  0  0
    0.2542   -3.4843   -0.1182 H   0  0  0  0  0  0  0  0  0  0  0  0
   -0.7257   -4.8930    0.3300 H   0  0  0  0  0  0  0  0  0  0  0  0
   -0.1563   -0.9420    1.1402 N   0  0  0  0  0  0  0  0  0  0  0  0
    0.0261    0.4671    0.9001 C   0  0  2  0  0  0  0  0  0  0  0  0
   -0.8316    1.2526    1.8901 C   0  0  0  0  0  0  0  0  0  0  0  0
   -1.3459    0.7417    2.8829 O   0  0  0  0  0  0  0  0  0  0  0  0
   -0.2304    0.8473   -0.5602 C   0  0  0  0  0  0  0  0  0  0  0  0
    0.9591    0.1131   -1.7301 S   0  0  0  0  0  0  0  0  0  0  0  0
    0.6533   -1.4855    1.4300 H   0  0  0  0  0  0  0  0  0  0  0  0
    1.0774    0.6727    1.1371 H   0  0  0  0  0  0  0  0  0  0  0  0
   -1.2318    0.5308   -0.8696 H   0  0  0  0  0  0  0  0  0  0  0  0
   -0.1767    1.9351   -0.6776 H   0  0  0  0  0  0  0  0  0  0  0  0
    0.4201    0.6568   -2.8289 H   0  0  0  0  0  0  0  0  0  0  0  0
   -0.9747    2.5825    1.5206 N   0  0  0  0  0  0  0  0  0  0  0  0
   -1.7500    3.5261    2.2916 C   0  0  2  0  0  0  0  0  0  0  0  0
   -1.8170    4.8307    1.5085 C   0  0  0  0  0  0  0  0  0  0  0  0
   -0.9947    5.1399    0.6488 O   0  0  0  0  0  0  0  0  0  0  0  0
   -1.1418    3.7487    3.6675 C   0  0  0  0  0  0  0  0  0  0  0  0
   -0.4862    2.9289    0.7002 H   0  0  0  0  0  0  0  0  0  0  0  0
   -2.7567    3.1048    2.3872 H   0  0  0  0  0  0  0  0  0  0  0  0
   -0.1329    4.1704    3.5919 H   0  0  0  0  0  0  0  0  0  0  0  0
   -1.7464    4.4423    4.2611 H   0  0  0  0  0  0  0  0  0  0  0  0
   -1.0670    2.8046    4.2179 H   0  0  0  0  0  0  0  0  0  0  0  0
   -2.8783    5.6282    1.9130 N   0  0  0  0  0  0  0  0  0  0  0  0
   -3.1478    6.9219    1.3301 C   0  0  0  0  0  0  0  0  0  0  0  0
   -3.5212    5.2837    2.6199 H   0  0  0  0  0  0  0  0  0  0  0  0
   -2.6460    7.7025    1.9208 H   0  0  0  0  0  0  0  0  0  0  0  0
   -2.7703    6.9444    0.2972 H   0  0  0  0  0  0  0  0  0  0  0  0
   -4.2325    7.1043    1.3281 H   0  0  0  0  0  0  0  0  0  0  0  0
  1  3  1  0  0  0  0
  1  7  1  0  0  0  0
  1  2  2  0  0  0  0
 29 30  1  0  0  0  0
 30 38  1  0  0  0  0
 30 31  2  0  0  0  0
  8  9  1  0  0  0  0
  9 17  1  0  0  0  0
  9 10  2  0  0  0  0
 18 19  1  0  0  0  0
 19 28  1  0  0  0  0
 19 20  2  0  0  0  0
 29 32  1  0  0  0  0
  8 11  1  0  0  0  0
 38 39  1  0  0  0  0
 18 21  1  0  0  0  0
 21 22  1  0  0  0  0
 28 29  1  0  0  0  0
  7  8  1  0  0  0  0
 17 18  1  0  0  0  0
  3  4  1  0  0  0  0
  3  5  1  0  0  0  0
  3  6  1  0  0  0  0
 32 35  1  0  0  0  0
 32 36  1  0  0  0  0
 32 37  1  0  0  0  0
 11 14  1  0  0  0  0
 11 15  1  0  0  0  0
 11 16  1  0  0  0  0
 39 41  1  0  0  0  0
 39 42  1  0  0  0  0
 39 43  1  0  0  0  0
 21 25  1  0  0  0  0
 21 26  1  0  0  0  0
 29 34  1  0  0  0  0
  8 13  1  0  0  0  0
 18 24  1  0  0  0  0
 38 40  1  0  0  0  0
  7 12  1  0  0  0  0
 28 33  1  0  0  0  0
 17 23  1  0  0  0  0
 22 27  1  0  0  0  0
M  END
$$$$

  -OEChem-05262214473D

 43 42  0     1  0  0  0  0  0999 V2000
   -2.8661   -4.7415    2.2943 C   0  0  0  0  0  0  0  0  0  0  0  0
   -2.0233   -5.5727    2.6109 O   0  0  0  0  0  0  0  0  0  0  0  0
   -4.3078   -5.0134    2.5698 C   0  0  0  0  0  0  0  0  0  0  0  0
   -4.8057   -5.5295    1.7332 H   0  0  0  0  0  0  0  0  0  0  0  0
   -4.4526   -5.6688    3.4436 H   0  0  0  0  0  0  0  0  0  0  0  0
   -4.9255   -4.1233    2.7700 H   0  0  0  0  0  0  0  0  0  0  0  0
   -2.6241   -3.5219    1.6838 N   0  0  0  0  0  0  0  0  0  0  0  0
   -1.3070   -3.0608    1.3315 C   0  0  2  0  0  0  0  0  0  0  0  0
   -1.3931   -1.5680    1.0422 C   0  0  0  0  0  0  0  0  0  0  0  0
   -2.4385   -1.0059    0.7226 O   0  0  0  0  0  0  0  0  0  0  0  0
   -0.7590   -3.8164    0.1309 C   0  0  0  0  0  0  0  0  0  0  0  0
   -3.4188   -2.9207    1.4735 H   0  0  0  0  0  0  0  0  0  0  0  0
   -0.6690   -3.2277    2.2062 H   0  0  0  0  0  0  0  0  0  0  0  0
   -1.3852   -3.6613   -0.7553 H   0  0  0  0  0  0  0  0  0  0  0  0
    0.2542   -3.4843   -0.1182 H   0  0  0  0  0  0  0  0  0  0  0  0
   -0.7257   -4.8930    0.3300 H   0  0  0  0  0  0  0  0  0  0  0  0
   -0.1563   -0.9420    1.1402 N   0  0  0  0  0  0  0  0  0  0  0  0
    0.0261    0.4671    0.9001 C   0  0  2  0  0  0  0  0  0  0  0  0
   -0.8316    1.2526    1.8901 C   0  0  0  0  0  0  0  0  0  0  0  0
   -1.1234    0.8289    3.0066 O   0  0  0  0  0  0  0  0  0  0  0  0
   -0.2304    0.8473   -0.5602 C   0  0  0  0  0  0  0  0  0  0  0  0
    0.9591    0.1131   -1.7301 S   0  0  0  0  0  0  0  0  0  0  0  0
    0.6533   -1.4855    1.4300 H   0  0  0  0  0  0  0  0  0  0  0  0
    1.0774    0.6727    1.1371 H   0  0  0  0  0  0  0  0  0  0  0  0
   -1.2318    0.5308   -0.8696 H   0  0  0  0  0  0  0  0  0  0  0  0
   -0.1767    1.9351   -0.6776 H   0  0  0  0  0  0  0  0  0  0  0  0
    0.4201    0.6568   -2.8289 H   0  0  0  0  0  0  0  0  0  0  0  0
   -1.2521    2.4687    1.3706 N   0  0  0  0  0  0  0  0  0  0  0  0
   -2.0839    3.3870    2.1126 C   0  0  2  0  0  0  0  0  0  0  0  0
   -2.4755    4.5256    1.1800 C   0  0  0  0  0  0  0  0  0  0  0  0
   -1.8311    4.8222    0.1761 O   0  0  0  0  0  0  0  0  0  0  0  0
   -1.3633    3.9157    3.3431 C   0  0  0  0  0  0  0  0  0  0  0  0
   -0.9356    2.7549    0.4488 H   0  0  0  0  0  0  0  0  0  0  0  0
   -2.9807    2.8323    2.4094 H   0  0  0  0  0  0  0  0  0  0  0  0
   -0.4619    4.4743    3.0657 H   0  0  0  0  0  0  0  0  0  0  0  0
   -2.0053    4.5895    3.9200 H   0  0  0  0  0  0  0  0  0  0  0  0
   -1.0561    3.0933    3.9982 H   0  0  0  0  0  0  0  0  0  0  0  0
   -3.6049    5.1990    1.6241 N   0  0  0  0  0  0  0  0  0  0  0  0
   -4.1682    6.3264    0.9186 C   0  0  0  0  0  0  0  0  0  0  0  0
   -4.0863    4.8724    2.4567 H   0  0  0  0  0  0  0  0  0  0  0  0
   -3.7454    7.2592    1.3199 H   0  0  0  0  0  0  0  0  0  0  0  0
   -3.9281    6.2460   -0.1519 H   0  0  0  0  0  0  0  0  0  0  0  0
   -5.2603    6.3325    1.0500 H   0  0  0  0  0  0  0  0  0  0  0  0
  1  3  1  0  0  0  0
  1  7  1  0  0  0  0
  1  2  2  0  0  0  0
 29 30  1  0  0  0  0
 30 38  1  0  0  0  0
 30 31  2  0  0  0  0
  8  9  1  0  0  0  0
  9 17  1  0  0  0  0
  9 10  2  0  0  0  0
 18 19  1  0  0  0  0
 19 28  1  0  0  0  0
 19 20  2  0  0  0  0
 29 32  1  0  0  0  0
  8 11  1  0  0  0  0
 38 39  1  0  0  0  0
 18 21  1  0  0  0  0
 21 22  1  0  0  0  0
 28 29  1  0  0  0  0
  7  8  1  0  0  0  0
 17 18  1  0  0  0  0
  3  4  1  0  0  0  0
  3  5  1  0  0  0  0
  3  6  1  0  0  0  0
 32 35  1  0  0  0  0
 32 36  1  0  0  0  0
 32 37  1  0  0  0  0
 11 14  1  0  0  0  0
 11 15  1  0  0  0  0
 11 16  1  0  0  0  0
 39 41  1  0  0  0  0
 39 42  1  0  0  0  0
 39 43  1  0  0  0  0
 21 25  1  0  0  0  0
 21 26  1  0  0  0  0
 29 34  1  0  0  0  0
  8 13  1  0  0  0  0
 18 24  1  0  0  0  0
 38 40  1  0  0  0  0
  7 12  1  0  0  0  0
 28 33  1  0  0  0  0
 17 23  1  0  0  0  0
 22 27  1  0  0  0  0
M  END
$$$$

  -OEChem-05262214473D

 43 42  0     1  0  0  0  0  0999 V2000
   -2.8661   -4.7415    2.2943 C   0  0  0  0  0  0  0  0  0  0  0  0
   -2.0233   -5.5727    2.6109 O   0  0  0  0  0  0  0  0  0  0  0  0
   -4.3078   -5.0134    2.5698 C   0  0  0  0  0  0  0  0  0  0  0  0
   -4.8057   -5.5295    1.7332 H   0  0  0  0  0  0  0  0  0  0  0  0
   -4.4526   -5.6688    3.4436 H   0  0  0  0  0  0  0  0  0  0  0  0
   -4.9255   -4.1233    2.7700 H   0  0  0  0  0  0  0  0  0  0  0  0
   -2.6241   -3.5219    1.6838 N   0  0  0  0  0  0  0  0  0  0  0  0
   -1.3070   -3.0608    1.3315 C   0  0  2  0  0  0  0  0  0  0  0  0
   -1.3931   -1.5680    1.0422 C   0  0  0  0  0  0  0  0  0  0  0  0
   -2.4385   -1.0059    0.7226 O   0  0  0  0  0  0  0  0  0  0  0  0
   -0.7590   -3.8164    0.1309 C   0  0  0  0  0  0  0  0  0  0  0  0
   -3.4188   -2.9207    1.4735 H   0  0  0  0  0  0  0  0  0  0  0  0
   -0.6690   -3.2277    2.2062 H   0  0  0  0  0  0  0  0  0  0  0  0
   -1.3852   -3.6613   -0.7553 H   0  0  0  0  0  0  0  0  0  0  0  0
    0.2542   -3.4843   -0.1182 H   0  0  0  0  0  0  0  0  0  0  0  0
   -0.7257   -4.8930    0.3300 H   0  0  0  0  0  0  0  0  0  0  0  0
   -0.1563   -0.9420    1.1402 N   0  0  0  0  0  0  0  0  0  0  0  0
    0.0261    0.4671    0.9001 C   0  0  2  0  0  0  0  0  0  0  0  0
   -0.8316    1.2526    1.8901 C   0  0  0  0  0  0  0  0  0  0  0  0
   -0.9065    0.9684    3.0838 O   0  0  0  0  0  0  0  0  0  0  0  0
   -0.2304    0.8473   -0.5602 C   0  0  0  0  0  0  0  0  0  0  0  0
    0.9591    0.1131   -1.7301 S   0  0  0  0  0  0  0  0  0  0  0  0
    0.6533   -1.4855    1.4300 H   0  0  0  0  0  0  0  0  0  0  0  0
    1.0774    0.6727    1.1371 H   0  0  0  0  0  0  0  0  0  0  0  0
   -1.2318    0.5308   -0.8696 H   0  0  0  0  0  0  0  0  0  0  0  0
   -0.1767    1.9351   -0.6776 H   0  0  0  0  0  0  0  0  0  0  0  0
    0.4201    0.6568   -2.8289 H   0  0  0  0  0  0  0  0  0  0  0  0
   -1.5210    2.2904    1.2791 N   0  0  0  0  0  0  0  0  0  0  0  0
   -2.4069    3.1707    2.0045 C   0  0  2  0  0  0  0  0  0  0  0  0
   -3.1041    4.0727    0.9947 C   0  0  0  0  0  0  0  0  0  0  0  0
   -2.6486    4.3063   -0.1229 O   0  0  0  0  0  0  0  0  0  0  0  0
   -1.6484    3.9927    3.0349 C   0  0  0  0  0  0  0  0  0  0  0  0
   -1.3739    2.4750    0.2911 H   0  0  0  0  0  0  0  0  0  0  0  0
   -3.1485    2.5348    2.5001 H   0  0  0  0  0  0  0  0  0  0  0  0
   -0.9008    4.6362    2.5569 H   0  0  0  0  0  0  0  0  0  0  0  0
   -2.3255    4.6387    3.6035 H   0  0  0  0  0  0  0  0  0  0  0  0
   -1.1233    3.3421    3.7425 H   0  0  0  0  0  0  0  0  0  0  0  0
   -4.2731    4.6205    1.5041 N   0  0  0  0  0  0  0  0  0  0  0  0
   -5.1087    5.5201    0.7434 C   0  0  0  0  0  0  0  0  0  0  0  0
   -4.5848    4.3565    2.4341 H   0  0  0  0  0  0  0  0  0  0  0  0
   -4.8130    6.5592    0.9503 H   0  0  0  0  0  0  0  0  0  0  0  0
   -4.9892    5.3118   -0.3301 H   0  0  0  0  0  0  0  0  0  0  0  0
   -6.1605    5.3742    1.0303 H   0  0  0  0  0  0  0  0  0  0  0  0
  1  3  1  0  0  0  0
  1  7  1  0  0  0  0
  1  2  2  0  0  0  0
 29 30  1  0  0  0  0
 30 38  1  0  0  0  0
 30 31  2  0  0  0  0
  8  9  1  0  0  0  0
  9 17  1  0  0  0  0
  9 10  2  0  0  0  0
 18 19  1  0  0  0  0
 19 28  1  0  0  0  0
 19 20  2  0  0  0  0
 29 32  1  0  0  0  0
  8 11  1  0  0  0  0
 38 39  1  0  0  0  0
 18 21  1  0  0  0  0
 21 22  1  0  0  0  0
 28 29  1  0  0  0  0
  7  8  1  0  0  0  0
 17 18  1  0  0  0  0
  3  4  1  0  0  0  0
  3  5  1  0  0  0  0
  3  6  1  0  0  0  0
 32 35  1  0  0  0  0
 32 36  1  0  0  0  0
 32 37  1  0  0  0  0
 11 14  1  0  0  0  0
 11 15  1  0  0  0  0
 11 16  1  0  0  0  0
 39 41  1  0  0  0  0
 39 42  1  0  0  0  0
 39 43  1  0  0  0  0
 21 25  1  0  0  0  0
 21 26  1  0  0  0  0
 29 34  1  0  0  0  0
  8 13  1  0  0  0  0
 18 24  1  0  0  0  0
 38 40  1  0  0  0  0
  7 12  1  0  0  0  0
 28 33  1  0  0  0  0
 17 23  1  0  0  0  0
 22 27  1  0  0  0  0
M  END
$$$$

  -OEChem-05262214473D

 43 42  0     1  0  0  0  0  0999 V2000
   -2.8661   -4.7415    2.2943 C   0  0  0  0  0  0  0  0  0  0  0  0
   -2.0233   -5.5727    2.6109 O   0  0  0  0  0  0  0  0  0  0  0  0
   -4.3078   -5.0134    2.5698 C   0  0  0  0  0  0  0  0  0  0  0  0
   -4.8057   -5.5295    1.7332 H   0  0  0  0  0  0  0  0  0  0  0  0
   -4.4526   -5.6688    3.4436 H   0  0  0  0  0  0  0  0  0  0  0  0
   -4.9255   -4.1233    2.7700 H   0  0  0  0  0  0  0  0  0  0  0  0
   -2.6241   -3.5219    1.6838 N   0  0  0  0  0  0  0  0  0  0  0  0
   -1.3070   -3.0608    1.3315 C   0  0  2  0  0  0  0  0  0  0  0  0
   -1.3931   -1.5680    1.0422 C   0  0  0  0  0  0  0  0  0  0  0  0
   -2.4385   -1.0059    0.7226 O   0  0  0  0  0  0  0  0  0  0  0  0
   -0.7590   -3.8164    0.1309 C   0  0  0  0  0  0  0  0  0  0  0  0
   -3.4188   -2.9207    1.4735 H   0  0  0  0  0  0  0  0  0  0  0  0
   -0.6690   -3.2277    2.2062 H   0  0  0  0  0  0  0  0  0  0  0  0
   -1.3852   -3.6613   -0.7553 H   0  0  0  0  0  0  0  0  0  0  0  0
    0.2542   -3.4843   -0.1182 H   0  0  0  0  0  0  0  0  0  0  0  0
   -0.7257   -4.8930    0.3300 H   0  0  0  0  0  0  0  0  0  0  0  0
   -0.1563   -0.9420    1.1402 N   0  0  0  0  0  0  0  0  0  0  0  0
    0.0261    0.4671    0.9001 C   0  0  2  0  0  0  0  0  0  0  0  0
   -0.8316    1.2526    1.8901 C   0  0  0  0  0  0  0  0  0  0  0  0
   -0.7102    1.1508    3.1092 O   0  0  0  0  0  0  0  0  0  0  0  0
   -0.2304    0.8473   -0.5602 C   0  0  0  0  0  0  0  0  0  0  0  0
    0.9591    0.1131   -1.7301 S   0  0  0  0  0  0  0  0  0  0  0  0
    0.6533   -1.4855    1.4300 H   0  0  0  0  0  0  0  0  0  0  0  0
    1.0774    0.6727    1.1371 H   0  0  0  0  0  0  0  0  0  0  0  0
   -1.2318    0.5308   -0.8696 H   0  0  0  0  0  0  0  0  0  0  0  0
   -0.1767    1.9351   -0.6776 H   0  0  0  0  0  0  0  0  0  0  0  0
    0.4201    0.6568   -2.8289 H   0  0  0  0  0  0  0  0  0  0  0  0
   -1.7630    2.0598    1.2524 N   0  0  0  0  0  0  0  0  0  0  0  0
   -2.6970    2.8918    1.9744 C   0  0  2  0  0  0  0  0  0  0  0  0
   -3.6600    3.5029    0.9652 C   0  0  0  0  0  0  0  0  0  0  0  0
   -3.3915    3.6274   -0.2279 O   0  0  0  0  0  0  0  0  0  0  0  0
   -1.9778    3.9744    2.7640 C   0  0  0  0  0  0  0  0  0  0  0  0
   -1.7713    2.1082    0.2379 H   0  0  0  0  0  0  0  0  0  0  0  0
   -3.2485    2.2324    2.6534 H   0  0  0  0  0  0  0  0  0  0  0  0
   -1.4196    4.6450    2.1004 H   0  0  0  0  0  0  0  0  0  0  0  0
   -2.6852    4.5864    3.3333 H   0  0  0  0  0  0  0  0  0  0  0  0
   -1.2640    3.5340    3.4684 H   0  0  0  0  0  0  0  0  0  0  0  0
   -4.8376    3.9321    1.5612 N   0  0  0  0  0  0  0  0  0  0  0  0
   -5.9052    4.5580    0.8166 C   0  0  0  0  0  0  0  0  0  0  0  0
   -4.9828    3.7713    2.5536 H   0  0  0  0  0  0  0  0  0  0  0  0
   -5.7760    5.6502    0.8372 H   0  0  0  0  0  0  0  0  0  0  0  0
   -5.8811    4.2057   -0.2251 H   0  0  0  0  0  0  0  0  0  0  0  0
   -6.8720    4.2947    1.2705 H   0  0  0  0  0  0  0  0  0  0  0  0
  1  3  1  0  0  0  0
  1  7  1  0  0  0  0
  1  2  2  0  0  0  0
 29 30  1  0  0  0  0
 30 38  1  0  0  0  0
 30 31  2  0  0  0  0
  8  9  1  0  0  0  0
  9 17  1  0  0  0  0
  9 10  2  0  0  0  0
 18 19  1  0  0  0  0
 19 28  1  0  0  0  0
 19 20  2  0  0  0  0
 29 32  1  0  0  0  0
  8 11  1  0  0  0  0
 38 39  1  0  0  0  0
 18 21  1  0  0  0  0
 21 22  1  0  0  0  0
 28 29  1  0  0  0  0
  7  8  1  0  0  0  0
 17 18  1  0  0  0  0
  3  4  1  0  0  0  0
  3  5  1  0  0  0  0
  3  6  1  0  0  0  0
 32 35  1  0  0  0  0
 32 36  1  0  0  0  0
 32 37  1  0  0  0  0
 11 14  1  0  0  0  0
 11 15  1  0  0  0  0
 11 16  1  0  0  0  0
 39 41  1  0  0  0  0
 39 42  1  0  0  0  0
 39 43  1  0  0  0  0
 21 25  1  0  0  0  0
 21 26  1  0  0  0  0
 29 34  1  0  0  0  0
  8 13  1  0  0  0  0
 18 24  1  0  0  0  0
 38 40  1  0  0  0  0
  7 12  1  0  0  0  0
 28 33  1  0  0  0  0
 17 23  1  0  0  0  0
 22 27  1  0  0  0  0
M  END
$$$$

  -OEChem-05262214473D

 43 42  0     1  0  0  0  0  0999 V2000
   -2.8661   -4.7415    2.2943 C   0  0  0  0  0  0  0  0  0  0  0  0
   -2.0233   -5.5727    2.6109 O   0  0  0  0  0  0  0  0  0  0  0  0
   -4.3078   -5.0134    2.5698 C   0  0  0  0  0  0  0  0  0  0  0  0
   -4.8057   -5.5295    1.7332 H   0  0  0  0  0  0  0  0  0  0  0  0
   -4.4526   -5.6688    3.4436 H   0  0  0  0  0  0  0  0  0  0  0  0
   -4.9255   -4.1233    2.7700 H   0  0  0  0  0  0  0  0  0  0  0  0
   -2.6241   -3.5219    1.6838 N   0  0  0  0  0  0  0  0  0  0  0  0
   -1.3070   -3.0608    1.3315 C   0  0  2  0  0  0  0  0  0  0  0  0
   -1.3931   -1.5680    1.0422 C   0  0  0  0  0  0  0  0  0  0  0  0
   -2.4385   -1.0059    0.7226 O   0  0  0  0  0  0  0  0  0  0  0  0
   -0.7590   -3.8164    0.1309 C   0  0  0  0  0  0  0  0  0  0  0  0
   -3.4188   -2.9207    1.4735 H   0  0  0  0  0  0  0  0  0  0  0  0
   -0.6690   -3.2277    2.2062 H   0  0  0  0  0  0  0  0  0  0  0  0
   -1.3852   -3.6613   -0.7553 H   0  0  0  0  0  0  0  0  0  0  0  0
    0.2542   -3.4843   -0.1182 H   0  0  0  0  0  0  0  0  0  0  0  0
   -0.7257   -4.8930    0.3300 H   0  0  0  0  0  0  0  0  0  0  0  0
   -0.1563   -0.9420    1.1402 N   0  0  0  0  0  0  0  0  0  0  0  0
    0.0261    0.4671    0.9001 C   0  0  2  0  0  0  0  0  0  0  0  0
   -0.8316    1.2526    1.8901 C   0  0  0  0  0  0  0  0  0  0  0  0
   -0.5478    1.3636    3.0811 O   0  0  0  0  0  0  0  0  0  0  0  0
   -0.2304    0.8473   -0.5602 C   0  0  0  0  0  0  0  0  0  0  0  0
    0.9591    0.1131   -1.7301 S   0  0  0  0  0  0  0  0  0  0  0  0
    0.6533   -1.4855    1.4300 H   0  0  0  0  0  0  0  0  0  0  0  0
    1.0774    0.6727    1.1371 H   0  0  0  0  0  0  0  0  0  0  0  0
   -1.2318    0.5308   -0.8696 H   0  0  0  0  0  0  0  0  0  0  0  0
   -0.1767    1.9351   -0.6776 H   0  0  0  0  0  0  0  0  0  0  0  0
    0.4201    0.6568   -2.8289 H   0  0  0  0  0  0  0  0  0  0  0  0
   -1.9616    1.7926    1.2923 N   0  0  0  0  0  0  0  0  0  0  0  0
   -2.9344    2.5694    2.0245 C   0  0  2  0  0  0  0  0  0  0  0  0
   -4.1053    2.8549    1.0935 C   0  0  0  0  0  0  0  0  0  0  0  0
   -4.0092    2.8318   -0.1318 O   0  0  0  0  0  0  0  0  0  0  0  0
   -2.3290    3.8622    2.5488 C   0  0  0  0  0  0  0  0  0  0  0  0
   -2.1008    1.6794    0.2926 H   0  0  0  0  0  0  0  0  0  0  0  0
   -3.2739    1.9458    2.8587 H   0  0  0  0  0  0  0  0  0  0  0  0
   -1.9830    4.5001    1.7273 H   0  0  0  0  0  0  0  0  0  0  0  0
   -3.0598    4.4363    3.1278 H   0  0  0  0  0  0  0  0  0  0  0  0
   -1.4685    3.6559    3.1944 H   0  0  0  0  0  0  0  0  0  0  0  0
   -5.2597    3.1809    1.7916 N   0  0  0  0  0  0  0  0  0  0  0  0
   -6.5034    3.5058    1.1332 C   0  0  0  0  0  0  0  0  0  0  0  0
   -5.2532    3.1566    2.8070 H   0  0  0  0  0  0  0  0  0  0  0  0
   -6.5687    4.5943    0.9882 H   0  0  0  0  0  0  0  0  0  0  0  0
   -6.5430    3.0028    0.1557 H   0  0  0  0  0  0  0  0  0  0  0  0
   -7.3461    3.1676    1.7540 H   0  0  0  0  0  0  0  0  0  0  0  0
  1  3  1  0  0  0  0
  1  7  1  0  0  0  0
  1  2  2  0  0  0  0
 29 30  1  0  0  0  0
 30 38  1  0  0  0  0
 30 31  2  0  0  0  0
  8  9  1  0  0  0  0
  9 17  1  0  0  0  0
  9 10  2  0  0  0  0
 18 19  1  0  0  0  0
 19 28  1  0  0  0  0
 19 20  2  0  0  0  0
 29 32  1  0  0  0  0
  8 11  1  0  0  0  0
 38 39  1  0  0  0  0
 18 21  1  0  0  0  0
 21 22  1  0  0  0  0
 28 29  1  0  0  0  0
  7  8  1  0  0  0  0
 17 18  1  0  0  0  0
  3  4  1  0  0  0  0
  3  5  1  0  0  0  0
  3  6  1  0  0  0  0
 32 35  1  0  0  0  0
 32 36  1  0  0  0  0
 32 37  1  0  0  0  0
 11 14  1  0  0  0  0
 11 15  1  0  0  0  0
 11 16  1  0  0  0  0
 39 41  1  0  0  0  0
 39 42  1  0  0  0  0
 39 43  1  0  0  0  0
 21 25  1  0  0  0  0
 21 26  1  0  0  0  0
 29 34  1  0  0  0  0
  8 13  1  0  0  0  0
 18 24  1  0  0  0  0
 38 40  1  0  0  0  0
  7 12  1  0  0  0  0
 28 33  1  0  0  0  0
 17 23  1  0  0  0  0
 22 27  1  0  0  0  0
M  END
$$$$

  -OEChem-05262214473D

 43 42  0     1  0  0  0  0  0999 V2000
   -2.8661   -4.7415    2.2943 C   0  0  0  0  0  0  0  0  0  0  0  0
   -2.0233   -5.5727    2.6109 O   0  0  0  0  0  0  0  0  0  0  0  0
   -4.3078   -5.0134    2.5698 C   0  0  0  0  0  0  0  0  0  0  0  0
   -4.8057   -5.5295    1.7332 H   0  0  0  0  0  0  0  0  0  0  0  0
   -4.4526   -5.6688    3.4436 H   0  0  0  0  0  0  0  0  0  0  0  0
   -4.9255   -4.1233    2.7700 H   0  0  0  0  0  0  0  0  0  0  0  0
   -2.6241   -3.5219    1.6838 N   0  0  0  0  0  0  0  0  0  0  0  0
   -1.3070   -3.0608    1.3315 C   0  0  2  0  0  0  0  0  0  0  0  0
   -1.3931   -1.5680    1.0422 C   0  0  0  0  0  0  0  0  0  0  0  0
   -2.4385   -1.0059    0.7226 O   0  0  0  0  0  0  0  0  0  0  0  0
   -0.7590   -3.8164    0.1309 C   0  0  0  0  0  0  0  0  0  0  0  0
   -3.4188   -2.9207    1.4735 H   0  0  0  0  0  0  0  0  0  0  0  0
   -0.6690   -3.2277    2.2062 H   0  0  0  0  0  0  0  0  0  0  0  0
   -1.3852   -3.6613   -0.7553 H   0  0  0  0  0  0  0  0  0  0  0  0
    0.2542   -3.4843   -0.1182 H   0  0  0  0  0  0  0  0  0  0  0  0
   -0.7257   -4.8930    0.3300 H   0  0  0  0  0  0  0  0  0  0  0  0
   -0.1563   -0.9420    1.1402 N   0  0  0  0  0  0  0  0  0  0  0  0
    0.0261    0.4671    0.9001 C   0  0  2  0  0  0  0  0  0  0  0  0
   -0.8316    1.2526    1.8901 C   0  0  0  0  0  0  0  0  0  0  0  0
   -0.4304    1.5923    3.0014 O   0  0  0  0  0  0  0  0  0  0  0  0
   -0.2304    0.8473   -0.5602 C   0  0  0  0  0  0  0  0  0  0  0  0
    0.9591    0.1131   -1.7301 S   0  0  0  0  0  0  0  0  0  0  0  0
    0.6533   -1.4855    1.4300 H   0  0  0  0  0  0  0  0  0  0  0  0
    1.0774    0.6727    1.1371 H   0  0  0  0  0  0  0  0  0  0  0  0
   -1.2318    0.5308   -0.8696 H   0  0  0  0  0  0  0  0  0  0  0  0
   -0.1767    1.9351   -0.6776 H   0  0  0  0  0  0  0  0  0  0  0  0
    0.4201    0.6568   -2.8289 H   0  0  0  0  0  0  0  0  0  0  0  0
   -2.1032    1.5070    1.3962 N   0  0  0  0  0  0  0  0  0  0  0  0
   -3.1029    2.2254    2.1514 C   0  0  2  0  0  0  0  0  0  0  0  0
   -4.4097    2.1730    1.3709 C   0  0  0  0  0  0  0  0  0  0  0  0
   -4.4595    1.9736    0.1589 O   0  0  0  0  0  0  0  0  0  0  0  0
   -2.6780    3.6636    2.4039 C   0  0  0  0  0  0  0  0  0  0  0  0
   -2.3398    1.2180    0.4517 H   0  0  0  0  0  0  0  0  0  0  0  0
   -3.2232    1.6946    3.1021 H   0  0  0  0  0  0  0  0  0  0  0  0
   -2.5525    4.2114    1.4629 H   0  0  0  0  0  0  0  0  0  0  0  0
   -3.4238    4.1987    3.0009 H   0  0  0  0  0  0  0  0  0  0  0  0
   -1.7230    3.6995    2.9393 H   0  0  0  0  0  0  0  0  0  0  0  0
   -5.5107    2.4179    2.1795 N   0  0  0  0  0  0  0  0  0  0  0  0
   -6.8626    2.4351    1.6715 C   0  0  0  0  0  0  0  0  0  0  0  0
   -5.3775    2.5544    3.1772 H   0  0  0  0  0  0  0  0  0  0  0  0
   -7.1372    3.4632    1.3931 H   0  0  0  0  0  0  0  0  0  0  0  0
   -6.9300    1.7853    0.7865 H   0  0  0  0  0  0  0  0  0  0  0  0
   -7.5506    2.0695    2.4481 H   0  0  0  0  0  0  0  0  0  0  0  0
  1  3  1  0  0  0  0
  1  7  1  0  0  0  0
  1  2  2  0  0  0  0
 29 30  1  0  0  0  0
 30 38  1  0  0  0  0
 30 31  2  0  0  0  0
  8  9  1  0  0  0  0
  9 17  1  0  0  0  0
  9 10  2  0  0  0  0
 18 19  1  0  0  0  0
 19 28  1  0  0  0  0
 19 20  2  0  0  0  0
 29 32  1  0  0  0  0
  8 11  1  0  0  0  0
 38 39  1  0  0  0  0
 18 21  1  0  0  0  0
 21 22  1  0  0  0  0
 28 29  1  0  0  0  0
  7  8  1  0  0  0  0
 17 18  1  0  0  0  0
  3  4  1  0  0  0  0
  3  5  1  0  0  0  0
  3  6  1  0  0  0  0
 32 35  1  0  0  0  0
 32 36  1  0  0  0  0
 32 37  1  0  0  0  0
 11 14  1  0  0  0  0
 11 15  1  0  0  0  0
 11 16  1  0  0  0  0
 39 41  1  0  0  0  0
 39 42  1  0  0  0  0
 39 43  1  0  0  0  0
 21 25  1  0  0  0  0
 21 26  1  0  0  0  0
 29 34  1  0  0  0  0
  8 13  1  0  0  0  0
 18 24  1  0  0  0  0
 38 40  1  0  0  0  0
  7 12  1  0  0  0  0
 28 33  1  0  0  0  0
 17 23  1  0  0  0  0
 22 27  1  0  0  0  0
M  END
$$$$

  -OEChem-05262214473D

 43 42  0     1  0  0  0  0  0999 V2000
   -2.8661   -4.7415    2.2943 C   0  0  0  0  0  0  0  0  0  0  0  0
   -2.0233   -5.5727    2.6109 O   0  0  0  0  0  0  0  0  0  0  0  0
   -4.3078   -5.0134    2.5698 C   0  0  0  0  0  0  0  0  0  0  0  0
   -4.8057   -5.5295    1.7332 H   0  0  0  0  0  0  0  0  0  0  0  0
   -4.4526   -5.6688    3.4436 H   0  0  0  0  0  0  0  0  0  0  0  0
   -4.9255   -4.1233    2.7700 H   0  0  0  0  0  0  0  0  0  0  0  0
   -2.6241   -3.5219    1.6838 N   0  0  0  0  0  0  0  0  0  0  0  0
   -1.3070   -3.0608    1.3315 C   0  0  2  0  0  0  0  0  0  0  0  0
   -1.3931   -1.5680    1.0422 C   0  0  0  0  0  0  0  0  0  0  0  0
   -2.4385   -1.0059    0.7226 O   0  0  0  0  0  0  0  0  0  0  0  0
   -0.7590   -3.8164    0.1309 C   0  0  0  0  0  0  0  0  0  0  0  0
   -3.4188   -2.9207    1.4735 H   0  0  0  0  0  0  0  0  0  0  0  0
   -0.6690   -3.2277    2.2062 H   0  0  0  0  0  0  0  0  0  0  0  0
   -1.3852   -3.6613   -0.7553 H   0  0  0  0  0  0  0  0  0  0  0  0
    0.2542   -3.4843   -0.1182 H   0  0  0  0  0  0  0  0  0  0  0  0
   -0.7257   -4.8930    0.3300 H   0  0  0  0  0  0  0  0  0  0  0  0
   -0.1563   -0.9420    1.1402 N   0  0  0  0  0  0  0  0  0  0  0  0
    0.0261    0.4671    0.9001 C   0  0  2  0  0  0  0  0  0  0  0  0
   -0.8316    1.2526    1.8901 C   0  0  0  0  0  0  0  0  0  0  0  0
   -0.3659    1.8213    2.8755 O   0  0  0  0  0  0  0  0  0  0  0  0
   -0.2304    0.8473   -0.5602 C   0  0  0  0  0  0  0  0  0  0  0  0
    0.9591    0.1131   -1.7301 S   0  0  0  0  0  0  0  0  0  0  0  0
    0.6533   -1.4855    1.4300 H   0  0  0  0  0  0  0  0  0  0  0  0
    1.0774    0.6727    1.1371 H   0  0  0  0  0  0  0  0  0  0  0  0
   -1.2318    0.5308   -0.8696 H   0  0  0  0  0  0  0  0  0  0  0  0
   -0.1767    1.9351   -0.6776 H   0  0  0  0  0  0  0  0  0  0  0  0
    0.4201    0.6568   -2.8289 H   0  0  0  0  0  0  0  0  0  0  0  0
   -2.1784    1.2224    1.5569 N   0  0  0  0  0  0  0  0  0  0  0  0
   -3.1912    1.8833    2.3464 C   0  0  2  0  0  0  0  0  0  0  0  0
   -4.5523    1.5035    1.7785 C   0  0  0  0  0  0  0  0  0  0  0  0
   -4.7119    1.1113    0.6244 O   0  0  0  0  0  0  0  0  0  0  0  0
   -3.0010    3.3921    2.3394 C   0  0  0  0  0  0  0  0  0  0  0  0
   -2.4721    0.7553    0.7042 H   0  0  0  0  0  0  0  0  0  0  0  0
   -3.0996    1.4958    3.3669 H   0  0  0  0  0  0  0  0  0  0  0  0
   -3.0894    3.7985    1.3253 H   0  0  0  0  0  0  0  0  0  0  0  0
   -3.7525    3.8896    2.9614 H   0  0  0  0  0  0  0  0  0  0  0  0
   -2.0101    3.6618    2.7204 H   0  0  0  0  0  0  0  0  0  0  0  0
   -5.5736    1.6951    2.6985 N   0  0  0  0  0  0  0  0  0  0  0  0
   -6.9583    1.4188    2.3950 C   0  0  0  0  0  0  0  0  0  0  0  0
   -5.3473    2.0056    3.6388 H   0  0  0  0  0  0  0  0  0  0  0  0
   -7.4427    2.3342    2.0242 H   0  0  0  0  0  0  0  0  0  0  0  0
   -7.0155    0.6360    1.6244 H   0  0  0  0  0  0  0  0  0  0  0  0
   -7.4716    1.0755    3.3053 H   0  0  0  0  0  0  0  0  0  0  0  0
  1  3  1  0  0  0  0
  1  7  1  0  0  0  0
  1  2  2  0  0  0  0
 29 30  1  0  0  0  0
 30 38  1  0  0  0  0
 30 31  2  0  0  0  0
  8  9  1  0  0  0  0
  9 17  1  0  0  0  0
  9 10  2  0  0  0  0
 18 19  1  0  0  0  0
 19 28  1  0  0  0  0
 19 20  2  0  0  0  0
 29 32  1  0  0  0  0
  8 11  1  0  0  0  0
 38 39  1  0  0  0  0
 18 21  1  0  0  0  0
 21 22  1  0  0  0  0
 28 29  1  0  0  0  0
  7  8  1  0  0  0  0
 17 18  1  0  0  0  0
  3  4  1  0  0  0  0
  3  5  1  0  0  0  0
  3  6  1  0  0  0  0
 32 35  1  0  0  0  0
 32 36  1  0  0  0  0
 32 37  1  0  0  0  0
 11 14  1  0  0  0  0
 11 15  1  0  0  0  0
 11 16  1  0  0  0  0
 39 41  1  0  0  0  0
 39 42  1  0  0  0  0
 39 43  1  0  0  0  0
 21 25  1  0  0  0  0
 21 26  1  0  0  0  0
 29 34  1  0  0  0  0
  8 13  1  0  0  0  0
 18 24  1  0  0  0  0
 38 40  1  0  0  0  0
  7 12  1  0  0  0  0
 28 33  1  0  0  0  0
 17 23  1  0  0  0  0
 22 27  1  0  0  0  0
M  END
$$$$

  -OEChem-05262214473D

 43 42  0     1  0  0  0  0  0999 V2000
   -2.8661   -4.7415    2.2943 C   0  0  0  0  0  0  0  0  0  0  0  0
   -2.0233   -5.5727    2.6109 O   0  0  0  0  0  0  0  0  0  0  0  0
   -4.3078   -5.0134    2.5698 C   0  0  0  0  0  0  0  0  0  0  0  0
   -4.8057   -5.5295    1.7332 H   0  0  0  0  0  0  0  0  0  0  0  0
   -4.4526   -5.6688    3.4436 H   0  0  0  0  0  0  0  0  0  0  0  0
   -4.9255   -4.1233    2.7700 H   0  0  0  0  0  0  0  0  0  0  0  0
   -2.6241   -3.5219    1.6838 N   0  0  0  0  0  0  0  0  0  0  0  0
   -1.3070   -3.0608    1.3315 C   0  0  2  0  0  0  0  0  0  0  0  0
   -1.3931   -1.5680    1.0422 C   0  0  0  0  0  0  0  0  0  0  0  0
   -2.4385   -1.0059    0.7226 O   0  0  0  0  0  0  0  0  0  0  0  0
   -0.7590   -3.8164    0.1309 C   0  0  0  0  0  0  0  0  0  0  0  0
   -3.4188   -2.9207    1.4735 H   0  0  0  0  0  0  0  0  0  0  0  0
   -0.6690   -3.2277    2.2062 H   0  0  0  0  0  0  0  0  0  0  0  0
   -1.3852   -3.6613   -0.7553 H   0  0  0  0  0  0  0  0  0  0  0  0
    0.2542   -3.4843   -0.1182 H   0  0  0  0  0  0  0  0  0  0  0  0
   -0.7257   -4.8930    0.3300 H   0  0  0  0  0  0  0  0  0  0  0  0
   -0.1563   -0.9420    1.1402 N   0  0  0  0  0  0  0  0  0  0  0  0
    0.0261    0.4671    0.9001 C   0  0  2  0  0  0  0  0  0  0  0  0
   -0.8316    1.2526    1.8901 C   0  0  0  0  0  0  0  0  0  0  0  0
   -0.3588    2.0350    2.7121 O   0  0  0  0  0  0  0  0  0  0  0  0
   -0.2304    0.8473   -0.5602 C   0  0  0  0  0  0  0  0  0  0  0  0
    0.9591    0.1131   -1.7301 S   0  0  0  0  0  0  0  0  0  0  0  0
    0.6533   -1.4855    1.4300 H   0  0  0  0  0  0  0  0  0  0  0  0
    1.0774    0.6727    1.1371 H   0  0  0  0  0  0  0  0  0  0  0  0
   -1.2318    0.5308   -0.8696 H   0  0  0  0  0  0  0  0  0  0  0  0
   -0.1767    1.9351   -0.6776 H   0  0  0  0  0  0  0  0  0  0  0  0
    0.4201    0.6568   -2.8289 H   0  0  0  0  0  0  0  0  0  0  0  0
   -2.1818    0.9583    1.7635 N   0  0  0  0  0  0  0  0  0  0  0  0
   -3.1930    1.5664    2.5962 C   0  0  2  0  0  0  0  0  0  0  0  0
   -4.5235    0.8922    2.2885 C   0  0  0  0  0  0  0  0  0  0  0  0
   -4.7491    0.3038    1.2330 O   0  0  0  0  0  0  0  0  0  0  0  0
   -3.2762    3.0663    2.3595 C   0  0  0  0  0  0  0  0  0  0  0  0
   -2.4886    0.3228    1.0330 H   0  0  0  0  0  0  0  0  0  0  0  0
   -2.9116    1.3630    3.6352 H   0  0  0  0  0  0  0  0  0  0  0  0
   -3.5570    3.2897    1.3238 H   0  0  0  0  0  0  0  0  0  0  0  0
   -4.0233    3.5302    3.0119 H   0  0  0  0  0  0  0  0  0  0  0  0
   -2.3103    3.5455    2.5527 H   0  0  0  0  0  0  0  0  0  0  0  0
   -5.4440    1.0619    3.3132 N   0  0  0  0  0  0  0  0  0  0  0  0
   -6.7840    0.5263    3.2542 C   0  0  0  0  0  0  0  0  0  0  0  0
   -5.1646    1.5477    4.1604 H   0  0  0  0  0  0  0  0  0  0  0  0
   -7.4644    1.2842    2.8386 H   0  0  0  0  0  0  0  0  0  0  0  0
   -6.7938   -0.3667    2.6121 H   0  0  0  0  0  0  0  0  0  0  0  0
   -7.1145    0.2532    4.2672 H   0  0  0  0  0  0  0  0  0  0  0  0
  1  3  1  0  0  0  0
  1  7  1  0  0  0  0
  1  2  2  0  0  0  0
 29 30  1  0  0  0  0
 30 38  1  0  0  0  0
 30 31  2  0  0  0  0
  8  9  1  0  0  0  0
  9 17  1  0  0  0  0
  9 10  2  0  0  0  0
 18 19  1  0  0  0  0
 19 28  1  0  0  0  0
 19 20  2  0  0  0  0
 29 32  1  0  0  0  0
  8 11  1  0  0  0  0
 38 39  1  0  0  0  0
 18 21  1  0  0  0  0
 21 22  1  0  0  0  0
 28 29  1  0  0  0  0
  7  8  1  0  0  0  0
 17 18  1  0  0  0  0
  3  4  1  0  0  0  0
  3  5  1  0  0  0  0
  3  6  1  0  0  0  0
 32 35  1  0  0  0  0
 32 36  1  0  0  0  0
 32 37  1  0  0  0  0
 11 14  1  0  0  0  0
 11 15  1  0  0  0  0
 11 16  1  0  0  0  0
 39 41  1  0  0  0  0
 39 42  1  0  0  0  0
 39 43  1  0  0  0  0
 21 25  1  0  0  0  0
 21 26  1  0  0  0  0
 29 34  1  0  0  0  0
  8 13  1  0  0  0  0
 18 24  1  0  0  0  0
 38 40  1  0  0  0  0
  7 12  1  0  0  0  0
 28 33  1  0  0  0  0
 17 23  1  0  0  0  0
 22 27  1  0  0  0  0
M  END
$$$$

  -OEChem-05262214473D

 43 42  0     1  0  0  0  0  0999 V2000
   -2.8661   -4.7415    2.2943 C   0  0  0  0  0  0  0  0  0  0  0  0
   -2.0233   -5.5727    2.6109 O   0  0  0  0  0  0  0  0  0  0  0  0
   -4.3078   -5.0134    2.5698 C   0  0  0  0  0  0  0  0  0  0  0  0
   -4.8057   -5.5295    1.7332 H   0  0  0  0  0  0  0  0  0  0  0  0
   -4.4526   -5.6688    3.4436 H   0  0  0  0  0  0  0  0  0  0  0  0
   -4.9255   -4.1233    2.7700 H   0  0  0  0  0  0  0  0  0  0  0  0
   -2.6241   -3.5219    1.6838 N   0  0  0  0  0  0  0  0  0  0  0  0
   -1.3070   -3.0608    1.3315 C   0  0  2  0  0  0  0  0  0  0  0  0
   -1.3931   -1.5680    1.0422 C   0  0  0  0  0  0  0  0  0  0  0  0
   -2.4385   -1.0059    0.7226 O   0  0  0  0  0  0  0  0  0  0  0  0
   -0.7590   -3.8164    0.1309 C   0  0  0  0  0  0  0  0  0  0  0  0
   -3.4188   -2.9207    1.4735 H   0  0  0  0  0  0  0  0  0  0  0  0
   -0.6690   -3.2277    2.2062 H   0  0  0  0  0  0  0  0  0  0  0  0
   -1.3852   -3.6613   -0.7553 H   0  0  0  0  0  0  0  0  0  0  0  0
    0.2542   -3.4843   -0.1182 H   0  0  0  0  0  0  0  0  0  0  0  0
   -0.7257   -4.8930    0.3300 H   0  0  0  0  0  0  0  0  0  0  0  0
   -0.1563   -0.9420    1.1402 N   0  0  0  0  0  0  0  0  0  0  0  0
    0.0261    0.4671    0.9001 C   0  0  2  0  0  0  0  0  0  0  0  0
   -0.8316    1.2526    1.8901 C   0  0  0  0  0  0  0  0  0  0  0  0
   -0.4096    2.2189    2.5222 O   0  0  0  0  0  0  0  0  0  0  0  0
   -0.2304    0.8473   -0.5602 C   0  0  0  0  0  0  0  0  0  0  0  0
    0.9591    0.1131   -1.7301 S   0  0  0  0  0  0  0  0  0  0  0  0
    0.6533   -1.4855    1.4300 H   0  0  0  0  0  0  0  0  0  0  0  0
    1.0774    0.6727    1.1371 H   0  0  0  0  0  0  0  0  0  0  0  0
   -1.2318    0.5308   -0.8696 H   0  0  0  0  0  0  0  0  0  0  0  0
   -0.1767    1.9351   -0.6776 H   0  0  0  0  0  0  0  0  0  0  0  0
    0.4201    0.6568   -2.8289 H   0  0  0  0  0  0  0  0  0  0  0  0
   -2.1133    0.7326    2.0019 N   0  0  0  0  0  0  0  0  0  0  0  0
   -3.1084    1.2963    2.8838 C   0  0  2  0  0  0  0  0  0  0  0  0
   -4.3253    0.3807    2.8661 C   0  0  0  0  0  0  0  0  0  0  0  0
   -4.5685   -0.3940    1.9432 O   0  0  0  0  0  0  0  0  0  0  0  0
   -3.4846    2.7084    2.4629 C   0  0  0  0  0  0  0  0  0  0  0  0
   -2.3883   -0.0498    1.4156 H   0  0  0  0  0  0  0  0  0  0  0  0
   -2.6720    1.3053    3.8886 H   0  0  0  0  0  0  0  0  0  0  0  0
   -3.9236    2.7195    1.4586 H   0  0  0  0  0  0  0  0  0  0  0  0
   -4.2179    3.1449    3.1490 H   0  0  0  0  0  0  0  0  0  0  0  0
   -2.6030    3.3584    2.4475 H   0  0  0  0  0  0  0  0  0  0  0  0
   -5.1307    0.5614    3.9818 N   0  0  0  0  0  0  0  0  0  0  0  0
   -6.3515   -0.1816    4.1908 C   0  0  0  0  0  0  0  0  0  0  0  0
   -4.8419    1.2119    4.7065 H   0  0  0  0  0  0  0  0  0  0  0  0
   -7.2007    0.3847    3.7808 H   0  0  0  0  0  0  0  0  0  0  0  0
   -6.2800   -1.1545    3.6824 H   0  0  0  0  0  0  0  0  0  0  0  0
   -6.5035   -0.3414    5.2684 H   0  0  0  0  0  0  0  0  0  0  0  0
  1  3  1  0  0  0  0
  1  7  1  0  0  0  0
  1  2  2  0  0  0  0
 29 30  1  0  0  0  0
 30 38  1  0  0  0  0
 30 31  2  0  0  0  0
  8  9  1  0  0  0  0
  9 17  1  0  0  0  0
  9 10  2  0  0  0  0
 18 19  1  0  0  0  0
 19 28  1  0  0  0  0
 19 20  2  0  0  0  0
 29 32  1  0  0  0  0
  8 11  1  0  0  0  0
 38 39  1  0  0  0  0
 18 21  1  0  0  0  0
 21 22  1  0  0  0  0
 28 29  1  0  0  0  0
  7  8  1  0  0  0  0
 17 18  1  0  0  0  0
  3  4  1  0  0  0  0
  3  5  1  0  0  0  0
  3  6  1  0  0  0  0
 32 35  1  0  0  0  0
 32 36  1  0  0  0  0
 32 37  1  0  0  0  0
 11 14  1  0  0  0  0
 11 15  1  0  0  0  0
 11 16  1  0  0  0  0
 39 41  1  0  0  0  0
 39 42  1  0  0  0  0
 39 43  1  0  0  0  0
 21 25  1  0  0  0  0
 21 26  1  0  0  0  0
 29 34  1  0  0  0  0
  8 13  1  0  0  0  0
 18 24  1  0  0  0  0
 38 40  1  0  0  0  0
  7 12  1  0  0  0  0
 28 33  1  0  0  0  0
 17 23  1  0  0  0  0
 22 27  1  0  0  0  0
M  END
$$$$

  -OEChem-05262214473D

 43 42  0     1  0  0  0  0  0999 V2000
   -2.8661   -4.7415    2.2943 C   0  0  0  0  0  0  0  0  0  0  0  0
   -2.0233   -5.5727    2.6109 O   0  0  0  0  0  0  0  0  0  0  0  0
   -4.3078   -5.0134    2.5698 C   0  0  0  0  0  0  0  0  0  0  0  0
   -4.8057   -5.5295    1.7332 H   0  0  0  0  0  0  0  0  0  0  0  0
   -4.4526   -5.6688    3.4436 H   0  0  0  0  0  0  0  0  0  0  0  0
   -4.9255   -4.1233    2.7700 H   0  0  0  0  0  0  0  0  0  0  0  0
   -2.6241   -3.5219    1.6838 N   0  0  0  0  0  0  0  0  0  0  0  0
   -1.3070   -3.0608    1.3315 C   0  0  2  0  0  0  0  0  0  0  0  0
   -1.3931   -1.5680    1.0422 C   0  0  0  0  0  0  0  0  0  0  0  0
   -2.4385   -1.0059    0.7226 O   0  0  0  0  0  0  0  0  0  0  0  0
   -0.7590   -3.8164    0.1309 C   0  0  0  0  0  0  0  0  0  0  0  0
   -3.4188   -2.9207    1.4735 H   0  0  0  0  0  0  0  0  0  0  0  0
   -0.6690   -3.2277    2.2062 H   0  0  0  0  0  0  0  0  0  0  0  0
   -1.3852   -3.6613   -0.7553 H   0  0  0  0  0  0  0  0  0  0  0  0
    0.2542   -3.4843   -0.1182 H   0  0  0  0  0  0  0  0  0  0  0  0
   -0.7257   -4.8930    0.3300 H   0  0  0  0  0  0  0  0  0  0  0  0
   -0.1563   -0.9420    1.1402 N   0  0  0  0  0  0  0  0  0  0  0  0
    0.0261    0.4671    0.9001 C   0  0  2  0  0  0  0  0  0  0  0  0
   -0.8316    1.2526    1.8901 C   0  0  0  0  0  0  0  0  0  0  0  0
   -0.5147    2.3604    2.3188 O   0  0  0  0  0  0  0  0  0  0  0  0
   -0.2304    0.8473   -0.5602 C   0  0  0  0  0  0  0  0  0  0  0  0
    0.9591    0.1131   -1.7301 S   0  0  0  0  0  0  0  0  0  0  0  0
    0.6533   -1.4855    1.4300 H   0  0  0  0  0  0  0  0  0  0  0  0
    1.0774    0.6727    1.1371 H   0  0  0  0  0  0  0  0  0  0  0  0
   -1.2318    0.5308   -0.8696 H   0  0  0  0  0  0  0  0  0  0  0  0
   -0.1767    1.9351   -0.6776 H   0  0  0  0  0  0  0  0  0  0  0  0
    0.4201    0.6568   -2.8289 H   0  0  0  0  0  0  0  0  0  0  0  0
   -1.9775    0.5608    2.2559 N   0  0  0  0  0  0  0  0  0  0  0  0
   -2.9431    1.0914    3.1896 C   0  0  2  0  0  0  0  0  0  0  0  0
   -3.9712    0.0038    3.4720 C   0  0  0  0  0  0  0  0  0  0  0  0
   -4.1825   -0.9345    2.7065 O   0  0  0  0  0  0  0  0  0  0  0  0
   -3.6121    2.3428    2.6426 C   0  0  0  0  0  0  0  0  0  0  0  0
   -2.1779   -0.3374    1.8260 H   0  0  0  0  0  0  0  0  0  0  0  0
   -2.3972    1.3265    4.1098 H   0  0  0  0  0  0  0  0  0  0  0  0
   -4.1640    2.1269    1.7205 H   0  0  0  0  0  0  0  0  0  0  0  0
   -4.3230    2.7600    3.3633 H   0  0  0  0  0  0  0  0  0  0  0  0
   -2.8684    3.1132    2.4121 H   0  0  0  0  0  0  0  0  0  0  0  0
   -4.6552    0.2277    4.6587 N   0  0  0  0  0  0  0  0  0  0  0  0
   -5.6903   -0.6568    5.1407 C   0  0  0  0  0  0  0  0  0  0  0  0
   -4.4012    1.0210    5.2399 H   0  0  0  0  0  0  0  0  0  0  0  0
   -6.6698   -0.3031    4.7865 H   0  0  0  0  0  0  0  0  0  0  0  0
   -5.5091   -1.6736    4.7623 H   0  0  0  0  0  0  0  0  0  0  0  0
   -5.6803   -0.6676    6.2406 H   0  0  0  0  0  0  0  0  0  0  0  0
  1  3  1  0  0  0  0
  1  7  1  0  0  0  0
  1  2  2  0  0  0  0
 29 30  1  0  0  0  0
 30 38  1  0  0  0  0
 30 31  2  0  0  0  0
  8  9  1  0  0  0  0
  9 17  1  0  0  0  0
  9 10  2  0  0  0  0
 18 19  1  0  0  0  0
 19 28  1  0  0  0  0
 19 20  2  0  0  0  0
 29 32  1  0  0  0  0
  8 11  1  0  0  0  0
 38 39  1  0  0  0  0
 18 21  1  0  0  0  0
 21 22  1  0  0  0  0
 28 29  1  0  0  0  0
  7  8  1  0  0  0  0
 17 18  1  0  0  0  0
  3  4  1  0  0  0  0
  3  5  1  0  0  0  0
  3  6  1  0  0  0  0
 32 35  1  0  0  0  0
 32 36  1  0  0  0  0
 32 37  1  0  0  0  0
 11 14  1  0  0  0  0
 11 15  1  0  0  0  0
 11 16  1  0  0  0  0
 39 41  1  0  0  0  0
 39 42  1  0  0  0  0
 39 43  1  0  0  0  0
 21 25  1  0  0  0  0
 21 26  1  0  0  0  0
 29 34  1  0  0  0  0
  8 13  1  0  0  0  0
 18 24  1  0  0  0  0
 38 40  1  0  0  0  0
  7 12  1  0  0  0  0
 28 33  1  0  0  0  0
 17 23  1  0  0  0  0
 22 27  1  0  0  0  0
M  END
$$$$

  -OEChem-05262214473D

 43 42  0     1  0  0  0  0  0999 V2000
   -2.8661   -4.7415    2.2943 C   0  0  0  0  0  0  0  0  0  0  0  0
   -2.0233   -5.5727    2.6109 O   0  0  0  0  0  0  0  0  0  0  0  0
   -4.3078   -5.0134    2.5698 C   0  0  0  0  0  0  0  0  0  0  0  0
   -4.8057   -5.5295    1.7332 H   0  0  0  0  0  0  0  0  0  0  0  0
   -4.4526   -5.6688    3.4436 H   0  0  0  0  0  0  0  0  0  0  0  0
   -4.9255   -4.1233    2.7700 H   0  0  0  0  0  0  0  0  0  0  0  0
   -2.6241   -3.5219    1.6838 N   0  0  0  0  0  0  0  0  0  0  0  0
   -1.3070   -3.0608    1.3315 C   0  0  2  0  0  0  0  0  0  0  0  0
   -1.3931   -1.5680    1.0422 C   0  0  0  0  0  0  0  0  0  0  0  0
   -2.4385   -1.0059    0.7226 O   0  0  0  0  0  0  0  0  0  0  0  0
   -0.7590   -3.8164    0.1309 C   0  0  0  0  0  0  0  0  0  0  0  0
   -3.4188   -2.9207    1.4735 H   0  0  0  0  0  0  0  0  0  0  0  0
   -0.6690   -3.2277    2.2062 H   0  0  0  0  0  0  0  0  0  0  0  0
   -1.3852   -3.6613   -0.7553 H   0  0  0  0  0  0  0  0  0  0  0  0
    0.2542   -3.4843   -0.1182 H   0  0  0  0  0  0  0  0  0  0  0  0
   -0.7257   -4.8930    0.3300 H   0  0  0  0  0  0  0  0  0  0  0  0
   -0.1563   -0.9420    1.1402 N   0  0  0  0  0  0  0  0  0  0  0  0
    0.0261    0.4671    0.9001 C   0  0  2  0  0  0  0  0  0  0  0  0
   -0.8316    1.2526    1.8901 C   0  0  0  0  0  0  0  0  0  0  0  0
   -0.6671    2.4498    2.1158 O   0  0  0  0  0  0  0  0  0  0  0  0
   -0.2304    0.8473   -0.5602 C   0  0  0  0  0  0  0  0  0  0  0  0
    0.9591    0.1131   -1.7301 S   0  0  0  0  0  0  0  0  0  0  0  0
    0.6533   -1.4855    1.4300 H   0  0  0  0  0  0  0  0  0  0  0  0
    1.0774    0.6727    1.1371 H   0  0  0  0  0  0  0  0  0  0  0  0
   -1.2318    0.5308   -0.8696 H   0  0  0  0  0  0  0  0  0  0  0  0
   -0.1767    1.9351   -0.6776 H   0  0  0  0  0  0  0  0  0  0  0  0
    0.4201    0.6568   -2.8289 H   0  0  0  0  0  0  0  0  0  0  0  0
   -1.7838    0.4545    2.5081 N   0  0  0  0  0  0  0  0  0  0  0  0
   -2.7084    0.9657    3.4928 C   0  0  2  0  0  0  0  0  0  0  0  0
   -3.4852   -0.2128    4.0650 C   0  0  0  0  0  0  0  0  0  0  0  0
   -3.6173   -1.2809    3.4710 O   0  0  0  0  0  0  0  0  0  0  0  0
   -3.6500    1.9943    2.8862 C   0  0  0  0  0  0  0  0  0  0  0  0
   -1.8719   -0.5202    2.2362 H   0  0  0  0  0  0  0  0  0  0  0  0
   -2.1059    1.4253    4.2839 H   0  0  0  0  0  0  0  0  0  0  0  0
   -4.2620    1.5522    2.0916 H   0  0  0  0  0  0  0  0  0  0  0  0
   -4.3315    2.4018    3.6403 H   0  0  0  0  0  0  0  0  0  0  0  0
   -3.0883    2.8268    2.4488 H   0  0  0  0  0  0  0  0  0  0  0  0
   -4.0498    0.0834    5.2977 N   0  0  0  0  0  0  0  0  0  0  0  0
   -4.8455   -0.8668    6.0393 C   0  0  0  0  0  0  0  0  0  0  0  0
   -3.8724    0.9881    5.7241 H   0  0  0  0  0  0  0  0  0  0  0  0
   -5.9077   -0.7321    5.7873 H   0  0  0  0  0  0  0  0  0  0  0  0
   -4.5336   -1.8888    5.7783 H   0  0  0  0  0  0  0  0  0  0  0  0
   -4.7010   -0.7034    7.1175 H   0  0  0  0  0  0  0  0  0  0  0  0
  1  3  1  0  0  0  0
  1  7  1  0  0  0  0
  1  2  2  0  0  0  0
 29 30  1  0  0  0  0
 30 38  1  0  0  0  0
 30 31  2  0  0  0  0
  8  9  1  0  0  0  0
  9 17  1  0  0  0  0
  9 10  2  0  0  0  0
 18 19  1  0  0  0  0
 19 28  1  0  0  0  0
 19 20  2  0  0  0  0
 29 32  1  0  0  0  0
  8 11  1  0  0  0  0
 38 39  1  0  0  0  0
 18 21  1  0  0  0  0
 21 22  1  0  0  0  0
 28 29  1  0  0  0  0
  7  8  1  0  0  0  0
 17 18  1  0  0  0  0
  3  4  1  0  0  0  0
  3  5  1  0  0  0  0
  3  6  1  0  0  0  0
 32 35  1  0  0  0  0
 32 36  1  0  0  0  0
 32 37  1  0  0  0  0
 11 14  1  0  0  0  0
 11 15  1  0  0  0  0
 11 16  1  0  0  0  0
 39 41  1  0  0  0  0
 39 42  1  0  0  0  0
 39 43  1  0  0  0  0
 21 25  1  0  0  0  0
 21 26  1  0  0  0  0
 29 34  1  0  0  0  0
  8 13  1  0  0  0  0
 18 24  1  0  0  0  0
 38 40  1  0  0  0  0
  7 12  1  0  0  0  0
 28 33  1  0  0  0  0
 17 23  1  0  0  0  0
 22 27  1  0  0  0  0
M  END
$$$$

  -OEChem-05262214473D

 43 42  0     1  0  0  0  0  0999 V2000
   -2.8661   -4.7415    2.2943 C   0  0  0  0  0  0  0  0  0  0  0  0
   -2.0233   -5.5727    2.6109 O   0  0  0  0  0  0  0  0  0  0  0  0
   -4.3078   -5.0134    2.5698 C   0  0  0  0  0  0  0  0  0  0  0  0
   -4.8057   -5.5295    1.7332 H   0  0  0  0  0  0  0  0  0  0  0  0
   -4.4526   -5.6688    3.4436 H   0  0  0  0  0  0  0  0  0  0  0  0
   -4.9255   -4.1233    2.7700 H   0  0  0  0  0  0  0  0  0  0  0  0
   -2.6241   -3.5219    1.6838 N   0  0  0  0  0  0  0  0  0  0  0  0
   -1.3070   -3.0608    1.3315 C   0  0  2  0  0  0  0  0  0  0  0  0
   -1.3931   -1.5680    1.0422 C   0  0  0  0  0  0  0  0  0  0  0  0
   -2.4385   -1.0059    0.7226 O   0  0  0  0  0  0  0  0  0  0  0  0
   -0.7590   -3.8164    0.1309 C   0  0  0  0  0  0  0  0  0  0  0  0
   -3.4188   -2.9207    1.4735 H   0  0  0  0  0  0  0  0  0  0  0  0
   -0.6690   -3.2277    2.2062 H   0  0  0  0  0  0  0  0  0  0  0  0
   -1.3852   -3.6613   -0.7553 H   0  0  0  0  0  0  0  0  0  0  0  0
    0.2542   -3.4843   -0.1182 H   0  0  0  0  0  0  0  0  0  0  0  0
   -0.7257   -4.8930    0.3300 H   0  0  0  0  0  0  0  0  0  0  0  0
   -0.1563   -0.9420    1.1402 N   0  0  0  0  0  0  0  0  0  0  0  0
    0.0261    0.4671    0.9001 C   0  0  2  0  0  0  0  0  0  0  0  0
   -0.8316    1.2526    1.8901 C   0  0  0  0  0  0  0  0  0  0  0  0
   -0.8563    2.4812    1.9270 O   0  0  0  0  0  0  0  0  0  0  0  0
   -0.2304    0.8473   -0.5602 C   0  0  0  0  0  0  0  0  0  0  0  0
    0.9591    0.1131   -1.7301 S   0  0  0  0  0  0  0  0  0  0  0  0
    0.6533   -1.4855    1.4300 H   0  0  0  0  0  0  0  0  0  0  0  0
    1.0774    0.6727    1.1371 H   0  0  0  0  0  0  0  0  0  0  0  0
   -1.2318    0.5308   -0.8696 H   0  0  0  0  0  0  0  0  0  0  0  0
   -0.1767    1.9351   -0.6776 H   0  0  0  0  0  0  0  0  0  0  0  0
    0.4201    0.6568   -2.8289 H   0  0  0  0  0  0  0  0  0  0  0  0
   -1.5452    0.4210    2.7414 N   0  0  0  0  0  0  0  0  0  0  0  0
   -2.4202    0.9277    3.7727 C   0  0  2  0  0  0  0  0  0  0  0  0
   -2.9005   -0.2542    4.6045 C   0  0  0  0  0  0  0  0  0  0  0  0
   -2.9116   -1.4095    4.1846 O   0  0  0  0  0  0  0  0  0  0  0  0
   -3.5957    1.6868    3.1772 C   0  0  0  0  0  0  0  0  0  0  0  0
   -1.4910   -0.5857    2.6183 H   0  0  0  0  0  0  0  0  0  0  0  0
   -1.8179    1.5949    4.3988 H   0  0  0  0  0  0  0  0  0  0  0  0
   -4.2109    1.0346    2.5466 H   0  0  0  0  0  0  0  0  0  0  0  0
   -4.2426    2.0946    3.9610 H   0  0  0  0  0  0  0  0  0  0  0  0
   -3.2478    2.5185    2.5552 H   0  0  0  0  0  0  0  0  0  0  0  0
   -3.3557    0.1386    5.8553 N   0  0  0  0  0  0  0  0  0  0  0  0
   -3.8746   -0.7972    6.8254 C   0  0  0  0  0  0  0  0  0  0  0  0
   -3.2917    1.1154    6.1263 H   0  0  0  0  0  0  0  0  0  0  0  0
   -4.9664   -0.8732    6.7148 H   0  0  0  0  0  0  0  0  0  0  0  0
   -3.4200   -1.7853    6.6611 H   0  0  0  0  0  0  0  0  0  0  0  0
   -3.6324   -0.4462    7.8393 H   0  0  0  0  0  0  0  0  0  0  0  0
  1  3  1  0  0  0  0
  1  7  1  0  0  0  0
  1  2  2  0  0  0  0
 29 30  1  0  0  0  0
 30 38  1  0  0  0  0
 30 31  2  0  0  0  0
  8  9  1  0  0  0  0
  9 17  1  0  0  0  0
  9 10  2  0  0  0  0
 18 19  1  0  0  0  0
 19 28  1  0  0  0  0
 19 20  2  0  0  0  0
 29 32  1  0  0  0  0
  8 11  1  0  0  0  0
 38 39  1  0  0  0  0
 18 21  1  0  0  0  0
 21 22  1  0  0  0  0
 28 29  1  0  0  0  0
  7  8  1  0  0  0  0
 17 18  1  0  0  0  0
  3  4  1  0  0  0  0
  3  5  1  0  0  0  0
  3  6  1  0  0  0  0
 32 35  1  0  0  0  0
 32 36  1  0  0  0  0
 32 37  1  0  0  0  0
 11 14  1  0  0  0  0
 11 15  1  0  0  0  0
 11 16  1  0  0  0  0
 39 41  1  0  0  0  0
 39 42  1  0  0  0  0
 39 43  1  0  0  0  0
 21 25  1  0  0  0  0
 21 26  1  0  0  0  0
 29 34  1  0  0  0  0
  8 13  1  0  0  0  0
 18 24  1  0  0  0  0
 38 40  1  0  0  0  0
  7 12  1  0  0  0  0
 28 33  1  0  0  0  0
 17 23  1  0  0  0  0
 22 27  1  0  0  0  0
M  END
$$$$

  -OEChem-05262214473D

 43 42  0     1  0  0  0  0  0999 V2000
   -2.8661   -4.7415    2.2943 C   0  0  0  0  0  0  0  0  0  0  0  0
   -2.0233   -5.5727    2.6109 O   0  0  0  0  0  0  0  0  0  0  0  0
   -4.3078   -5.0134    2.5698 C   0  0  0  0  0  0  0  0  0  0  0  0
   -4.8057   -5.5295    1.7332 H   0  0  0  0  0  0  0  0  0  0  0  0
   -4.4526   -5.6688    3.4436 H   0  0  0  0  0  0  0  0  0  0  0  0
   -4.9255   -4.1233    2.7700 H   0  0  0  0  0  0  0  0  0  0  0  0
   -2.6241   -3.5219    1.6838 N   0  0  0  0  0  0  0  0  0  0  0  0
   -1.3070   -3.0608    1.3315 C   0  0  2  0  0  0  0  0  0  0  0  0
   -1.3931   -1.5680    1.0422 C   0  0  0  0  0  0  0  0  0  0  0  0
   -2.4385   -1.0059    0.7226 O   0  0  0  0  0  0  0  0  0  0  0  0
   -0.7590   -3.8164    0.1309 C   0  0  0  0  0  0  0  0  0  0  0  0
   -3.4188   -2.9207    1.4735 H   0  0  0  0  0  0  0  0  0  0  0  0
   -0.6690   -3.2277    2.2062 H   0  0  0  0  0  0  0  0  0  0  0  0
   -1.3852   -3.6613   -0.7553 H   0  0  0  0  0  0  0  0  0  0  0  0
    0.2542   -3.4843   -0.1182 H   0  0  0  0  0  0  0  0  0  0  0  0
   -0.7257   -4.8930    0.3300 H   0  0  0  0  0  0  0  0  0  0  0  0
   -0.1563   -0.9420    1.1402 N   0  0  0  0  0  0  0  0  0  0  0  0
    0.0261    0.4671    0.9001 C   0  0  2  0  0  0  0  0  0  0  0  0
   -0.8316    1.2526    1.8901 C   0  0  0  0  0  0  0  0  0  0  0  0
   -1.0694    2.4523    1.7652 O   0  0  0  0  0  0  0  0  0  0  0  0
   -0.2304    0.8473   -0.5602 C   0  0  0  0  0  0  0  0  0  0  0  0
    0.9591    0.1131   -1.7301 S   0  0  0  0  0  0  0  0  0  0  0  0
    0.6533   -1.4855    1.4300 H   0  0  0  0  0  0  0  0  0  0  0  0
    1.0774    0.6727    1.1371 H   0  0  0  0  0  0  0  0  0  0  0  0
   -1.2318    0.5308   -0.8696 H   0  0  0  0  0  0  0  0  0  0  0  0
   -0.1767    1.9351   -0.6776 H   0  0  0  0  0  0  0  0  0  0  0  0
    0.4201    0.6568   -2.8289 H   0  0  0  0  0  0  0  0  0  0  0  0
   -1.2781    0.4626    2.9399 N   0  0  0  0  0  0  0  0  0  0  0  0
   -2.0982    0.9800    4.0102 C   0  0  2  0  0  0  0  0  0  0  0  0
   -2.2570   -0.1178    5.0538 C   0  0  0  0  0  0  0  0  0  0  0  0
   -2.1133   -1.3117    4.7987 O   0  0  0  0  0  0  0  0  0  0  0  0
   -3.4530    1.4412    3.4958 C   0  0  0  0  0  0  0  0  0  0  0  0
   -1.0612   -0.5297    2.9462 H   0  0  0  0  0  0  0  0  0  0  0  0
   -1.5528    1.8238    4.4469 H   0  0  0  0  0  0  0  0  0  0  0  0
   -4.0141    0.6093    3.0546 H   0  0  0  0  0  0  0  0  0  0  0  0
   -4.0626    1.8594    4.3036 H   0  0  0  0  0  0  0  0  0  0  0  0
   -3.3359    2.2095    2.7240 H   0  0  0  0  0  0  0  0  0  0  0  0
   -2.6204    0.3893    6.2935 N   0  0  0  0  0  0  0  0  0  0  0  0
   -2.8439   -0.4529    7.4453 C   0  0  0  0  0  0  0  0  0  0  0  0
   -2.6986    1.3943    6.4189 H   0  0  0  0  0  0  0  0  0  0  0  0
   -3.9101   -0.7167    7.5060 H   0  0  0  0  0  0  0  0  0  0  0  0
   -2.2442   -1.3702    7.3505 H   0  0  0  0  0  0  0  0  0  0  0  0
   -2.5473    0.0865    8.3569 H   0  0  0  0  0  0  0  0  0  0  0  0
  1  3  1  0  0  0  0
  1  7  1  0  0  0  0
  1  2  2  0  0  0  0
 29 30  1  0  0  0  0
 30 38  1  0  0  0  0
 30 31  2  0  0  0  0
  8  9  1  0  0  0  0
  9 17  1  0  0  0  0
  9 10  2  0  0  0  0
 18 19  1  0  0  0  0
 19 28  1  0  0  0  0
 19 20  2  0  0  0  0
 29 32  1  0  0  0  0
  8 11  1  0  0  0  0
 38 39  1  0  0  0  0
 18 21  1  0  0  0  0
 21 22  1  0  0  0  0
 28 29  1  0  0  0  0
  7  8  1  0  0  0  0
 17 18  1  0  0  0  0
  3  4  1  0  0  0  0
  3  5  1  0  0  0  0
  3  6  1  0  0  0  0
 32 35  1  0  0  0  0
 32 36  1  0  0  0  0
 32 37  1  0  0  0  0
 11 14  1  0  0  0  0
 11 15  1  0  0  0  0
 11 16  1  0  0  0  0
 39 41  1  0  0  0  0
 39 42  1  0  0  0  0
 39 43  1  0  0  0  0
 21 25  1  0  0  0  0
 21 26  1  0  0  0  0
 29 34  1  0  0  0  0
  8 13  1  0  0  0  0
 18 24  1  0  0  0  0
 38 40  1  0  0  0  0
  7 12  1  0  0  0  0
 28 33  1  0  0  0  0
 17 23  1  0  0  0  0
 22 27  1  0  0  0  0
M  END
$$$$

  -OEChem-05262214473D

 43 42  0     1  0  0  0  0  0999 V2000
   -2.8661   -4.7415    2.2943 C   0  0  0  0  0  0  0  0  0  0  0  0
   -2.0233   -5.5727    2.6109 O   0  0  0  0  0  0  0  0  0  0  0  0
   -4.3078   -5.0134    2.5698 C   0  0  0  0  0  0  0  0  0  0  0  0
   -4.8057   -5.5295    1.7332 H   0  0  0  0  0  0  0  0  0  0  0  0
   -4.4526   -5.6688    3.4436 H   0  0  0  0  0  0  0  0  0  0  0  0
   -4.9255   -4.1233    2.7700 H   0  0  0  0  0  0  0  0  0  0  0  0
   -2.6241   -3.5219    1.6838 N   0  0  0  0  0  0  0  0  0  0  0  0
   -1.3070   -3.0608    1.3315 C   0  0  2  0  0  0  0  0  0  0  0  0
   -1.3931   -1.5680    1.0422 C   0  0  0  0  0  0  0  0  0  0  0  0
   -2.4385   -1.0059    0.7226 O   0  0  0  0  0  0  0  0  0  0  0  0
   -0.7590   -3.8164    0.1309 C   0  0  0  0  0  0  0  0  0  0  0  0
   -3.4188   -2.9207    1.4735 H   0  0  0  0  0  0  0  0  0  0  0  0
   -0.6690   -3.2277    2.2062 H   0  0  0  0  0  0  0  0  0  0  0  0
   -1.3852   -3.6613   -0.7553 H   0  0  0  0  0  0  0  0  0  0  0  0
    0.2542   -3.4843   -0.1182 H   0  0  0  0  0  0  0  0  0  0  0  0
   -0.7257   -4.8930    0.3300 H   0  0  0  0  0  0  0  0  0  0  0  0
   -0.1563   -0.9420    1.1402 N   0  0  0  0  0  0  0  0  0  0  0  0
    0.0261    0.4671    0.9001 C   0  0  2  0  0  0  0  0  0  0  0  0
   -0.8316    1.2526    1.8901 C   0  0  0  0  0  0  0  0  0  0  0  0
   -1.2920    2.3651    1.6415 O   0  0  0  0  0  0  0  0  0  0  0  0
   -0.2304    0.8473   -0.5602 C   0  0  0  0  0  0  0  0  0  0  0  0
    0.9591    0.1131   -1.7301 S   0  0  0  0  0  0  0  0  0  0  0  0
    0.6533   -1.4855    1.4300 H   0  0  0  0  0  0  0  0  0  0  0  0
    1.0774    0.6727    1.1371 H   0  0  0  0  0  0  0  0  0  0  0  0
   -1.2318    0.5308   -0.8696 H   0  0  0  0  0  0  0  0  0  0  0  0
   -0.1767    1.9351   -0.6776 H   0  0  0  0  0  0  0  0  0  0  0  0
    0.4201    0.6568   -2.8289 H   0  0  0  0  0  0  0  0  0  0  0  0
   -1.0007    0.5764    3.0899 N   0  0  0  0  0  0  0  0  0  0  0  0
   -1.7643    1.1191    4.1891 C   0  0  2  0  0  0  0  0  0  0  0  0
   -1.5985    0.1873    5.3823 C   0  0  0  0  0  0  0  0  0  0  0  0
   -1.2769   -0.9940    5.2713 O   0  0  0  0  0  0  0  0  0  0  0  0
   -3.2315    1.2741    3.8203 C   0  0  0  0  0  0  0  0  0  0  0  0
   -0.6119   -0.3557    3.1976 H   0  0  0  0  0  0  0  0  0  0  0  0
   -1.3288    2.0962    4.4248 H   0  0  0  0  0  0  0  0  0  0  0  0
   -3.6850    0.3054    3.5809 H   0  0  0  0  0  0  0  0  0  0  0  0
   -3.8037    1.7122    4.6447 H   0  0  0  0  0  0  0  0  0  0  0  0
   -3.3468    1.9208    2.9437 H   0  0  0  0  0  0  0  0  0  0  0  0
   -1.8938    0.8186    6.5825 N   0  0  0  0  0  0  0  0  0  0  0  0
   -1.8235    0.1426    7.8569 C   0  0  0  0  0  0  0  0  0  0  0  0
   -2.1336    1.8056    6.5821 H   0  0  0  0  0  0  0  0  0  0  0  0
   -2.8106   -0.2734    8.1069 H   0  0  0  0  0  0  0  0  0  0  0  0
   -1.0863   -0.6718    7.7996 H   0  0  0  0  0  0  0  0  0  0  0  0
   -1.5195    0.8582    8.6351 H   0  0  0  0  0  0  0  0  0  0  0  0
  1  3  1  0  0  0  0
  1  7  1  0  0  0  0
  1  2  2  0  0  0  0
 29 30  1  0  0  0  0
 30 38  1  0  0  0  0
 30 31  2  0  0  0  0
  8  9  1  0  0  0  0
  9 17  1  0  0  0  0
  9 10  2  0  0  0  0
 18 19  1  0  0  0  0
 19 28  1  0  0  0  0
 19 20  2  0  0  0  0
 29 32  1  0  0  0  0
  8 11  1  0  0  0  0
 38 39  1  0  0  0  0
 18 21  1  0  0  0  0
 21 22  1  0  0  0  0
 28 29  1  0  0  0  0
  7  8  1  0  0  0  0
 17 18  1  0  0  0  0
  3  4  1  0  0  0  0
  3  5  1  0  0  0  0
  3  6  1  0  0  0  0
 32 35  1  0  0  0  0
 32 36  1  0  0  0  0
 32 37  1  0  0  0  0
 11 14  1  0  0  0  0
 11 15  1  0  0  0  0
 11 16  1  0  0  0  0
 39 41  1  0  0  0  0
 39 42  1  0  0  0  0
 39 43  1  0  0  0  0
 21 25  1  0  0  0  0
 21 26  1  0  0  0  0
 29 34  1  0  0  0  0
  8 13  1  0  0  0  0
 18 24  1  0  0  0  0
 38 40  1  0  0  0  0
  7 12  1  0  0  0  0
 28 33  1  0  0  0  0
 17 23  1  0  0  0  0
 22 27  1  0  0  0  0
M  END
$$$$

  -OEChem-05262214473D

 43 42  0     1  0  0  0  0  0999 V2000
   -2.8661   -4.7415    2.2943 C   0  0  0  0  0  0  0  0  0  0  0  0
   -2.0233   -5.5727    2.6109 O   0  0  0  0  0  0  0  0  0  0  0  0
   -4.3078   -5.0134    2.5698 C   0  0  0  0  0  0  0  0  0  0  0  0
   -4.8057   -5.5295    1.7332 H   0  0  0  0  0  0  0  0  0  0  0  0
   -4.4526   -5.6688    3.4436 H   0  0  0  0  0  0  0  0  0  0  0  0
   -4.9255   -4.1233    2.7700 H   0  0  0  0  0  0  0  0  0  0  0  0
   -2.6241   -3.5219    1.6838 N   0  0  0  0  0  0  0  0  0  0  0  0
   -1.3070   -3.0608    1.3315 C   0  0  2  0  0  0  0  0  0  0  0  0
   -1.3931   -1.5680    1.0422 C   0  0  0  0  0  0  0  0  0  0  0  0
   -2.4385   -1.0059    0.7226 O   0  0  0  0  0  0  0  0  0  0  0  0
   -0.7590   -3.8164    0.1309 C   0  0  0  0  0  0  0  0  0  0  0  0
   -3.4188   -2.9207    1.4735 H   0  0  0  0  0  0  0  0  0  0  0  0
   -0.6690   -3.2277    2.2062 H   0  0  0  0  0  0  0  0  0  0  0  0
   -1.3852   -3.6613   -0.7553 H   0  0  0  0  0  0  0  0  0  0  0  0
    0.2542   -3.4843   -0.1182 H   0  0  0  0  0  0  0  0  0  0  0  0
   -0.7257   -4.8930    0.3300 H   0  0  0  0  0  0  0  0  0  0  0  0
   -0.1563   -0.9420    1.1402 N   0  0  0  0  0  0  0  0  0  0  0  0
    0.0261    0.4671    0.9001 C   0  0  2  0  0  0  0  0  0  0  0  0
   -0.8316    1.2526    1.8901 C   0  0  0  0  0  0  0  0  0  0  0  0
   -1.5088    2.2256    1.5643 O   0  0  0  0  0  0  0  0  0  0  0  0
   -0.2304    0.8473   -0.5602 C   0  0  0  0  0  0  0  0  0  0  0  0
    0.9591    0.1131   -1.7301 S   0  0  0  0  0  0  0  0  0  0  0  0
    0.6533   -1.4855    1.4300 H   0  0  0  0  0  0  0  0  0  0  0  0
    1.0774    0.6727    1.1371 H   0  0  0  0  0  0  0  0  0  0  0  0
   -1.2318    0.5308   -0.8696 H   0  0  0  0  0  0  0  0  0  0  0  0
   -0.1767    1.9351   -0.6776 H   0  0  0  0  0  0  0  0  0  0  0  0
    0.4201    0.6568   -2.8289 H   0  0  0  0  0  0  0  0  0  0  0  0
   -0.7318    0.7547    3.1814 N   0  0  0  0  0  0  0  0  0  0  0  0
   -1.4413    1.3355    4.2973 C   0  0  2  0  0  0  0  0  0  0  0  0
   -0.9699    0.6402    5.5676 C   0  0  0  0  0  0  0  0  0  0  0  0
   -0.4594   -0.4781    5.5703 O   0  0  0  0  0  0  0  0  0  0  0  0
   -2.9463    1.1971    4.1285 C   0  0  0  0  0  0  0  0  0  0  0  0
   -0.1735   -0.0758    3.3553 H   0  0  0  0  0  0  0  0  0  0  0  0
   -1.1611    2.3938    4.3340 H   0  0  0  0  0  0  0  0  0  0  0  0
   -3.2461    0.1435    4.0896 H   0  0  0  0  0  0  0  0  0  0  0  0
   -3.4835    1.6631    4.9612 H   0  0  0  0  0  0  0  0  0  0  0  0
   -3.2796    1.6720    3.1994 H   0  0  0  0  0  0  0  0  0  0  0  0
   -1.2255    1.3971    6.7025 N   0  0  0  0  0  0  0  0  0  0  0  0
   -0.8830    0.9489    8.0321 C   0  0  0  0  0  0  0  0  0  0  0  0
   -1.6350    2.3215    6.6048 H   0  0  0  0  0  0  0  0  0  0  0  0
   -1.7430    0.4266    8.4765 H   0  0  0  0  0  0  0  0  0  0  0  0
   -0.0253    0.2623    7.9778 H   0  0  0  0  0  0  0  0  0  0  0  0
   -0.6193    1.8165    8.6547 H   0  0  0  0  0  0  0  0  0  0  0  0
  1  3  1  0  0  0  0
  1  7  1  0  0  0  0
  1  2  2  0  0  0  0
 29 30  1  0  0  0  0
 30 38  1  0  0  0  0
 30 31  2  0  0  0  0
  8  9  1  0  0  0  0
  9 17  1  0  0  0  0
  9 10  2  0  0  0  0
 18 19  1  0  0  0  0
 19 28  1  0  0  0  0
 19 20  2  0  0  0  0
 29 32  1  0  0  0  0
  8 11  1  0  0  0  0
 38 39  1  0  0  0  0
 18 21  1  0  0  0  0
 21 22  1  0  0  0  0
 28 29  1  0  0  0  0
  7  8  1  0  0  0  0
 17 18  1  0  0  0  0
  3  4  1  0  0  0  0
  3  5  1  0  0  0  0
  3  6  1  0  0  0  0
 32 35  1  0  0  0  0
 32 36  1  0  0  0  0
 32 37  1  0  0  0  0
 11 14  1  0  0  0  0
 11 15  1  0  0  0  0
 11 16  1  0  0  0  0
 39 41  1  0  0  0  0
 39 42  1  0  0  0  0
 39 43  1  0  0  0  0
 21 25  1  0  0  0  0
 21 26  1  0  0  0  0
 29 34  1  0  0  0  0
  8 13  1  0  0  0  0
 18 24  1  0  0  0  0
 38 40  1  0  0  0  0
  7 12  1  0  0  0  0
 28 33  1  0  0  0  0
 17 23  1  0  0  0  0
 22 27  1  0  0  0  0
M  END
$$$$

  -OEChem-05262214473D

 43 42  0     1  0  0  0  0  0999 V2000
   -2.8661   -4.7415    2.2943 C   0  0  0  0  0  0  0  0  0  0  0  0
   -2.0233   -5.5727    2.6109 O   0  0  0  0  0  0  0  0  0  0  0  0
   -4.3078   -5.0134    2.5698 C   0  0  0  0  0  0  0  0  0  0  0  0
   -4.8057   -5.5295    1.7332 H   0  0  0  0  0  0  0  0  0  0  0  0
   -4.4526   -5.6688    3.4436 H   0  0  0  0  0  0  0  0  0  0  0  0
   -4.9255   -4.1233    2.7700 H   0  0  0  0  0  0  0  0  0  0  0  0
   -2.6241   -3.5219    1.6838 N   0  0  0  0  0  0  0  0  0  0  0  0
   -1.3070   -3.0608    1.3315 C   0  0  2  0  0  0  0  0  0  0  0  0
   -1.3931   -1.5680    1.0422 C   0  0  0  0  0  0  0  0  0  0  0  0
   -2.4385   -1.0059    0.7226 O   0  0  0  0  0  0  0  0  0  0  0  0
   -0.7590   -3.8164    0.1309 C   0  0  0  0  0  0  0  0  0  0  0  0
   -3.4188   -2.9207    1.4735 H   0  0  0  0  0  0  0  0  0  0  0  0
   -0.6690   -3.2277    2.2062 H   0  0  0  0  0  0  0  0  0  0  0  0
   -1.3852   -3.6613   -0.7553 H   0  0  0  0  0  0  0  0  0  0  0  0
    0.2542   -3.4843   -0.1182 H   0  0  0  0  0  0  0  0  0  0  0  0
   -0.7257   -4.8930    0.3300 H   0  0  0  0  0  0  0  0  0  0  0  0
   -0.1563   -0.9420    1.1402 N   0  0  0  0  0  0  0  0  0  0  0  0
    0.0261    0.4671    0.9001 C   0  0  2  0  0  0  0  0  0  0  0  0
   -0.8316    1.2526    1.8901 C   0  0  0  0  0  0  0  0  0  0  0  0
   -1.7052    2.0432    1.5390 O   0  0  0  0  0  0  0  0  0  0  0  0
   -0.2304    0.8473   -0.5602 C   0  0  0  0  0  0  0  0  0  0  0  0
    0.9591    0.1131   -1.7301 S   0  0  0  0  0  0  0  0  0  0  0  0
    0.6533   -1.4855    1.4300 H   0  0  0  0  0  0  0  0  0  0  0  0
    1.0774    0.6727    1.1371 H   0  0  0  0  0  0  0  0  0  0  0  0
   -1.2318    0.5308   -0.8696 H   0  0  0  0  0  0  0  0  0  0  0  0
   -0.1767    1.9351   -0.6776 H   0  0  0  0  0  0  0  0  0  0  0  0
    0.4201    0.6568   -2.8289 H   0  0  0  0  0  0  0  0  0  0  0  0
   -0.4898    0.9853    3.2081 N   0  0  0  0  0  0  0  0  0  0  0  0
   -1.1512    1.6144    4.3273 C   0  0  2  0  0  0  0  0  0  0  0  0
   -0.4140    1.2100    5.5972 C   0  0  0  0  0  0  0  0  0  0  0  0
    0.2835    0.2008    5.6754 O   0  0  0  0  0  0  0  0  0  0  0  0
   -2.6170    1.2154    4.3994 C   0  0  0  0  0  0  0  0  0  0  0  0
    0.2239    0.2910    3.4086 H   0  0  0  0  0  0  0  0  0  0  0  0
   -1.0610    2.6962    4.1807 H   0  0  0  0  0  0  0  0  0  0  0  0
   -2.7273    0.1347    4.5461 H   0  0  0  0  0  0  0  0  0  0  0  0
   -3.1238    1.7153    5.2314 H   0  0  0  0  0  0  0  0  0  0  0  0
   -3.1389    1.4801    3.4735 H   0  0  0  0  0  0  0  0  0  0  0  0
   -0.6611    2.0854    6.6454 N   0  0  0  0  0  0  0  0  0  0  0  0
   -0.0865    1.9109    7.9589 C   0  0  0  0  0  0  0  0  0  0  0  0
   -1.2370    2.9067    6.4853 H   0  0  0  0  0  0  0  0  0  0  0  0
   -0.7801    1.3356    8.5896 H   0  0  0  0  0  0  0  0  0  0  0  0
    0.8666    1.3685    7.8729 H   0  0  0  0  0  0  0  0  0  0  0  0
    0.0922    2.8960    8.4146 H   0  0  0  0  0  0  0  0  0  0  0  0
  1  3  1  0  0  0  0
  1  7  1  0  0  0  0
  1  2  2  0  0  0  0
 29 30  1  0  0  0  0
 30 38  1  0  0  0  0
 30 31  2  0  0  0  0
  8  9  1  0  0  0  0
  9 17  1  0  0  0  0
  9 10  2  0  0  0  0
 18 19  1  0  0  0  0
 19 28  1  0  0  0  0
 19 20  2  0  0  0  0
 29 32  1  0  0  0  0
  8 11  1  0  0  0  0
 38 39  1  0  0  0  0
 18 21  1  0  0  0  0
 21 22  1  0  0  0  0
 28 29  1  0  0  0  0
  7  8  1  0  0  0  0
 17 18  1  0  0  0  0
  3  4  1  0  0  0  0
  3  5  1  0  0  0  0
  3  6  1  0  0  0  0
 32 35  1  0  0  0  0
 32 36  1  0  0  0  0
 32 37  1  0  0  0  0
 11 14  1  0  0  0  0
 11 15  1  0  0  0  0
 11 16  1  0  0  0  0
 39 41  1  0  0  0  0
 39 42  1  0  0  0  0
 39 43  1  0  0  0  0
 21 25  1  0  0  0  0
 21 26  1  0  0  0  0
 29 34  1  0  0  0  0
  8 13  1  0  0  0  0
 18 24  1  0  0  0  0
 38 40  1  0  0  0  0
  7 12  1  0  0  0  0
 28 33  1  0  0  0  0
 17 23  1  0  0  0  0
 22 27  1  0  0  0  0
M  END
$$$$

  -OEChem-05262214473D

 43 42  0     1  0  0  0  0  0999 V2000
   -2.8661   -4.7415    2.2943 C   0  0  0  0  0  0  0  0  0  0  0  0
   -2.0233   -5.5727    2.6109 O   0  0  0  0  0  0  0  0  0  0  0  0
   -4.3078   -5.0134    2.5698 C   0  0  0  0  0  0  0  0  0  0  0  0
   -4.8057   -5.5295    1.7332 H   0  0  0  0  0  0  0  0  0  0  0  0
   -4.4526   -5.6688    3.4436 H   0  0  0  0  0  0  0  0  0  0  0  0
   -4.9255   -4.1233    2.7700 H   0  0  0  0  0  0  0  0  0  0  0  0
   -2.6241   -3.5219    1.6838 N   0  0  0  0  0  0  0  0  0  0  0  0
   -1.3070   -3.0608    1.3315 C   0  0  2  0  0  0  0  0  0  0  0  0
   -1.3931   -1.5680    1.0422 C   0  0  0  0  0  0  0  0  0  0  0  0
   -2.4385   -1.0059    0.7226 O   0  0  0  0  0  0  0  0  0  0  0  0
   -0.7590   -3.8164    0.1309 C   0  0  0  0  0  0  0  0  0  0  0  0
   -3.4188   -2.9207    1.4735 H   0  0  0  0  0  0  0  0  0  0  0  0
   -0.6690   -3.2277    2.2062 H   0  0  0  0  0  0  0  0  0  0  0  0
   -1.3852   -3.6613   -0.7553 H   0  0  0  0  0  0  0  0  0  0  0  0
    0.2542   -3.4843   -0.1182 H   0  0  0  0  0  0  0  0  0  0  0  0
   -0.7257   -4.8930    0.3300 H   0  0  0  0  0  0  0  0  0  0  0  0
   -0.1563   -0.9420    1.1402 N   0  0  0  0  0  0  0  0  0  0  0  0
    0.0261    0.4671    0.9001 C   0  0  2  0  0  0  0  0  0  0  0  0
   -0.8316    1.2526    1.8901 C   0  0  0  0  0  0  0  0  0  0  0  0
   -1.8676    1.8304    1.5671 O   0  0  0  0  0  0  0  0  0  0  0  0
   -0.2304    0.8473   -0.5602 C   0  0  0  0  0  0  0  0  0  0  0  0
    0.9591    0.1131   -1.7301 S   0  0  0  0  0  0  0  0  0  0  0  0
    0.6533   -1.4855    1.4300 H   0  0  0  0  0  0  0  0  0  0  0  0
    1.0774    0.6727    1.1371 H   0  0  0  0  0  0  0  0  0  0  0  0
   -1.2318    0.5308   -0.8696 H   0  0  0  0  0  0  0  0  0  0  0  0
   -0.1767    1.9351   -0.6776 H   0  0  0  0  0  0  0  0  0  0  0  0
    0.4201    0.6568   -2.8289 H   0  0  0  0  0  0  0  0  0  0  0  0
   -0.2912    1.2526    3.1682 N   0  0  0  0  0  0  0  0  0  0  0  0
   -0.9138    1.9368    4.2772 C   0  0  2  0  0  0  0  0  0  0  0  0
    0.0313    1.8580    5.4688 C   0  0  0  0  0  0  0  0  0  0  0  0
    0.9012    0.9965    5.5792 O   0  0  0  0  0  0  0  0  0  0  0  0
   -2.2658    1.3276    4.6146 C   0  0  0  0  0  0  0  0  0  0  0  0
    0.5534    0.7198    3.3538 H   0  0  0  0  0  0  0  0  0  0  0  0
   -1.0356    2.9828    3.9754 H   0  0  0  0  0  0  0  0  0  0  0  0
   -2.1640    0.2796    4.9193 H   0  0  0  0  0  0  0  0  0  0  0  0
   -2.7492    1.8654    5.4369 H   0  0  0  0  0  0  0  0  0  0  0  0
   -2.9344    1.3582    3.7475 H   0  0  0  0  0  0  0  0  0  0  0  0
   -0.2390    2.8367    6.4150 N   0  0  0  0  0  0  0  0  0  0  0  0
    0.5118    2.9632    7.6423 C   0  0  0  0  0  0  0  0  0  0  0  0
   -0.9667    3.5213    6.2318 H   0  0  0  0  0  0  0  0  0  0  0  0
    0.0127    2.3916    8.4386 H   0  0  0  0  0  0  0  0  0  0  0  0
    1.5286    2.5713    7.4920 H   0  0  0  0  0  0  0  0  0  0  0  0
    0.5663    4.0232    7.9311 H   0  0  0  0  0  0  0  0  0  0  0  0
  1  3  1  0  0  0  0
  1  7  1  0  0  0  0
  1  2  2  0  0  0  0
 29 30  1  0  0  0  0
 30 38  1  0  0  0  0
 30 31  2  0  0  0  0
  8  9  1  0  0  0  0
  9 17  1  0  0  0  0
  9 10  2  0  0  0  0
 18 19  1  0  0  0  0
 19 28  1  0  0  0  0
 19 20  2  0  0  0  0
 29 32  1  0  0  0  0
  8 11  1  0  0  0  0
 38 39  1  0  0  0  0
 18 21  1  0  0  0  0
 21 22  1  0  0  0  0
 28 29  1  0  0  0  0
  7  8  1  0  0  0  0
 17 18  1  0  0  0  0
  3  4  1  0  0  0  0
  3  5  1  0  0  0  0
  3  6  1  0  0  0  0
 32 35  1  0  0  0  0
 32 36  1  0  0  0  0
 32 37  1  0  0  0  0
 11 14  1  0  0  0  0
 11 15  1  0  0  0  0
 11 16  1  0  0  0  0
 39 41  1  0  0  0  0
 39 42  1  0  0  0  0
 39 43  1  0  0  0  0
 21 25  1  0  0  0  0
 21 26  1  0  0  0  0
 29 34  1  0  0  0  0
  8 13  1  0  0  0  0
 18 24  1  0  0  0  0
 38 40  1  0  0  0  0
  7 12  1  0  0  0  0
 28 33  1  0  0  0  0
 17 23  1  0  0  0  0
 22 27  1  0  0  0  0
M  END
$$$$

  -OEChem-05262214473D

 43 42  0     1  0  0  0  0  0999 V2000
   -2.8661   -4.7415    2.2943 C   0  0  0  0  0  0  0  0  0  0  0  0
   -2.0233   -5.5727    2.6109 O   0  0  0  0  0  0  0  0  0  0  0  0
   -4.3078   -5.0134    2.5698 C   0  0  0  0  0  0  0  0  0  0  0  0
   -4.8057   -5.5295    1.7332 H   0  0  0  0  0  0  0  0  0  0  0  0
   -4.4526   -5.6688    3.4436 H   0  0  0  0  0  0  0  0  0  0  0  0
   -4.9255   -4.1233    2.7700 H   0  0  0  0  0  0  0  0  0  0  0  0
   -2.6241   -3.5219    1.6838 N   0  0  0  0  0  0  0  0  0  0  0  0
   -1.3070   -3.0608    1.3315 C   0  0  2  0  0  0  0  0  0  0  0  0
   -1.3931   -1.5680    1.0422 C   0  0  0  0  0  0  0  0  0  0  0  0
   -2.4385   -1.0059    0.7226 O   0  0  0  0  0  0  0  0  0  0  0  0
   -0.7590   -3.8164    0.1309 C   0  0  0  0  0  0  0  0  0  0  0  0
   -3.4188   -2.9207    1.4735 H   0  0  0  0  0  0  0  0  0  0  0  0
   -0.6690   -3.2277    2.2062 H   0  0  0  0  0  0  0  0  0  0  0  0
   -1.3852   -3.6613   -0.7553 H   0  0  0  0  0  0  0  0  0  0  0  0
    0.2542   -3.4843   -0.1182 H   0  0  0  0  0  0  0  0  0  0  0  0
   -0.7257   -4.8930    0.3300 H   0  0  0  0  0  0  0  0  0  0  0  0
   -0.1563   -0.9420    1.1402 N   0  0  0  0  0  0  0  0  0  0  0  0
    0.0261    0.4671    0.9001 C   0  0  2  0  0  0  0  0  0  0  0  0
   -0.8316    1.2526    1.8901 C   0  0  0  0  0  0  0  0  0  0  0  0
   -1.9850    1.6018    1.6468 O   0  0  0  0  0  0  0  0  0  0  0  0
   -0.2304    0.8473   -0.5602 C   0  0  0  0  0  0  0  0  0  0  0  0
    0.9591    0.1131   -1.7301 S   0  0  0  0  0  0  0  0  0  0  0  0
    0.6533   -1.4855    1.4300 H   0  0  0  0  0  0  0  0  0  0  0  0
    1.0774    0.6727    1.1371 H   0  0  0  0  0  0  0  0  0  0  0  0
   -1.2318    0.5308   -0.8696 H   0  0  0  0  0  0  0  0  0  0  0  0
   -0.1767    1.9351   -0.6776 H   0  0  0  0  0  0  0  0  0  0  0  0
    0.4201    0.6568   -2.8289 H   0  0  0  0  0  0  0  0  0  0  0  0
   -0.1495    1.5382    3.0643 N   0  0  0  0  0  0  0  0  0  0  0  0
   -0.7453    2.2807    4.1503 C   0  0  2  0  0  0  0  0  0  0  0  0
    0.3357    2.5399    5.1914 C   0  0  0  0  0  0  0  0  0  0  0  0
    1.3516    1.8547    5.2885 O   0  0  0  0  0  0  0  0  0  0  0  0
   -1.9168    1.5263    4.7594 C   0  0  0  0  0  0  0  0  0  0  0  0
    0.7924    1.1812    3.1948 H   0  0  0  0  0  0  0  0  0  0  0  0
   -1.0864    3.2340    3.7321 H   0  0  0  0  0  0  0  0  0  0  0  0
   -1.5945    0.5683    5.1837 H   0  0  0  0  0  0  0  0  0  0  0  0
   -2.3852    2.1031    5.5637 H   0  0  0  0  0  0  0  0  0  0  0  0
   -2.6799    1.3146    4.0026 H   0  0  0  0  0  0  0  0  0  0  0  0
    0.0120    3.5997    6.0271 N   0  0  0  0  0  0  0  0  0  0  0  0
    0.8710    4.0339    7.1039 C   0  0  0  0  0  0  0  0  0  0  0  0
   -0.8423    4.1236    5.8617 H   0  0  0  0  0  0  0  0  0  0  0  0
    0.5812    3.5226    8.0338 H   0  0  0  0  0  0  0  0  0  0  0  0
    1.9155    3.7889    6.8612 H   0  0  0  0  0  0  0  0  0  0  0  0
    0.7708    5.1212    7.2370 H   0  0  0  0  0  0  0  0  0  0  0  0
  1  3  1  0  0  0  0
  1  7  1  0  0  0  0
  1  2  2  0  0  0  0
 29 30  1  0  0  0  0
 30 38  1  0  0  0  0
 30 31  2  0  0  0  0
  8  9  1  0  0  0  0
  9 17  1  0  0  0  0
  9 10  2  0  0  0  0
 18 19  1  0  0  0  0
 19 28  1  0  0  0  0
 19 20  2  0  0  0  0
 29 32  1  0  0  0  0
  8 11  1  0  0  0  0
 38 39  1  0  0  0  0
 18 21  1  0  0  0  0
 21 22  1  0  0  0  0
 28 29  1  0  0  0  0
  7  8  1  0  0  0  0
 17 18  1  0  0  0  0
  3  4  1  0  0  0  0
  3  5  1  0  0  0  0
  3  6  1  0  0  0  0
 32 35  1  0  0  0  0
 32 36  1  0  0  0  0
 32 37  1  0  0  0  0
 11 14  1  0  0  0  0
 11 15  1  0  0  0  0
 11 16  1  0  0  0  0
 39 41  1  0  0  0  0
 39 42  1  0  0  0  0
 39 43  1  0  0  0  0
 21 25  1  0  0  0  0
 21 26  1  0  0  0  0
 29 34  1  0  0  0  0
  8 13  1  0  0  0  0
 18 24  1  0  0  0  0
 38 40  1  0  0  0  0
  7 12  1  0  0  0  0
 28 33  1  0  0  0  0
 17 23  1  0  0  0  0
 22 27  1  0  0  0  0
M  END
$$$$

  -OEChem-05262214473D

 43 42  0     1  0  0  0  0  0999 V2000
   -2.8661   -4.7415    2.2943 C   0  0  0  0  0  0  0  0  0  0  0  0
   -2.0233   -5.5727    2.6109 O   0  0  0  0  0  0  0  0  0  0  0  0
   -4.3078   -5.0134    2.5698 C   0  0  0  0  0  0  0  0  0  0  0  0
   -4.8057   -5.5295    1.7332 H   0  0  0  0  0  0  0  0  0  0  0  0
   -4.4526   -5.6688    3.4436 H   0  0  0  0  0  0  0  0  0  0  0  0
   -4.9255   -4.1233    2.7700 H   0  0  0  0  0  0  0  0  0  0  0  0
   -2.6241   -3.5219    1.6838 N   0  0  0  0  0  0  0  0  0  0  0  0
   -1.3070   -3.0608    1.3315 C   0  0  2  0  0  0  0  0  0  0  0  0
   -1.3931   -1.5680    1.0422 C   0  0  0  0  0  0  0  0  0  0  0  0
   -2.4385   -1.0059    0.7226 O   0  0  0  0  0  0  0  0  0  0  0  0
   -0.7590   -3.8164    0.1309 C   0  0  0  0  0  0  0  0  0  0  0  0
   -3.4188   -2.9207    1.4735 H   0  0  0  0  0  0  0  0  0  0  0  0
   -0.6690   -3.2277    2.2062 H   0  0  0  0  0  0  0  0  0  0  0  0
   -1.3852   -3.6613   -0.7553 H   0  0  0  0  0  0  0  0  0  0  0  0
    0.2542   -3.4843   -0.1182 H   0  0  0  0  0  0  0  0  0  0  0  0
   -0.7257   -4.8930    0.3300 H   0  0  0  0  0  0  0  0  0  0  0  0
   -0.1563   -0.9420    1.1402 N   0  0  0  0  0  0  0  0  0  0  0  0
    0.0261    0.4671    0.9001 C   0  0  2  0  0  0  0  0  0  0  0  0
   -0.8316    1.2526    1.8901 C   0  0  0  0  0  0  0  0  0  0  0  0
   -2.0495    1.3728    1.7726 O   0  0  0  0  0  0  0  0  0  0  0  0
   -0.2304    0.8473   -0.5602 C   0  0  0  0  0  0  0  0  0  0  0  0
    0.9591    0.1131   -1.7301 S   0  0  0  0  0  0  0  0  0  0  0  0
    0.6533   -1.4855    1.4300 H   0  0  0  0  0  0  0  0  0  0  0  0
    1.0774    0.6727    1.1371 H   0  0  0  0  0  0  0  0  0  0  0  0
   -1.2318    0.5308   -0.8696 H   0  0  0  0  0  0  0  0  0  0  0  0
   -0.1767    1.9351   -0.6776 H   0  0  0  0  0  0  0  0  0  0  0  0
    0.4201    0.6568   -2.8289 H   0  0  0  0  0  0  0  0  0  0  0  0
   -0.0744    1.8228    2.9036 N   0  0  0  0  0  0  0  0  0  0  0  0
   -0.6570    2.6228    3.9554 C   0  0  2  0  0  0  0  0  0  0  0  0
    0.4783    3.2094    4.7839 C   0  0  0  0  0  0  0  0  0  0  0  0
    1.6039    2.7169    4.8230 O   0  0  0  0  0  0  0  0  0  0  0  0
   -1.5937    1.7977    4.8240 C   0  0  0  0  0  0  0  0  0  0  0  0
    0.9247    1.6439    2.9423 H   0  0  0  0  0  0  0  0  0  0  0  0
   -1.2100    3.4328    3.4672 H   0  0  0  0  0  0  0  0  0  0  0  0
   -1.0576    0.9812    5.3213 H   0  0  0  0  0  0  0  0  0  0  0  0
   -2.0565    2.4121    5.6033 H   0  0  0  0  0  0  0  0  0  0  0  0
   -2.3927    1.3522    4.2215 H   0  0  0  0  0  0  0  0  0  0  0  0
    0.0749    4.3224    5.5081 N   0  0  0  0  0  0  0  0  0  0  0  0
    0.9667    5.0501    6.3805 C   0  0  0  0  0  0  0  0  0  0  0  0
   -0.8726    4.6723    5.4001 H   0  0  0  0  0  0  0  0  0  0  0  0
    0.8867    4.6516    7.4026 H   0  0  0  0  0  0  0  0  0  0  0  0
    2.0011    4.9382    6.0233 H   0  0  0  0  0  0  0  0  0  0  0  0
    0.6918    6.1153    6.3798 H   0  0  0  0  0  0  0  0  0  0  0  0
  1  3  1  0  0  0  0
  1  7  1  0  0  0  0
  1  2  2  0  0  0  0
 29 30  1  0  0  0  0
 30 38  1  0  0  0  0
 30 31  2  0  0  0  0
  8  9  1  0  0  0  0
  9 17  1  0  0  0  0
  9 10  2  0  0  0  0
 18 19  1  0  0  0  0
 19 28  1  0  0  0  0
 19 20  2  0  0  0  0
 29 32  1  0  0  0  0
  8 11  1  0  0  0  0
 38 39  1  0  0  0  0
 18 21  1  0  0  0  0
 21 22  1  0  0  0  0
 28 29  1  0  0  0  0
  7  8  1  0  0  0  0
 17 18  1  0  0  0  0
  3  4  1  0  0  0  0
  3  5  1  0  0  0  0
  3  6  1  0  0  0  0
 32 35  1  0  0  0  0
 32 36  1  0  0  0  0
 32 37  1  0  0  0  0
 11 14  1  0  0  0  0
 11 15  1  0  0  0  0
 11 16  1  0  0  0  0
 39 41  1  0  0  0  0
 39 42  1  0  0  0  0
 39 43  1  0  0  0  0
 21 25  1  0  0  0  0
 21 26  1  0  0  0  0
 29 34  1  0  0  0  0
  8 13  1  0  0  0  0
 18 24  1  0  0  0  0
 38 40  1  0  0  0  0
  7 12  1  0  0  0  0
 28 33  1  0  0  0  0
 17 23  1  0  0  0  0
 22 27  1  0  0  0  0
M  END
$$$$

  -OEChem-05262214473D

 43 42  0     1  0  0  0  0  0999 V2000
   -2.8661   -4.7415    2.2943 C   0  0  0  0  0  0  0  0  0  0  0  0
   -2.0233   -5.5727    2.6109 O   0  0  0  0  0  0  0  0  0  0  0  0
   -4.3078   -5.0134    2.5698 C   0  0  0  0  0  0  0  0  0  0  0  0
   -4.8057   -5.5295    1.7332 H   0  0  0  0  0  0  0  0  0  0  0  0
   -4.4526   -5.6688    3.4436 H   0  0  0  0  0  0  0  0  0  0  0  0
   -4.9255   -4.1233    2.7700 H   0  0  0  0  0  0  0  0  0  0  0  0
   -2.6241   -3.5219    1.6838 N   0  0  0  0  0  0  0  0  0  0  0  0
   -1.3070   -3.0608    1.3315 C   0  0  2  0  0  0  0  0  0  0  0  0
   -1.3931   -1.5680    1.0422 C   0  0  0  0  0  0  0  0  0  0  0  0
   -2.4385   -1.0059    0.7226 O   0  0  0  0  0  0  0  0  0  0  0  0
   -0.7590   -3.8164    0.1309 C   0  0  0  0  0  0  0  0  0  0  0  0
   -3.4188   -2.9207    1.4735 H   0  0  0  0  0  0  0  0  0  0  0  0
   -0.6690   -3.2277    2.2062 H   0  0  0  0  0  0  0  0  0  0  0  0
   -1.3852   -3.6613   -0.7553 H   0  0  0  0  0  0  0  0  0  0  0  0
    0.2542   -3.4843   -0.1182 H   0  0  0  0  0  0  0  0  0  0  0  0
   -0.7257   -4.8930    0.3300 H   0  0  0  0  0  0  0  0  0  0  0  0
   -0.1563   -0.9420    1.1402 N   0  0  0  0  0  0  0  0  0  0  0  0
    0.0261    0.4671    0.9001 C   0  0  2  0  0  0  0  0  0  0  0  0
   -0.8316    1.2526    1.8901 C   0  0  0  0  0  0  0  0  0  0  0  0
   -2.0566    1.1590    1.9361 O   0  0  0  0  0  0  0  0  0  0  0  0
   -0.2304    0.8473   -0.5602 C   0  0  0  0  0  0  0  0  0  0  0  0
    0.9591    0.1131   -1.7301 S   0  0  0  0  0  0  0  0  0  0  0  0
    0.6533   -1.4855    1.4300 H   0  0  0  0  0  0  0  0  0  0  0  0
    1.0774    0.6727    1.1371 H   0  0  0  0  0  0  0  0  0  0  0  0
   -1.2318    0.5308   -0.8696 H   0  0  0  0  0  0  0  0  0  0  0  0
   -0.1767    1.9351   -0.6776 H   0  0  0  0  0  0  0  0  0  0  0  0
    0.4201    0.6568   -2.8289 H   0  0  0  0  0  0  0  0  0  0  0  0
   -0.0710    2.0869    2.6970 N   0  0  0  0  0  0  0  0  0  0  0  0
   -0.6552    2.9397    3.7055 C   0  0  2  0  0  0  0  0  0  0  0  0
    0.4496    3.8207    4.2739 C   0  0  0  0  0  0  0  0  0  0  0  0
    1.6411    3.5245    4.2144 O   0  0  0  0  0  0  0  0  0  0  0  0
   -1.3186    2.1235    4.8038 C   0  0  0  0  0  0  0  0  0  0  0  0
    0.9412    2.0764    2.6135 H   0  0  0  0  0  0  0  0  0  0  0  0
   -1.3979    3.5656    3.1990 H   0  0  0  0  0  0  0  0  0  0  0  0
   -0.5899    1.4900    5.3227 H   0  0  0  0  0  0  0  0  0  0  0  0
   -1.7857    2.7716    5.5528 H   0  0  0  0  0  0  0  0  0  0  0  0
   -2.0926    1.4686    4.3892 H   0  0  0  0  0  0  0  0  0  0  0  0
   -0.0547    4.9556    4.8933 N   0  0  0  0  0  0  0  0  0  0  0  0
    0.7923    5.9427    5.5212 C   0  0  0  0  0  0  0  0  0  0  0  0
   -1.0552    5.1302    4.8784 H   0  0  0  0  0  0  0  0  0  0  0  0
    0.9083    5.7016    6.5882 H   0  0  0  0  0  0  0  0  0  0  0  0
    1.7794    5.9409    5.0356 H   0  0  0  0  0  0  0  0  0  0  0  0
    0.3347    6.9376    5.4178 H   0  0  0  0  0  0  0  0  0  0  0  0
  1  3  1  0  0  0  0
  1  7  1  0  0  0  0
  1  2  2  0  0  0  0
 29 30  1  0  0  0  0
 30 38  1  0  0  0  0
 30 31  2  0  0  0  0
  8  9  1  0  0  0  0
  9 17  1  0  0  0  0
  9 10  2  0  0  0  0
 18 19  1  0  0  0  0
 19 28  1  0  0  0  0
 19 20  2  0  0  0  0
 29 32  1  0  0  0  0
  8 11  1  0  0  0  0
 38 39  1  0  0  0  0
 18 21  1  0  0  0  0
 21 22  1  0  0  0  0
 28 29  1  0  0  0  0
  7  8  1  0  0  0  0
 17 18  1  0  0  0  0
  3  4  1  0  0  0  0
  3  5  1  0  0  0  0
  3  6  1  0  0  0  0
 32 35  1  0  0  0  0
 32 36  1  0  0  0  0
 32 37  1  0  0  0  0
 11 14  1  0  0  0  0
 11 15  1  0  0  0  0
 11 16  1  0  0  0  0
 39 41  1  0  0  0  0
 39 42  1  0  0  0  0
 39 43  1  0  0  0  0
 21 25  1  0  0  0  0
 21 26  1  0  0  0  0
 29 34  1  0  0  0  0
  8 13  1  0  0  0  0
 18 24  1  0  0  0  0
 38 40  1  0  0  0  0
  7 12  1  0  0  0  0
 28 33  1  0  0  0  0
 17 23  1  0  0  0  0
 22 27  1  0  0  0  0
M  END
$$$$

  -OEChem-05262214473D

 43 42  0     1  0  0  0  0  0999 V2000
   -2.8661   -4.7415    2.2943 C   0  0  0  0  0  0  0  0  0  0  0  0
   -2.0233   -5.5727    2.6109 O   0  0  0  0  0  0  0  0  0  0  0  0
   -4.3078   -5.0134    2.5698 C   0  0  0  0  0  0  0  0  0  0  0  0
   -4.8057   -5.5295    1.7332 H   0  0  0  0  0  0  0  0  0  0  0  0
   -4.4526   -5.6688    3.4436 H   0  0  0  0  0  0  0  0  0  0  0  0
   -4.9255   -4.1233    2.7700 H   0  0  0  0  0  0  0  0  0  0  0  0
   -2.6241   -3.5219    1.6838 N   0  0  0  0  0  0  0  0  0  0  0  0
   -1.3070   -3.0608    1.3315 C   0  0  2  0  0  0  0  0  0  0  0  0
   -1.3931   -1.5680    1.0422 C   0  0  0  0  0  0  0  0  0  0  0  0
   -2.4385   -1.0059    0.7226 O   0  0  0  0  0  0  0  0  0  0  0  0
   -0.7590   -3.8164    0.1309 C   0  0  0  0  0  0  0  0  0  0  0  0
   -3.4188   -2.9207    1.4735 H   0  0  0  0  0  0  0  0  0  0  0  0
   -0.6690   -3.2277    2.2062 H   0  0  0  0  0  0  0  0  0  0  0  0
   -1.3852   -3.6613   -0.7553 H   0  0  0  0  0  0  0  0  0  0  0  0
    0.2542   -3.4843   -0.1182 H   0  0  0  0  0  0  0  0  0  0  0  0
   -0.7257   -4.8930    0.3300 H   0  0  0  0  0  0  0  0  0  0  0  0
   -0.1563   -0.9420    1.1402 N   0  0  0  0  0  0  0  0  0  0  0  0
    0.0261    0.4671    0.9001 C   0  0  2  0  0  0  0  0  0  0  0  0
   -0.8316    1.2526    1.8901 C   0  0  0  0  0  0  0  0  0  0  0  0
   -2.0058    0.9751    2.1259 O   0  0  0  0  0  0  0  0  0  0  0  0
   -0.2304    0.8473   -0.5602 C   0  0  0  0  0  0  0  0  0  0  0  0
    0.9591    0.1131   -1.7301 S   0  0  0  0  0  0  0  0  0  0  0  0
    0.6533   -1.4855    1.4300 H   0  0  0  0  0  0  0  0  0  0  0  0
    1.0774    0.6727    1.1371 H   0  0  0  0  0  0  0  0  0  0  0  0
   -1.2318    0.5308   -0.8696 H   0  0  0  0  0  0  0  0  0  0  0  0
   -0.1767    1.9351   -0.6776 H   0  0  0  0  0  0  0  0  0  0  0  0
    0.4201    0.6568   -2.8289 H   0  0  0  0  0  0  0  0  0  0  0  0
   -0.1395    2.3125    2.4586 N   0  0  0  0  0  0  0  0  0  0  0  0
   -0.7398    3.2098    3.4179 C   0  0  2  0  0  0  0  0  0  0  0  0
    0.2513    4.3322    3.6962 C   0  0  0  0  0  0  0  0  0  0  0  0
    1.4605    4.2223    3.5043 O   0  0  0  0  0  0  0  0  0  0  0  0
   -1.1102    2.4814    4.7004 C   0  0  0  0  0  0  0  0  0  0  0  0
    0.8409    2.4490    2.2308 H   0  0  0  0  0  0  0  0  0  0  0  0
   -1.6375    3.6233    2.9456 H   0  0  0  0  0  0  0  0  0  0  0  0
   -0.2234    2.0602    5.1879 H   0  0  0  0  0  0  0  0  0  0  0  0
   -1.5911    3.1568    5.4157 H   0  0  0  0  0  0  0  0  0  0  0  0
   -1.7999    1.6557    4.4944 H   0  0  0  0  0  0  0  0  0  0  0  0
   -0.3680    5.4562    4.2247 N   0  0  0  0  0  0  0  0  0  0  0  0
    0.3598    6.6506    4.5847 C   0  0  0  0  0  0  0  0  0  0  0  0
   -1.3780    5.4661    4.3323 H   0  0  0  0  0  0  0  0  0  0  0  0
    0.6447    6.6012    5.6460 H   0  0  0  0  0  0  0  0  0  0  0  0
    1.2655    6.7286    3.9653 H   0  0  0  0  0  0  0  0  0  0  0  0
   -0.2763    7.5321    4.4167 H   0  0  0  0  0  0  0  0  0  0  0  0
  1  3  1  0  0  0  0
  1  7  1  0  0  0  0
  1  2  2  0  0  0  0
 29 30  1  0  0  0  0
 30 38  1  0  0  0  0
 30 31  2  0  0  0  0
  8  9  1  0  0  0  0
  9 17  1  0  0  0  0
  9 10  2  0  0  0  0
 18 19  1  0  0  0  0
 19 28  1  0  0  0  0
 19 20  2  0  0  0  0
 29 32  1  0  0  0  0
  8 11  1  0  0  0  0
 38 39  1  0  0  0  0
 18 21  1  0  0  0  0
 21 22  1  0  0  0  0
 28 29  1  0  0  0  0
  7  8  1  0  0  0  0
 17 18  1  0  0  0  0
  3  4  1  0  0  0  0
  3  5  1  0  0  0  0
  3  6  1  0  0  0  0
 32 35  1  0  0  0  0
 32 36  1  0  0  0  0
 32 37  1  0  0  0  0
 11 14  1  0  0  0  0
 11 15  1  0  0  0  0
 11 16  1  0  0  0  0
 39 41  1  0  0  0  0
 39 42  1  0  0  0  0
 39 43  1  0  0  0  0
 21 25  1  0  0  0  0
 21 26  1  0  0  0  0
 29 34  1  0  0  0  0
  8 13  1  0  0  0  0
 18 24  1  0  0  0  0
 38 40  1  0  0  0  0
  7 12  1  0  0  0  0
 28 33  1  0  0  0  0
 17 23  1  0  0  0  0
 22 27  1  0  0  0  0
M  END
$$$$

  -OEChem-05262214473D

 43 42  0     1  0  0  0  0  0999 V2000
   -2.8661   -4.7415    2.2943 C   0  0  0  0  0  0  0  0  0  0  0  0
   -2.0233   -5.5727    2.6109 O   0  0  0  0  0  0  0  0  0  0  0  0
   -4.3078   -5.0134    2.5698 C   0  0  0  0  0  0  0  0  0  0  0  0
   -4.8057   -5.5295    1.7332 H   0  0  0  0  0  0  0  0  0  0  0  0
   -4.4526   -5.6688    3.4436 H   0  0  0  0  0  0  0  0  0  0  0  0
   -4.9255   -4.1233    2.7700 H   0  0  0  0  0  0  0  0  0  0  0  0
   -2.6241   -3.5219    1.6838 N   0  0  0  0  0  0  0  0  0  0  0  0
   -1.3070   -3.0608    1.3315 C   0  0  2  0  0  0  0  0  0  0  0  0
   -1.3931   -1.5680    1.0422 C   0  0  0  0  0  0  0  0  0  0  0  0
   -2.4385   -1.0059    0.7226 O   0  0  0  0  0  0  0  0  0  0  0  0
   -0.7590   -3.8164    0.1309 C   0  0  0  0  0  0  0  0  0  0  0  0
   -3.4188   -2.9207    1.4735 H   0  0  0  0  0  0  0  0  0  0  0  0
   -0.6690   -3.2277    2.2062 H   0  0  0  0  0  0  0  0  0  0  0  0
   -1.3852   -3.6613   -0.7553 H   0  0  0  0  0  0  0  0  0  0  0  0
    0.2542   -3.4843   -0.1182 H   0  0  0  0  0  0  0  0  0  0  0  0
   -0.7257   -4.8930    0.3300 H   0  0  0  0  0  0  0  0  0  0  0  0
   -0.1563   -0.9420    1.1402 N   0  0  0  0  0  0  0  0  0  0  0  0
    0.0261    0.4671    0.9001 C   0  0  2  0  0  0  0  0  0  0  0  0
   -0.8316    1.2526    1.8901 C   0  0  0  0  0  0  0  0  0  0  0  0
   -1.9007    0.8336    2.3293 O   0  0  0  0  0  0  0  0  0  0  0  0
   -0.2304    0.8473   -0.5602 C   0  0  0  0  0  0  0  0  0  0  0  0
    0.9591    0.1131   -1.7301 S   0  0  0  0  0  0  0  0  0  0  0  0
    0.6533   -1.4855    1.4300 H   0  0  0  0  0  0  0  0  0  0  0  0
    1.0774    0.6727    1.1371 H   0  0  0  0  0  0  0  0  0  0  0  0
   -1.2318    0.5308   -0.8696 H   0  0  0  0  0  0  0  0  0  0  0  0
   -0.1767    1.9351   -0.6776 H   0  0  0  0  0  0  0  0  0  0  0  0
    0.4201    0.6568   -2.8289 H   0  0  0  0  0  0  0  0  0  0  0  0
   -0.2753    2.4843    2.2046 N   0  0  0  0  0  0  0  0  0  0  0  0
   -0.9051    3.4147    3.1121 C   0  0  2  0  0  0  0  0  0  0  0  0
   -0.1028    4.7091    3.0903 C   0  0  0  0  0  0  0  0  0  0  0  0
    1.0745    4.7628    2.7409 O   0  0  0  0  0  0  0  0  0  0  0  0
   -0.9827    2.8470    4.5208 C   0  0  0  0  0  0  0  0  0  0  0  0
    0.6305    2.7366    1.8204 H   0  0  0  0  0  0  0  0  0  0  0  0
   -1.9123    3.6021    2.7243 H   0  0  0  0  0  0  0  0  0  0  0  0
    0.0171    2.6528    4.9261 H   0  0  0  0  0  0  0  0  0  0  0  0
   -1.4860    3.5417    5.2014 H   0  0  0  0  0  0  0  0  0  0  0  0
   -1.5345    1.9009    4.5298 H   0  0  0  0  0  0  0  0  0  0  0  0
   -0.8435    5.7899    3.5479 N   0  0  0  0  0  0  0  0  0  0  0  0
   -0.3013    7.1258    3.6348 C   0  0  0  0  0  0  0  0  0  0  0  0
   -1.8187    5.6569    3.7990 H   0  0  0  0  0  0  0  0  0  0  0  0
    0.1138    7.2889    4.6403 H   0  0  0  0  0  0  0  0  0  0  0  0
    0.4946    7.2478    2.8854 H   0  0  0  0  0  0  0  0  0  0  0  0
   -1.0995    7.8584    3.4445 H   0  0  0  0  0  0  0  0  0  0  0  0
  1  3  1  0  0  0  0
  1  7  1  0  0  0  0
  1  2  2  0  0  0  0
 29 30  1  0  0  0  0
 30 38  1  0  0  0  0
 30 31  2  0  0  0  0
  8  9  1  0  0  0  0
  9 17  1  0  0  0  0
  9 10  2  0  0  0  0
 18 19  1  0  0  0  0
 19 28  1  0  0  0  0
 19 20  2  0  0  0  0
 29 32  1  0  0  0  0
  8 11  1  0  0  0  0
 38 39  1  0  0  0  0
 18 21  1  0  0  0  0
 21 22  1  0  0  0  0
 28 29  1  0  0  0  0
  7  8  1  0  0  0  0
 17 18  1  0  0  0  0
  3  4  1  0  0  0  0
  3  5  1  0  0  0  0
  3  6  1  0  0  0  0
 32 35  1  0  0  0  0
 32 36  1  0  0  0  0
 32 37  1  0  0  0  0
 11 14  1  0  0  0  0
 11 15  1  0  0  0  0
 11 16  1  0  0  0  0
 39 41  1  0  0  0  0
 39 42  1  0  0  0  0
 39 43  1  0  0  0  0
 21 25  1  0  0  0  0
 21 26  1  0  0  0  0
 29 34  1  0  0  0  0
  8 13  1  0  0  0  0
 18 24  1  0  0  0  0
 38 40  1  0  0  0  0
  7 12  1  0  0  0  0
 28 33  1  0  0  0  0
 17 23  1  0  0  0  0
 22 27  1  0  0  0  0
M  END
$$$$

  -OEChem-05262214473D

 43 42  0     1  0  0  0  0  0999 V2000
   -2.8661   -4.7415    2.2943 C   0  0  0  0  0  0  0  0  0  0  0  0
   -2.0233   -5.5727    2.6109 O   0  0  0  0  0  0  0  0  0  0  0  0
   -4.3078   -5.0134    2.5698 C   0  0  0  0  0  0  0  0  0  0  0  0
   -4.8057   -5.5295    1.7332 H   0  0  0  0  0  0  0  0  0  0  0  0
   -4.4526   -5.6688    3.4436 H   0  0  0  0  0  0  0  0  0  0  0  0
   -4.9255   -4.1233    2.7700 H   0  0  0  0  0  0  0  0  0  0  0  0
   -2.6241   -3.5219    1.6838 N   0  0  0  0  0  0  0  0  0  0  0  0
   -1.3070   -3.0608    1.3315 C   0  0  2  0  0  0  0  0  0  0  0  0
   -1.3931   -1.5680    1.0422 C   0  0  0  0  0  0  0  0  0  0  0  0
   -2.4385   -1.0059    0.7226 O   0  0  0  0  0  0  0  0  0  0  0  0
   -0.7590   -3.8164    0.1309 C   0  0  0  0  0  0  0  0  0  0  0  0
   -3.4188   -2.9207    1.4735 H   0  0  0  0  0  0  0  0  0  0  0  0
   -0.6690   -3.2277    2.2062 H   0  0  0  0  0  0  0  0  0  0  0  0
   -1.3852   -3.6613   -0.7553 H   0  0  0  0  0  0  0  0  0  0  0  0
    0.2542   -3.4843   -0.1182 H   0  0  0  0  0  0  0  0  0  0  0  0
   -0.7257   -4.8930    0.3300 H   0  0  0  0  0  0  0  0  0  0  0  0
   -0.1563   -0.9420    1.1402 N   0  0  0  0  0  0  0  0  0  0  0  0
    0.0261    0.4671    0.9001 C   0  0  2  0  0  0  0  0  0  0  0  0
   -0.8316    1.2526    1.8901 C   0  0  0  0  0  0  0  0  0  0  0  0
   -1.7483    0.7442    2.5323 O   0  0  0  0  0  0  0  0  0  0  0  0
   -0.2304    0.8473   -0.5602 C   0  0  0  0  0  0  0  0  0  0  0  0
    0.9591    0.1131   -1.7301 S   0  0  0  0  0  0  0  0  0  0  0  0
    0.6533   -1.4855    1.4300 H   0  0  0  0  0  0  0  0  0  0  0  0
    1.0774    0.6727    1.1371 H   0  0  0  0  0  0  0  0  0  0  0  0
   -1.2318    0.5308   -0.8696 H   0  0  0  0  0  0  0  0  0  0  0  0
   -0.1767    1.9351   -0.6776 H   0  0  0  0  0  0  0  0  0  0  0  0
    0.4201    0.6568   -2.8289 H   0  0  0  0  0  0  0  0  0  0  0  0
   -0.4690    2.5906    1.9524 N   0  0  0  0  0  0  0  0  0  0  0  0
   -1.1398    3.5404    2.8089 C   0  0  2  0  0  0  0  0  0  0  0  0
   -0.5888    4.9257    2.4974 C   0  0  0  0  0  0  0  0  0  0  0  0
    0.5094    5.1091    1.9764 O   0  0  0  0  0  0  0  0  0  0  0  0
   -0.9448    3.1955    4.2772 C   0  0  0  0  0  0  0  0  0  0  0  0
    0.3245    2.9193    1.4102 H   0  0  0  0  0  0  0  0  0  0  0  0
   -2.2037    3.5033    2.5503 H   0  0  0  0  0  0  0  0  0  0  0  0
    0.1151    3.2275    4.5549 H   0  0  0  0  0  0  0  0  0  0  0  0
   -1.4775    3.8999    4.9244 H   0  0  0  0  0  0  0  0  0  0  0  0
   -1.3146    2.1873    4.4931 H   0  0  0  0  0  0  0  0  0  0  0  0
   -1.4489    5.9341    2.9089 N   0  0  0  0  0  0  0  0  0  0  0  0
   -1.1462    7.3357    2.7362 C   0  0  0  0  0  0  0  0  0  0  0  0
   -2.3474    5.6899    3.3147 H   0  0  0  0  0  0  0  0  0  0  0  0
   -0.6483    7.7179    3.6396 H   0  0  0  0  0  0  0  0  0  0  0  0
   -0.4809    7.4629    1.8694 H   0  0  0  0  0  0  0  0  0  0  0  0
   -2.0788    7.8941    2.5676 H   0  0  0  0  0  0  0  0  0  0  0  0
  1  3  1  0  0  0  0
  1  7  1  0  0  0  0
  1  2  2  0  0  0  0
 29 30  1  0  0  0  0
 30 38  1  0  0  0  0
 30 31  2  0  0  0  0
  8  9  1  0  0  0  0
  9 17  1  0  0  0  0
  9 10  2  0  0  0  0
 18 19  1  0  0  0  0
 19 28  1  0  0  0  0
 19 20  2  0  0  0  0
 29 32  1  0  0  0  0
  8 11  1  0  0  0  0
 38 39  1  0  0  0  0
 18 21  1  0  0  0  0
 21 22  1  0  0  0  0
 28 29  1  0  0  0  0
  7  8  1  0  0  0  0
 17 18  1  0  0  0  0
  3  4  1  0  0  0  0
  3  5  1  0  0  0  0
  3  6  1  0  0  0  0
 32 35  1  0  0  0  0
 32 36  1  0  0  0  0
 32 37  1  0  0  0  0
 11 14  1  0  0  0  0
 11 15  1  0  0  0  0
 11 16  1  0  0  0  0
 39 41  1  0  0  0  0
 39 42  1  0  0  0  0
 39 43  1  0  0  0  0
 21 25  1  0  0  0  0
 21 26  1  0  0  0  0
 29 34  1  0  0  0  0
  8 13  1  0  0  0  0
 18 24  1  0  0  0  0
 38 40  1  0  0  0  0
  7 12  1  0  0  0  0
 28 33  1  0  0  0  0
 17 23  1  0  0  0  0
 22 27  1  0  0  0  0
M  END
$$$$

  -OEChem-05262214473D

 43 42  0     1  0  0  0  0  0999 V2000
   -2.8661   -4.7415    2.2943 C   0  0  0  0  0  0  0  0  0  0  0  0
   -2.0233   -5.5727    2.6109 O   0  0  0  0  0  0  0  0  0  0  0  0
   -4.3078   -5.0134    2.5698 C   0  0  0  0  0  0  0  0  0  0  0  0
   -4.8057   -5.5295    1.7332 H   0  0  0  0  0  0  0  0  0  0  0  0
   -4.4526   -5.6688    3.4436 H   0  0  0  0  0  0  0  0  0  0  0  0
   -4.9255   -4.1233    2.7700 H   0  0  0  0  0  0  0  0  0  0  0  0
   -2.6241   -3.5219    1.6838 N   0  0  0  0  0  0  0  0  0  0  0  0
   -1.3070   -3.0608    1.3315 C   0  0  2  0  0  0  0  0  0  0  0  0
   -1.3931   -1.5680    1.0422 C   0  0  0  0  0  0  0  0  0  0  0  0
   -2.4385   -1.0059    0.7226 O   0  0  0  0  0  0  0  0  0  0  0  0
   -0.7590   -3.8164    0.1309 C   0  0  0  0  0  0  0  0  0  0  0  0
   -3.4188   -2.9207    1.4735 H   0  0  0  0  0  0  0  0  0  0  0  0
   -0.6690   -3.2277    2.2062 H   0  0  0  0  0  0  0  0  0  0  0  0
   -1.3852   -3.6613   -0.7553 H   0  0  0  0  0  0  0  0  0  0  0  0
    0.2542   -3.4843   -0.1182 H   0  0  0  0  0  0  0  0  0  0  0  0
   -0.7257   -4.8930    0.3300 H   0  0  0  0  0  0  0  0  0  0  0  0
   -0.1563   -0.9420    1.1402 N   0  0  0  0  0  0  0  0  0  0  0  0
    0.0261    0.4671    0.9001 C   0  0  2  0  0  0  0  0  0  0  0  0
   -0.5158    1.2469    2.0963 C   0  0  0  0  0  0  0  0  0  0  0  0
   -1.0347    0.7043    3.0699 O   0  0  0  0  0  0  0  0  0  0  0  0
   -0.5723    0.9127   -0.4364 C   0  0  0  0  0  0  0  0  0  0  0  0
    0.2472    0.1781   -1.8894 S   0  0  0  0  0  0  0  0  0  0  0  0
    0.6533   -1.4855    1.4300 H   0  0  0  0  0  0  0  0  0  0  0  0
    1.1117    0.6224    0.8681 H   0  0  0  0  0  0  0  0  0  0  0  0
   -1.6332    0.6475   -0.4899 H   0  0  0  0  0  0  0  0  0  0  0  0
   -0.4985    2.0012   -0.5339 H   0  0  0  0  0  0  0  0  0  0  0  0
   -0.5252    0.7841   -2.8002 H   0  0  0  0  0  0  0  0  0  0  0  0
   -0.3742    2.6181    1.9369 N   0  0  0  0  0  0  0  0  0  0  0  0
   -0.8209    3.5679    2.9289 C   0  0  2  0  0  0  0  0  0  0  0  0
   -0.6533    4.9665    2.3498 C   0  0  0  0  0  0  0  0  0  0  0  0
    0.1285    5.2254    1.4371 O   0  0  0  0  0  0  0  0  0  0  0  0
   -0.0421    3.4201    4.2267 C   0  0  0  0  0  0  0  0  0  0  0  0
    0.0979    2.9795    1.1134 H   0  0  0  0  0  0  0  0  0  0  0  0
   -1.8841    3.3685    3.1015 H   0  0  0  0  0  0  0  0  0  0  0  0
    1.0254    3.6161    4.0735 H   0  0  0  0  0  0  0  0  0  0  0  0
   -0.4012    4.1215    4.9870 H   0  0  0  0  0  0  0  0  0  0  0  0
   -0.1396    2.4048    4.6262 H   0  0  0  0  0  0  0  0  0  0  0  0
   -1.4478    5.8997    3.0010 N   0  0  0  0  0  0  0  0  0  0  0  0
   -1.4583    7.2992    2.6444 C   0  0  0  0  0  0  0  0  0  0  0  0
   -2.0800    5.5928    3.7344 H   0  0  0  0  0  0  0  0  0  0  0  0
   -0.7282    7.8414    3.2633 H   0  0  0  0  0  0  0  0  0  0  0  0
   -1.1920    7.4089    1.5827 H   0  0  0  0  0  0  0  0  0  0  0  0
   -2.4629    7.7135    2.8151 H   0  0  0  0  0  0  0  0  0  0  0  0
  1  3  1  0  0  0  0
  1  7  1  0  0  0  0
  1  2  2  0  0  0  0
 29 30  1  0  0  0  0
 30 38  1  0  0  0  0
 30 31  2  0  0  0  0
  8  9  1  0  0  0  0
  9 17  1  0  0  0  0
  9 10  2  0  0  0  0
 18 19  1  0  0  0  0
 19 28  1  0  0  0  0
 19 20  2  0  0  0  0
 29 32  1  0  0  0  0
  8 11  1  0  0  0  0
 38 39  1  0  0  0  0
 18 21  1  0  0  0  0
 21 22  1  0  0  0  0
 28 29  1  0  0  0  0
  7  8  1  0  0  0  0
 17 18  1  0  0  0  0
  3  4  1  0  0  0  0
  3  5  1  0  0  0  0
  3  6  1  0  0  0  0
 32 35  1  0  0  0  0
 32 36  1  0  0  0  0
 32 37  1  0  0  0  0
 11 14  1  0  0  0  0
 11 15  1  0  0  0  0
 11 16  1  0  0  0  0
 39 41  1  0  0  0  0
 39 42  1  0  0  0  0
 39 43  1  0  0  0  0
 21 25  1  0  0  0  0
 21 26  1  0  0  0  0
 29 34  1  0  0  0  0
  8 13  1  0  0  0  0
 18 24  1  0  0  0  0
 38 40  1  0  0  0  0
  7 12  1  0  0  0  0
 28 33  1  0  0  0  0
 17 23  1  0  0  0  0
 22 27  1  0  0  0  0
M  END
$$$$

  -OEChem-05262214473D

 43 42  0     1  0  0  0  0  0999 V2000
   -2.8661   -4.7415    2.2943 C   0  0  0  0  0  0  0  0  0  0  0  0
   -2.0233   -5.5727    2.6109 O   0  0  0  0  0  0  0  0  0  0  0  0
   -4.3078   -5.0134    2.5698 C   0  0  0  0  0  0  0  0  0  0  0  0
   -4.8057   -5.5295    1.7332 H   0  0  0  0  0  0  0  0  0  0  0  0
   -4.4526   -5.6688    3.4436 H   0  0  0  0  0  0  0  0  0  0  0  0
   -4.9255   -4.1233    2.7700 H   0  0  0  0  0  0  0  0  0  0  0  0
   -2.6241   -3.5219    1.6838 N   0  0  0  0  0  0  0  0  0  0  0  0
   -1.3070   -3.0608    1.3315 C   0  0  2  0  0  0  0  0  0  0  0  0
   -1.3931   -1.5680    1.0422 C   0  0  0  0  0  0  0  0  0  0  0  0
   -2.4385   -1.0059    0.7226 O   0  0  0  0  0  0  0  0  0  0  0  0
   -0.7590   -3.8164    0.1309 C   0  0  0  0  0  0  0  0  0  0  0  0
   -3.4188   -2.9207    1.4735 H   0  0  0  0  0  0  0  0  0  0  0  0
   -0.6690   -3.2277    2.2062 H   0  0  0  0  0  0  0  0  0  0  0  0
   -1.3852   -3.6613   -0.7553 H   0  0  0  0  0  0  0  0  0  0  0  0
    0.2542   -3.4843   -0.1182 H   0  0  0  0  0  0  0  0  0  0  0  0
   -0.7257   -4.8930    0.3300 H   0  0  0  0  0  0  0  0  0  0  0  0
   -0.1563   -0.9420    1.1402 N   0  0  0  0  0  0  0  0  0  0  0  0
    0.0261    0.4671    0.9001 C   0  0  2  0  0  0  0  0  0  0  0  0
   -0.5158    1.2469    2.0963 C   0  0  0  0  0  0  0  0  0  0  0  0
   -0.7865    0.7187    3.1730 O   0  0  0  0  0  0  0  0  0  0  0  0
   -0.5723    0.9127   -0.4364 C   0  0  0  0  0  0  0  0  0  0  0  0
    0.2472    0.1781   -1.8894 S   0  0  0  0  0  0  0  0  0  0  0  0
    0.6533   -1.4855    1.4300 H   0  0  0  0  0  0  0  0  0  0  0  0
    1.1117    0.6224    0.8681 H   0  0  0  0  0  0  0  0  0  0  0  0
   -1.6332    0.6475   -0.4899 H   0  0  0  0  0  0  0  0  0  0  0  0
   -0.4985    2.0012   -0.5339 H   0  0  0  0  0  0  0  0  0  0  0  0
   -0.5252    0.7841   -2.8002 H   0  0  0  0  0  0  0  0  0  0  0  0
   -0.6844    2.5945    1.8117 N   0  0  0  0  0  0  0  0  0  0  0  0
   -1.1945    3.5373    2.7795 C   0  0  2  0  0  0  0  0  0  0  0  0
   -1.3950    4.8726    2.0750 C   0  0  0  0  0  0  0  0  0  0  0  0
   -0.8026    5.1823    1.0434 O   0  0  0  0  0  0  0  0  0  0  0  0
   -0.2489    3.6831    3.9616 C   0  0  0  0  0  0  0  0  0  0  0  0
   -0.4029    2.9528    0.9039 H   0  0  0  0  0  0  0  0  0  0  0  0
   -2.1632    3.1522    3.1161 H   0  0  0  0  0  0  0  0  0  0  0  0
    0.7271    4.0679    3.6439 H   0  0  0  0  0  0  0  0  0  0  0  0
   -0.6505    4.3765    4.7078 H   0  0  0  0  0  0  0  0  0  0  0  0
   -0.0823    2.7164    4.4490 H   0  0  0  0  0  0  0  0  0  0  0  0
   -2.2809    5.6947    2.7571 N   0  0  0  0  0  0  0  0  0  0  0  0
   -2.6272    7.0193    2.2972 C   0  0  0  0  0  0  0  0  0  0  0  0
   -2.7402    5.3486    3.5944 H   0  0  0  0  0  0  0  0  0  0  0  0
   -1.9562    7.7566    2.7622 H   0  0  0  0  0  0  0  0  0  0  0  0
   -2.5220    7.0666    1.2032 H   0  0  0  0  0  0  0  0  0  0  0  0
   -3.6675    7.2437    2.5755 H   0  0  0  0  0  0  0  0  0  0  0  0
  1  3  1  0  0  0  0
  1  7  1  0  0  0  0
  1  2  2  0  0  0  0
 29 30  1  0  0  0  0
 30 38  1  0  0  0  0
 30 31  2  0  0  0  0
  8  9  1  0  0  0  0
  9 17  1  0  0  0  0
  9 10  2  0  0  0  0
 18 19  1  0  0  0  0
 19 28  1  0  0  0  0
 19 20  2  0  0  0  0
 29 32  1  0  0  0  0
  8 11  1  0  0  0  0
 38 39  1  0  0  0  0
 18 21  1  0  0  0  0
 21 22  1  0  0  0  0
 28 29  1  0  0  0  0
  7  8  1  0  0  0  0
 17 18  1  0  0  0  0
  3  4  1  0  0  0  0
  3  5  1  0  0  0  0
  3  6  1  0  0  0  0
 32 35  1  0  0  0  0
 32 36  1  0  0  0  0
 32 37  1  0  0  0  0
 11 14  1  0  0  0  0
 11 15  1  0  0  0  0
 11 16  1  0  0  0  0
 39 41  1  0  0  0  0
 39 42  1  0  0  0  0
 39 43  1  0  0  0  0
 21 25  1  0  0  0  0
 21 26  1  0  0  0  0
 29 34  1  0  0  0  0
  8 13  1  0  0  0  0
 18 24  1  0  0  0  0
 38 40  1  0  0  0  0
  7 12  1  0  0  0  0
 28 33  1  0  0  0  0
 17 23  1  0  0  0  0
 22 27  1  0  0  0  0
M  END
$$$$

  -OEChem-05262214473D

 43 42  0     1  0  0  0  0  0999 V2000
   -2.8661   -4.7415    2.2943 C   0  0  0  0  0  0  0  0  0  0  0  0
   -2.0233   -5.5727    2.6109 O   0  0  0  0  0  0  0  0  0  0  0  0
   -4.3078   -5.0134    2.5698 C   0  0  0  0  0  0  0  0  0  0  0  0
   -4.8057   -5.5295    1.7332 H   0  0  0  0  0  0  0  0  0  0  0  0
   -4.4526   -5.6688    3.4436 H   0  0  0  0  0  0  0  0  0  0  0  0
   -4.9255   -4.1233    2.7700 H   0  0  0  0  0  0  0  0  0  0  0  0
   -2.6241   -3.5219    1.6838 N   0  0  0  0  0  0  0  0  0  0  0  0
   -1.3070   -3.0608    1.3315 C   0  0  2  0  0  0  0  0  0  0  0  0
   -1.3931   -1.5680    1.0422 C   0  0  0  0  0  0  0  0  0  0  0  0
   -2.4385   -1.0059    0.7226 O   0  0  0  0  0  0  0  0  0  0  0  0
   -0.7590   -3.8164    0.1309 C   0  0  0  0  0  0  0  0  0  0  0  0
   -3.4188   -2.9207    1.4735 H   0  0  0  0  0  0  0  0  0  0  0  0
   -0.6690   -3.2277    2.2062 H   0  0  0  0  0  0  0  0  0  0  0  0
   -1.3852   -3.6613   -0.7553 H   0  0  0  0  0  0  0  0  0  0  0  0
    0.2542   -3.4843   -0.1182 H   0  0  0  0  0  0  0  0  0  0  0  0
   -0.7257   -4.8930    0.3300 H   0  0  0  0  0  0  0  0  0  0  0  0
   -0.1563   -0.9420    1.1402 N   0  0  0  0  0  0  0  0  0  0  0  0
    0.0261    0.4671    0.9001 C   0  0  2  0  0  0  0  0  0  0  0  0
   -0.5158    1.2469    2.0963 C   0  0  0  0  0  0  0  0  0  0  0  0
   -0.5361    0.7923    3.2384 O   0  0  0  0  0  0  0  0  0  0  0  0
   -0.5723    0.9127   -0.4364 C   0  0  0  0  0  0  0  0  0  0  0  0
    0.2472    0.1781   -1.8894 S   0  0  0  0  0  0  0  0  0  0  0  0
    0.6533   -1.4855    1.4300 H   0  0  0  0  0  0  0  0  0  0  0  0
    1.1117    0.6224    0.8681 H   0  0  0  0  0  0  0  0  0  0  0  0
   -1.6332    0.6475   -0.4899 H   0  0  0  0  0  0  0  0  0  0  0  0
   -0.4985    2.0012   -0.5339 H   0  0  0  0  0  0  0  0  0  0  0  0
   -0.5252    0.7841   -2.8002 H   0  0  0  0  0  0  0  0  0  0  0  0
   -0.9958    2.4974    1.7339 N   0  0  0  0  0  0  0  0  0  0  0  0
   -1.5689    3.4183    2.6875 C   0  0  2  0  0  0  0  0  0  0  0  0
   -2.1288    4.6062    1.9162 C   0  0  0  0  0  0  0  0  0  0  0  0
   -1.7453    4.9157    0.7900 O   0  0  0  0  0  0  0  0  0  0  0  0
   -0.5369    3.8710    3.7087 C   0  0  0  0  0  0  0  0  0  0  0  0
   -0.9089    2.8062    0.7702 H   0  0  0  0  0  0  0  0  0  0  0  0
   -2.3870    2.8879    3.1869 H   0  0  0  0  0  0  0  0  0  0  0  0
    0.2907    4.4043    3.2269 H   0  0  0  0  0  0  0  0  0  0  0  0
   -0.9799    4.5467    4.4477 H   0  0  0  0  0  0  0  0  0  0  0  0
   -0.1136    3.0128    4.2417 H   0  0  0  0  0  0  0  0  0  0  0  0
   -3.0764    5.3055    2.6505 N   0  0  0  0  0  0  0  0  0  0  0  0
   -3.7455    6.4801    2.1420 C   0  0  0  0  0  0  0  0  0  0  0  0
   -3.3470    4.9661    3.5688 H   0  0  0  0  0  0  0  0  0  0  0  0
   -3.1914    7.3797    2.4482 H   0  0  0  0  0  0  0  0  0  0  0  0
   -3.7875    6.4315    1.0439 H   0  0  0  0  0  0  0  0  0  0  0  0
   -4.7675    6.5237    2.5464 H   0  0  0  0  0  0  0  0  0  0  0  0
  1  3  1  0  0  0  0
  1  7  1  0  0  0  0
  1  2  2  0  0  0  0
 29 30  1  0  0  0  0
 30 38  1  0  0  0  0
 30 31  2  0  0  0  0
  8  9  1  0  0  0  0
  9 17  1  0  0  0  0
  9 10  2  0  0  0  0
 18 19  1  0  0  0  0
 19 28  1  0  0  0  0
 19 20  2  0  0  0  0
 29 32  1  0  0  0  0
  8 11  1  0  0  0  0
 38 39  1  0  0  0  0
 18 21  1  0  0  0  0
 21 22  1  0  0  0  0
 28 29  1  0  0  0  0
  7  8  1  0  0  0  0
 17 18  1  0  0  0  0
  3  4  1  0  0  0  0
  3  5  1  0  0  0  0
  3  6  1  0  0  0  0
 32 35  1  0  0  0  0
 32 36  1  0  0  0  0
 32 37  1  0  0  0  0
 11 14  1  0  0  0  0
 11 15  1  0  0  0  0
 11 16  1  0  0  0  0
 39 41  1  0  0  0  0
 39 42  1  0  0  0  0
 39 43  1  0  0  0  0
 21 25  1  0  0  0  0
 21 26  1  0  0  0  0
 29 34  1  0  0  0  0
  8 13  1  0  0  0  0
 18 24  1  0  0  0  0
 38 40  1  0  0  0  0
  7 12  1  0  0  0  0
 28 33  1  0  0  0  0
 17 23  1  0  0  0  0
 22 27  1  0  0  0  0
M  END
$$$$

  -OEChem-05262214473D

 43 42  0     1  0  0  0  0  0999 V2000
   -2.8661   -4.7415    2.2943 C   0  0  0  0  0  0  0  0  0  0  0  0
   -2.0233   -5.5727    2.6109 O   0  0  0  0  0  0  0  0  0  0  0  0
   -4.3078   -5.0134    2.5698 C   0  0  0  0  0  0  0  0  0  0  0  0
   -4.8057   -5.5295    1.7332 H   0  0  0  0  0  0  0  0  0  0  0  0
   -4.4526   -5.6688    3.4436 H   0  0  0  0  0  0  0  0  0  0  0  0
   -4.9255   -4.1233    2.7700 H   0  0  0  0  0  0  0  0  0  0  0  0
   -2.6241   -3.5219    1.6838 N   0  0  0  0  0  0  0  0  0  0  0  0
   -1.3070   -3.0608    1.3315 C   0  0  2  0  0  0  0  0  0  0  0  0
   -1.3931   -1.5680    1.0422 C   0  0  0  0  0  0  0  0  0  0  0  0
   -2.4385   -1.0059    0.7226 O   0  0  0  0  0  0  0  0  0  0  0  0
   -0.7590   -3.8164    0.1309 C   0  0  0  0  0  0  0  0  0  0  0  0
   -3.4188   -2.9207    1.4735 H   0  0  0  0  0  0  0  0  0  0  0  0
   -0.6690   -3.2277    2.2062 H   0  0  0  0  0  0  0  0  0  0  0  0
   -1.3852   -3.6613   -0.7553 H   0  0  0  0  0  0  0  0  0  0  0  0
    0.2542   -3.4843   -0.1182 H   0  0  0  0  0  0  0  0  0  0  0  0
   -0.7257   -4.8930    0.3300 H   0  0  0  0  0  0  0  0  0  0  0  0
   -0.1563   -0.9420    1.1402 N   0  0  0  0  0  0  0  0  0  0  0  0
    0.0261    0.4671    0.9001 C   0  0  2  0  0  0  0  0  0  0  0  0
   -0.5158    1.2469    2.0963 C   0  0  0  0  0  0  0  0  0  0  0  0
   -0.3004    0.9203    3.2618 O   0  0  0  0  0  0  0  0  0  0  0  0
   -0.5723    0.9127   -0.4364 C   0  0  0  0  0  0  0  0  0  0  0  0
    0.2472    0.1781   -1.8894 S   0  0  0  0  0  0  0  0  0  0  0  0
    0.6533   -1.4855    1.4300 H   0  0  0  0  0  0  0  0  0  0  0  0
    1.1117    0.6224    0.8681 H   0  0  0  0  0  0  0  0  0  0  0  0
   -1.6332    0.6475   -0.4899 H   0  0  0  0  0  0  0  0  0  0  0  0
   -0.4985    2.0012   -0.5339 H   0  0  0  0  0  0  0  0  0  0  0  0
   -0.5252    0.7841   -2.8002 H   0  0  0  0  0  0  0  0  0  0  0  0
   -1.2872    2.3334    1.7088 N   0  0  0  0  0  0  0  0  0  0  0  0
   -1.9186    3.2190    2.6590 C   0  0  2  0  0  0  0  0  0  0  0  0
   -2.8046    4.1855    1.8842 C   0  0  0  0  0  0  0  0  0  0  0  0
   -2.6353    4.4439    0.6944 O   0  0  0  0  0  0  0  0  0  0  0  0
   -0.8866    3.9708    3.4851 C   0  0  0  0  0  0  0  0  0  0  0  0
   -1.3856    2.5498    0.7213 H   0  0  0  0  0  0  0  0  0  0  0  0
   -2.5403    2.5939    3.3091 H   0  0  0  0  0  0  0  0  0  0  0  0
   -0.2542    4.6025    2.8508 H   0  0  0  0  0  0  0  0  0  0  0  0
   -1.3669    4.6203    4.2244 H   0  0  0  0  0  0  0  0  0  0  0  0
   -0.2313    3.2736    4.0184 H   0  0  0  0  0  0  0  0  0  0  0  0
   -3.7799    4.7584    2.6883 N   0  0  0  0  0  0  0  0  0  0  0  0
   -4.7368    5.7183    2.1894 C   0  0  0  0  0  0  0  0  0  0  0  0
   -3.8589    4.4713    3.6594 H   0  0  0  0  0  0  0  0  0  0  0  0
   -4.3496    6.7365    2.3427 H   0  0  0  0  0  0  0  0  0  0  0  0
   -4.9021    5.5469    1.1155 H   0  0  0  0  0  0  0  0  0  0  0  0
   -5.6879    5.6026    2.7298 H   0  0  0  0  0  0  0  0  0  0  0  0
  1  3  1  0  0  0  0
  1  7  1  0  0  0  0
  1  2  2  0  0  0  0
 29 30  1  0  0  0  0
 30 38  1  0  0  0  0
 30 31  2  0  0  0  0
  8  9  1  0  0  0  0
  9 17  1  0  0  0  0
  9 10  2  0  0  0  0
 18 19  1  0  0  0  0
 19 28  1  0  0  0  0
 19 20  2  0  0  0  0
 29 32  1  0  0  0  0
  8 11  1  0  0  0  0
 38 39  1  0  0  0  0
 18 21  1  0  0  0  0
 21 22  1  0  0  0  0
 28 29  1  0  0  0  0
  7  8  1  0  0  0  0
 17 18  1  0  0  0  0
  3  4  1  0  0  0  0
  3  5  1  0  0  0  0
  3  6  1  0  0  0  0
 32 35  1  0  0  0  0
 32 36  1  0  0  0  0
 32 37  1  0  0  0  0
 11 14  1  0  0  0  0
 11 15  1  0  0  0  0
 11 16  1  0  0  0  0
 39 41  1  0  0  0  0
 39 42  1  0  0  0  0
 39 43  1  0  0  0  0
 21 25  1  0  0  0  0
 21 26  1  0  0  0  0
 29 34  1  0  0  0  0
  8 13  1  0  0  0  0
 18 24  1  0  0  0  0
 38 40  1  0  0  0  0
  7 12  1  0  0  0  0
 28 33  1  0  0  0  0
 17 23  1  0  0  0  0
 22 27  1  0  0  0  0
M  END
$$$$

  -OEChem-05262214473D

 43 42  0     1  0  0  0  0  0999 V2000
   -2.8661   -4.7415    2.2943 C   0  0  0  0  0  0  0  0  0  0  0  0
   -2.0233   -5.5727    2.6109 O   0  0  0  0  0  0  0  0  0  0  0  0
   -4.3078   -5.0134    2.5698 C   0  0  0  0  0  0  0  0  0  0  0  0
   -4.8057   -5.5295    1.7332 H   0  0  0  0  0  0  0  0  0  0  0  0
   -4.4526   -5.6688    3.4436 H   0  0  0  0  0  0  0  0  0  0  0  0
   -4.9255   -4.1233    2.7700 H   0  0  0  0  0  0  0  0  0  0  0  0
   -2.6241   -3.5219    1.6838 N   0  0  0  0  0  0  0  0  0  0  0  0
   -1.3070   -3.0608    1.3315 C   0  0  2  0  0  0  0  0  0  0  0  0
   -1.3931   -1.5680    1.0422 C   0  0  0  0  0  0  0  0  0  0  0  0
   -2.4385   -1.0059    0.7226 O   0  0  0  0  0  0  0  0  0  0  0  0
   -0.7590   -3.8164    0.1309 C   0  0  0  0  0  0  0  0  0  0  0  0
   -3.4188   -2.9207    1.4735 H   0  0  0  0  0  0  0  0  0  0  0  0
   -0.6690   -3.2277    2.2062 H   0  0  0  0  0  0  0  0  0  0  0  0
   -1.3852   -3.6613   -0.7553 H   0  0  0  0  0  0  0  0  0  0  0  0
    0.2542   -3.4843   -0.1182 H   0  0  0  0  0  0  0  0  0  0  0  0
   -0.7257   -4.8930    0.3300 H   0  0  0  0  0  0  0  0  0  0  0  0
   -0.1563   -0.9420    1.1402 N   0  0  0  0  0  0  0  0  0  0  0  0
    0.0261    0.4671    0.9001 C   0  0  2  0  0  0  0  0  0  0  0  0
   -0.5158    1.2469    2.0963 C   0  0  0  0  0  0  0  0  0  0  0  0
   -0.0957    1.0938    3.2415 O   0  0  0  0  0  0  0  0  0  0  0  0
   -0.5723    0.9127   -0.4364 C   0  0  0  0  0  0  0  0  0  0  0  0
    0.2472    0.1781   -1.8894 S   0  0  0  0  0  0  0  0  0  0  0  0
    0.6533   -1.4855    1.4300 H   0  0  0  0  0  0  0  0  0  0  0  0
    1.1117    0.6224    0.8681 H   0  0  0  0  0  0  0  0  0  0  0  0
   -1.6332    0.6475   -0.4899 H   0  0  0  0  0  0  0  0  0  0  0  0
   -0.4985    2.0012   -0.5339 H   0  0  0  0  0  0  0  0  0  0  0  0
   -0.5252    0.7841   -2.8002 H   0  0  0  0  0  0  0  0  0  0  0  0
   -1.5387    2.1135    1.7382 N   0  0  0  0  0  0  0  0  0  0  0  0
   -2.2197    2.9529    2.6960 C   0  0  2  0  0  0  0  0  0  0  0  0
   -3.3763    3.6393    1.9812 C   0  0  0  0  0  0  0  0  0  0  0  0
   -3.4119    3.7989    0.7629 O   0  0  0  0  0  0  0  0  0  0  0  0
   -1.2742    3.9757    3.3063 C   0  0  0  0  0  0  0  0  0  0  0  0
   -1.8005    2.2010    0.7607 H   0  0  0  0  0  0  0  0  0  0  0  0
   -2.6126    2.2900    3.4745 H   0  0  0  0  0  0  0  0  0  0  0  0
   -0.8704    4.6490    2.5413 H   0  0  0  0  0  0  0  0  0  0  0  0
   -1.7852    4.5925    4.0530 H   0  0  0  0  0  0  0  0  0  0  0  0
   -0.4274    3.4812    3.7942 H   0  0  0  0  0  0  0  0  0  0  0  0
   -4.3436    4.0909    2.8681 N   0  0  0  0  0  0  0  0  0  0  0  0
   -5.5337    4.7859    2.4361 C   0  0  0  0  0  0  0  0  0  0  0  0
   -4.2412    3.8979    3.8601 H   0  0  0  0  0  0  0  0  0  0  0  0
   -5.3519    5.8707    2.4530 H   0  0  0  0  0  0  0  0  0  0  0  0
   -5.7900    4.4730    1.4132 H   0  0  0  0  0  0  0  0  0  0  0  0
   -6.3660    4.5432    3.1132 H   0  0  0  0  0  0  0  0  0  0  0  0
  1  3  1  0  0  0  0
  1  7  1  0  0  0  0
  1  2  2  0  0  0  0
 29 30  1  0  0  0  0
 30 38  1  0  0  0  0
 30 31  2  0  0  0  0
  8  9  1  0  0  0  0
  9 17  1  0  0  0  0
  9 10  2  0  0  0  0
 18 19  1  0  0  0  0
 19 28  1  0  0  0  0
 19 20  2  0  0  0  0
 29 32  1  0  0  0  0
  8 11  1  0  0  0  0
 38 39  1  0  0  0  0
 18 21  1  0  0  0  0
 21 22  1  0  0  0  0
 28 29  1  0  0  0  0
  7  8  1  0  0  0  0
 17 18  1  0  0  0  0
  3  4  1  0  0  0  0
  3  5  1  0  0  0  0
  3  6  1  0  0  0  0
 32 35  1  0  0  0  0
 32 36  1  0  0  0  0
 32 37  1  0  0  0  0
 11 14  1  0  0  0  0
 11 15  1  0  0  0  0
 11 16  1  0  0  0  0
 39 41  1  0  0  0  0
 39 42  1  0  0  0  0
 39 43  1  0  0  0  0
 21 25  1  0  0  0  0
 21 26  1  0  0  0  0
 29 34  1  0  0  0  0
  8 13  1  0  0  0  0
 18 24  1  0  0  0  0
 38 40  1  0  0  0  0
  7 12  1  0  0  0  0
 28 33  1  0  0  0  0
 17 23  1  0  0  0  0
 22 27  1  0  0  0  0
M  END
$$$$

  -OEChem-05262214473D

 43 42  0     1  0  0  0  0  0999 V2000
   -2.8661   -4.7415    2.2943 C   0  0  0  0  0  0  0  0  0  0  0  0
   -2.0233   -5.5727    2.6109 O   0  0  0  0  0  0  0  0  0  0  0  0
   -4.3078   -5.0134    2.5698 C   0  0  0  0  0  0  0  0  0  0  0  0
   -4.8057   -5.5295    1.7332 H   0  0  0  0  0  0  0  0  0  0  0  0
   -4.4526   -5.6688    3.4436 H   0  0  0  0  0  0  0  0  0  0  0  0
   -4.9255   -4.1233    2.7700 H   0  0  0  0  0  0  0  0  0  0  0  0
   -2.6241   -3.5219    1.6838 N   0  0  0  0  0  0  0  0  0  0  0  0
   -1.3070   -3.0608    1.3315 C   0  0  2  0  0  0  0  0  0  0  0  0
   -1.3931   -1.5680    1.0422 C   0  0  0  0  0  0  0  0  0  0  0  0
   -2.4385   -1.0059    0.7226 O   0  0  0  0  0  0  0  0  0  0  0  0
   -0.7590   -3.8164    0.1309 C   0  0  0  0  0  0  0  0  0  0  0  0
   -3.4188   -2.9207    1.4735 H   0  0  0  0  0  0  0  0  0  0  0  0
   -0.6690   -3.2277    2.2062 H   0  0  0  0  0  0  0  0  0  0  0  0
   -1.3852   -3.6613   -0.7553 H   0  0  0  0  0  0  0  0  0  0  0  0
    0.2542   -3.4843   -0.1182 H   0  0  0  0  0  0  0  0  0  0  0  0
   -0.7257   -4.8930    0.3300 H   0  0  0  0  0  0  0  0  0  0  0  0
   -0.1563   -0.9420    1.1402 N   0  0  0  0  0  0  0  0  0  0  0  0
    0.0261    0.4671    0.9001 C   0  0  2  0  0  0  0  0  0  0  0  0
   -0.5158    1.2469    2.0963 C   0  0  0  0  0  0  0  0  0  0  0  0
    0.0643    1.3010    3.1789 O   0  0  0  0  0  0  0  0  0  0  0  0
   -0.5723    0.9127   -0.4364 C   0  0  0  0  0  0  0  0  0  0  0  0
    0.2472    0.1781   -1.8894 S   0  0  0  0  0  0  0  0  0  0  0  0
    0.6533   -1.4855    1.4300 H   0  0  0  0  0  0  0  0  0  0  0  0
    1.1117    0.6224    0.8681 H   0  0  0  0  0  0  0  0  0  0  0  0
   -1.6332    0.6475   -0.4899 H   0  0  0  0  0  0  0  0  0  0  0  0
   -0.4985    2.0012   -0.5339 H   0  0  0  0  0  0  0  0  0  0  0  0
   -0.5252    0.7841   -2.8002 H   0  0  0  0  0  0  0  0  0  0  0  0
   -1.7332    1.8529    1.8199 N   0  0  0  0  0  0  0  0  0  0  0  0
   -2.4518    2.6383    2.7959 C   0  0  2  0  0  0  0  0  0  0  0  0
   -3.8049    3.0047    2.2007 C   0  0  0  0  0  0  0  0  0  0  0  0
   -4.0223    3.0248    0.9910 O   0  0  0  0  0  0  0  0  0  0  0  0
   -1.6732    3.8856    3.1843 C   0  0  0  0  0  0  0  0  0  0  0  0
   -2.1254    1.7836    0.8856 H   0  0  0  0  0  0  0  0  0  0  0  0
   -2.5990    1.9969    3.6717 H   0  0  0  0  0  0  0  0  0  0  0  0
   -1.5159    4.5405    2.3196 H   0  0  0  0  0  0  0  0  0  0  0  0
   -2.2062    4.4651    3.9453 H   0  0  0  0  0  0  0  0  0  0  0  0
   -0.6884    3.6213    3.5846 H   0  0  0  0  0  0  0  0  0  0  0  0
   -4.7290    3.3483    3.1775 N   0  0  0  0  0  0  0  0  0  0  0  0
   -6.0818    3.7464    2.8654 C   0  0  0  0  0  0  0  0  0  0  0  0
   -4.4676    3.2849    4.1570 H   0  0  0  0  0  0  0  0  0  0  0  0
   -6.1300    4.8413    2.7714 H   0  0  0  0  0  0  0  0  0  0  0  0
   -6.3906    3.2831    1.9167 H   0  0  0  0  0  0  0  0  0  0  0  0
   -6.7556    3.4176    3.6704 H   0  0  0  0  0  0  0  0  0  0  0  0
  1  3  1  0  0  0  0
  1  7  1  0  0  0  0
  1  2  2  0  0  0  0
 29 30  1  0  0  0  0
 30 38  1  0  0  0  0
 30 31  2  0  0  0  0
  8  9  1  0  0  0  0
  9 17  1  0  0  0  0
  9 10  2  0  0  0  0
 18 19  1  0  0  0  0
 19 28  1  0  0  0  0
 19 20  2  0  0  0  0
 29 32  1  0  0  0  0
  8 11  1  0  0  0  0
 38 39  1  0  0  0  0
 18 21  1  0  0  0  0
 21 22  1  0  0  0  0
 28 29  1  0  0  0  0
  7  8  1  0  0  0  0
 17 18  1  0  0  0  0
  3  4  1  0  0  0  0
  3  5  1  0  0  0  0
  3  6  1  0  0  0  0
 32 35  1  0  0  0  0
 32 36  1  0  0  0  0
 32 37  1  0  0  0  0
 11 14  1  0  0  0  0
 11 15  1  0  0  0  0
 11 16  1  0  0  0  0
 39 41  1  0  0  0  0
 39 42  1  0  0  0  0
 39 43  1  0  0  0  0
 21 25  1  0  0  0  0
 21 26  1  0  0  0  0
 29 34  1  0  0  0  0
  8 13  1  0  0  0  0
 18 24  1  0  0  0  0
 38 40  1  0  0  0  0
  7 12  1  0  0  0  0
 28 33  1  0  0  0  0
 17 23  1  0  0  0  0
 22 27  1  0  0  0  0
M  END
$$$$

  -OEChem-05262214473D

 43 42  0     1  0  0  0  0  0999 V2000
   -2.8661   -4.7415    2.2943 C   0  0  0  0  0  0  0  0  0  0  0  0
   -2.0233   -5.5727    2.6109 O   0  0  0  0  0  0  0  0  0  0  0  0
   -4.3078   -5.0134    2.5698 C   0  0  0  0  0  0  0  0  0  0  0  0
   -4.8057   -5.5295    1.7332 H   0  0  0  0  0  0  0  0  0  0  0  0
   -4.4526   -5.6688    3.4436 H   0  0  0  0  0  0  0  0  0  0  0  0
   -4.9255   -4.1233    2.7700 H   0  0  0  0  0  0  0  0  0  0  0  0
   -2.6241   -3.5219    1.6838 N   0  0  0  0  0  0  0  0  0  0  0  0
   -1.3070   -3.0608    1.3315 C   0  0  2  0  0  0  0  0  0  0  0  0
   -1.3931   -1.5680    1.0422 C   0  0  0  0  0  0  0  0  0  0  0  0
   -2.4385   -1.0059    0.7226 O   0  0  0  0  0  0  0  0  0  0  0  0
   -0.7590   -3.8164    0.1309 C   0  0  0  0  0  0  0  0  0  0  0  0
   -3.4188   -2.9207    1.4735 H   0  0  0  0  0  0  0  0  0  0  0  0
   -0.6690   -3.2277    2.2062 H   0  0  0  0  0  0  0  0  0  0  0  0
   -1.3852   -3.6613   -0.7553 H   0  0  0  0  0  0  0  0  0  0  0  0
    0.2542   -3.4843   -0.1182 H   0  0  0  0  0  0  0  0  0  0  0  0
   -0.7257   -4.8930    0.3300 H   0  0  0  0  0  0  0  0  0  0  0  0
   -0.1563   -0.9420    1.1402 N   0  0  0  0  0  0  0  0  0  0  0  0
    0.0261    0.4671    0.9001 C   0  0  2  0  0  0  0  0  0  0  0  0
   -0.5158    1.2469    2.0963 C   0  0  0  0  0  0  0  0  0  0  0  0
    0.1685    1.5278    3.0783 O   0  0  0  0  0  0  0  0  0  0  0  0
   -0.5723    0.9127   -0.4364 C   0  0  0  0  0  0  0  0  0  0  0  0
    0.2472    0.1781   -1.8894 S   0  0  0  0  0  0  0  0  0  0  0  0
    0.6533   -1.4855    1.4300 H   0  0  0  0  0  0  0  0  0  0  0  0
    1.1117    0.6224    0.8681 H   0  0  0  0  0  0  0  0  0  0  0  0
   -1.6332    0.6475   -0.4899 H   0  0  0  0  0  0  0  0  0  0  0  0
   -0.4985    2.0012   -0.5339 H   0  0  0  0  0  0  0  0  0  0  0  0
   -0.5252    0.7841   -2.8002 H   0  0  0  0  0  0  0  0  0  0  0  0
   -1.8574    1.5692    1.9485 N   0  0  0  0  0  0  0  0  0  0  0  0
   -2.5990    2.2966    2.9520 C   0  0  2  0  0  0  0  0  0  0  0  0
   -4.0614    2.3250    2.5276 C   0  0  0  0  0  0  0  0  0  0  0  0
   -4.4249    2.1743    1.3630 O   0  0  0  0  0  0  0  0  0  0  0  0
   -2.0565    3.7064    3.1275 C   0  0  0  0  0  0  0  0  0  0  0  0
   -2.3381    1.3261    1.0874 H   0  0  0  0  0  0  0  0  0  0  0  0
   -2.5004    1.7348    3.8872 H   0  0  0  0  0  0  0  0  0  0  0  0
   -2.1467    4.2846    2.2006 H   0  0  0  0  0  0  0  0  0  0  0  0
   -2.6013    4.2468    3.9085 H   0  0  0  0  0  0  0  0  0  0  0  0
   -0.9967    3.6846    3.4037 H   0  0  0  0  0  0  0  0  0  0  0  0
   -4.9099    2.5813    3.5955 N   0  0  0  0  0  0  0  0  0  0  0  0
   -6.3438    2.6706    3.4480 C   0  0  0  0  0  0  0  0  0  0  0  0
   -4.5229    2.6743    4.5300 H   0  0  0  0  0  0  0  0  0  0  0  0
   -6.6308    3.7186    3.2764 H   0  0  0  0  0  0  0  0  0  0  0  0
   -6.6630    2.0583    2.5917 H   0  0  0  0  0  0  0  0  0  0  0  0
   -6.8301    2.3026    4.3634 H   0  0  0  0  0  0  0  0  0  0  0  0
  1  3  1  0  0  0  0
  1  7  1  0  0  0  0
  1  2  2  0  0  0  0
 29 30  1  0  0  0  0
 30 38  1  0  0  0  0
 30 31  2  0  0  0  0
  8  9  1  0  0  0  0
  9 17  1  0  0  0  0
  9 10  2  0  0  0  0
 18 19  1  0  0  0  0
 19 28  1  0  0  0  0
 19 20  2  0  0  0  0
 29 32  1  0  0  0  0
  8 11  1  0  0  0  0
 38 39  1  0  0  0  0
 18 21  1  0  0  0  0
 21 22  1  0  0  0  0
 28 29  1  0  0  0  0
  7  8  1  0  0  0  0
 17 18  1  0  0  0  0
  3  4  1  0  0  0  0
  3  5  1  0  0  0  0
  3  6  1  0  0  0  0
 32 35  1  0  0  0  0
 32 36  1  0  0  0  0
 32 37  1  0  0  0  0
 11 14  1  0  0  0  0
 11 15  1  0  0  0  0
 11 16  1  0  0  0  0
 39 41  1  0  0  0  0
 39 42  1  0  0  0  0
 39 43  1  0  0  0  0
 21 25  1  0  0  0  0
 21 26  1  0  0  0  0
 29 34  1  0  0  0  0
  8 13  1  0  0  0  0
 18 24  1  0  0  0  0
 38 40  1  0  0  0  0
  7 12  1  0  0  0  0
 28 33  1  0  0  0  0
 17 23  1  0  0  0  0
 22 27  1  0  0  0  0
M  END
$$$$

  -OEChem-05262214473D

 43 42  0     1  0  0  0  0  0999 V2000
   -2.8661   -4.7415    2.2943 C   0  0  0  0  0  0  0  0  0  0  0  0
   -2.0233   -5.5727    2.6109 O   0  0  0  0  0  0  0  0  0  0  0  0
   -4.3078   -5.0134    2.5698 C   0  0  0  0  0  0  0  0  0  0  0  0
   -4.8057   -5.5295    1.7332 H   0  0  0  0  0  0  0  0  0  0  0  0
   -4.4526   -5.6688    3.4436 H   0  0  0  0  0  0  0  0  0  0  0  0
   -4.9255   -4.1233    2.7700 H   0  0  0  0  0  0  0  0  0  0  0  0
   -2.6241   -3.5219    1.6838 N   0  0  0  0  0  0  0  0  0  0  0  0
   -1.3070   -3.0608    1.3315 C   0  0  2  0  0  0  0  0  0  0  0  0
   -1.3931   -1.5680    1.0422 C   0  0  0  0  0  0  0  0  0  0  0  0
   -2.4385   -1.0059    0.7226 O   0  0  0  0  0  0  0  0  0  0  0  0
   -0.7590   -3.8164    0.1309 C   0  0  0  0  0  0  0  0  0  0  0  0
   -3.4188   -2.9207    1.4735 H   0  0  0  0  0  0  0  0  0  0  0  0
   -0.6690   -3.2277    2.2062 H   0  0  0  0  0  0  0  0  0  0  0  0
   -1.3852   -3.6613   -0.7553 H   0  0  0  0  0  0  0  0  0  0  0  0
    0.2542   -3.4843   -0.1182 H   0  0  0  0  0  0  0  0  0  0  0  0
   -0.7257   -4.8930    0.3300 H   0  0  0  0  0  0  0  0  0  0  0  0
   -0.1563   -0.9420    1.1402 N   0  0  0  0  0  0  0  0  0  0  0  0
    0.0261    0.4671    0.9001 C   0  0  2  0  0  0  0  0  0  0  0  0
   -0.5158    1.2469    2.0963 C   0  0  0  0  0  0  0  0  0  0  0  0
    0.2099    1.7588    2.9464 O   0  0  0  0  0  0  0  0  0  0  0  0
   -0.5723    0.9127   -0.4364 C   0  0  0  0  0  0  0  0  0  0  0  0
    0.2472    0.1781   -1.8894 S   0  0  0  0  0  0  0  0  0  0  0  0
    0.6533   -1.4855    1.4300 H   0  0  0  0  0  0  0  0  0  0  0  0
    1.1117    0.6224    0.8681 H   0  0  0  0  0  0  0  0  0  0  0  0
   -1.6332    0.6475   -0.4899 H   0  0  0  0  0  0  0  0  0  0  0  0
   -0.4985    2.0012   -0.5339 H   0  0  0  0  0  0  0  0  0  0  0  0
   -0.5252    0.7841   -2.8002 H   0  0  0  0  0  0  0  0  0  0  0  0
   -1.9029    1.2819    2.1153 N   0  0  0  0  0  0  0  0  0  0  0  0
   -2.6512    1.9509    3.1536 C   0  0  2  0  0  0  0  0  0  0  0  0
   -4.1281    1.6464    2.9396 C   0  0  0  0  0  0  0  0  0  0  0  0
   -4.5921    1.3053    1.8537 O   0  0  0  0  0  0  0  0  0  0  0  0
   -2.3978    3.4504    3.1397 C   0  0  0  0  0  0  0  0  0  0  0  0
   -2.4241    0.8595    1.3526 H   0  0  0  0  0  0  0  0  0  0  0  0
   -2.3235    1.5213    4.1065 H   0  0  0  0  0  0  0  0  0  0  0  0
   -2.7199    3.8985    2.1926 H   0  0  0  0  0  0  0  0  0  0  0  0
   -2.9435    3.9525    3.9453 H   0  0  0  0  0  0  0  0  0  0  0  0
   -1.3312    3.6665    3.2639 H   0  0  0  0  0  0  0  0  0  0  0  0
   -4.8738    1.8422    4.0936 N   0  0  0  0  0  0  0  0  0  0  0  0
   -6.3018    1.6319    4.1441 C   0  0  0  0  0  0  0  0  0  0  0  0
   -4.4031    2.1074    4.9537 H   0  0  0  0  0  0  0  0  0  0  0  0
   -6.8202    2.5789    3.9334 H   0  0  0  0  0  0  0  0  0  0  0  0
   -6.5886    0.8819    3.3922 H   0  0  0  0  0  0  0  0  0  0  0  0
   -6.5845    1.2741    5.1451 H   0  0  0  0  0  0  0  0  0  0  0  0
  1  3  1  0  0  0  0
  1  7  1  0  0  0  0
  1  2  2  0  0  0  0
 29 30  1  0  0  0  0
 30 38  1  0  0  0  0
 30 31  2  0  0  0  0
  8  9  1  0  0  0  0
  9 17  1  0  0  0  0
  9 10  2  0  0  0  0
 18 19  1  0  0  0  0
 19 28  1  0  0  0  0
 19 20  2  0  0  0  0
 29 32  1  0  0  0  0
  8 11  1  0  0  0  0
 38 39  1  0  0  0  0
 18 21  1  0  0  0  0
 21 22  1  0  0  0  0
 28 29  1  0  0  0  0
  7  8  1  0  0  0  0
 17 18  1  0  0  0  0
  3  4  1  0  0  0  0
  3  5  1  0  0  0  0
  3  6  1  0  0  0  0
 32 35  1  0  0  0  0
 32 36  1  0  0  0  0
 32 37  1  0  0  0  0
 11 14  1  0  0  0  0
 11 15  1  0  0  0  0
 11 16  1  0  0  0  0
 39 41  1  0  0  0  0
 39 42  1  0  0  0  0
 39 43  1  0  0  0  0
 21 25  1  0  0  0  0
 21 26  1  0  0  0  0
 29 34  1  0  0  0  0
  8 13  1  0  0  0  0
 18 24  1  0  0  0  0
 38 40  1  0  0  0  0
  7 12  1  0  0  0  0
 28 33  1  0  0  0  0
 17 23  1  0  0  0  0
 22 27  1  0  0  0  0
M  END
$$$$

  -OEChem-05262214473D

 43 42  0     1  0  0  0  0  0999 V2000
   -2.8661   -4.7415    2.2943 C   0  0  0  0  0  0  0  0  0  0  0  0
   -2.0233   -5.5727    2.6109 O   0  0  0  0  0  0  0  0  0  0  0  0
   -4.3078   -5.0134    2.5698 C   0  0  0  0  0  0  0  0  0  0  0  0
   -4.8057   -5.5295    1.7332 H   0  0  0  0  0  0  0  0  0  0  0  0
   -4.4526   -5.6688    3.4436 H   0  0  0  0  0  0  0  0  0  0  0  0
   -4.9255   -4.1233    2.7700 H   0  0  0  0  0  0  0  0  0  0  0  0
   -2.6241   -3.5219    1.6838 N   0  0  0  0  0  0  0  0  0  0  0  0
   -1.3070   -3.0608    1.3315 C   0  0  2  0  0  0  0  0  0  0  0  0
   -1.3931   -1.5680    1.0422 C   0  0  0  0  0  0  0  0  0  0  0  0
   -2.4385   -1.0059    0.7226 O   0  0  0  0  0  0  0  0  0  0  0  0
   -0.7590   -3.8164    0.1309 C   0  0  0  0  0  0  0  0  0  0  0  0
   -3.4188   -2.9207    1.4735 H   0  0  0  0  0  0  0  0  0  0  0  0
   -0.6690   -3.2277    2.2062 H   0  0  0  0  0  0  0  0  0  0  0  0
   -1.3852   -3.6613   -0.7553 H   0  0  0  0  0  0  0  0  0  0  0  0
    0.2542   -3.4843   -0.1182 H   0  0  0  0  0  0  0  0  0  0  0  0
   -0.7257   -4.8930    0.3300 H   0  0  0  0  0  0  0  0  0  0  0  0
   -0.1563   -0.9420    1.1402 N   0  0  0  0  0  0  0  0  0  0  0  0
    0.0261    0.4671    0.9001 C   0  0  2  0  0  0  0  0  0  0  0  0
   -0.5158    1.2469    2.0963 C   0  0  0  0  0  0  0  0  0  0  0  0
    0.1856    1.9782    2.7924 O   0  0  0  0  0  0  0  0  0  0  0  0
   -0.5723    0.9127   -0.4364 C   0  0  0  0  0  0  0  0  0  0  0  0
    0.2472    0.1781   -1.8894 S   0  0  0  0  0  0  0  0  0  0  0  0
    0.6533   -1.4855    1.4300 H   0  0  0  0  0  0  0  0  0  0  0  0
    1.1117    0.6224    0.8681 H   0  0  0  0  0  0  0  0  0  0  0  0
   -1.6332    0.6475   -0.4899 H   0  0  0  0  0  0  0  0  0  0  0  0
   -0.4985    2.0012   -0.5339 H   0  0  0  0  0  0  0  0  0  0  0  0
   -0.5252    0.7841   -2.8002 H   0  0  0  0  0  0  0  0  0  0  0  0
   -1.8666    1.0104    2.3087 N   0  0  0  0  0  0  0  0  0  0  0  0
   -2.6050    1.6250    3.3870 C   0  0  2  0  0  0  0  0  0  0  0  0
   -4.0005    1.0154    3.4088 C   0  0  0  0  0  0  0  0  0  0  0  0
   -4.5127    0.4771    2.4295 O   0  0  0  0  0  0  0  0  0  0  0  0
   -2.6741    3.1350    3.2201 C   0  0  0  0  0  0  0  0  0  0  0  0
   -2.3776    0.4158    1.6629 H   0  0  0  0  0  0  0  0  0  0  0  0
   -2.0804    1.3711    4.3146 H   0  0  0  0  0  0  0  0  0  0  0  0
   -3.1963    3.4087    2.2960 H   0  0  0  0  0  0  0  0  0  0  0  0
   -3.2096    3.6022    4.0531 H   0  0  0  0  0  0  0  0  0  0  0  0
   -1.6692    3.5685    3.1747 H   0  0  0  0  0  0  0  0  0  0  0  0
   -4.6234    1.1814    4.6378 N   0  0  0  0  0  0  0  0  0  0  0  0
   -5.9587    0.7010    4.9063 C   0  0  0  0  0  0  0  0  0  0  0  0
   -4.1166    1.6231    5.3993 H   0  0  0  0  0  0  0  0  0  0  0  0
   -6.6853    1.5001    4.6978 H   0  0  0  0  0  0  0  0  0  0  0  0
   -6.1726   -0.1657    4.2636 H   0  0  0  0  0  0  0  0  0  0  0  0
   -6.0354    0.4023    5.9622 H   0  0  0  0  0  0  0  0  0  0  0  0
  1  3  1  0  0  0  0
  1  7  1  0  0  0  0
  1  2  2  0  0  0  0
 29 30  1  0  0  0  0
 30 38  1  0  0  0  0
 30 31  2  0  0  0  0
  8  9  1  0  0  0  0
  9 17  1  0  0  0  0
  9 10  2  0  0  0  0
 18 19  1  0  0  0  0
 19 28  1  0  0  0  0
 19 20  2  0  0  0  0
 29 32  1  0  0  0  0
  8 11  1  0  0  0  0
 38 39  1  0  0  0  0
 18 21  1  0  0  0  0
 21 22  1  0  0  0  0
 28 29  1  0  0  0  0
  7  8  1  0  0  0  0
 17 18  1  0  0  0  0
  3  4  1  0  0  0  0
  3  5  1  0  0  0  0
  3  6  1  0  0  0  0
 32 35  1  0  0  0  0
 32 36  1  0  0  0  0
 32 37  1  0  0  0  0
 11 14  1  0  0  0  0
 11 15  1  0  0  0  0
 11 16  1  0  0  0  0
 39 41  1  0  0  0  0
 39 42  1  0  0  0  0
 39 43  1  0  0  0  0
 21 25  1  0  0  0  0
 21 26  1  0  0  0  0
 29 34  1  0  0  0  0
  8 13  1  0  0  0  0
 18 24  1  0  0  0  0
 38 40  1  0  0  0  0
  7 12  1  0  0  0  0
 28 33  1  0  0  0  0
 17 23  1  0  0  0  0
 22 27  1  0  0  0  0
M  END
$$$$

  -OEChem-05262214473D

 43 42  0     1  0  0  0  0  0999 V2000
   -2.8661   -4.7415    2.2943 C   0  0  0  0  0  0  0  0  0  0  0  0
   -2.0233   -5.5727    2.6109 O   0  0  0  0  0  0  0  0  0  0  0  0
   -4.3078   -5.0134    2.5698 C   0  0  0  0  0  0  0  0  0  0  0  0
   -4.8057   -5.5295    1.7332 H   0  0  0  0  0  0  0  0  0  0  0  0
   -4.4526   -5.6688    3.4436 H   0  0  0  0  0  0  0  0  0  0  0  0
   -4.9255   -4.1233    2.7700 H   0  0  0  0  0  0  0  0  0  0  0  0
   -2.6241   -3.5219    1.6838 N   0  0  0  0  0  0  0  0  0  0  0  0
   -1.3070   -3.0608    1.3315 C   0  0  2  0  0  0  0  0  0  0  0  0
   -1.3931   -1.5680    1.0422 C   0  0  0  0  0  0  0  0  0  0  0  0
   -2.4385   -1.0059    0.7226 O   0  0  0  0  0  0  0  0  0  0  0  0
   -0.7590   -3.8164    0.1309 C   0  0  0  0  0  0  0  0  0  0  0  0
   -3.4188   -2.9207    1.4735 H   0  0  0  0  0  0  0  0  0  0  0  0
   -0.6690   -3.2277    2.2062 H   0  0  0  0  0  0  0  0  0  0  0  0
   -1.3852   -3.6613   -0.7553 H   0  0  0  0  0  0  0  0  0  0  0  0
    0.2542   -3.4843   -0.1182 H   0  0  0  0  0  0  0  0  0  0  0  0
   -0.7257   -4.8930    0.3300 H   0  0  0  0  0  0  0  0  0  0  0  0
   -0.1563   -0.9420    1.1402 N   0  0  0  0  0  0  0  0  0  0  0  0
    0.0261    0.4671    0.9001 C   0  0  2  0  0  0  0  0  0  0  0  0
   -0.5158    1.2469    2.0963 C   0  0  0  0  0  0  0  0  0  0  0  0
    0.0974    2.1710    2.6267 O   0  0  0  0  0  0  0  0  0  0  0  0
   -0.5723    0.9127   -0.4364 C   0  0  0  0  0  0  0  0  0  0  0  0
    0.2472    0.1781   -1.8894 S   0  0  0  0  0  0  0  0  0  0  0  0
    0.6533   -1.4855    1.4300 H   0  0  0  0  0  0  0  0  0  0  0  0
    1.1117    0.6224    0.8681 H   0  0  0  0  0  0  0  0  0  0  0  0
   -1.6332    0.6475   -0.4899 H   0  0  0  0  0  0  0  0  0  0  0  0
   -0.4985    2.0012   -0.5339 H   0  0  0  0  0  0  0  0  0  0  0  0
   -0.5252    0.7841   -2.8002 H   0  0  0  0  0  0  0  0  0  0  0  0
   -1.7509    0.7732    2.5157 N   0  0  0  0  0  0  0  0  0  0  0  0
   -2.4635    1.3410    3.6363 C   0  0  2  0  0  0  0  0  0  0  0  0
   -3.6874    0.4748    3.9030 C   0  0  0  0  0  0  0  0  0  0  0  0
   -4.1920   -0.2539    3.0513 O   0  0  0  0  0  0  0  0  0  0  0  0
   -2.8663    2.7818    3.3632 C   0  0  0  0  0  0  0  0  0  0  0  0
   -2.2017    0.0251    1.9973 H   0  0  0  0  0  0  0  0  0  0  0  0
   -1.7877    1.2945    4.4972 H   0  0  0  0  0  0  0  0  0  0  0  0
   -3.5436    2.8484    2.5039 H   0  0  0  0  0  0  0  0  0  0  0  0
   -3.3813    3.2198    4.2246 H   0  0  0  0  0  0  0  0  0  0  0  0
   -1.9875    3.3970    3.1422 H   0  0  0  0  0  0  0  0  0  0  0  0
   -4.1756    0.6438    5.1911 N   0  0  0  0  0  0  0  0  0  0  0  0
   -5.3379   -0.0586    5.6828 C   0  0  0  0  0  0  0  0  0  0  0  0
   -3.6828    1.2543    5.8362 H   0  0  0  0  0  0  0  0  0  0  0  0
   -6.2354    0.5555    5.5173 H   0  0  0  0  0  0  0  0  0  0  0  0
   -5.4432   -1.0133    5.1466 H   0  0  0  0  0  0  0  0  0  0  0  0
   -5.2204   -0.2535    6.7590 H   0  0  0  0  0  0  0  0  0  0  0  0
  1  3  1  0  0  0  0
  1  7  1  0  0  0  0
  1  2  2  0  0  0  0
 29 30  1  0  0  0  0
 30 38  1  0  0  0  0
 30 31  2  0  0  0  0
  8  9  1  0  0  0  0
  9 17  1  0  0  0  0
  9 10  2  0  0  0  0
 18 19  1  0  0  0  0
 19 28  1  0  0  0  0
 19 20  2  0  0  0  0
 29 32  1  0  0  0  0
  8 11  1  0  0  0  0
 38 39  1  0  0  0  0
 18 21  1  0  0  0  0
 21 22  1  0  0  0  0
 28 29  1  0  0  0  0
  7  8  1  0  0  0  0
 17 18  1  0  0  0  0
  3  4  1  0  0  0  0
  3  5  1  0  0  0  0
  3  6  1  0  0  0  0
 32 35  1  0  0  0  0
 32 36  1  0  0  0  0
 32 37  1  0  0  0  0
 11 14  1  0  0  0  0
 11 15  1  0  0  0  0
 11 16  1  0  0  0  0
 39 41  1  0  0  0  0
 39 42  1  0  0  0  0
 39 43  1  0  0  0  0
 21 25  1  0  0  0  0
 21 26  1  0  0  0  0
 29 34  1  0  0  0  0
  8 13  1  0  0  0  0
 18 24  1  0  0  0  0
 38 40  1  0  0  0  0
  7 12  1  0  0  0  0
 28 33  1  0  0  0  0
 17 23  1  0  0  0  0
 22 27  1  0  0  0  0
M  END
$$$$

  -OEChem-05262214473D

 43 42  0     1  0  0  0  0  0999 V2000
   -2.8661   -4.7415    2.2943 C   0  0  0  0  0  0  0  0  0  0  0  0
   -2.0233   -5.5727    2.6109 O   0  0  0  0  0  0  0  0  0  0  0  0
   -4.3078   -5.0134    2.5698 C   0  0  0  0  0  0  0  0  0  0  0  0
   -4.8057   -5.5295    1.7332 H   0  0  0  0  0  0  0  0  0  0  0  0
   -4.4526   -5.6688    3.4436 H   0  0  0  0  0  0  0  0  0  0  0  0
   -4.9255   -4.1233    2.7700 H   0  0  0  0  0  0  0  0  0  0  0  0
   -2.6241   -3.5219    1.6838 N   0  0  0  0  0  0  0  0  0  0  0  0
   -1.3070   -3.0608    1.3315 C   0  0  2  0  0  0  0  0  0  0  0  0
   -1.3931   -1.5680    1.0422 C   0  0  0  0  0  0  0  0  0  0  0  0
   -2.4385   -1.0059    0.7226 O   0  0  0  0  0  0  0  0  0  0  0  0
   -0.7590   -3.8164    0.1309 C   0  0  0  0  0  0  0  0  0  0  0  0
   -3.4188   -2.9207    1.4735 H   0  0  0  0  0  0  0  0  0  0  0  0
   -0.6690   -3.2277    2.2062 H   0  0  0  0  0  0  0  0  0  0  0  0
   -1.3852   -3.6613   -0.7553 H   0  0  0  0  0  0  0  0  0  0  0  0
    0.2542   -3.4843   -0.1182 H   0  0  0  0  0  0  0  0  0  0  0  0
   -0.7257   -4.8930    0.3300 H   0  0  0  0  0  0  0  0  0  0  0  0
   -0.1563   -0.9420    1.1402 N   0  0  0  0  0  0  0  0  0  0  0  0
    0.0261    0.4671    0.9001 C   0  0  2  0  0  0  0  0  0  0  0  0
   -0.5158    1.2469    2.0963 C   0  0  0  0  0  0  0  0  0  0  0  0
   -0.0489    2.3242    2.4606 O   0  0  0  0  0  0  0  0  0  0  0  0
   -0.5723    0.9127   -0.4364 C   0  0  0  0  0  0  0  0  0  0  0  0
    0.2472    0.1781   -1.8894 S   0  0  0  0  0  0  0  0  0  0  0  0
    0.6533   -1.4855    1.4300 H   0  0  0  0  0  0  0  0  0  0  0  0
    1.1117    0.6224    0.8681 H   0  0  0  0  0  0  0  0  0  0  0  0
   -1.6332    0.6475   -0.4899 H   0  0  0  0  0  0  0  0  0  0  0  0
   -0.4985    2.0012   -0.5339 H   0  0  0  0  0  0  0  0  0  0  0  0
   -0.5252    0.7841   -2.8002 H   0  0  0  0  0  0  0  0  0  0  0  0
   -1.5638    0.5867    2.7221 N   0  0  0  0  0  0  0  0  0  0  0  0
   -2.2362    1.1183    3.8844 C   0  0  2  0  0  0  0  0  0  0  0  0
   -3.2100    0.0614    4.3888 C   0  0  0  0  0  0  0  0  0  0  0  0
   -3.6519   -0.8379    3.6767 O   0  0  0  0  0  0  0  0  0  0  0  0
   -2.9616    2.4148    3.5593 C   0  0  0  0  0  0  0  0  0  0  0  0
   -1.9085   -0.2859    2.3329 H   0  0  0  0  0  0  0  0  0  0  0  0
   -1.4652    1.2965    4.6419 H   0  0  0  0  0  0  0  0  0  0  0  0
   -3.7379    2.2560    2.8020 H   0  0  0  0  0  0  0  0  0  0  0  0
   -3.4470    2.8314    4.4480 H   0  0  0  0  0  0  0  0  0  0  0  0
   -2.2645    3.1639    3.1687 H   0  0  0  0  0  0  0  0  0  0  0  0
   -3.5610    0.2661    5.7158 N   0  0  0  0  0  0  0  0  0  0  0  0
   -4.4817   -0.5952    6.4205 C   0  0  0  0  0  0  0  0  0  0  0  0
   -3.1313    1.0261    6.2348 H   0  0  0  0  0  0  0  0  0  0  0  0
   -5.5010   -0.1903    6.3363 H   0  0  0  0  0  0  0  0  0  0  0  0
   -4.4501   -1.6031    5.9810 H   0  0  0  0  0  0  0  0  0  0  0  0
   -4.1949   -0.6486    7.4811 H   0  0  0  0  0  0  0  0  0  0  0  0
  1  3  1  0  0  0  0
  1  7  1  0  0  0  0
  1  2  2  0  0  0  0
 29 30  1  0  0  0  0
 30 38  1  0  0  0  0
 30 31  2  0  0  0  0
  8  9  1  0  0  0  0
  9 17  1  0  0  0  0
  9 10  2  0  0  0  0
 18 19  1  0  0  0  0
 19 28  1  0  0  0  0
 19 20  2  0  0  0  0
 29 32  1  0  0  0  0
  8 11  1  0  0  0  0
 38 39  1  0  0  0  0
 18 21  1  0  0  0  0
 21 22  1  0  0  0  0
 28 29  1  0  0  0  0
  7  8  1  0  0  0  0
 17 18  1  0  0  0  0
  3  4  1  0  0  0  0
  3  5  1  0  0  0  0
  3  6  1  0  0  0  0
 32 35  1  0  0  0  0
 32 36  1  0  0  0  0
 32 37  1  0  0  0  0
 11 14  1  0  0  0  0
 11 15  1  0  0  0  0
 11 16  1  0  0  0  0
 39 41  1  0  0  0  0
 39 42  1  0  0  0  0
 39 43  1  0  0  0  0
 21 25  1  0  0  0  0
 21 26  1  0  0  0  0
 29 34  1  0  0  0  0
  8 13  1  0  0  0  0
 18 24  1  0  0  0  0
 38 40  1  0  0  0  0
  7 12  1  0  0  0  0
 28 33  1  0  0  0  0
 17 23  1  0  0  0  0
 22 27  1  0  0  0  0
M  END
$$$$

  -OEChem-05262214473D

 43 42  0     1  0  0  0  0  0999 V2000
   -2.8661   -4.7415    2.2943 C   0  0  0  0  0  0  0  0  0  0  0  0
   -2.0233   -5.5727    2.6109 O   0  0  0  0  0  0  0  0  0  0  0  0
   -4.3078   -5.0134    2.5698 C   0  0  0  0  0  0  0  0  0  0  0  0
   -4.8057   -5.5295    1.7332 H   0  0  0  0  0  0  0  0  0  0  0  0
   -4.4526   -5.6688    3.4436 H   0  0  0  0  0  0  0  0  0  0  0  0
   -4.9255   -4.1233    2.7700 H   0  0  0  0  0  0  0  0  0  0  0  0
   -2.6241   -3.5219    1.6838 N   0  0  0  0  0  0  0  0  0  0  0  0
   -1.3070   -3.0608    1.3315 C   0  0  2  0  0  0  0  0  0  0  0  0
   -1.3931   -1.5680    1.0422 C   0  0  0  0  0  0  0  0  0  0  0  0
   -2.4385   -1.0059    0.7226 O   0  0  0  0  0  0  0  0  0  0  0  0
   -0.7590   -3.8164    0.1309 C   0  0  0  0  0  0  0  0  0  0  0  0
   -3.4188   -2.9207    1.4735 H   0  0  0  0  0  0  0  0  0  0  0  0
   -0.6690   -3.2277    2.2062 H   0  0  0  0  0  0  0  0  0  0  0  0
   -1.3852   -3.6613   -0.7553 H   0  0  0  0  0  0  0  0  0  0  0  0
    0.2542   -3.4843   -0.1182 H   0  0  0  0  0  0  0  0  0  0  0  0
   -0.7257   -4.8930    0.3300 H   0  0  0  0  0  0  0  0  0  0  0  0
   -0.1563   -0.9420    1.1402 N   0  0  0  0  0  0  0  0  0  0  0  0
    0.0261    0.4671    0.9001 C   0  0  2  0  0  0  0  0  0  0  0  0
   -0.5158    1.2469    2.0963 C   0  0  0  0  0  0  0  0  0  0  0  0
   -0.2431    2.4273    2.3054 O   0  0  0  0  0  0  0  0  0  0  0  0
   -0.5723    0.9127   -0.4364 C   0  0  0  0  0  0  0  0  0  0  0  0
    0.2472    0.1781   -1.8894 S   0  0  0  0  0  0  0  0  0  0  0  0
    0.6533   -1.4855    1.4300 H   0  0  0  0  0  0  0  0  0  0  0  0
    1.1117    0.6224    0.8681 H   0  0  0  0  0  0  0  0  0  0  0  0
   -1.6332    0.6475   -0.4899 H   0  0  0  0  0  0  0  0  0  0  0  0
   -0.4985    2.0012   -0.5339 H   0  0  0  0  0  0  0  0  0  0  0  0
   -0.5252    0.7841   -2.8002 H   0  0  0  0  0  0  0  0  0  0  0  0
   -1.3179    0.4633    2.9139 N   0  0  0  0  0  0  0  0  0  0  0  0
   -1.9388    0.9720    4.1145 C   0  0  2  0  0  0  0  0  0  0  0  0
   -2.6009   -0.1964    4.8328 C   0  0  0  0  0  0  0  0  0  0  0  0
   -2.9291   -1.2350    4.2630 O   0  0  0  0  0  0  0  0  0  0  0  0
   -2.9532    2.0590    3.7950 C   0  0  0  0  0  0  0  0  0  0  0  0
   -1.5178   -0.4960    2.6468 H   0  0  0  0  0  0  0  0  0  0  0  0
   -1.1351    1.3771    4.7390 H   0  0  0  0  0  0  0  0  0  0  0  0
   -3.7662    1.6718    3.1700 H   0  0  0  0  0  0  0  0  0  0  0  0
   -3.4022    2.4634    4.7082 H   0  0  0  0  0  0  0  0  0  0  0  0
   -2.4813    2.8851    3.2522 H   0  0  0  0  0  0  0  0  0  0  0  0
   -2.8215    0.0740    6.1761 N   0  0  0  0  0  0  0  0  0  0  0  0
   -3.4483   -0.8722    7.0692 C   0  0  0  0  0  0  0  0  0  0  0  0
   -2.4996    0.9541    6.5680 H   0  0  0  0  0  0  0  0  0  0  0  0
   -4.5322   -0.6867    7.0988 H   0  0  0  0  0  0  0  0  0  0  0  0
   -3.2611   -1.8948    6.7098 H   0  0  0  0  0  0  0  0  0  0  0  0
   -3.0289   -0.7560    8.0794 H   0  0  0  0  0  0  0  0  0  0  0  0
  1  3  1  0  0  0  0
  1  7  1  0  0  0  0
  1  2  2  0  0  0  0
 29 30  1  0  0  0  0
 30 38  1  0  0  0  0
 30 31  2  0  0  0  0
  8  9  1  0  0  0  0
  9 17  1  0  0  0  0
  9 10  2  0  0  0  0
 18 19  1  0  0  0  0
 19 28  1  0  0  0  0
 19 20  2  0  0  0  0
 29 32  1  0  0  0  0
  8 11  1  0  0  0  0
 38 39  1  0  0  0  0
 18 21  1  0  0  0  0
 21 22  1  0  0  0  0
 28 29  1  0  0  0  0
  7  8  1  0  0  0  0
 17 18  1  0  0  0  0
  3  4  1  0  0  0  0
  3  5  1  0  0  0  0
  3  6  1  0  0  0  0
 32 35  1  0  0  0  0
 32 36  1  0  0  0  0
 32 37  1  0  0  0  0
 11 14  1  0  0  0  0
 11 15  1  0  0  0  0
 11 16  1  0  0  0  0
 39 41  1  0  0  0  0
 39 42  1  0  0  0  0
 39 43  1  0  0  0  0
 21 25  1  0  0  0  0
 21 26  1  0  0  0  0
 29 34  1  0  0  0  0
  8 13  1  0  0  0  0
 18 24  1  0  0  0  0
 38 40  1  0  0  0  0
  7 12  1  0  0  0  0
 28 33  1  0  0  0  0
 17 23  1  0  0  0  0
 22 27  1  0  0  0  0
M  END
$$$$

  -OEChem-05262214473D

 43 42  0     1  0  0  0  0  0999 V2000
   -2.8661   -4.7415    2.2943 C   0  0  0  0  0  0  0  0  0  0  0  0
   -2.0233   -5.5727    2.6109 O   0  0  0  0  0  0  0  0  0  0  0  0
   -4.3078   -5.0134    2.5698 C   0  0  0  0  0  0  0  0  0  0  0  0
   -4.8057   -5.5295    1.7332 H   0  0  0  0  0  0  0  0  0  0  0  0
   -4.4526   -5.6688    3.4436 H   0  0  0  0  0  0  0  0  0  0  0  0
   -4.9255   -4.1233    2.7700 H   0  0  0  0  0  0  0  0  0  0  0  0
   -2.6241   -3.5219    1.6838 N   0  0  0  0  0  0  0  0  0  0  0  0
   -1.3070   -3.0608    1.3315 C   0  0  2  0  0  0  0  0  0  0  0  0
   -1.3931   -1.5680    1.0422 C   0  0  0  0  0  0  0  0  0  0  0  0
   -2.4385   -1.0059    0.7226 O   0  0  0  0  0  0  0  0  0  0  0  0
   -0.7590   -3.8164    0.1309 C   0  0  0  0  0  0  0  0  0  0  0  0
   -3.4188   -2.9207    1.4735 H   0  0  0  0  0  0  0  0  0  0  0  0
   -0.6690   -3.2277    2.2062 H   0  0  0  0  0  0  0  0  0  0  0  0
   -1.3852   -3.6613   -0.7553 H   0  0  0  0  0  0  0  0  0  0  0  0
    0.2542   -3.4843   -0.1182 H   0  0  0  0  0  0  0  0  0  0  0  0
   -0.7257   -4.8930    0.3300 H   0  0  0  0  0  0  0  0  0  0  0  0
   -0.1563   -0.9420    1.1402 N   0  0  0  0  0  0  0  0  0  0  0  0
    0.0261    0.4671    0.9001 C   0  0  2  0  0  0  0  0  0  0  0  0
   -0.5158    1.2469    2.0963 C   0  0  0  0  0  0  0  0  0  0  0  0
   -0.4722    2.4732    2.1717 O   0  0  0  0  0  0  0  0  0  0  0  0
   -0.5723    0.9127   -0.4364 C   0  0  0  0  0  0  0  0  0  0  0  0
    0.2472    0.1781   -1.8894 S   0  0  0  0  0  0  0  0  0  0  0  0
    0.6533   -1.4855    1.4300 H   0  0  0  0  0  0  0  0  0  0  0  0
    1.1117    0.6224    0.8681 H   0  0  0  0  0  0  0  0  0  0  0  0
   -1.6332    0.6475   -0.4899 H   0  0  0  0  0  0  0  0  0  0  0  0
   -0.4985    2.0012   -0.5339 H   0  0  0  0  0  0  0  0  0  0  0  0
   -0.5252    0.7841   -2.8002 H   0  0  0  0  0  0  0  0  0  0  0  0
   -1.0300    0.4117    3.0780 N   0  0  0  0  0  0  0  0  0  0  0  0
   -1.5914    0.9121    4.3110 C   0  0  2  0  0  0  0  0  0  0  0  0
   -1.9017   -0.2813    5.2049 C   0  0  0  0  0  0  0  0  0  0  0  0
   -2.0730   -1.4183    4.7704 O   0  0  0  0  0  0  0  0  0  0  0  0
   -2.8419    1.7386    4.0543 C   0  0  0  0  0  0  0  0  0  0  0  0
   -1.0564   -0.5910    2.9178 H   0  0  0  0  0  0  0  0  0  0  0  0
   -0.8197    1.5309    4.7816 H   0  0  0  0  0  0  0  0  0  0  0  0
   -3.6264    1.1355    3.5829 H   0  0  0  0  0  0  0  0  0  0  0  0
   -3.2500    2.1410    4.9873 H   0  0  0  0  0  0  0  0  0  0  0  0
   -2.6232    2.5794    3.3872 H   0  0  0  0  0  0  0  0  0  0  0  0
   -2.0074    0.0807    6.5406 N   0  0  0  0  0  0  0  0  0  0  0  0
   -2.3083   -0.8707    7.5847 C   0  0  0  0  0  0  0  0  0  0  0  0
   -1.8309    1.0432    6.8129 H   0  0  0  0  0  0  0  0  0  0  0  0
   -3.3950   -0.8998    7.7529 H   0  0  0  0  0  0  0  0  0  0  0  0
   -1.9572   -1.8687    7.2836 H   0  0  0  0  0  0  0  0  0  0  0  0
   -1.8017   -0.5684    8.5131 H   0  0  0  0  0  0  0  0  0  0  0  0
  1  3  1  0  0  0  0
  1  7  1  0  0  0  0
  1  2  2  0  0  0  0
 29 30  1  0  0  0  0
 30 38  1  0  0  0  0
 30 31  2  0  0  0  0
  8  9  1  0  0  0  0
  9 17  1  0  0  0  0
  9 10  2  0  0  0  0
 18 19  1  0  0  0  0
 19 28  1  0  0  0  0
 19 20  2  0  0  0  0
 29 32  1  0  0  0  0
  8 11  1  0  0  0  0
 38 39  1  0  0  0  0
 18 21  1  0  0  0  0
 21 22  1  0  0  0  0
 28 29  1  0  0  0  0
  7  8  1  0  0  0  0
 17 18  1  0  0  0  0
  3  4  1  0  0  0  0
  3  5  1  0  0  0  0
  3  6  1  0  0  0  0
 32 35  1  0  0  0  0
 32 36  1  0  0  0  0
 32 37  1  0  0  0  0
 11 14  1  0  0  0  0
 11 15  1  0  0  0  0
 11 16  1  0  0  0  0
 39 41  1  0  0  0  0
 39 42  1  0  0  0  0
 39 43  1  0  0  0  0
 21 25  1  0  0  0  0
 21 26  1  0  0  0  0
 29 34  1  0  0  0  0
  8 13  1  0  0  0  0
 18 24  1  0  0  0  0
 38 40  1  0  0  0  0
  7 12  1  0  0  0  0
 28 33  1  0  0  0  0
 17 23  1  0  0  0  0
 22 27  1  0  0  0  0
M  END
$$$$

  -OEChem-05262214473D

 43 42  0     1  0  0  0  0  0999 V2000
   -2.8661   -4.7415    2.2943 C   0  0  0  0  0  0  0  0  0  0  0  0
   -2.0233   -5.5727    2.6109 O   0  0  0  0  0  0  0  0  0  0  0  0
   -4.3078   -5.0134    2.5698 C   0  0  0  0  0  0  0  0  0  0  0  0
   -4.8057   -5.5295    1.7332 H   0  0  0  0  0  0  0  0  0  0  0  0
   -4.4526   -5.6688    3.4436 H   0  0  0  0  0  0  0  0  0  0  0  0
   -4.9255   -4.1233    2.7700 H   0  0  0  0  0  0  0  0  0  0  0  0
   -2.6241   -3.5219    1.6838 N   0  0  0  0  0  0  0  0  0  0  0  0
   -1.3070   -3.0608    1.3315 C   0  0  2  0  0  0  0  0  0  0  0  0
   -1.3931   -1.5680    1.0422 C   0  0  0  0  0  0  0  0  0  0  0  0
   -2.4385   -1.0059    0.7226 O   0  0  0  0  0  0  0  0  0  0  0  0
   -0.7590   -3.8164    0.1309 C   0  0  0  0  0  0  0  0  0  0  0  0
   -3.4188   -2.9207    1.4735 H   0  0  0  0  0  0  0  0  0  0  0  0
   -0.6690   -3.2277    2.2062 H   0  0  0  0  0  0  0  0  0  0  0  0
   -1.3852   -3.6613   -0.7553 H   0  0  0  0  0  0  0  0  0  0  0  0
    0.2542   -3.4843   -0.1182 H   0  0  0  0  0  0  0  0  0  0  0  0
   -0.7257   -4.8930    0.3300 H   0  0  0  0  0  0  0  0  0  0  0  0
   -0.1563   -0.9420    1.1402 N   0  0  0  0  0  0  0  0  0  0  0  0
    0.0261    0.4671    0.9001 C   0  0  2  0  0  0  0  0  0  0  0  0
   -0.5158    1.2469    2.0963 C   0  0  0  0  0  0  0  0  0  0  0  0
   -0.7204    2.4588    2.0686 O   0  0  0  0  0  0  0  0  0  0  0  0
   -0.5723    0.9127   -0.4364 C   0  0  0  0  0  0  0  0  0  0  0  0
    0.2472    0.1781   -1.8894 S   0  0  0  0  0  0  0  0  0  0  0  0
    0.6533   -1.4855    1.4300 H   0  0  0  0  0  0  0  0  0  0  0  0
    1.1117    0.6224    0.8681 H   0  0  0  0  0  0  0  0  0  0  0  0
   -1.6332    0.6475   -0.4899 H   0  0  0  0  0  0  0  0  0  0  0  0
   -0.4985    2.0012   -0.5339 H   0  0  0  0  0  0  0  0  0  0  0  0
   -0.5252    0.7841   -2.8002 H   0  0  0  0  0  0  0  0  0  0  0  0
   -0.7198    0.4352    3.2032 N   0  0  0  0  0  0  0  0  0  0  0  0
   -1.2178    0.9427    4.4603 C   0  0  2  0  0  0  0  0  0  0  0  0
   -1.1599   -0.1873    5.4797 C   0  0  0  0  0  0  0  0  0  0  0  0
   -1.1419   -1.3752    5.1641 O   0  0  0  0  0  0  0  0  0  0  0  0
   -2.6351    1.4756    4.3194 C   0  0  0  0  0  0  0  0  0  0  0  0
   -0.5556   -0.5643    3.1273 H   0  0  0  0  0  0  0  0  0  0  0  0
   -0.5405    1.7472    4.7671 H   0  0  0  0  0  0  0  0  0  0  0  0
   -3.3282    0.6837    4.0125 H   0  0  0  0  0  0  0  0  0  0  0  0
   -3.0007    1.8860    5.2665 H   0  0  0  0  0  0  0  0  0  0  0  0
   -2.6804    2.2678    3.5643 H   0  0  0  0  0  0  0  0  0  0  0  0
   -1.1742    0.2857    6.7844 N   0  0  0  0  0  0  0  0  0  0  0  0
   -1.1394   -0.5908    7.9319 C   0  0  0  0  0  0  0  0  0  0  0  0
   -1.1706    1.2874    6.9529 H   0  0  0  0  0  0  0  0  0  0  0  0
   -2.1670   -0.8150    8.2540 H   0  0  0  0  0  0  0  0  0  0  0  0
   -0.6272   -1.5264    7.6630 H   0  0  0  0  0  0  0  0  0  0  0  0
   -0.5971   -0.0986    8.7527 H   0  0  0  0  0  0  0  0  0  0  0  0
  1  3  1  0  0  0  0
  1  7  1  0  0  0  0
  1  2  2  0  0  0  0
 29 30  1  0  0  0  0
 30 38  1  0  0  0  0
 30 31  2  0  0  0  0
  8  9  1  0  0  0  0
  9 17  1  0  0  0  0
  9 10  2  0  0  0  0
 18 19  1  0  0  0  0
 19 28  1  0  0  0  0
 19 20  2  0  0  0  0
 29 32  1  0  0  0  0
  8 11  1  0  0  0  0
 38 39  1  0  0  0  0
 18 21  1  0  0  0  0
 21 22  1  0  0  0  0
 28 29  1  0  0  0  0
  7  8  1  0  0  0  0
 17 18  1  0  0  0  0
  3  4  1  0  0  0  0
  3  5  1  0  0  0  0
  3  6  1  0  0  0  0
 32 35  1  0  0  0  0
 32 36  1  0  0  0  0
 32 37  1  0  0  0  0
 11 14  1  0  0  0  0
 11 15  1  0  0  0  0
 11 16  1  0  0  0  0
 39 41  1  0  0  0  0
 39 42  1  0  0  0  0
 39 43  1  0  0  0  0
 21 25  1  0  0  0  0
 21 26  1  0  0  0  0
 29 34  1  0  0  0  0
  8 13  1  0  0  0  0
 18 24  1  0  0  0  0
 38 40  1  0  0  0  0
  7 12  1  0  0  0  0
 28 33  1  0  0  0  0
 17 23  1  0  0  0  0
 22 27  1  0  0  0  0
M  END
$$$$

  -OEChem-05262214473D

 43 42  0     1  0  0  0  0  0999 V2000
   -2.8661   -4.7415    2.2943 C   0  0  0  0  0  0  0  0  0  0  0  0
   -2.0233   -5.5727    2.6109 O   0  0  0  0  0  0  0  0  0  0  0  0
   -4.3078   -5.0134    2.5698 C   0  0  0  0  0  0  0  0  0  0  0  0
   -4.8057   -5.5295    1.7332 H   0  0  0  0  0  0  0  0  0  0  0  0
   -4.4526   -5.6688    3.4436 H   0  0  0  0  0  0  0  0  0  0  0  0
   -4.9255   -4.1233    2.7700 H   0  0  0  0  0  0  0  0  0  0  0  0
   -2.6241   -3.5219    1.6838 N   0  0  0  0  0  0  0  0  0  0  0  0
   -1.3070   -3.0608    1.3315 C   0  0  2  0  0  0  0  0  0  0  0  0
   -1.3931   -1.5680    1.0422 C   0  0  0  0  0  0  0  0  0  0  0  0
   -2.4385   -1.0059    0.7226 O   0  0  0  0  0  0  0  0  0  0  0  0
   -0.7590   -3.8164    0.1309 C   0  0  0  0  0  0  0  0  0  0  0  0
   -3.4188   -2.9207    1.4735 H   0  0  0  0  0  0  0  0  0  0  0  0
   -0.6690   -3.2277    2.2062 H   0  0  0  0  0  0  0  0  0  0  0  0
   -1.3852   -3.6613   -0.7553 H   0  0  0  0  0  0  0  0  0  0  0  0
    0.2542   -3.4843   -0.1182 H   0  0  0  0  0  0  0  0  0  0  0  0
   -0.7257   -4.8930    0.3300 H   0  0  0  0  0  0  0  0  0  0  0  0
   -0.1563   -0.9420    1.1402 N   0  0  0  0  0  0  0  0  0  0  0  0
    0.0261    0.4671    0.9001 C   0  0  2  0  0  0  0  0  0  0  0  0
   -0.5158    1.2469    2.0963 C   0  0  0  0  0  0  0  0  0  0  0  0
   -0.9708    2.3852    2.0032 O   0  0  0  0  0  0  0  0  0  0  0  0
   -0.5723    0.9127   -0.4364 C   0  0  0  0  0  0  0  0  0  0  0  0
    0.2472    0.1781   -1.8894 S   0  0  0  0  0  0  0  0  0  0  0  0
    0.6533   -1.4855    1.4300 H   0  0  0  0  0  0  0  0  0  0  0  0
    1.1117    0.6224    0.8681 H   0  0  0  0  0  0  0  0  0  0  0  0
   -1.6332    0.6475   -0.4899 H   0  0  0  0  0  0  0  0  0  0  0  0
   -0.4985    2.0012   -0.5339 H   0  0  0  0  0  0  0  0  0  0  0  0
   -0.5252    0.7841   -2.8002 H   0  0  0  0  0  0  0  0  0  0  0  0
   -0.4084    0.5323    3.2810 N   0  0  0  0  0  0  0  0  0  0  0  0
   -0.8434    1.0617    4.5523 C   0  0  2  0  0  0  0  0  0  0  0  0
   -0.4261    0.0791    5.6385 C   0  0  0  0  0  0  0  0  0  0  0  0
   -0.1993   -1.1086    5.4174 O   0  0  0  0  0  0  0  0  0  0  0  0
   -2.3471    1.2878    4.5723 C   0  0  0  0  0  0  0  0  0  0  0  0
   -0.0496   -0.4177    3.2610 H   0  0  0  0  0  0  0  0  0  0  0  0
   -0.3167    2.0114    4.6963 H   0  0  0  0  0  0  0  0  0  0  0  0
   -2.8917    0.3473    4.4296 H   0  0  0  0  0  0  0  0  0  0  0  0
   -2.6713    1.7159    5.5266 H   0  0  0  0  0  0  0  0  0  0  0  0
   -2.6491    1.9715    3.7717 H   0  0  0  0  0  0  0  0  0  0  0  0
   -0.3787    0.6750    6.8911 N   0  0  0  0  0  0  0  0  0  0  0  0
   -0.0212   -0.0516    8.0870 C   0  0  0  0  0  0  0  0  0  0  0  0
   -0.5638    1.6699    6.9785 H   0  0  0  0  0  0  0  0  0  0  0  0
   -0.9318   -0.4381    8.5679 H   0  0  0  0  0  0  0  0  0  0  0  0
    0.6383   -0.8913    7.8224 H   0  0  0  0  0  0  0  0  0  0  0  0
    0.5029    0.6213    8.7818 H   0  0  0  0  0  0  0  0  0  0  0  0
  1  3  1  0  0  0  0
  1  7  1  0  0  0  0
  1  2  2  0  0  0  0
 29 30  1  0  0  0  0
 30 38  1  0  0  0  0
 30 31  2  0  0  0  0
  8  9  1  0  0  0  0
  9 17  1  0  0  0  0
  9 10  2  0  0  0  0
 18 19  1  0  0  0  0
 19 28  1  0  0  0  0
 19 20  2  0  0  0  0
 29 32  1  0  0  0  0
  8 11  1  0  0  0  0
 38 39  1  0  0  0  0
 18 21  1  0  0  0  0
 21 22  1  0  0  0  0
 28 29  1  0  0  0  0
  7  8  1  0  0  0  0
 17 18  1  0  0  0  0
  3  4  1  0  0  0  0
  3  5  1  0  0  0  0
  3  6  1  0  0  0  0
 32 35  1  0  0  0  0
 32 36  1  0  0  0  0
 32 37  1  0  0  0  0
 11 14  1  0  0  0  0
 11 15  1  0  0  0  0
 11 16  1  0  0  0  0
 39 41  1  0  0  0  0
 39 42  1  0  0  0  0
 39 43  1  0  0  0  0
 21 25  1  0  0  0  0
 21 26  1  0  0  0  0
 29 34  1  0  0  0  0
  8 13  1  0  0  0  0
 18 24  1  0  0  0  0
 38 40  1  0  0  0  0
  7 12  1  0  0  0  0
 28 33  1  0  0  0  0
 17 23  1  0  0  0  0
 22 27  1  0  0  0  0
M  END
$$$$

  -OEChem-05262214473D

 43 42  0     1  0  0  0  0  0999 V2000
   -2.8661   -4.7415    2.2943 C   0  0  0  0  0  0  0  0  0  0  0  0
   -2.0233   -5.5727    2.6109 O   0  0  0  0  0  0  0  0  0  0  0  0
   -4.3078   -5.0134    2.5698 C   0  0  0  0  0  0  0  0  0  0  0  0
   -4.8057   -5.5295    1.7332 H   0  0  0  0  0  0  0  0  0  0  0  0
   -4.4526   -5.6688    3.4436 H   0  0  0  0  0  0  0  0  0  0  0  0
   -4.9255   -4.1233    2.7700 H   0  0  0  0  0  0  0  0  0  0  0  0
   -2.6241   -3.5219    1.6838 N   0  0  0  0  0  0  0  0  0  0  0  0
   -1.3070   -3.0608    1.3315 C   0  0  2  0  0  0  0  0  0  0  0  0
   -1.3931   -1.5680    1.0422 C   0  0  0  0  0  0  0  0  0  0  0  0
   -2.4385   -1.0059    0.7226 O   0  0  0  0  0  0  0  0  0  0  0  0
   -0.7590   -3.8164    0.1309 C   0  0  0  0  0  0  0  0  0  0  0  0
   -3.4188   -2.9207    1.4735 H   0  0  0  0  0  0  0  0  0  0  0  0
   -0.6690   -3.2277    2.2062 H   0  0  0  0  0  0  0  0  0  0  0  0
   -1.3852   -3.6613   -0.7553 H   0  0  0  0  0  0  0  0  0  0  0  0
    0.2542   -3.4843   -0.1182 H   0  0  0  0  0  0  0  0  0  0  0  0
   -0.7257   -4.8930    0.3300 H   0  0  0  0  0  0  0  0  0  0  0  0
   -0.1563   -0.9420    1.1402 N   0  0  0  0  0  0  0  0  0  0  0  0
    0.0261    0.4671    0.9001 C   0  0  2  0  0  0  0  0  0  0  0  0
   -0.5158    1.2469    2.0963 C   0  0  0  0  0  0  0  0  0  0  0  0
   -1.2065    2.2572    1.9798 O   0  0  0  0  0  0  0  0  0  0  0  0
   -0.5723    0.9127   -0.4364 C   0  0  0  0  0  0  0  0  0  0  0  0
    0.2472    0.1781   -1.8894 S   0  0  0  0  0  0  0  0  0  0  0  0
    0.6533   -1.4855    1.4300 H   0  0  0  0  0  0  0  0  0  0  0  0
    1.1117    0.6224    0.8681 H   0  0  0  0  0  0  0  0  0  0  0  0
   -1.6332    0.6475   -0.4899 H   0  0  0  0  0  0  0  0  0  0  0  0
   -0.4985    2.0012   -0.5339 H   0  0  0  0  0  0  0  0  0  0  0  0
   -0.5252    0.7841   -2.8002 H   0  0  0  0  0  0  0  0  0  0  0  0
   -0.1170    0.6963    3.3061 N   0  0  0  0  0  0  0  0  0  0  0  0
   -0.4937    1.2611    4.5808 C   0  0  2  0  0  0  0  0  0  0  0  0
    0.2497    0.4998    5.6705 C   0  0  0  0  0  0  0  0  0  0  0  0
    0.6907   -0.6368    5.5131 O   0  0  0  0  0  0  0  0  0  0  0  0
   -1.9974    1.1880    4.7958 C   0  0  0  0  0  0  0  0  0  0  0  0
    0.4271   -0.1613    3.3098 H   0  0  0  0  0  0  0  0  0  0  0  0
   -0.1634    2.3055    4.5740 H   0  0  0  0  0  0  0  0  0  0  0  0
   -2.3468    0.1491    4.8057 H   0  0  0  0  0  0  0  0  0  0  0  0
   -2.2843    1.6422    5.7500 H   0  0  0  0  0  0  0  0  0  0  0  0
   -2.5314    1.7107    3.9950 H   0  0  0  0  0  0  0  0  0  0  0  0
    0.3248    1.2220    6.8533 N   0  0  0  0  0  0  0  0  0  0  0  0
    0.9702    0.7102    8.0396 C   0  0  0  0  0  0  0  0  0  0  0  0
   -0.0519    2.1647    6.8879 H   0  0  0  0  0  0  0  0  0  0  0  0
    0.2264    0.2051    8.6734 H   0  0  0  0  0  0  0  0  0  0  0  0
    1.7529   -0.0067    7.7508 H   0  0  0  0  0  0  0  0  0  0  0  0
    1.4233    1.5424    8.5984 H   0  0  0  0  0  0  0  0  0  0  0  0
  1  3  1  0  0  0  0
  1  7  1  0  0  0  0
  1  2  2  0  0  0  0
 29 30  1  0  0  0  0
 30 38  1  0  0  0  0
 30 31  2  0  0  0  0
  8  9  1  0  0  0  0
  9 17  1  0  0  0  0
  9 10  2  0  0  0  0
 18 19  1  0  0  0  0
 19 28  1  0  0  0  0
 19 20  2  0  0  0  0
 29 32  1  0  0  0  0
  8 11  1  0  0  0  0
 38 39  1  0  0  0  0
 18 21  1  0  0  0  0
 21 22  1  0  0  0  0
 28 29  1  0  0  0  0
  7  8  1  0  0  0  0
 17 18  1  0  0  0  0
  3  4  1  0  0  0  0
  3  5  1  0  0  0  0
  3  6  1  0  0  0  0
 32 35  1  0  0  0  0
 32 36  1  0  0  0  0
 32 37  1  0  0  0  0
 11 14  1  0  0  0  0
 11 15  1  0  0  0  0
 11 16  1  0  0  0  0
 39 41  1  0  0  0  0
 39 42  1  0  0  0  0
 39 43  1  0  0  0  0
 21 25  1  0  0  0  0
 21 26  1  0  0  0  0
 29 34  1  0  0  0  0
  8 13  1  0  0  0  0
 18 24  1  0  0  0  0
 38 40  1  0  0  0  0
  7 12  1  0  0  0  0
 28 33  1  0  0  0  0
 17 23  1  0  0  0  0
 22 27  1  0  0  0  0
M  END
$$$$

  -OEChem-05262214473D

 43 42  0     1  0  0  0  0  0999 V2000
   -2.8661   -4.7415    2.2943 C   0  0  0  0  0  0  0  0  0  0  0  0
   -2.0233   -5.5727    2.6109 O   0  0  0  0  0  0  0  0  0  0  0  0
   -4.3078   -5.0134    2.5698 C   0  0  0  0  0  0  0  0  0  0  0  0
   -4.8057   -5.5295    1.7332 H   0  0  0  0  0  0  0  0  0  0  0  0
   -4.4526   -5.6688    3.4436 H   0  0  0  0  0  0  0  0  0  0  0  0
   -4.9255   -4.1233    2.7700 H   0  0  0  0  0  0  0  0  0  0  0  0
   -2.6241   -3.5219    1.6838 N   0  0  0  0  0  0  0  0  0  0  0  0
   -1.3070   -3.0608    1.3315 C   0  0  2  0  0  0  0  0  0  0  0  0
   -1.3931   -1.5680    1.0422 C   0  0  0  0  0  0  0  0  0  0  0  0
   -2.4385   -1.0059    0.7226 O   0  0  0  0  0  0  0  0  0  0  0  0
   -0.7590   -3.8164    0.1309 C   0  0  0  0  0  0  0  0  0  0  0  0
   -3.4188   -2.9207    1.4735 H   0  0  0  0  0  0  0  0  0  0  0  0
   -0.6690   -3.2277    2.2062 H   0  0  0  0  0  0  0  0  0  0  0  0
   -1.3852   -3.6613   -0.7553 H   0  0  0  0  0  0  0  0  0  0  0  0
    0.2542   -3.4843   -0.1182 H   0  0  0  0  0  0  0  0  0  0  0  0
   -0.7257   -4.8930    0.3300 H   0  0  0  0  0  0  0  0  0  0  0  0
   -0.1563   -0.9420    1.1402 N   0  0  0  0  0  0  0  0  0  0  0  0
    0.0261    0.4671    0.9001 C   0  0  2  0  0  0  0  0  0  0  0  0
   -0.5158    1.2469    2.0963 C   0  0  0  0  0  0  0  0  0  0  0  0
   -1.4113    2.0837    2.0001 O   0  0  0  0  0  0  0  0  0  0  0  0
   -0.5723    0.9127   -0.4364 C   0  0  0  0  0  0  0  0  0  0  0  0
    0.2472    0.1781   -1.8894 S   0  0  0  0  0  0  0  0  0  0  0  0
    0.6533   -1.4855    1.4300 H   0  0  0  0  0  0  0  0  0  0  0  0
    1.1117    0.6224    0.8681 H   0  0  0  0  0  0  0  0  0  0  0  0
   -1.6332    0.6475   -0.4899 H   0  0  0  0  0  0  0  0  0  0  0  0
   -0.4985    2.0012   -0.5339 H   0  0  0  0  0  0  0  0  0  0  0  0
   -0.5252    0.7841   -2.8002 H   0  0  0  0  0  0  0  0  0  0  0  0
    0.1345    0.9162    3.2767 N   0  0  0  0  0  0  0  0  0  0  0  0
   -0.1925    1.5271    4.5439 C   0  0  2  0  0  0  0  0  0  0  0  0
    0.8213    1.0460    5.5735 C   0  0  0  0  0  0  0  0  0  0  0  0
    1.4674    0.0082    5.4446 O   0  0  0  0  0  0  0  0  0  0  0  0
   -1.6098    1.1830    4.9747 C   0  0  0  0  0  0  0  0  0  0  0  0
    0.8420    0.1874    3.2705 H   0  0  0  0  0  0  0  0  0  0  0  0
   -0.0911    2.6094    4.4087 H   0  0  0  0  0  0  0  0  0  0  0  0
   -1.7306    0.1026    5.1151 H   0  0  0  0  0  0  0  0  0  0  0  0
   -1.8660    1.6700    5.9214 H   0  0  0  0  0  0  0  0  0  0  0  0
   -2.3354    1.5031    4.2191 H   0  0  0  0  0  0  0  0  0  0  0  0
    0.8885    1.8896    6.6735 N   0  0  0  0  0  0  0  0  0  0  0  0
    1.7671    1.6426    7.7929 C   0  0  0  0  0  0  0  0  0  0  0  0
    0.3303    2.7381    6.6873 H   0  0  0  0  0  0  0  0  0  0  0  0
    1.2287    1.0709    8.5632 H   0  0  0  0  0  0  0  0  0  0  0  0
    2.6408    1.0672    7.4531 H   0  0  0  0  0  0  0  0  0  0  0  0
    2.1014    2.6018    8.2150 H   0  0  0  0  0  0  0  0  0  0  0  0
  1  3  1  0  0  0  0
  1  7  1  0  0  0  0
  1  2  2  0  0  0  0
 29 30  1  0  0  0  0
 30 38  1  0  0  0  0
 30 31  2  0  0  0  0
  8  9  1  0  0  0  0
  9 17  1  0  0  0  0
  9 10  2  0  0  0  0
 18 19  1  0  0  0  0
 19 28  1  0  0  0  0
 19 20  2  0  0  0  0
 29 32  1  0  0  0  0
  8 11  1  0  0  0  0
 38 39  1  0  0  0  0
 18 21  1  0  0  0  0
 21 22  1  0  0  0  0
 28 29  1  0  0  0  0
  7  8  1  0  0  0  0
 17 18  1  0  0  0  0
  3  4  1  0  0  0  0
  3  5  1  0  0  0  0
  3  6  1  0  0  0  0
 32 35  1  0  0  0  0
 32 36  1  0  0  0  0
 32 37  1  0  0  0  0
 11 14  1  0  0  0  0
 11 15  1  0  0  0  0
 11 16  1  0  0  0  0
 39 41  1  0  0  0  0
 39 42  1  0  0  0  0
 39 43  1  0  0  0  0
 21 25  1  0  0  0  0
 21 26  1  0  0  0  0
 29 34  1  0  0  0  0
  8 13  1  0  0  0  0
 18 24  1  0  0  0  0
 38 40  1  0  0  0  0
  7 12  1  0  0  0  0
 28 33  1  0  0  0  0
 17 23  1  0  0  0  0
 22 27  1  0  0  0  0
M  END
$$$$

  -OEChem-05262214473D

 43 42  0     1  0  0  0  0  0999 V2000
   -2.8661   -4.7415    2.2943 C   0  0  0  0  0  0  0  0  0  0  0  0
   -2.0233   -5.5727    2.6109 O   0  0  0  0  0  0  0  0  0  0  0  0
   -4.3078   -5.0134    2.5698 C   0  0  0  0  0  0  0  0  0  0  0  0
   -4.8057   -5.5295    1.7332 H   0  0  0  0  0  0  0  0  0  0  0  0
   -4.4526   -5.6688    3.4436 H   0  0  0  0  0  0  0  0  0  0  0  0
   -4.9255   -4.1233    2.7700 H   0  0  0  0  0  0  0  0  0  0  0  0
   -2.6241   -3.5219    1.6838 N   0  0  0  0  0  0  0  0  0  0  0  0
   -1.3070   -3.0608    1.3315 C   0  0  2  0  0  0  0  0  0  0  0  0
   -1.3931   -1.5680    1.0422 C   0  0  0  0  0  0  0  0  0  0  0  0
   -2.4385   -1.0059    0.7226 O   0  0  0  0  0  0  0  0  0  0  0  0
   -0.7590   -3.8164    0.1309 C   0  0  0  0  0  0  0  0  0  0  0  0
   -3.4188   -2.9207    1.4735 H   0  0  0  0  0  0  0  0  0  0  0  0
   -0.6690   -3.2277    2.2062 H   0  0  0  0  0  0  0  0  0  0  0  0
   -1.3852   -3.6613   -0.7553 H   0  0  0  0  0  0  0  0  0  0  0  0
    0.2542   -3.4843   -0.1182 H   0  0  0  0  0  0  0  0  0  0  0  0
   -0.7257   -4.8930    0.3300 H   0  0  0  0  0  0  0  0  0  0  0  0
   -0.1563   -0.9420    1.1402 N   0  0  0  0  0  0  0  0  0  0  0  0
    0.0261    0.4671    0.9001 C   0  0  2  0  0  0  0  0  0  0  0  0
   -0.5158    1.2469    2.0963 C   0  0  0  0  0  0  0  0  0  0  0  0
   -1.5712    1.8765    2.0627 O   0  0  0  0  0  0  0  0  0  0  0  0
   -0.5723    0.9127   -0.4364 C   0  0  0  0  0  0  0  0  0  0  0  0
    0.2472    0.1781   -1.8894 S   0  0  0  0  0  0  0  0  0  0  0  0
    0.6533   -1.4855    1.4300 H   0  0  0  0  0  0  0  0  0  0  0  0
    1.1117    0.6224    0.8681 H   0  0  0  0  0  0  0  0  0  0  0  0
   -1.6332    0.6475   -0.4899 H   0  0  0  0  0  0  0  0  0  0  0  0
   -0.4985    2.0012   -0.5339 H   0  0  0  0  0  0  0  0  0  0  0  0
   -0.5252    0.7841   -2.8002 H   0  0  0  0  0  0  0  0  0  0  0  0
    0.3290    1.1768    3.1950 N   0  0  0  0  0  0  0  0  0  0  0  0
    0.0395    1.8417    4.4439 C   0  0  2  0  0  0  0  0  0  0  0  0
    1.2500    1.6806    5.3540 C   0  0  0  0  0  0  0  0  0  0  0  0
    2.0778    0.7823    5.2165 O   0  0  0  0  0  0  0  0  0  0  0  0
   -1.2108    1.2732    5.0967 C   0  0  0  0  0  0  0  0  0  0  0  0
    1.1669    0.6048    3.1456 H   0  0  0  0  0  0  0  0  0  0  0  0
   -0.1047    2.9025    4.2115 H   0  0  0  0  0  0  0  0  0  0  0  0
   -1.0851    0.2111    5.3369 H   0  0  0  0  0  0  0  0  0  0  0  0
   -1.4450    1.7974    6.0291 H   0  0  0  0  0  0  0  0  0  0  0  0
   -2.0743    1.3629    4.4288 H   0  0  0  0  0  0  0  0  0  0  0  0
    1.2739    2.6321    6.3641 N   0  0  0  0  0  0  0  0  0  0  0  0
    2.3152    2.6821    7.3636 C   0  0  0  0  0  0  0  0  0  0  0  0
    0.5568    3.3511    6.3903 H   0  0  0  0  0  0  0  0  0  0  0  0
    2.0067    2.1003    8.2447 H   0  0  0  0  0  0  0  0  0  0  0  0
    3.2414    2.2571    6.9496 H   0  0  0  0  0  0  0  0  0  0  0  0
    2.4910    3.7274    7.6578 H   0  0  0  0  0  0  0  0  0  0  0  0
  1  3  1  0  0  0  0
  1  7  1  0  0  0  0
  1  2  2  0  0  0  0
 29 30  1  0  0  0  0
 30 38  1  0  0  0  0
 30 31  2  0  0  0  0
  8  9  1  0  0  0  0
  9 17  1  0  0  0  0
  9 10  2  0  0  0  0
 18 19  1  0  0  0  0
 19 28  1  0  0  0  0
 19 20  2  0  0  0  0
 29 32  1  0  0  0  0
  8 11  1  0  0  0  0
 38 39  1  0  0  0  0
 18 21  1  0  0  0  0
 21 22  1  0  0  0  0
 28 29  1  0  0  0  0
  7  8  1  0  0  0  0
 17 18  1  0  0  0  0
  3  4  1  0  0  0  0
  3  5  1  0  0  0  0
  3  6  1  0  0  0  0
 32 35  1  0  0  0  0
 32 36  1  0  0  0  0
 32 37  1  0  0  0  0
 11 14  1  0  0  0  0
 11 15  1  0  0  0  0
 11 16  1  0  0  0  0
 39 41  1  0  0  0  0
 39 42  1  0  0  0  0
 39 43  1  0  0  0  0
 21 25  1  0  0  0  0
 21 26  1  0  0  0  0
 29 34  1  0  0  0  0
  8 13  1  0  0  0  0
 18 24  1  0  0  0  0
 38 40  1  0  0  0  0
  7 12  1  0  0  0  0
 28 33  1  0  0  0  0
 17 23  1  0  0  0  0
 22 27  1  0  0  0  0
M  END
$$$$

  -OEChem-05262214473D

 43 42  0     1  0  0  0  0  0999 V2000
   -2.8661   -4.7415    2.2943 C   0  0  0  0  0  0  0  0  0  0  0  0
   -2.0233   -5.5727    2.6109 O   0  0  0  0  0  0  0  0  0  0  0  0
   -4.3078   -5.0134    2.5698 C   0  0  0  0  0  0  0  0  0  0  0  0
   -4.8057   -5.5295    1.7332 H   0  0  0  0  0  0  0  0  0  0  0  0
   -4.4526   -5.6688    3.4436 H   0  0  0  0  0  0  0  0  0  0  0  0
   -4.9255   -4.1233    2.7700 H   0  0  0  0  0  0  0  0  0  0  0  0
   -2.6241   -3.5219    1.6838 N   0  0  0  0  0  0  0  0  0  0  0  0
   -1.3070   -3.0608    1.3315 C   0  0  2  0  0  0  0  0  0  0  0  0
   -1.3931   -1.5680    1.0422 C   0  0  0  0  0  0  0  0  0  0  0  0
   -2.4385   -1.0059    0.7226 O   0  0  0  0  0  0  0  0  0  0  0  0
   -0.7590   -3.8164    0.1309 C   0  0  0  0  0  0  0  0  0  0  0  0
   -3.4188   -2.9207    1.4735 H   0  0  0  0  0  0  0  0  0  0  0  0
   -0.6690   -3.2277    2.2062 H   0  0  0  0  0  0  0  0  0  0  0  0
   -1.3852   -3.6613   -0.7553 H   0  0  0  0  0  0  0  0  0  0  0  0
    0.2542   -3.4843   -0.1182 H   0  0  0  0  0  0  0  0  0  0  0  0
   -0.7257   -4.8930    0.3300 H   0  0  0  0  0  0  0  0  0  0  0  0
   -0.1563   -0.9420    1.1402 N   0  0  0  0  0  0  0  0  0  0  0  0
    0.0261    0.4671    0.9001 C   0  0  2  0  0  0  0  0  0  0  0  0
   -0.5158    1.2469    2.0963 C   0  0  0  0  0  0  0  0  0  0  0  0
   -1.6754    1.6497    2.1634 O   0  0  0  0  0  0  0  0  0  0  0  0
   -0.5723    0.9127   -0.4364 C   0  0  0  0  0  0  0  0  0  0  0  0
    0.2472    0.1781   -1.8894 S   0  0  0  0  0  0  0  0  0  0  0  0
    0.6533   -1.4855    1.4300 H   0  0  0  0  0  0  0  0  0  0  0  0
    1.1117    0.6224    0.8681 H   0  0  0  0  0  0  0  0  0  0  0  0
   -1.6332    0.6475   -0.4899 H   0  0  0  0  0  0  0  0  0  0  0  0
   -0.4985    2.0012   -0.5339 H   0  0  0  0  0  0  0  0  0  0  0  0
   -0.5252    0.7841   -2.8002 H   0  0  0  0  0  0  0  0  0  0  0  0
    0.4532    1.4605    3.0663 N   0  0  0  0  0  0  0  0  0  0  0  0
    0.1867    2.1835    4.2878 C   0  0  2  0  0  0  0  0  0  0  0  0
    1.5064    2.3603    5.0271 C   0  0  0  0  0  0  0  0  0  0  0  0
    2.4803    1.6328    4.8445 O   0  0  0  0  0  0  0  0  0  0  0  0
   -0.8275    1.4523    5.1535 C   0  0  0  0  0  0  0  0  0  0  0  0
    1.3796    1.0624    2.9437 H   0  0  0  0  0  0  0  0  0  0  0  0
   -0.2034    3.1646    3.9959 H   0  0  0  0  0  0  0  0  0  0  0  0
   -0.4543    0.4671    5.4558 H   0  0  0  0  0  0  0  0  0  0  0  0
   -1.0499    2.0157    6.0658 H   0  0  0  0  0  0  0  0  0  0  0  0
   -1.7660    1.2997    4.6097 H   0  0  0  0  0  0  0  0  0  0  0  0
    1.4547    3.3991    5.9461 N   0  0  0  0  0  0  0  0  0  0  0  0
    2.5772    3.7579    6.7811 C   0  0  0  0  0  0  0  0  0  0  0  0
    0.6120    3.9618    6.0173 H   0  0  0  0  0  0  0  0  0  0  0  0
    2.5075    3.2230    7.7397 H   0  0  0  0  0  0  0  0  0  0  0  0
    3.5138    3.4819    6.2746 H   0  0  0  0  0  0  0  0  0  0  0  0
    2.5655    4.8424    6.9648 H   0  0  0  0  0  0  0  0  0  0  0  0
  1  3  1  0  0  0  0
  1  7  1  0  0  0  0
  1  2  2  0  0  0  0
 29 30  1  0  0  0  0
 30 38  1  0  0  0  0
 30 31  2  0  0  0  0
  8  9  1  0  0  0  0
  9 17  1  0  0  0  0
  9 10  2  0  0  0  0
 18 19  1  0  0  0  0
 19 28  1  0  0  0  0
 19 20  2  0  0  0  0
 29 32  1  0  0  0  0
  8 11  1  0  0  0  0
 38 39  1  0  0  0  0
 18 21  1  0  0  0  0
 21 22  1  0  0  0  0
 28 29  1  0  0  0  0
  7  8  1  0  0  0  0
 17 18  1  0  0  0  0
  3  4  1  0  0  0  0
  3  5  1  0  0  0  0
  3  6  1  0  0  0  0
 32 35  1  0  0  0  0
 32 36  1  0  0  0  0
 32 37  1  0  0  0  0
 11 14  1  0  0  0  0
 11 15  1  0  0  0  0
 11 16  1  0  0  0  0
 39 41  1  0  0  0  0
 39 42  1  0  0  0  0
 39 43  1  0  0  0  0
 21 25  1  0  0  0  0
 21 26  1  0  0  0  0
 29 34  1  0  0  0  0
  8 13  1  0  0  0  0
 18 24  1  0  0  0  0
 38 40  1  0  0  0  0
  7 12  1  0  0  0  0
 28 33  1  0  0  0  0
 17 23  1  0  0  0  0
 22 27  1  0  0  0  0
M  END
$$$$

  -OEChem-05262214473D

 43 42  0     1  0  0  0  0  0999 V2000
   -2.8661   -4.7415    2.2943 C   0  0  0  0  0  0  0  0  0  0  0  0
   -2.0233   -5.5727    2.6109 O   0  0  0  0  0  0  0  0  0  0  0  0
   -4.3078   -5.0134    2.5698 C   0  0  0  0  0  0  0  0  0  0  0  0
   -4.8057   -5.5295    1.7332 H   0  0  0  0  0  0  0  0  0  0  0  0
   -4.4526   -5.6688    3.4436 H   0  0  0  0  0  0  0  0  0  0  0  0
   -4.9255   -4.1233    2.7700 H   0  0  0  0  0  0  0  0  0  0  0  0
   -2.6241   -3.5219    1.6838 N   0  0  0  0  0  0  0  0  0  0  0  0
   -1.3070   -3.0608    1.3315 C   0  0  2  0  0  0  0  0  0  0  0  0
   -1.3931   -1.5680    1.0422 C   0  0  0  0  0  0  0  0  0  0  0  0
   -2.4385   -1.0059    0.7226 O   0  0  0  0  0  0  0  0  0  0  0  0
   -0.7590   -3.8164    0.1309 C   0  0  0  0  0  0  0  0  0  0  0  0
   -3.4188   -2.9207    1.4735 H   0  0  0  0  0  0  0  0  0  0  0  0
   -0.6690   -3.2277    2.2062 H   0  0  0  0  0  0  0  0  0  0  0  0
   -1.3852   -3.6613   -0.7553 H   0  0  0  0  0  0  0  0  0  0  0  0
    0.2542   -3.4843   -0.1182 H   0  0  0  0  0  0  0  0  0  0  0  0
   -0.7257   -4.8930    0.3300 H   0  0  0  0  0  0  0  0  0  0  0  0
   -0.1563   -0.9420    1.1402 N   0  0  0  0  0  0  0  0  0  0  0  0
    0.0261    0.4671    0.9001 C   0  0  2  0  0  0  0  0  0  0  0  0
   -0.5158    1.2469    2.0963 C   0  0  0  0  0  0  0  0  0  0  0  0
   -1.7168    1.4187    2.2952 O   0  0  0  0  0  0  0  0  0  0  0  0
   -0.5723    0.9127   -0.4364 C   0  0  0  0  0  0  0  0  0  0  0  0
    0.2472    0.1781   -1.8894 S   0  0  0  0  0  0  0  0  0  0  0  0
    0.6533   -1.4855    1.4300 H   0  0  0  0  0  0  0  0  0  0  0  0
    1.1117    0.6224    0.8681 H   0  0  0  0  0  0  0  0  0  0  0  0
   -1.6332    0.6475   -0.4899 H   0  0  0  0  0  0  0  0  0  0  0  0
   -0.4985    2.0012   -0.5339 H   0  0  0  0  0  0  0  0  0  0  0  0
   -0.5252    0.7841   -2.8002 H   0  0  0  0  0  0  0  0  0  0  0  0
    0.4987    1.7479    2.8996 N   0  0  0  0  0  0  0  0  0  0  0  0
    0.2390    2.5291    4.0862 C   0  0  2  0  0  0  0  0  0  0  0  0
    1.5731    3.0388    4.6151 C   0  0  0  0  0  0  0  0  0  0  0  0
    2.6476    2.5018    4.3538 O   0  0  0  0  0  0  0  0  0  0  0  0
   -0.4862    1.7083    5.1413 C   0  0  0  0  0  0  0  0  0  0  0  0
    1.4656    1.5289    2.6786 H   0  0  0  0  0  0  0  0  0  0  0  0
   -0.3802    3.3781    3.7766 H   0  0  0  0  0  0  0  0  0  0  0  0
    0.1188    0.8531    5.4639 H   0  0  0  0  0  0  0  0  0  0  0  0
   -0.7077    2.3100    6.0290 H   0  0  0  0  0  0  0  0  0  0  0  0
   -1.4315    1.3177    4.7495 H   0  0  0  0  0  0  0  0  0  0  0  0
    1.4187    4.1382    5.4480 N   0  0  0  0  0  0  0  0  0  0  0  0
    2.5352    4.7967    6.0850 C   0  0  0  0  0  0  0  0  0  0  0  0
    0.4923    4.5286    5.5936 H   0  0  0  0  0  0  0  0  0  0  0  0
    2.6970    4.3626    7.0827 H   0  0  0  0  0  0  0  0  0  0  0  0
    3.4395    4.6583    5.4741 H   0  0  0  0  0  0  0  0  0  0  0  0
    2.3198    5.8709    6.1831 H   0  0  0  0  0  0  0  0  0  0  0  0
  1  3  1  0  0  0  0
  1  7  1  0  0  0  0
  1  2  2  0  0  0  0
 29 30  1  0  0  0  0
 30 38  1  0  0  0  0
 30 31  2  0  0  0  0
  8  9  1  0  0  0  0
  9 17  1  0  0  0  0
  9 10  2  0  0  0  0
 18 19  1  0  0  0  0
 19 28  1  0  0  0  0
 19 20  2  0  0  0  0
 29 32  1  0  0  0  0
  8 11  1  0  0  0  0
 38 39  1  0  0  0  0
 18 21  1  0  0  0  0
 21 22  1  0  0  0  0
 28 29  1  0  0  0  0
  7  8  1  0  0  0  0
 17 18  1  0  0  0  0
  3  4  1  0  0  0  0
  3  5  1  0  0  0  0
  3  6  1  0  0  0  0
 32 35  1  0  0  0  0
 32 36  1  0  0  0  0
 32 37  1  0  0  0  0
 11 14  1  0  0  0  0
 11 15  1  0  0  0  0
 11 16  1  0  0  0  0
 39 41  1  0  0  0  0
 39 42  1  0  0  0  0
 39 43  1  0  0  0  0
 21 25  1  0  0  0  0
 21 26  1  0  0  0  0
 29 34  1  0  0  0  0
  8 13  1  0  0  0  0
 18 24  1  0  0  0  0
 38 40  1  0  0  0  0
  7 12  1  0  0  0  0
 28 33  1  0  0  0  0
 17 23  1  0  0  0  0
 22 27  1  0  0  0  0
M  END
$$$$

  -OEChem-05262214473D

 43 42  0     1  0  0  0  0  0999 V2000
   -2.8661   -4.7415    2.2943 C   0  0  0  0  0  0  0  0  0  0  0  0
   -2.0233   -5.5727    2.6109 O   0  0  0  0  0  0  0  0  0  0  0  0
   -4.3078   -5.0134    2.5698 C   0  0  0  0  0  0  0  0  0  0  0  0
   -4.8057   -5.5295    1.7332 H   0  0  0  0  0  0  0  0  0  0  0  0
   -4.4526   -5.6688    3.4436 H   0  0  0  0  0  0  0  0  0  0  0  0
   -4.9255   -4.1233    2.7700 H   0  0  0  0  0  0  0  0  0  0  0  0
   -2.6241   -3.5219    1.6838 N   0  0  0  0  0  0  0  0  0  0  0  0
   -1.3070   -3.0608    1.3315 C   0  0  2  0  0  0  0  0  0  0  0  0
   -1.3931   -1.5680    1.0422 C   0  0  0  0  0  0  0  0  0  0  0  0
   -2.4385   -1.0059    0.7226 O   0  0  0  0  0  0  0  0  0  0  0  0
   -0.7590   -3.8164    0.1309 C   0  0  0  0  0  0  0  0  0  0  0  0
   -3.4188   -2.9207    1.4735 H   0  0  0  0  0  0  0  0  0  0  0  0
   -0.6690   -3.2277    2.2062 H   0  0  0  0  0  0  0  0  0  0  0  0
   -1.3852   -3.6613   -0.7553 H   0  0  0  0  0  0  0  0  0  0  0  0
    0.2542   -3.4843   -0.1182 H   0  0  0  0  0  0  0  0  0  0  0  0
   -0.7257   -4.8930    0.3300 H   0  0  0  0  0  0  0  0  0  0  0  0
   -0.1563   -0.9420    1.1402 N   0  0  0  0  0  0  0  0  0  0  0  0
    0.0261    0.4671    0.9001 C   0  0  2  0  0  0  0  0  0  0  0  0
   -0.5158    1.2469    2.0963 C   0  0  0  0  0  0  0  0  0  0  0  0
   -1.6925    1.1993    2.4492 O   0  0  0  0  0  0  0  0  0  0  0  0
   -0.5723    0.9127   -0.4364 C   0  0  0  0  0  0  0  0  0  0  0  0
    0.2472    0.1781   -1.8894 S   0  0  0  0  0  0  0  0  0  0  0  0
    0.6533   -1.4855    1.4300 H   0  0  0  0  0  0  0  0  0  0  0  0
    1.1117    0.6224    0.8681 H   0  0  0  0  0  0  0  0  0  0  0  0
   -1.6332    0.6475   -0.4899 H   0  0  0  0  0  0  0  0  0  0  0  0
   -0.4985    2.0012   -0.5339 H   0  0  0  0  0  0  0  0  0  0  0  0
   -0.5252    0.7841   -2.8002 H   0  0  0  0  0  0  0  0  0  0  0  0
    0.4624    2.0194    2.7062 N   0  0  0  0  0  0  0  0  0  0  0  0
    0.1927    2.8550    3.8528 C   0  0  2  0  0  0  0  0  0  0  0  0
    1.4456    3.6699    4.1459 C   0  0  0  0  0  0  0  0  0  0  0  0
    2.5681    3.3300    3.7780 O   0  0  0  0  0  0  0  0  0  0  0  0
   -0.2099    2.0237    5.0609 C   0  0  0  0  0  0  0  0  0  0  0  0
    1.4191    1.9727    2.3683 H   0  0  0  0  0  0  0  0  0  0  0  0
   -0.6233    3.5283    3.5686 H   0  0  0  0  0  0  0  0  0  0  0  0
    0.5953    1.3430    5.3604 H   0  0  0  0  0  0  0  0  0  0  0  0
   -0.4416    2.6603    5.9212 H   0  0  0  0  0  0  0  0  0  0  0  0
   -1.0936    1.4158    4.8387 H   0  0  0  0  0  0  0  0  0  0  0  0
    1.1683    4.7990    4.9038 N   0  0  0  0  0  0  0  0  0  0  0  0
    2.1921    5.7276    5.3227 C   0  0  0  0  0  0  0  0  0  0  0  0
    0.2058    5.0129    5.1481 H   0  0  0  0  0  0  0  0  0  0  0  0
    2.5621    5.4415    6.3184 H   0  0  0  0  0  0  0  0  0  0  0  0
    3.0234    5.7060    4.6027 H   0  0  0  0  0  0  0  0  0  0  0  0
    1.7708    6.7428    5.3660 H   0  0  0  0  0  0  0  0  0  0  0  0
  1  3  1  0  0  0  0
  1  7  1  0  0  0  0
  1  2  2  0  0  0  0
 29 30  1  0  0  0  0
 30 38  1  0  0  0  0
 30 31  2  0  0  0  0
  8  9  1  0  0  0  0
  9 17  1  0  0  0  0
  9 10  2  0  0  0  0
 18 19  1  0  0  0  0
 19 28  1  0  0  0  0
 19 20  2  0  0  0  0
 29 32  1  0  0  0  0
  8 11  1  0  0  0  0
 38 39  1  0  0  0  0
 18 21  1  0  0  0  0
 21 22  1  0  0  0  0
 28 29  1  0  0  0  0
  7  8  1  0  0  0  0
 17 18  1  0  0  0  0
  3  4  1  0  0  0  0
  3  5  1  0  0  0  0
  3  6  1  0  0  0  0
 32 35  1  0  0  0  0
 32 36  1  0  0  0  0
 32 37  1  0  0  0  0
 11 14  1  0  0  0  0
 11 15  1  0  0  0  0
 11 16  1  0  0  0  0
 39 41  1  0  0  0  0
 39 42  1  0  0  0  0
 39 43  1  0  0  0  0
 21 25  1  0  0  0  0
 21 26  1  0  0  0  0
 29 34  1  0  0  0  0
  8 13  1  0  0  0  0
 18 24  1  0  0  0  0
 38 40  1  0  0  0  0
  7 12  1  0  0  0  0
 28 33  1  0  0  0  0
 17 23  1  0  0  0  0
 22 27  1  0  0  0  0
M  END
$$$$

  -OEChem-05262214473D

 43 42  0     1  0  0  0  0  0999 V2000
   -2.8661   -4.7415    2.2943 C   0  0  0  0  0  0  0  0  0  0  0  0
   -2.0233   -5.5727    2.6109 O   0  0  0  0  0  0  0  0  0  0  0  0
   -4.3078   -5.0134    2.5698 C   0  0  0  0  0  0  0  0  0  0  0  0
   -4.8057   -5.5295    1.7332 H   0  0  0  0  0  0  0  0  0  0  0  0
   -4.4526   -5.6688    3.4436 H   0  0  0  0  0  0  0  0  0  0  0  0
   -4.9255   -4.1233    2.7700 H   0  0  0  0  0  0  0  0  0  0  0  0
   -2.6241   -3.5219    1.6838 N   0  0  0  0  0  0  0  0  0  0  0  0
   -1.3070   -3.0608    1.3315 C   0  0  2  0  0  0  0  0  0  0  0  0
   -1.3931   -1.5680    1.0422 C   0  0  0  0  0  0  0  0  0  0  0  0
   -2.4385   -1.0059    0.7226 O   0  0  0  0  0  0  0  0  0  0  0  0
   -0.7590   -3.8164    0.1309 C   0  0  0  0  0  0  0  0  0  0  0  0
   -3.4188   -2.9207    1.4735 H   0  0  0  0  0  0  0  0  0  0  0  0
   -0.6690   -3.2277    2.2062 H   0  0  0  0  0  0  0  0  0  0  0  0
   -1.3852   -3.6613   -0.7553 H   0  0  0  0  0  0  0  0  0  0  0  0
    0.2542   -3.4843   -0.1182 H   0  0  0  0  0  0  0  0  0  0  0  0
   -0.7257   -4.8930    0.3300 H   0  0  0  0  0  0  0  0  0  0  0  0
   -0.1563   -0.9420    1.1402 N   0  0  0  0  0  0  0  0  0  0  0  0
    0.0261    0.4671    0.9001 C   0  0  2  0  0  0  0  0  0  0  0  0
   -0.5158    1.2469    2.0963 C   0  0  0  0  0  0  0  0  0  0  0  0
   -1.6043    1.0065    2.6149 O   0  0  0  0  0  0  0  0  0  0  0  0
   -0.5723    0.9127   -0.4364 C   0  0  0  0  0  0  0  0  0  0  0  0
    0.2472    0.1781   -1.8894 S   0  0  0  0  0  0  0  0  0  0  0  0
    0.6533   -1.4855    1.4300 H   0  0  0  0  0  0  0  0  0  0  0  0
    1.1117    0.6224    0.8681 H   0  0  0  0  0  0  0  0  0  0  0  0
   -1.6332    0.6475   -0.4899 H   0  0  0  0  0  0  0  0  0  0  0  0
   -0.4985    2.0012   -0.5339 H   0  0  0  0  0  0  0  0  0  0  0  0
   -0.5252    0.7841   -2.8002 H   0  0  0  0  0  0  0  0  0  0  0  0
    0.3467    2.2565    2.4992 N   0  0  0  0  0  0  0  0  0  0  0  0
    0.0512    3.1390    3.6036 C   0  0  2  0  0  0  0  0  0  0  0  0
    1.1324    4.2105    3.6517 C   0  0  0  0  0  0  0  0  0  0  0  0
    2.2474    4.0610    3.1562 O   0  0  0  0  0  0  0  0  0  0  0  0
   -0.0177    2.3769    4.9178 C   0  0  0  0  0  0  0  0  0  0  0  0
    1.2432    2.3634    2.0339 H   0  0  0  0  0  0  0  0  0  0  0  0
   -0.9161    3.6049    3.3860 H   0  0  0  0  0  0  0  0  0  0  0  0
    0.9425    1.9032    5.1526 H   0  0  0  0  0  0  0  0  0  0  0  0
   -0.2699    3.0427    5.7498 H   0  0  0  0  0  0  0  0  0  0  0  0
   -0.7753    1.5872    4.8711 H   0  0  0  0  0  0  0  0  0  0  0  0
    0.7205    5.3366    4.3504 N   0  0  0  0  0  0  0  0  0  0  0  0
    1.5713    6.4872    4.5463 C   0  0  0  0  0  0  0  0  0  0  0  0
   -0.2280    5.3817    4.7111 H   0  0  0  0  0  0  0  0  0  0  0  0
    2.1121    6.3860    5.4988 H   0  0  0  0  0  0  0  0  0  0  0  0
    2.2940    6.5536    3.7197 H   0  0  0  0  0  0  0  0  0  0  0  0
    0.9558    7.3986    4.5693 H   0  0  0  0  0  0  0  0  0  0  0  0
  1  3  1  0  0  0  0
  1  7  1  0  0  0  0
  1  2  2  0  0  0  0
 29 30  1  0  0  0  0
 30 38  1  0  0  0  0
 30 31  2  0  0  0  0
  8  9  1  0  0  0  0
  9 17  1  0  0  0  0
  9 10  2  0  0  0  0
 18 19  1  0  0  0  0
 19 28  1  0  0  0  0
 19 20  2  0  0  0  0
 29 32  1  0  0  0  0
  8 11  1  0  0  0  0
 38 39  1  0  0  0  0
 18 21  1  0  0  0  0
 21 22  1  0  0  0  0
 28 29  1  0  0  0  0
  7  8  1  0  0  0  0
 17 18  1  0  0  0  0
  3  4  1  0  0  0  0
  3  5  1  0  0  0  0
  3  6  1  0  0  0  0
 32 35  1  0  0  0  0
 32 36  1  0  0  0  0
 32 37  1  0  0  0  0
 11 14  1  0  0  0  0
 11 15  1  0  0  0  0
 11 16  1  0  0  0  0
 39 41  1  0  0  0  0
 39 42  1  0  0  0  0
 39 43  1  0  0  0  0
 21 25  1  0  0  0  0
 21 26  1  0  0  0  0
 29 34  1  0  0  0  0
  8 13  1  0  0  0  0
 18 24  1  0  0  0  0
 38 40  1  0  0  0  0
  7 12  1  0  0  0  0
 28 33  1  0  0  0  0
 17 23  1  0  0  0  0
 22 27  1  0  0  0  0
M  END
$$$$

  -OEChem-05262214473D

 43 42  0     1  0  0  0  0  0999 V2000
   -2.8661   -4.7415    2.2943 C   0  0  0  0  0  0  0  0  0  0  0  0
   -2.0233   -5.5727    2.6109 O   0  0  0  0  0  0  0  0  0  0  0  0
   -4.3078   -5.0134    2.5698 C   0  0  0  0  0  0  0  0  0  0  0  0
   -4.8057   -5.5295    1.7332 H   0  0  0  0  0  0  0  0  0  0  0  0
   -4.4526   -5.6688    3.4436 H   0  0  0  0  0  0  0  0  0  0  0  0
   -4.9255   -4.1233    2.7700 H   0  0  0  0  0  0  0  0  0  0  0  0
   -2.6241   -3.5219    1.6838 N   0  0  0  0  0  0  0  0  0  0  0  0
   -1.3070   -3.0608    1.3315 C   0  0  2  0  0  0  0  0  0  0  0  0
   -1.3931   -1.5680    1.0422 C   0  0  0  0  0  0  0  0  0  0  0  0
   -2.4385   -1.0059    0.7226 O   0  0  0  0  0  0  0  0  0  0  0  0
   -0.7590   -3.8164    0.1309 C   0  0  0  0  0  0  0  0  0  0  0  0
   -3.4188   -2.9207    1.4735 H   0  0  0  0  0  0  0  0  0  0  0  0
   -0.6690   -3.2277    2.2062 H   0  0  0  0  0  0  0  0  0  0  0  0
   -1.3852   -3.6613   -0.7553 H   0  0  0  0  0  0  0  0  0  0  0  0
    0.2542   -3.4843   -0.1182 H   0  0  0  0  0  0  0  0  0  0  0  0
   -0.7257   -4.8930    0.3300 H   0  0  0  0  0  0  0  0  0  0  0  0
   -0.1563   -0.9420    1.1402 N   0  0  0  0  0  0  0  0  0  0  0  0
    0.0261    0.4671    0.9001 C   0  0  2  0  0  0  0  0  0  0  0  0
   -0.5158    1.2469    2.0963 C   0  0  0  0  0  0  0  0  0  0  0  0
   -1.4580    0.8533    2.7810 O   0  0  0  0  0  0  0  0  0  0  0  0
   -0.5723    0.9127   -0.4364 C   0  0  0  0  0  0  0  0  0  0  0  0
    0.2472    0.1781   -1.8894 S   0  0  0  0  0  0  0  0  0  0  0  0
    0.6533   -1.4855    1.4300 H   0  0  0  0  0  0  0  0  0  0  0  0
    1.1117    0.6224    0.8681 H   0  0  0  0  0  0  0  0  0  0  0  0
   -1.6332    0.6475   -0.4899 H   0  0  0  0  0  0  0  0  0  0  0  0
   -0.4985    2.0012   -0.5339 H   0  0  0  0  0  0  0  0  0  0  0  0
   -0.5252    0.7841   -2.8002 H   0  0  0  0  0  0  0  0  0  0  0  0
    0.1595    2.4431    2.2928 N   0  0  0  0  0  0  0  0  0  0  0  0
   -0.1761    3.3618    3.3554 C   0  0  2  0  0  0  0  0  0  0  0  0
    0.6551    4.6238    3.1659 C   0  0  0  0  0  0  0  0  0  0  0  0
    1.7073    4.6450    2.5308 O   0  0  0  0  0  0  0  0  0  0  0  0
    0.0776    2.7439    4.7217 C   0  0  0  0  0  0  0  0  0  0  0  0
    0.9500    2.6744    1.6983 H   0  0  0  0  0  0  0  0  0  0  0  0
   -1.2385    3.6029    3.2412 H   0  0  0  0  0  0  0  0  0  0  0  0
    1.1369    2.4956    4.8545 H   0  0  0  0  0  0  0  0  0  0  0  0
   -0.2042    3.4311    5.5263 H   0  0  0  0  0  0  0  0  0  0  0  0
   -0.4983    1.8203    4.8447 H   0  0  0  0  0  0  0  0  0  0  0  0
    0.1059    5.7143    3.8258 N   0  0  0  0  0  0  0  0  0  0  0  0
    0.7150    7.0238    3.8086 C   0  0  0  0  0  0  0  0  0  0  0  0
   -0.7795    5.6099    4.3125 H   0  0  0  0  0  0  0  0  0  0  0  0
    1.3777    7.1319    4.6799 H   0  0  0  0  0  0  0  0  0  0  0  0
    1.3010    7.1433    2.8853 H   0  0  0  0  0  0  0  0  0  0  0  0
   -0.0697    7.7936    3.8471 H   0  0  0  0  0  0  0  0  0  0  0  0
  1  3  1  0  0  0  0
  1  7  1  0  0  0  0
  1  2  2  0  0  0  0
 29 30  1  0  0  0  0
 30 38  1  0  0  0  0
 30 31  2  0  0  0  0
  8  9  1  0  0  0  0
  9 17  1  0  0  0  0
  9 10  2  0  0  0  0
 18 19  1  0  0  0  0
 19 28  1  0  0  0  0
 19 20  2  0  0  0  0
 29 32  1  0  0  0  0
  8 11  1  0  0  0  0
 38 39  1  0  0  0  0
 18 21  1  0  0  0  0
 21 22  1  0  0  0  0
 28 29  1  0  0  0  0
  7  8  1  0  0  0  0
 17 18  1  0  0  0  0
  3  4  1  0  0  0  0
  3  5  1  0  0  0  0
  3  6  1  0  0  0  0
 32 35  1  0  0  0  0
 32 36  1  0  0  0  0
 32 37  1  0  0  0  0
 11 14  1  0  0  0  0
 11 15  1  0  0  0  0
 11 16  1  0  0  0  0
 39 41  1  0  0  0  0
 39 42  1  0  0  0  0
 39 43  1  0  0  0  0
 21 25  1  0  0  0  0
 21 26  1  0  0  0  0
 29 34  1  0  0  0  0
  8 13  1  0  0  0  0
 18 24  1  0  0  0  0
 38 40  1  0  0  0  0
  7 12  1  0  0  0  0
 28 33  1  0  0  0  0
 17 23  1  0  0  0  0
 22 27  1  0  0  0  0
M  END
$$$$

  -OEChem-05262214473D

 43 42  0     1  0  0  0  0  0999 V2000
   -2.8661   -4.7415    2.2943 C   0  0  0  0  0  0  0  0  0  0  0  0
   -2.0233   -5.5727    2.6109 O   0  0  0  0  0  0  0  0  0  0  0  0
   -4.3078   -5.0134    2.5698 C   0  0  0  0  0  0  0  0  0  0  0  0
   -4.8057   -5.5295    1.7332 H   0  0  0  0  0  0  0  0  0  0  0  0
   -4.4526   -5.6688    3.4436 H   0  0  0  0  0  0  0  0  0  0  0  0
   -4.9255   -4.1233    2.7700 H   0  0  0  0  0  0  0  0  0  0  0  0
   -2.6241   -3.5219    1.6838 N   0  0  0  0  0  0  0  0  0  0  0  0
   -1.3070   -3.0608    1.3315 C   0  0  2  0  0  0  0  0  0  0  0  0
   -1.3931   -1.5680    1.0422 C   0  0  0  0  0  0  0  0  0  0  0  0
   -2.4385   -1.0059    0.7226 O   0  0  0  0  0  0  0  0  0  0  0  0
   -0.7590   -3.8164    0.1309 C   0  0  0  0  0  0  0  0  0  0  0  0
   -3.4188   -2.9207    1.4735 H   0  0  0  0  0  0  0  0  0  0  0  0
   -0.6690   -3.2277    2.2062 H   0  0  0  0  0  0  0  0  0  0  0  0
   -1.3852   -3.6613   -0.7553 H   0  0  0  0  0  0  0  0  0  0  0  0
    0.2542   -3.4843   -0.1182 H   0  0  0  0  0  0  0  0  0  0  0  0
   -0.7257   -4.8930    0.3300 H   0  0  0  0  0  0  0  0  0  0  0  0
   -0.1563   -0.9420    1.1402 N   0  0  0  0  0  0  0  0  0  0  0  0
    0.0261    0.4671    0.9001 C   0  0  2  0  0  0  0  0  0  0  0  0
   -0.5158    1.2469    2.0963 C   0  0  0  0  0  0  0  0  0  0  0  0
   -1.2638    0.7502    2.9362 O   0  0  0  0  0  0  0  0  0  0  0  0
   -0.5723    0.9127   -0.4364 C   0  0  0  0  0  0  0  0  0  0  0  0
    0.2472    0.1781   -1.8894 S   0  0  0  0  0  0  0  0  0  0  0  0
    0.6533   -1.4855    1.4300 H   0  0  0  0  0  0  0  0  0  0  0  0
    1.1117    0.6224    0.8681 H   0  0  0  0  0  0  0  0  0  0  0  0
   -1.6332    0.6475   -0.4899 H   0  0  0  0  0  0  0  0  0  0  0  0
   -0.4985    2.0012   -0.5339 H   0  0  0  0  0  0  0  0  0  0  0  0
   -0.5252    0.7841   -2.8002 H   0  0  0  0  0  0  0  0  0  0  0  0
   -0.0863    2.5664    2.1010 N   0  0  0  0  0  0  0  0  0  0  0  0
   -0.4735    3.5081    3.1253 C   0  0  2  0  0  0  0  0  0  0  0  0
    0.0460    4.8817    2.7219 C   0  0  0  0  0  0  0  0  0  0  0  0
    0.9846    5.0422    1.9445 O   0  0  0  0  0  0  0  0  0  0  0  0
    0.0692    3.0997    4.4860 C   0  0  0  0  0  0  0  0  0  0  0  0
    0.5593    2.8845    1.3843 H   0  0  0  0  0  0  0  0  0  0  0  0
   -1.5687    3.5222    3.1442 H   0  0  0  0  0  0  0  0  0  0  0  0
    1.1651    3.0799    4.4864 H   0  0  0  0  0  0  0  0  0  0  0  0
   -0.2490    3.7991    5.2662 H   0  0  0  0  0  0  0  0  0  0  0  0
   -0.2815    2.0992    4.7612 H   0  0  0  0  0  0  0  0  0  0  0  0
   -0.6337    5.9064    3.3655 N   0  0  0  0  0  0  0  0  0  0  0  0
   -0.3183    7.3007    3.1599 C   0  0  0  0  0  0  0  0  0  0  0  0
   -1.4112    5.6819    3.9794 H   0  0  0  0  0  0  0  0  0  0  0  0
    0.4089    7.6283    3.9174 H   0  0  0  0  0  0  0  0  0  0  0  0
    0.1120    7.4351    2.1564 H   0  0  0  0  0  0  0  0  0  0  0  0
   -1.2357    7.9010    3.2488 H   0  0  0  0  0  0  0  0  0  0  0  0
  1  3  1  0  0  0  0
  1  7  1  0  0  0  0
  1  2  2  0  0  0  0
 29 30  1  0  0  0  0
 30 38  1  0  0  0  0
 30 31  2  0  0  0  0
  8  9  1  0  0  0  0
  9 17  1  0  0  0  0
  9 10  2  0  0  0  0
 18 19  1  0  0  0  0
 19 28  1  0  0  0  0
 19 20  2  0  0  0  0
 29 32  1  0  0  0  0
  8 11  1  0  0  0  0
 38 39  1  0  0  0  0
 18 21  1  0  0  0  0
 21 22  1  0  0  0  0
 28 29  1  0  0  0  0
  7  8  1  0  0  0  0
 17 18  1  0  0  0  0
  3  4  1  0  0  0  0
  3  5  1  0  0  0  0
  3  6  1  0  0  0  0
 32 35  1  0  0  0  0
 32 36  1  0  0  0  0
 32 37  1  0  0  0  0
 11 14  1  0  0  0  0
 11 15  1  0  0  0  0
 11 16  1  0  0  0  0
 39 41  1  0  0  0  0
 39 42  1  0  0  0  0
 39 43  1  0  0  0  0
 21 25  1  0  0  0  0
 21 26  1  0  0  0  0
 29 34  1  0  0  0  0
  8 13  1  0  0  0  0
 18 24  1  0  0  0  0
 38 40  1  0  0  0  0
  7 12  1  0  0  0  0
 28 33  1  0  0  0  0
 17 23  1  0  0  0  0
 22 27  1  0  0  0  0
M  END
$$$$

  -OEChem-05262214473D

 43 42  0     1  0  0  0  0  0999 V2000
   -2.8661   -4.7415    2.2943 C   0  0  0  0  0  0  0  0  0  0  0  0
   -2.0233   -5.5727    2.6109 O   0  0  0  0  0  0  0  0  0  0  0  0
   -4.3078   -5.0134    2.5698 C   0  0  0  0  0  0  0  0  0  0  0  0
   -4.8057   -5.5295    1.7332 H   0  0  0  0  0  0  0  0  0  0  0  0
   -4.4526   -5.6688    3.4436 H   0  0  0  0  0  0  0  0  0  0  0  0
   -4.9255   -4.1233    2.7700 H   0  0  0  0  0  0  0  0  0  0  0  0
   -2.6241   -3.5219    1.6838 N   0  0  0  0  0  0  0  0  0  0  0  0
   -1.3070   -3.0608    1.3315 C   0  0  2  0  0  0  0  0  0  0  0  0
   -1.3931   -1.5680    1.0422 C   0  0  0  0  0  0  0  0  0  0  0  0
   -2.4385   -1.0059    0.7226 O   0  0  0  0  0  0  0  0  0  0  0  0
   -0.7590   -3.8164    0.1309 C   0  0  0  0  0  0  0  0  0  0  0  0
   -3.4188   -2.9207    1.4735 H   0  0  0  0  0  0  0  0  0  0  0  0
   -0.6690   -3.2277    2.2062 H   0  0  0  0  0  0  0  0  0  0  0  0
   -1.3852   -3.6613   -0.7553 H   0  0  0  0  0  0  0  0  0  0  0  0
    0.2542   -3.4843   -0.1182 H   0  0  0  0  0  0  0  0  0  0  0  0
   -0.7257   -4.8930    0.3300 H   0  0  0  0  0  0  0  0  0  0  0  0
   -0.1563   -0.9420    1.1402 N   0  0  0  0  0  0  0  0  0  0  0  0
    0.0261    0.4671    0.9001 C   0  0  2  0  0  0  0  0  0  0  0  0
   -0.1589    1.2210    2.2155 C   0  0  0  0  0  0  0  0  0  0  0  0
   -0.4404    0.6621    3.2737 O   0  0  0  0  0  0  0  0  0  0  0  0
   -0.8685    0.9865   -0.2281 C   0  0  0  0  0  0  0  0  0  0  0  0
   -0.4779    0.2769   -1.8610 S   0  0  0  0  0  0  0  0  0  0  0  0
    0.6533   -1.4855    1.4300 H   0  0  0  0  0  0  0  0  0  0  0  0
    1.0746    0.5812    0.5978 H   0  0  0  0  0  0  0  0  0  0  0  0
   -1.9199    0.7651   -0.0178 H   0  0  0  0  0  0  0  0  0  0  0  0
   -0.7702    2.0743   -0.3114 H   0  0  0  0  0  0  0  0  0  0  0  0
   -1.4256    0.9469   -2.5290 H   0  0  0  0  0  0  0  0  0  0  0  0
    0.0027    2.5907    2.0627 N   0  0  0  0  0  0  0  0  0  0  0  0
   -0.1337    3.5185    3.1611 C   0  0  2  0  0  0  0  0  0  0  0  0
   -0.0516    4.9307    2.5967 C   0  0  0  0  0  0  0  0  0  0  0  0
    0.4859    5.1937    1.5229 O   0  0  0  0  0  0  0  0  0  0  0  0
    0.9395    3.2908    4.2142 C   0  0  0  0  0  0  0  0  0  0  0  0
    0.2682    2.9648    1.1565 H   0  0  0  0  0  0  0  0  0  0  0  0
   -1.1271    3.3541    3.5924 H   0  0  0  0  0  0  0  0  0  0  0  0
    1.9418    3.4509    3.8005 H   0  0  0  0  0  0  0  0  0  0  0  0
    0.8175    3.9761    5.0596 H   0  0  0  0  0  0  0  0  0  0  0  0
    0.8981    2.2656    4.5976 H   0  0  0  0  0  0  0  0  0  0  0  0
   -0.6109    5.8684    3.4534 N   0  0  0  0  0  0  0  0  0  0  0  0
   -0.6448    7.2799    3.1493 C   0  0  0  0  0  0  0  0  0  0  0  0
   -1.0514    5.5584    4.3146 H   0  0  0  0  0  0  0  0  0  0  0  0
    0.2426    7.7691    3.5772 H   0  0  0  0  0  0  0  0  0  0  0  0
   -0.6502    7.4198    2.0583 H   0  0  0  0  0  0  0  0  0  0  0  0
   -1.5531    7.7261    3.5806 H   0  0  0  0  0  0  0  0  0  0  0  0
  1  3  1  0  0  0  0
  1  7  1  0  0  0  0
  1  2  2  0  0  0  0
 29 30  1  0  0  0  0
 30 38  1  0  0  0  0
 30 31  2  0  0  0  0
  8  9  1  0  0  0  0
  9 17  1  0  0  0  0
  9 10  2  0  0  0  0
 18 19  1  0  0  0  0
 19 28  1  0  0  0  0
 19 20  2  0  0  0  0
 29 32  1  0  0  0  0
  8 11  1  0  0  0  0
 38 39  1  0  0  0  0
 18 21  1  0  0  0  0
 21 22  1  0  0  0  0
 28 29  1  0  0  0  0
  7  8  1  0  0  0  0
 17 18  1  0  0  0  0
  3  4  1  0  0  0  0
  3  5  1  0  0  0  0
  3  6  1  0  0  0  0
 32 35  1  0  0  0  0
 32 36  1  0  0  0  0
 32 37  1  0  0  0  0
 11 14  1  0  0  0  0
 11 15  1  0  0  0  0
 11 16  1  0  0  0  0
 39 41  1  0  0  0  0
 39 42  1  0  0  0  0
 39 43  1  0  0  0  0
 21 25  1  0  0  0  0
 21 26  1  0  0  0  0
 29 34  1  0  0  0  0
  8 13  1  0  0  0  0
 18 24  1  0  0  0  0
 38 40  1  0  0  0  0
  7 12  1  0  0  0  0
 28 33  1  0  0  0  0
 17 23  1  0  0  0  0
 22 27  1  0  0  0  0
M  END
$$$$

  -OEChem-05262214473D

 43 42  0     1  0  0  0  0  0999 V2000
   -2.8661   -4.7415    2.2943 C   0  0  0  0  0  0  0  0  0  0  0  0
   -2.0233   -5.5727    2.6109 O   0  0  0  0  0  0  0  0  0  0  0  0
   -4.3078   -5.0134    2.5698 C   0  0  0  0  0  0  0  0  0  0  0  0
   -4.8057   -5.5295    1.7332 H   0  0  0  0  0  0  0  0  0  0  0  0
   -4.4526   -5.6688    3.4436 H   0  0  0  0  0  0  0  0  0  0  0  0
   -4.9255   -4.1233    2.7700 H   0  0  0  0  0  0  0  0  0  0  0  0
   -2.6241   -3.5219    1.6838 N   0  0  0  0  0  0  0  0  0  0  0  0
   -1.3070   -3.0608    1.3315 C   0  0  2  0  0  0  0  0  0  0  0  0
   -1.3931   -1.5680    1.0422 C   0  0  0  0  0  0  0  0  0  0  0  0
   -2.4385   -1.0059    0.7226 O   0  0  0  0  0  0  0  0  0  0  0  0
   -0.7590   -3.8164    0.1309 C   0  0  0  0  0  0  0  0  0  0  0  0
   -3.4188   -2.9207    1.4735 H   0  0  0  0  0  0  0  0  0  0  0  0
   -0.6690   -3.2277    2.2062 H   0  0  0  0  0  0  0  0  0  0  0  0
   -1.3852   -3.6613   -0.7553 H   0  0  0  0  0  0  0  0  0  0  0  0
    0.2542   -3.4843   -0.1182 H   0  0  0  0  0  0  0  0  0  0  0  0
   -0.7257   -4.8930    0.3300 H   0  0  0  0  0  0  0  0  0  0  0  0
   -0.1563   -0.9420    1.1402 N   0  0  0  0  0  0  0  0  0  0  0  0
    0.0261    0.4671    0.9001 C   0  0  2  0  0  0  0  0  0  0  0  0
   -0.1589    1.2210    2.2155 C   0  0  0  0  0  0  0  0  0  0  0  0
   -0.1738    0.6628    3.3108 O   0  0  0  0  0  0  0  0  0  0  0  0
   -0.8685    0.9865   -0.2281 C   0  0  0  0  0  0  0  0  0  0  0  0
   -0.4779    0.2769   -1.8610 S   0  0  0  0  0  0  0  0  0  0  0  0
    0.6533   -1.4855    1.4300 H   0  0  0  0  0  0  0  0  0  0  0  0
    1.0746    0.5812    0.5978 H   0  0  0  0  0  0  0  0  0  0  0  0
   -1.9199    0.7651   -0.0178 H   0  0  0  0  0  0  0  0  0  0  0  0
   -0.7702    2.0743   -0.3114 H   0  0  0  0  0  0  0  0  0  0  0  0
   -1.4256    0.9469   -2.5290 H   0  0  0  0  0  0  0  0  0  0  0  0
   -0.3298    2.5841    2.0197 N   0  0  0  0  0  0  0  0  0  0  0  0
   -0.5339    3.5082    3.1107 C   0  0  2  0  0  0  0  0  0  0  0  0
   -0.8423    4.8762    2.5167 C   0  0  0  0  0  0  0  0  0  0  0  0
   -0.5154    5.2020    1.3773 O   0  0  0  0  0  0  0  0  0  0  0  0
    0.6853    3.5717    4.0175 C   0  0  0  0  0  0  0  0  0  0  0  0
   -0.2699    2.9656    1.0803 H   0  0  0  0  0  0  0  0  0  0  0  0
   -1.4034    3.1484    3.6714 H   0  0  0  0  0  0  0  0  0  0  0  0
    1.5665    3.9301    3.4731 H   0  0  0  0  0  0  0  0  0  0  0  0
    0.5182    4.2511    4.8599 H   0  0  0  0  0  0  0  0  0  0  0  0
    0.9234    2.5813    4.4202 H   0  0  0  0  0  0  0  0  0  0  0  0
   -1.4874    5.7055    3.4235 N   0  0  0  0  0  0  0  0  0  0  0  0
   -1.8755    7.0592    3.1027 C   0  0  0  0  0  0  0  0  0  0  0  0
   -1.7364    5.3457    4.3402 H   0  0  0  0  0  0  0  0  0  0  0  0
   -1.0747    7.7514    3.4021 H   0  0  0  0  0  0  0  0  0  0  0  0
   -2.0476    7.1443    2.0196 H   0  0  0  0  0  0  0  0  0  0  0  0
   -2.8000    7.3131    3.6420 H   0  0  0  0  0  0  0  0  0  0  0  0
  1  3  1  0  0  0  0
  1  7  1  0  0  0  0
  1  2  2  0  0  0  0
 29 30  1  0  0  0  0
 30 38  1  0  0  0  0
 30 31  2  0  0  0  0
  8  9  1  0  0  0  0
  9 17  1  0  0  0  0
  9 10  2  0  0  0  0
 18 19  1  0  0  0  0
 19 28  1  0  0  0  0
 19 20  2  0  0  0  0
 29 32  1  0  0  0  0
  8 11  1  0  0  0  0
 38 39  1  0  0  0  0
 18 21  1  0  0  0  0
 21 22  1  0  0  0  0
 28 29  1  0  0  0  0
  7  8  1  0  0  0  0
 17 18  1  0  0  0  0
  3  4  1  0  0  0  0
  3  5  1  0  0  0  0
  3  6  1  0  0  0  0
 32 35  1  0  0  0  0
 32 36  1  0  0  0  0
 32 37  1  0  0  0  0
 11 14  1  0  0  0  0
 11 15  1  0  0  0  0
 11 16  1  0  0  0  0
 39 41  1  0  0  0  0
 39 42  1  0  0  0  0
 39 43  1  0  0  0  0
 21 25  1  0  0  0  0
 21 26  1  0  0  0  0
 29 34  1  0  0  0  0
  8 13  1  0  0  0  0
 18 24  1  0  0  0  0
 38 40  1  0  0  0  0
  7 12  1  0  0  0  0
 28 33  1  0  0  0  0
 17 23  1  0  0  0  0
 22 27  1  0  0  0  0
M  END
$$$$

  -OEChem-05262214473D

 43 42  0     1  0  0  0  0  0999 V2000
   -2.8661   -4.7415    2.2943 C   0  0  0  0  0  0  0  0  0  0  0  0
   -2.0233   -5.5727    2.6109 O   0  0  0  0  0  0  0  0  0  0  0  0
   -4.3078   -5.0134    2.5698 C   0  0  0  0  0  0  0  0  0  0  0  0
   -4.8057   -5.5295    1.7332 H   0  0  0  0  0  0  0  0  0  0  0  0
   -4.4526   -5.6688    3.4436 H   0  0  0  0  0  0  0  0  0  0  0  0
   -4.9255   -4.1233    2.7700 H   0  0  0  0  0  0  0  0  0  0  0  0
   -2.6241   -3.5219    1.6838 N   0  0  0  0  0  0  0  0  0  0  0  0
   -1.3070   -3.0608    1.3315 C   0  0  2  0  0  0  0  0  0  0  0  0
   -1.3931   -1.5680    1.0422 C   0  0  0  0  0  0  0  0  0  0  0  0
   -2.4385   -1.0059    0.7226 O   0  0  0  0  0  0  0  0  0  0  0  0
   -0.7590   -3.8164    0.1309 C   0  0  0  0  0  0  0  0  0  0  0  0
   -3.4188   -2.9207    1.4735 H   0  0  0  0  0  0  0  0  0  0  0  0
   -0.6690   -3.2277    2.2062 H   0  0  0  0  0  0  0  0  0  0  0  0
   -1.3852   -3.6613   -0.7553 H   0  0  0  0  0  0  0  0  0  0  0  0
    0.2542   -3.4843   -0.1182 H   0  0  0  0  0  0  0  0  0  0  0  0
   -0.7257   -4.8930    0.3300 H   0  0  0  0  0  0  0  0  0  0  0  0
   -0.1563   -0.9420    1.1402 N   0  0  0  0  0  0  0  0  0  0  0  0
    0.0261    0.4671    0.9001 C   0  0  2  0  0  0  0  0  0  0  0  0
   -0.1589    1.2210    2.2155 C   0  0  0  0  0  0  0  0  0  0  0  0
    0.0883    0.7241    3.3125 O   0  0  0  0  0  0  0  0  0  0  0  0
   -0.8685    0.9865   -0.2281 C   0  0  0  0  0  0  0  0  0  0  0  0
   -0.4779    0.2769   -1.8610 S   0  0  0  0  0  0  0  0  0  0  0  0
    0.6533   -1.4855    1.4300 H   0  0  0  0  0  0  0  0  0  0  0  0
    1.0746    0.5812    0.5978 H   0  0  0  0  0  0  0  0  0  0  0  0
   -1.9199    0.7651   -0.0178 H   0  0  0  0  0  0  0  0  0  0  0  0
   -0.7702    2.0743   -0.3114 H   0  0  0  0  0  0  0  0  0  0  0  0
   -1.4256    0.9469   -2.5290 H   0  0  0  0  0  0  0  0  0  0  0  0
   -0.6550    2.5022    2.0209 N   0  0  0  0  0  0  0  0  0  0  0  0
   -0.9246    3.4074    3.1135 C   0  0  2  0  0  0  0  0  0  0  0  0
   -1.6042    4.6449    2.5421 C   0  0  0  0  0  0  0  0  0  0  0  0
   -1.5031    4.9822    1.3644 O   0  0  0  0  0  0  0  0  0  0  0  0
    0.3519    3.7801    3.8512 C   0  0  0  0  0  0  0  0  0  0  0  0
   -0.7996    2.8441    1.0755 H   0  0  0  0  0  0  0  0  0  0  0  0
   -1.6144    2.8906    3.7895 H   0  0  0  0  0  0  0  0  0  0  0  0
    1.0554    4.2990    3.1898 H   0  0  0  0  0  0  0  0  0  0  0  0
    0.1423    4.4437    4.6966 H   0  0  0  0  0  0  0  0  0  0  0  0
    0.8549    2.8863    4.2358 H   0  0  0  0  0  0  0  0  0  0  0  0
   -2.3016    5.3519    3.5117 N   0  0  0  0  0  0  0  0  0  0  0  0
   -3.0209    6.5703    3.2218 C   0  0  0  0  0  0  0  0  0  0  0  0
   -2.3474    4.9884    4.4590 H   0  0  0  0  0  0  0  0  0  0  0  0
   -2.3656    7.4352    3.4017 H   0  0  0  0  0  0  0  0  0  0  0  0
   -3.3409    6.5655    2.1694 H   0  0  0  0  0  0  0  0  0  0  0  0
   -3.9045    6.6381    3.8734 H   0  0  0  0  0  0  0  0  0  0  0  0
  1  3  1  0  0  0  0
  1  7  1  0  0  0  0
  1  2  2  0  0  0  0
 29 30  1  0  0  0  0
 30 38  1  0  0  0  0
 30 31  2  0  0  0  0
  8  9  1  0  0  0  0
  9 17  1  0  0  0  0
  9 10  2  0  0  0  0
 18 19  1  0  0  0  0
 19 28  1  0  0  0  0
 19 20  2  0  0  0  0
 29 32  1  0  0  0  0
  8 11  1  0  0  0  0
 38 39  1  0  0  0  0
 18 21  1  0  0  0  0
 21 22  1  0  0  0  0
 28 29  1  0  0  0  0
  7  8  1  0  0  0  0
 17 18  1  0  0  0  0
  3  4  1  0  0  0  0
  3  5  1  0  0  0  0
  3  6  1  0  0  0  0
 32 35  1  0  0  0  0
 32 36  1  0  0  0  0
 32 37  1  0  0  0  0
 11 14  1  0  0  0  0
 11 15  1  0  0  0  0
 11 16  1  0  0  0  0
 39 41  1  0  0  0  0
 39 42  1  0  0  0  0
 39 43  1  0  0  0  0
 21 25  1  0  0  0  0
 21 26  1  0  0  0  0
 29 34  1  0  0  0  0
  8 13  1  0  0  0  0
 18 24  1  0  0  0  0
 38 40  1  0  0  0  0
  7 12  1  0  0  0  0
 28 33  1  0  0  0  0
 17 23  1  0  0  0  0
 22 27  1  0  0  0  0
M  END
$$$$

  -OEChem-05262214473D

 43 42  0     1  0  0  0  0  0999 V2000
   -2.8661   -4.7415    2.2943 C   0  0  0  0  0  0  0  0  0  0  0  0
   -2.0233   -5.5727    2.6109 O   0  0  0  0  0  0  0  0  0  0  0  0
   -4.3078   -5.0134    2.5698 C   0  0  0  0  0  0  0  0  0  0  0  0
   -4.8057   -5.5295    1.7332 H   0  0  0  0  0  0  0  0  0  0  0  0
   -4.4526   -5.6688    3.4436 H   0  0  0  0  0  0  0  0  0  0  0  0
   -4.9255   -4.1233    2.7700 H   0  0  0  0  0  0  0  0  0  0  0  0
   -2.6241   -3.5219    1.6838 N   0  0  0  0  0  0  0  0  0  0  0  0
   -1.3070   -3.0608    1.3315 C   0  0  2  0  0  0  0  0  0  0  0  0
   -1.3931   -1.5680    1.0422 C   0  0  0  0  0  0  0  0  0  0  0  0
   -2.4385   -1.0059    0.7226 O   0  0  0  0  0  0  0  0  0  0  0  0
   -0.7590   -3.8164    0.1309 C   0  0  0  0  0  0  0  0  0  0  0  0
   -3.4188   -2.9207    1.4735 H   0  0  0  0  0  0  0  0  0  0  0  0
   -0.6690   -3.2277    2.2062 H   0  0  0  0  0  0  0  0  0  0  0  0
   -1.3852   -3.6613   -0.7553 H   0  0  0  0  0  0  0  0  0  0  0  0
    0.2542   -3.4843   -0.1182 H   0  0  0  0  0  0  0  0  0  0  0  0
   -0.7257   -4.8930    0.3300 H   0  0  0  0  0  0  0  0  0  0  0  0
   -0.1563   -0.9420    1.1402 N   0  0  0  0  0  0  0  0  0  0  0  0
    0.0261    0.4671    0.9001 C   0  0  2  0  0  0  0  0  0  0  0  0
   -0.1589    1.2210    2.2155 C   0  0  0  0  0  0  0  0  0  0  0  0
    0.3280    0.8418    3.2788 O   0  0  0  0  0  0  0  0  0  0  0  0
   -0.8685    0.9865   -0.2281 C   0  0  0  0  0  0  0  0  0  0  0  0
   -0.4779    0.2769   -1.8610 S   0  0  0  0  0  0  0  0  0  0  0  0
    0.6533   -1.4855    1.4300 H   0  0  0  0  0  0  0  0  0  0  0  0
    1.0746    0.5812    0.5978 H   0  0  0  0  0  0  0  0  0  0  0  0
   -1.9199    0.7651   -0.0178 H   0  0  0  0  0  0  0  0  0  0  0  0
   -0.7702    2.0743   -0.3114 H   0  0  0  0  0  0  0  0  0  0  0  0
   -1.4256    0.9469   -2.5290 H   0  0  0  0  0  0  0  0  0  0  0  0
   -0.9507    2.3507    2.0661 N   0  0  0  0  0  0  0  0  0  0  0  0
   -1.2792    3.2231    3.1692 C   0  0  2  0  0  0  0  0  0  0  0  0
   -2.2853    4.2524    2.6713 C   0  0  0  0  0  0  0  0  0  0  0  0
   -2.4097    4.5494    1.4849 O   0  0  0  0  0  0  0  0  0  0  0  0
   -0.0378    3.9020    3.7266 C   0  0  0  0  0  0  0  0  0  0  0  0
   -1.2848    2.6085    1.1422 H   0  0  0  0  0  0  0  0  0  0  0  0
   -1.7456    2.5982    3.9386 H   0  0  0  0  0  0  0  0  0  0  0  0
    0.4433    4.5325    2.9699 H   0  0  0  0  0  0  0  0  0  0  0  0
   -0.2846    4.5409    4.5809 H   0  0  0  0  0  0  0  0  0  0  0  0
    0.6971    3.1599    4.0568 H   0  0  0  0  0  0  0  0  0  0  0  0
   -2.9979    4.8316    3.7119 N   0  0  0  0  0  0  0  0  0  0  0  0
   -4.0031    5.8464    3.4985 C   0  0  0  0  0  0  0  0  0  0  0  0
   -2.8427    4.5107    4.6631 H   0  0  0  0  0  0  0  0  0  0  0  0
   -3.5420    6.8421    3.5762 H   0  0  0  0  0  0  0  0  0  0  0  0
   -4.4420    5.7228    2.4975 H   0  0  0  0  0  0  0  0  0  0  0  0
   -4.7914    5.7472    4.2593 H   0  0  0  0  0  0  0  0  0  0  0  0
  1  3  1  0  0  0  0
  1  7  1  0  0  0  0
  1  2  2  0  0  0  0
 29 30  1  0  0  0  0
 30 38  1  0  0  0  0
 30 31  2  0  0  0  0
  8  9  1  0  0  0  0
  9 17  1  0  0  0  0
  9 10  2  0  0  0  0
 18 19  1  0  0  0  0
 19 28  1  0  0  0  0
 19 20  2  0  0  0  0
 29 32  1  0  0  0  0
  8 11  1  0  0  0  0
 38 39  1  0  0  0  0
 18 21  1  0  0  0  0
 21 22  1  0  0  0  0
 28 29  1  0  0  0  0
  7  8  1  0  0  0  0
 17 18  1  0  0  0  0
  3  4  1  0  0  0  0
  3  5  1  0  0  0  0
  3  6  1  0  0  0  0
 32 35  1  0  0  0  0
 32 36  1  0  0  0  0
 32 37  1  0  0  0  0
 11 14  1  0  0  0  0
 11 15  1  0  0  0  0
 11 16  1  0  0  0  0
 39 41  1  0  0  0  0
 39 42  1  0  0  0  0
 39 43  1  0  0  0  0
 21 25  1  0  0  0  0
 21 26  1  0  0  0  0
 29 34  1  0  0  0  0
  8 13  1  0  0  0  0
 18 24  1  0  0  0  0
 38 40  1  0  0  0  0
  7 12  1  0  0  0  0
 28 33  1  0  0  0  0
 17 23  1  0  0  0  0
 22 27  1  0  0  0  0
M  END
$$$$

  -OEChem-05262214473D

 43 42  0     1  0  0  0  0  0999 V2000
   -2.8661   -4.7415    2.2943 C   0  0  0  0  0  0  0  0  0  0  0  0
   -2.0233   -5.5727    2.6109 O   0  0  0  0  0  0  0  0  0  0  0  0
   -4.3078   -5.0134    2.5698 C   0  0  0  0  0  0  0  0  0  0  0  0
   -4.8057   -5.5295    1.7332 H   0  0  0  0  0  0  0  0  0  0  0  0
   -4.4526   -5.6688    3.4436 H   0  0  0  0  0  0  0  0  0  0  0  0
   -4.9255   -4.1233    2.7700 H   0  0  0  0  0  0  0  0  0  0  0  0
   -2.6241   -3.5219    1.6838 N   0  0  0  0  0  0  0  0  0  0  0  0
   -1.3070   -3.0608    1.3315 C   0  0  2  0  0  0  0  0  0  0  0  0
   -1.3931   -1.5680    1.0422 C   0  0  0  0  0  0  0  0  0  0  0  0
   -2.4385   -1.0059    0.7226 O   0  0  0  0  0  0  0  0  0  0  0  0
   -0.7590   -3.8164    0.1309 C   0  0  0  0  0  0  0  0  0  0  0  0
   -3.4188   -2.9207    1.4735 H   0  0  0  0  0  0  0  0  0  0  0  0
   -0.6690   -3.2277    2.2062 H   0  0  0  0  0  0  0  0  0  0  0  0
   -1.3852   -3.6613   -0.7553 H   0  0  0  0  0  0  0  0  0  0  0  0
    0.2542   -3.4843   -0.1182 H   0  0  0  0  0  0  0  0  0  0  0  0
   -0.7257   -4.8930    0.3300 H   0  0  0  0  0  0  0  0  0  0  0  0
   -0.1563   -0.9420    1.1402 N   0  0  0  0  0  0  0  0  0  0  0  0
    0.0261    0.4671    0.9001 C   0  0  2  0  0  0  0  0  0  0  0  0
   -0.1589    1.2210    2.2155 C   0  0  0  0  0  0  0  0  0  0  0  0
    0.5290    1.0078    3.2119 O   0  0  0  0  0  0  0  0  0  0  0  0
   -0.8685    0.9865   -0.2281 C   0  0  0  0  0  0  0  0  0  0  0  0
   -0.4779    0.2769   -1.8610 S   0  0  0  0  0  0  0  0  0  0  0  0
    0.6533   -1.4855    1.4300 H   0  0  0  0  0  0  0  0  0  0  0  0
    1.0746    0.5812    0.5978 H   0  0  0  0  0  0  0  0  0  0  0  0
   -1.9199    0.7651   -0.0178 H   0  0  0  0  0  0  0  0  0  0  0  0
   -0.7702    2.0743   -0.3114 H   0  0  0  0  0  0  0  0  0  0  0  0
   -1.4256    0.9469   -2.5290 H   0  0  0  0  0  0  0  0  0  0  0  0
   -1.1968    2.1399    2.1524 N   0  0  0  0  0  0  0  0  0  0  0  0
   -1.5735    2.9678    3.2742 C   0  0  2  0  0  0  0  0  0  0  0  0
   -2.8392    3.7255    2.8953 C   0  0  0  0  0  0  0  0  0  0  0  0
   -3.1735    3.9330    1.7308 O   0  0  0  0  0  0  0  0  0  0  0  0
   -0.4572    3.9289    3.6521 C   0  0  0  0  0  0  0  0  0  0  0  0
   -1.6924    2.2749    1.2761 H   0  0  0  0  0  0  0  0  0  0  0  0
   -1.7882    2.2912    4.1086 H   0  0  0  0  0  0  0  0  0  0  0  0
   -0.2282    4.6147    2.8284 H   0  0  0  0  0  0  0  0  0  0  0  0
   -0.7334    4.5360    4.5206 H   0  0  0  0  0  0  0  0  0  0  0  0
    0.4609    3.3834    3.8955 H   0  0  0  0  0  0  0  0  0  0  0  0
   -3.5289    4.1800    4.0106 N   0  0  0  0  0  0  0  0  0  0  0  0
   -4.7552    4.9369    3.9140 C   0  0  0  0  0  0  0  0  0  0  0  0
   -3.1887    3.9453    4.9385 H   0  0  0  0  0  0  0  0  0  0  0  0
   -4.5239    6.0123    3.9136 H   0  0  0  0  0  0  0  0  0  0  0  0
   -5.2758    4.6737    2.9814 H   0  0  0  0  0  0  0  0  0  0  0  0
   -5.4002    4.7010    4.7732 H   0  0  0  0  0  0  0  0  0  0  0  0
  1  3  1  0  0  0  0
  1  7  1  0  0  0  0
  1  2  2  0  0  0  0
 29 30  1  0  0  0  0
 30 38  1  0  0  0  0
 30 31  2  0  0  0  0
  8  9  1  0  0  0  0
  9 17  1  0  0  0  0
  9 10  2  0  0  0  0
 18 19  1  0  0  0  0
 19 28  1  0  0  0  0
 19 20  2  0  0  0  0
 29 32  1  0  0  0  0
  8 11  1  0  0  0  0
 38 39  1  0  0  0  0
 18 21  1  0  0  0  0
 21 22  1  0  0  0  0
 28 29  1  0  0  0  0
  7  8  1  0  0  0  0
 17 18  1  0  0  0  0
  3  4  1  0  0  0  0
  3  5  1  0  0  0  0
  3  6  1  0  0  0  0
 32 35  1  0  0  0  0
 32 36  1  0  0  0  0
 32 37  1  0  0  0  0
 11 14  1  0  0  0  0
 11 15  1  0  0  0  0
 11 16  1  0  0  0  0
 39 41  1  0  0  0  0
 39 42  1  0  0  0  0
 39 43  1  0  0  0  0
 21 25  1  0  0  0  0
 21 26  1  0  0  0  0
 29 34  1  0  0  0  0
  8 13  1  0  0  0  0
 18 24  1  0  0  0  0
 38 40  1  0  0  0  0
  7 12  1  0  0  0  0
 28 33  1  0  0  0  0
 17 23  1  0  0  0  0
 22 27  1  0  0  0  0
M  END
$$$$

  -OEChem-05262214473D

 43 42  0     1  0  0  0  0  0999 V2000
   -2.8661   -4.7415    2.2943 C   0  0  0  0  0  0  0  0  0  0  0  0
   -2.0233   -5.5727    2.6109 O   0  0  0  0  0  0  0  0  0  0  0  0
   -4.3078   -5.0134    2.5698 C   0  0  0  0  0  0  0  0  0  0  0  0
   -4.8057   -5.5295    1.7332 H   0  0  0  0  0  0  0  0  0  0  0  0
   -4.4526   -5.6688    3.4436 H   0  0  0  0  0  0  0  0  0  0  0  0
   -4.9255   -4.1233    2.7700 H   0  0  0  0  0  0  0  0  0  0  0  0
   -2.6241   -3.5219    1.6838 N   0  0  0  0  0  0  0  0  0  0  0  0
   -1.3070   -3.0608    1.3315 C   0  0  2  0  0  0  0  0  0  0  0  0
   -1.3931   -1.5680    1.0422 C   0  0  0  0  0  0  0  0  0  0  0  0
   -2.4385   -1.0059    0.7226 O   0  0  0  0  0  0  0  0  0  0  0  0
   -0.7590   -3.8164    0.1309 C   0  0  0  0  0  0  0  0  0  0  0  0
   -3.4188   -2.9207    1.4735 H   0  0  0  0  0  0  0  0  0  0  0  0
   -0.6690   -3.2277    2.2062 H   0  0  0  0  0  0  0  0  0  0  0  0
   -1.3852   -3.6613   -0.7553 H   0  0  0  0  0  0  0  0  0  0  0  0
    0.2542   -3.4843   -0.1182 H   0  0  0  0  0  0  0  0  0  0  0  0
   -0.7257   -4.8930    0.3300 H   0  0  0  0  0  0  0  0  0  0  0  0
   -0.1563   -0.9420    1.1402 N   0  0  0  0  0  0  0  0  0  0  0  0
    0.0261    0.4671    0.9001 C   0  0  2  0  0  0  0  0  0  0  0  0
   -0.1589    1.2210    2.2155 C   0  0  0  0  0  0  0  0  0  0  0  0
    0.6776    1.2109    3.1164 O   0  0  0  0  0  0  0  0  0  0  0  0
   -0.8685    0.9865   -0.2281 C   0  0  0  0  0  0  0  0  0  0  0  0
   -0.4779    0.2769   -1.8610 S   0  0  0  0  0  0  0  0  0  0  0  0
    0.6533   -1.4855    1.4300 H   0  0  0  0  0  0  0  0  0  0  0  0
    1.0746    0.5812    0.5978 H   0  0  0  0  0  0  0  0  0  0  0  0
   -1.9199    0.7651   -0.0178 H   0  0  0  0  0  0  0  0  0  0  0  0
   -0.7702    2.0743   -0.3114 H   0  0  0  0  0  0  0  0  0  0  0  0
   -1.4256    0.9469   -2.5290 H   0  0  0  0  0  0  0  0  0  0  0  0
   -1.3765    1.8840    2.2737 N   0  0  0  0  0  0  0  0  0  0  0  0
   -1.7875    2.6588    3.4211 C   0  0  2  0  0  0  0  0  0  0  0  0
   -3.2281    3.1001    3.1990 C   0  0  0  0  0  0  0  0  0  0  0  0
   -3.7426    3.1750    2.0851 O   0  0  0  0  0  0  0  0  0  0  0  0
   -0.8779    3.8590    3.6330 C   0  0  0  0  0  0  0  0  0  0  0  0
   -1.9946    1.8660    1.4679 H   0  0  0  0  0  0  0  0  0  0  0  0
   -1.7391    1.9906    4.2878 H   0  0  0  0  0  0  0  0  0  0  0  0
   -0.9131    4.5401    2.7748 H   0  0  0  0  0  0  0  0  0  0  0  0
   -1.1736    4.4293    4.5198 H   0  0  0  0  0  0  0  0  0  0  0  0
    0.1623    3.5416    3.7629 H   0  0  0  0  0  0  0  0  0  0  0  0
   -3.8584    3.4417    4.3874 N   0  0  0  0  0  0  0  0  0  0  0  0
   -5.2258    3.9038    4.4398 C   0  0  0  0  0  0  0  0  0  0  0  0
   -3.3616    3.3307    5.2663 H   0  0  0  0  0  0  0  0  0  0  0  0
   -5.2442    5.0026    4.3910 H   0  0  0  0  0  0  0  0  0  0  0  0
   -5.7856    3.4896    3.5883 H   0  0  0  0  0  0  0  0  0  0  0  0
   -5.6894    3.5709    5.3802 H   0  0  0  0  0  0  0  0  0  0  0  0
  1  3  1  0  0  0  0
  1  7  1  0  0  0  0
  1  2  2  0  0  0  0
 29 30  1  0  0  0  0
 30 38  1  0  0  0  0
 30 31  2  0  0  0  0
  8  9  1  0  0  0  0
  9 17  1  0  0  0  0
  9 10  2  0  0  0  0
 18 19  1  0  0  0  0
 19 28  1  0  0  0  0
 19 20  2  0  0  0  0
 29 32  1  0  0  0  0
  8 11  1  0  0  0  0
 38 39  1  0  0  0  0
 18 21  1  0  0  0  0
 21 22  1  0  0  0  0
 28 29  1  0  0  0  0
  7  8  1  0  0  0  0
 17 18  1  0  0  0  0
  3  4  1  0  0  0  0
  3  5  1  0  0  0  0
  3  6  1  0  0  0  0
 32 35  1  0  0  0  0
 32 36  1  0  0  0  0
 32 37  1  0  0  0  0
 11 14  1  0  0  0  0
 11 15  1  0  0  0  0
 11 16  1  0  0  0  0
 39 41  1  0  0  0  0
 39 42  1  0  0  0  0
 39 43  1  0  0  0  0
 21 25  1  0  0  0  0
 21 26  1  0  0  0  0
 29 34  1  0  0  0  0
  8 13  1  0  0  0  0
 18 24  1  0  0  0  0
 38 40  1  0  0  0  0
  7 12  1  0  0  0  0
 28 33  1  0  0  0  0
 17 23  1  0  0  0  0
 22 27  1  0  0  0  0
M  END
$$$$

  -OEChem-05262214473D

 43 42  0     1  0  0  0  0  0999 V2000
   -2.8661   -4.7415    2.2943 C   0  0  0  0  0  0  0  0  0  0  0  0
   -2.0233   -5.5727    2.6109 O   0  0  0  0  0  0  0  0  0  0  0  0
   -4.3078   -5.0134    2.5698 C   0  0  0  0  0  0  0  0  0  0  0  0
   -4.8057   -5.5295    1.7332 H   0  0  0  0  0  0  0  0  0  0  0  0
   -4.4526   -5.6688    3.4436 H   0  0  0  0  0  0  0  0  0  0  0  0
   -4.9255   -4.1233    2.7700 H   0  0  0  0  0  0  0  0  0  0  0  0
   -2.6241   -3.5219    1.6838 N   0  0  0  0  0  0  0  0  0  0  0  0
   -1.3070   -3.0608    1.3315 C   0  0  2  0  0  0  0  0  0  0  0  0
   -1.3931   -1.5680    1.0422 C   0  0  0  0  0  0  0  0  0  0  0  0
   -2.4385   -1.0059    0.7226 O   0  0  0  0  0  0  0  0  0  0  0  0
   -0.7590   -3.8164    0.1309 C   0  0  0  0  0  0  0  0  0  0  0  0
   -3.4188   -2.9207    1.4735 H   0  0  0  0  0  0  0  0  0  0  0  0
   -0.6690   -3.2277    2.2062 H   0  0  0  0  0  0  0  0  0  0  0  0
   -1.3852   -3.6613   -0.7553 H   0  0  0  0  0  0  0  0  0  0  0  0
    0.2542   -3.4843   -0.1182 H   0  0  0  0  0  0  0  0  0  0  0  0
   -0.7257   -4.8930    0.3300 H   0  0  0  0  0  0  0  0  0  0  0  0
   -0.1563   -0.9420    1.1402 N   0  0  0  0  0  0  0  0  0  0  0  0
    0.0261    0.4671    0.9001 C   0  0  2  0  0  0  0  0  0  0  0  0
   -0.1589    1.2210    2.2155 C   0  0  0  0  0  0  0  0  0  0  0  0
    0.7636    1.4372    2.9988 O   0  0  0  0  0  0  0  0  0  0  0  0
   -0.8685    0.9865   -0.2281 C   0  0  0  0  0  0  0  0  0  0  0  0
   -0.4779    0.2769   -1.8610 S   0  0  0  0  0  0  0  0  0  0  0  0
    0.6533   -1.4855    1.4300 H   0  0  0  0  0  0  0  0  0  0  0  0
    1.0746    0.5812    0.5978 H   0  0  0  0  0  0  0  0  0  0  0  0
   -1.9199    0.7651   -0.0178 H   0  0  0  0  0  0  0  0  0  0  0  0
   -0.7702    2.0743   -0.3114 H   0  0  0  0  0  0  0  0  0  0  0  0
   -1.4256    0.9469   -2.5290 H   0  0  0  0  0  0  0  0  0  0  0  0
   -1.4775    1.6007    2.4219 N   0  0  0  0  0  0  0  0  0  0  0  0
   -1.9065    2.3173    3.6001 C   0  0  2  0  0  0  0  0  0  0  0  0
   -3.4256    2.4188    3.5617 C   0  0  0  0  0  0  0  0  0  0  0  0
   -4.0780    2.3272    2.5238 O   0  0  0  0  0  0  0  0  0  0  0  0
   -1.2712    3.6972    3.6704 C   0  0  0  0  0  0  0  0  0  0  0  0
   -2.1709    1.4096    1.7047 H   0  0  0  0  0  0  0  0  0  0  0  0
   -1.6018    1.7167    4.4640 H   0  0  0  0  0  0  0  0  0  0  0  0
   -1.5649    4.3136    2.8130 H   0  0  0  0  0  0  0  0  0  0  0  0
   -1.5750    4.2281    4.5786 H   0  0  0  0  0  0  0  0  0  0  0  0
   -0.1783    3.6236    3.6679 H   0  0  0  0  0  0  0  0  0  0  0  0
   -3.9640    2.6669    4.8165 N   0  0  0  0  0  0  0  0  0  0  0  0
   -5.3829    2.8175    5.0403 C   0  0  0  0  0  0  0  0  0  0  0  0
   -3.3498    2.7088    5.6244 H   0  0  0  0  0  0  0  0  0  0  0  0
   -5.6539    3.8817    4.9757 H   0  0  0  0  0  0  0  0  0  0  0  0
   -5.9365    2.2513    4.2767 H   0  0  0  0  0  0  0  0  0  0  0  0
   -5.6393    2.4339    6.0388 H   0  0  0  0  0  0  0  0  0  0  0  0
  1  3  1  0  0  0  0
  1  7  1  0  0  0  0
  1  2  2  0  0  0  0
 29 30  1  0  0  0  0
 30 38  1  0  0  0  0
 30 31  2  0  0  0  0
  8  9  1  0  0  0  0
  9 17  1  0  0  0  0
  9 10  2  0  0  0  0
 18 19  1  0  0  0  0
 19 28  1  0  0  0  0
 19 20  2  0  0  0  0
 29 32  1  0  0  0  0
  8 11  1  0  0  0  0
 38 39  1  0  0  0  0
 18 21  1  0  0  0  0
 21 22  1  0  0  0  0
 28 29  1  0  0  0  0
  7  8  1  0  0  0  0
 17 18  1  0  0  0  0
  3  4  1  0  0  0  0
  3  5  1  0  0  0  0
  3  6  1  0  0  0  0
 32 35  1  0  0  0  0
 32 36  1  0  0  0  0
 32 37  1  0  0  0  0
 11 14  1  0  0  0  0
 11 15  1  0  0  0  0
 11 16  1  0  0  0  0
 39 41  1  0  0  0  0
 39 42  1  0  0  0  0
 39 43  1  0  0  0  0
 21 25  1  0  0  0  0
 21 26  1  0  0  0  0
 29 34  1  0  0  0  0
  8 13  1  0  0  0  0
 18 24  1  0  0  0  0
 38 40  1  0  0  0  0
  7 12  1  0  0  0  0
 28 33  1  0  0  0  0
 17 23  1  0  0  0  0
 22 27  1  0  0  0  0
M  END
$$$$

  -OEChem-05262214473D

 43 42  0     1  0  0  0  0  0999 V2000
   -2.8661   -4.7415    2.2943 C   0  0  0  0  0  0  0  0  0  0  0  0
   -2.0233   -5.5727    2.6109 O   0  0  0  0  0  0  0  0  0  0  0  0
   -4.3078   -5.0134    2.5698 C   0  0  0  0  0  0  0  0  0  0  0  0
   -4.8057   -5.5295    1.7332 H   0  0  0  0  0  0  0  0  0  0  0  0
   -4.4526   -5.6688    3.4436 H   0  0  0  0  0  0  0  0  0  0  0  0
   -4.9255   -4.1233    2.7700 H   0  0  0  0  0  0  0  0  0  0  0  0
   -2.6241   -3.5219    1.6838 N   0  0  0  0  0  0  0  0  0  0  0  0
   -1.3070   -3.0608    1.3315 C   0  0  2  0  0  0  0  0  0  0  0  0
   -1.3931   -1.5680    1.0422 C   0  0  0  0  0  0  0  0  0  0  0  0
   -2.4385   -1.0059    0.7226 O   0  0  0  0  0  0  0  0  0  0  0  0
   -0.7590   -3.8164    0.1309 C   0  0  0  0  0  0  0  0  0  0  0  0
   -3.4188   -2.9207    1.4735 H   0  0  0  0  0  0  0  0  0  0  0  0
   -0.6690   -3.2277    2.2062 H   0  0  0  0  0  0  0  0  0  0  0  0
   -1.3852   -3.6613   -0.7553 H   0  0  0  0  0  0  0  0  0  0  0  0
    0.2542   -3.4843   -0.1182 H   0  0  0  0  0  0  0  0  0  0  0  0
   -0.7257   -4.8930    0.3300 H   0  0  0  0  0  0  0  0  0  0  0  0
   -0.1563   -0.9420    1.1402 N   0  0  0  0  0  0  0  0  0  0  0  0
    0.0261    0.4671    0.9001 C   0  0  2  0  0  0  0  0  0  0  0  0
   -0.1589    1.2210    2.2155 C   0  0  0  0  0  0  0  0  0  0  0  0
    0.7813    1.6713    2.8672 O   0  0  0  0  0  0  0  0  0  0  0  0
   -0.8685    0.9865   -0.2281 C   0  0  0  0  0  0  0  0  0  0  0  0
   -0.4779    0.2769   -1.8610 S   0  0  0  0  0  0  0  0  0  0  0  0
    0.6533   -1.4855    1.4300 H   0  0  0  0  0  0  0  0  0  0  0  0
    1.0746    0.5812    0.5978 H   0  0  0  0  0  0  0  0  0  0  0  0
   -1.9199    0.7651   -0.0178 H   0  0  0  0  0  0  0  0  0  0  0  0
   -0.7702    2.0743   -0.3114 H   0  0  0  0  0  0  0  0  0  0  0  0
   -1.4256    0.9469   -2.5290 H   0  0  0  0  0  0  0  0  0  0  0  0
   -1.4930    1.3091    2.5868 N   0  0  0  0  0  0  0  0  0  0  0  0
   -1.9225    1.9665    3.7989 C   0  0  2  0  0  0  0  0  0  0  0  0
   -3.4182    1.7281    3.9585 C   0  0  0  0  0  0  0  0  0  0  0  0
   -4.1570    1.4472    3.0170 O   0  0  0  0  0  0  0  0  0  0  0  0
   -1.6101    3.4544    3.7619 C   0  0  0  0  0  0  0  0  0  0  0  0
   -2.2092    0.9369    1.9702 H   0  0  0  0  0  0  0  0  0  0  0  0
   -1.3856    1.4883    4.6254 H   0  0  0  0  0  0  0  0  0  0  0  0
   -2.1392    3.9507    2.9402 H   0  0  0  0  0  0  0  0  0  0  0  0
   -1.9104    3.9461    4.6931 H   0  0  0  0  0  0  0  0  0  0  0  0
   -0.5377    3.6240    3.6172 H   0  0  0  0  0  0  0  0  0  0  0  0
   -3.8385    1.9084    5.2689 N   0  0  0  0  0  0  0  0  0  0  0  0
   -5.2159    1.7520    5.6744 C   0  0  0  0  0  0  0  0  0  0  0  0
   -3.1540    2.1220    5.9883 H   0  0  0  0  0  0  0  0  0  0  0  0
   -5.7251    2.7259    5.6281 H   0  0  0  0  0  0  0  0  0  0  0  0
   -5.7183    1.0432    4.9998 H   0  0  0  0  0  0  0  0  0  0  0  0
   -5.2533    1.3674    6.7043 H   0  0  0  0  0  0  0  0  0  0  0  0
  1  3  1  0  0  0  0
  1  7  1  0  0  0  0
  1  2  2  0  0  0  0
 29 30  1  0  0  0  0
 30 38  1  0  0  0  0
 30 31  2  0  0  0  0
  8  9  1  0  0  0  0
  9 17  1  0  0  0  0
  9 10  2  0  0  0  0
 18 19  1  0  0  0  0
 19 28  1  0  0  0  0
 19 20  2  0  0  0  0
 29 32  1  0  0  0  0
  8 11  1  0  0  0  0
 38 39  1  0  0  0  0
 18 21  1  0  0  0  0
 21 22  1  0  0  0  0
 28 29  1  0  0  0  0
  7  8  1  0  0  0  0
 17 18  1  0  0  0  0
  3  4  1  0  0  0  0
  3  5  1  0  0  0  0
  3  6  1  0  0  0  0
 32 35  1  0  0  0  0
 32 36  1  0  0  0  0
 32 37  1  0  0  0  0
 11 14  1  0  0  0  0
 11 15  1  0  0  0  0
 11 16  1  0  0  0  0
 39 41  1  0  0  0  0
 39 42  1  0  0  0  0
 39 43  1  0  0  0  0
 21 25  1  0  0  0  0
 21 26  1  0  0  0  0
 29 34  1  0  0  0  0
  8 13  1  0  0  0  0
 18 24  1  0  0  0  0
 38 40  1  0  0  0  0
  7 12  1  0  0  0  0
 28 33  1  0  0  0  0
 17 23  1  0  0  0  0
 22 27  1  0  0  0  0
M  END
$$$$

  -OEChem-05262214473D

 43 42  0     1  0  0  0  0  0999 V2000
   -2.8661   -4.7415    2.2943 C   0  0  0  0  0  0  0  0  0  0  0  0
   -2.0233   -5.5727    2.6109 O   0  0  0  0  0  0  0  0  0  0  0  0
   -4.3078   -5.0134    2.5698 C   0  0  0  0  0  0  0  0  0  0  0  0
   -4.8057   -5.5295    1.7332 H   0  0  0  0  0  0  0  0  0  0  0  0
   -4.4526   -5.6688    3.4436 H   0  0  0  0  0  0  0  0  0  0  0  0
   -4.9255   -4.1233    2.7700 H   0  0  0  0  0  0  0  0  0  0  0  0
   -2.6241   -3.5219    1.6838 N   0  0  0  0  0  0  0  0  0  0  0  0
   -1.3070   -3.0608    1.3315 C   0  0  2  0  0  0  0  0  0  0  0  0
   -1.3931   -1.5680    1.0422 C   0  0  0  0  0  0  0  0  0  0  0  0
   -2.4385   -1.0059    0.7226 O   0  0  0  0  0  0  0  0  0  0  0  0
   -0.7590   -3.8164    0.1309 C   0  0  0  0  0  0  0  0  0  0  0  0
   -3.4188   -2.9207    1.4735 H   0  0  0  0  0  0  0  0  0  0  0  0
   -0.6690   -3.2277    2.2062 H   0  0  0  0  0  0  0  0  0  0  0  0
   -1.3852   -3.6613   -0.7553 H   0  0  0  0  0  0  0  0  0  0  0  0
    0.2542   -3.4843   -0.1182 H   0  0  0  0  0  0  0  0  0  0  0  0
   -0.7257   -4.8930    0.3300 H   0  0  0  0  0  0  0  0  0  0  0  0
   -0.1563   -0.9420    1.1402 N   0  0  0  0  0  0  0  0  0  0  0  0
    0.0261    0.4671    0.9001 C   0  0  2  0  0  0  0  0  0  0  0  0
   -0.1589    1.2210    2.2155 C   0  0  0  0  0  0  0  0  0  0  0  0
    0.7294    1.8972    2.7304 O   0  0  0  0  0  0  0  0  0  0  0  0
   -0.8685    0.9865   -0.2281 C   0  0  0  0  0  0  0  0  0  0  0  0
   -0.4779    0.2769   -1.8610 S   0  0  0  0  0  0  0  0  0  0  0  0
    0.6533   -1.4855    1.4300 H   0  0  0  0  0  0  0  0  0  0  0  0
    1.0746    0.5812    0.5978 H   0  0  0  0  0  0  0  0  0  0  0  0
   -1.9199    0.7651   -0.0178 H   0  0  0  0  0  0  0  0  0  0  0  0
   -0.7702    2.0743   -0.3114 H   0  0  0  0  0  0  0  0  0  0  0  0
   -1.4256    0.9469   -2.5290 H   0  0  0  0  0  0  0  0  0  0  0  0
   -1.4219    1.0292    2.7572 N   0  0  0  0  0  0  0  0  0  0  0  0
   -1.8344    1.6303    4.0039 C   0  0  2  0  0  0  0  0  0  0  0  0
   -3.2064    1.0751    4.3626 C   0  0  0  0  0  0  0  0  0  0  0  0
   -3.9741    0.5950    3.5311 O   0  0  0  0  0  0  0  0  0  0  0  0
   -1.8717    3.1472    3.9012 C   0  0  0  0  0  0  0  0  0  0  0  0
   -2.1070    0.4802    2.2463 H   0  0  0  0  0  0  0  0  0  0  0  0
   -1.1053    1.3209    4.7607 H   0  0  0  0  0  0  0  0  0  0  0  0
   -2.5967    3.4761    3.1478 H   0  0  0  0  0  0  0  0  0  0  0  0
   -2.1569    3.6026    4.8553 H   0  0  0  0  0  0  0  0  0  0  0  0
   -0.8914    3.5426    3.6141 H   0  0  0  0  0  0  0  0  0  0  0  0
   -3.4904    1.2180    5.7135 N   0  0  0  0  0  0  0  0  0  0  0  0
   -4.7360    0.7799    6.2990 C   0  0  0  0  0  0  0  0  0  0  0  0
   -2.7875    1.6101    6.3331 H   0  0  0  0  0  0  0  0  0  0  0  0
   -5.4530    1.6141    6.3035 H   0  0  0  0  0  0  0  0  0  0  0  0
   -5.1459   -0.0525    5.7082 H   0  0  0  0  0  0  0  0  0  0  0  0
   -4.5578    0.4442    7.3312 H   0  0  0  0  0  0  0  0  0  0  0  0
  1  3  1  0  0  0  0
  1  7  1  0  0  0  0
  1  2  2  0  0  0  0
 29 30  1  0  0  0  0
 30 38  1  0  0  0  0
 30 31  2  0  0  0  0
  8  9  1  0  0  0  0
  9 17  1  0  0  0  0
  9 10  2  0  0  0  0
 18 19  1  0  0  0  0
 19 28  1  0  0  0  0
 19 20  2  0  0  0  0
 29 32  1  0  0  0  0
  8 11  1  0  0  0  0
 38 39  1  0  0  0  0
 18 21  1  0  0  0  0
 21 22  1  0  0  0  0
 28 29  1  0  0  0  0
  7  8  1  0  0  0  0
 17 18  1  0  0  0  0
  3  4  1  0  0  0  0
  3  5  1  0  0  0  0
  3  6  1  0  0  0  0
 32 35  1  0  0  0  0
 32 36  1  0  0  0  0
 32 37  1  0  0  0  0
 11 14  1  0  0  0  0
 11 15  1  0  0  0  0
 11 16  1  0  0  0  0
 39 41  1  0  0  0  0
 39 42  1  0  0  0  0
 39 43  1  0  0  0  0
 21 25  1  0  0  0  0
 21 26  1  0  0  0  0
 29 34  1  0  0  0  0
  8 13  1  0  0  0  0
 18 24  1  0  0  0  0
 38 40  1  0  0  0  0
  7 12  1  0  0  0  0
 28 33  1  0  0  0  0
 17 23  1  0  0  0  0
 22 27  1  0  0  0  0
M  END
$$$$

  -OEChem-05262214473D

 43 42  0     1  0  0  0  0  0999 V2000
   -2.8661   -4.7415    2.2943 C   0  0  0  0  0  0  0  0  0  0  0  0
   -2.0233   -5.5727    2.6109 O   0  0  0  0  0  0  0  0  0  0  0  0
   -4.3078   -5.0134    2.5698 C   0  0  0  0  0  0  0  0  0  0  0  0
   -4.8057   -5.5295    1.7332 H   0  0  0  0  0  0  0  0  0  0  0  0
   -4.4526   -5.6688    3.4436 H   0  0  0  0  0  0  0  0  0  0  0  0
   -4.9255   -4.1233    2.7700 H   0  0  0  0  0  0  0  0  0  0  0  0
   -2.6241   -3.5219    1.6838 N   0  0  0  0  0  0  0  0  0  0  0  0
   -1.3070   -3.0608    1.3315 C   0  0  2  0  0  0  0  0  0  0  0  0
   -1.3931   -1.5680    1.0422 C   0  0  0  0  0  0  0  0  0  0  0  0
   -2.4385   -1.0059    0.7226 O   0  0  0  0  0  0  0  0  0  0  0  0
   -0.7590   -3.8164    0.1309 C   0  0  0  0  0  0  0  0  0  0  0  0
   -3.4188   -2.9207    1.4735 H   0  0  0  0  0  0  0  0  0  0  0  0
   -0.6690   -3.2277    2.2062 H   0  0  0  0  0  0  0  0  0  0  0  0
   -1.3852   -3.6613   -0.7553 H   0  0  0  0  0  0  0  0  0  0  0  0
    0.2542   -3.4843   -0.1182 H   0  0  0  0  0  0  0  0  0  0  0  0
   -0.7257   -4.8930    0.3300 H   0  0  0  0  0  0  0  0  0  0  0  0
   -0.1563   -0.9420    1.1402 N   0  0  0  0  0  0  0  0  0  0  0  0
    0.0261    0.4671    0.9001 C   0  0  2  0  0  0  0  0  0  0  0  0
   -0.1589    1.2210    2.2155 C   0  0  0  0  0  0  0  0  0  0  0  0
    0.6114    2.0995    2.5978 O   0  0  0  0  0  0  0  0  0  0  0  0
   -0.8685    0.9865   -0.2281 C   0  0  0  0  0  0  0  0  0  0  0  0
   -0.4779    0.2769   -1.8610 S   0  0  0  0  0  0  0  0  0  0  0  0
    0.6533   -1.4855    1.4300 H   0  0  0  0  0  0  0  0  0  0  0  0
    1.0746    0.5812    0.5978 H   0  0  0  0  0  0  0  0  0  0  0  0
   -1.9199    0.7651   -0.0178 H   0  0  0  0  0  0  0  0  0  0  0  0
   -0.7702    2.0743   -0.3114 H   0  0  0  0  0  0  0  0  0  0  0  0
   -1.4256    0.9469   -2.5290 H   0  0  0  0  0  0  0  0  0  0  0  0
   -1.2691    0.7800    2.9215 N   0  0  0  0  0  0  0  0  0  0  0  0
   -1.6481    1.3317    4.2013 C   0  0  2  0  0  0  0  0  0  0  0  0
   -2.8047    0.5041    4.7463 C   0  0  0  0  0  0  0  0  0  0  0  0
   -3.5418   -0.1712    4.0310 O   0  0  0  0  0  0  0  0  0  0  0  0
   -2.0382    2.7965    4.0788 C   0  0  0  0  0  0  0  0  0  0  0  0
   -1.8711    0.0704    2.5143 H   0  0  0  0  0  0  0  0  0  0  0  0
   -0.7799    1.2259    4.8609 H   0  0  0  0  0  0  0  0  0  0  0  0
   -2.9064    2.9223    3.4216 H   0  0  0  0  0  0  0  0  0  0  0  0
   -2.2977    3.2209    5.0542 H   0  0  0  0  0  0  0  0  0  0  0  0
   -1.2154    3.3851    3.6588 H   0  0  0  0  0  0  0  0  0  0  0  0
   -2.9435    0.6425    6.1202 N   0  0  0  0  0  0  0  0  0  0  0  0
   -3.9760   -0.0325    6.8714 C   0  0  0  0  0  0  0  0  0  0  0  0
   -2.2755    1.2083    6.6355 H   0  0  0  0  0  0  0  0  0  0  0  0
   -4.8560    0.6221    6.9560 H   0  0  0  0  0  0  0  0  0  0  0  0
   -4.2582   -0.9611    6.3538 H   0  0  0  0  0  0  0  0  0  0  0  0
   -3.6000   -0.2729    7.8769 H   0  0  0  0  0  0  0  0  0  0  0  0
  1  3  1  0  0  0  0
  1  7  1  0  0  0  0
  1  2  2  0  0  0  0
 29 30  1  0  0  0  0
 30 38  1  0  0  0  0
 30 31  2  0  0  0  0
  8  9  1  0  0  0  0
  9 17  1  0  0  0  0
  9 10  2  0  0  0  0
 18 19  1  0  0  0  0
 19 28  1  0  0  0  0
 19 20  2  0  0  0  0
 29 32  1  0  0  0  0
  8 11  1  0  0  0  0
 38 39  1  0  0  0  0
 18 21  1  0  0  0  0
 21 22  1  0  0  0  0
 28 29  1  0  0  0  0
  7  8  1  0  0  0  0
 17 18  1  0  0  0  0
  3  4  1  0  0  0  0
  3  5  1  0  0  0  0
  3  6  1  0  0  0  0
 32 35  1  0  0  0  0
 32 36  1  0  0  0  0
 32 37  1  0  0  0  0
 11 14  1  0  0  0  0
 11 15  1  0  0  0  0
 11 16  1  0  0  0  0
 39 41  1  0  0  0  0
 39 42  1  0  0  0  0
 39 43  1  0  0  0  0
 21 25  1  0  0  0  0
 21 26  1  0  0  0  0
 29 34  1  0  0  0  0
  8 13  1  0  0  0  0
 18 24  1  0  0  0  0
 38 40  1  0  0  0  0
  7 12  1  0  0  0  0
 28 33  1  0  0  0  0
 17 23  1  0  0  0  0
 22 27  1  0  0  0  0
M  END
$$$$

  -OEChem-05262214473D

 43 42  0     1  0  0  0  0  0999 V2000
   -2.8661   -4.7415    2.2943 C   0  0  0  0  0  0  0  0  0  0  0  0
   -2.0233   -5.5727    2.6109 O   0  0  0  0  0  0  0  0  0  0  0  0
   -4.3078   -5.0134    2.5698 C   0  0  0  0  0  0  0  0  0  0  0  0
   -4.8057   -5.5295    1.7332 H   0  0  0  0  0  0  0  0  0  0  0  0
   -4.4526   -5.6688    3.4436 H   0  0  0  0  0  0  0  0  0  0  0  0
   -4.9255   -4.1233    2.7700 H   0  0  0  0  0  0  0  0  0  0  0  0
   -2.6241   -3.5219    1.6838 N   0  0  0  0  0  0  0  0  0  0  0  0
   -1.3070   -3.0608    1.3315 C   0  0  2  0  0  0  0  0  0  0  0  0
   -1.3931   -1.5680    1.0422 C   0  0  0  0  0  0  0  0  0  0  0  0
   -2.4385   -1.0059    0.7226 O   0  0  0  0  0  0  0  0  0  0  0  0
   -0.7590   -3.8164    0.1309 C   0  0  0  0  0  0  0  0  0  0  0  0
   -3.4188   -2.9207    1.4735 H   0  0  0  0  0  0  0  0  0  0  0  0
   -0.6690   -3.2277    2.2062 H   0  0  0  0  0  0  0  0  0  0  0  0
   -1.3852   -3.6613   -0.7553 H   0  0  0  0  0  0  0  0  0  0  0  0
    0.2542   -3.4843   -0.1182 H   0  0  0  0  0  0  0  0  0  0  0  0
   -0.7257   -4.8930    0.3300 H   0  0  0  0  0  0  0  0  0  0  0  0
   -0.1563   -0.9420    1.1402 N   0  0  0  0  0  0  0  0  0  0  0  0
    0.0261    0.4671    0.9001 C   0  0  2  0  0  0  0  0  0  0  0  0
   -0.1589    1.2210    2.2155 C   0  0  0  0  0  0  0  0  0  0  0  0
    0.4354    2.2645    2.4785 O   0  0  0  0  0  0  0  0  0  0  0  0
   -0.8685    0.9865   -0.2281 C   0  0  0  0  0  0  0  0  0  0  0  0
   -0.4779    0.2769   -1.8610 S   0  0  0  0  0  0  0  0  0  0  0  0
    0.6533   -1.4855    1.4300 H   0  0  0  0  0  0  0  0  0  0  0  0
    1.0746    0.5812    0.5978 H   0  0  0  0  0  0  0  0  0  0  0  0
   -1.9199    0.7651   -0.0178 H   0  0  0  0  0  0  0  0  0  0  0  0
   -0.7702    2.0743   -0.3114 H   0  0  0  0  0  0  0  0  0  0  0  0
   -1.4256    0.9469   -2.5290 H   0  0  0  0  0  0  0  0  0  0  0  0
   -1.0450    0.5785    3.0685 N   0  0  0  0  0  0  0  0  0  0  0  0
   -1.3764    1.0909    4.3775 C   0  0  2  0  0  0  0  0  0  0  0  0
   -2.2403    0.0542    5.0835 C   0  0  0  0  0  0  0  0  0  0  0  0
   -2.8896   -0.7993    4.4827 O   0  0  0  0  0  0  0  0  0  0  0  0
   -2.0981    2.4262    4.2825 C   0  0  0  0  0  0  0  0  0  0  0  0
   -1.5177   -0.2644    2.7559 H   0  0  0  0  0  0  0  0  0  0  0  0
   -0.4316    1.2099    4.9191 H   0  0  0  0  0  0  0  0  0  0  0  0
   -3.0471    2.3269    3.7430 H   0  0  0  0  0  0  0  0  0  0  0  0
   -2.3233    2.8270    5.2763 H   0  0  0  0  0  0  0  0  0  0  0  0
   -1.4875    3.1621    3.7483 H   0  0  0  0  0  0  0  0  0  0  0  0
   -2.2350    0.2214    6.4612 N   0  0  0  0  0  0  0  0  0  0  0  0
   -2.9877   -0.6298    7.3528 C   0  0  0  0  0  0  0  0  0  0  0  0
   -1.6526    0.9437    6.8747 H   0  0  0  0  0  0  0  0  0  0  0  0
   -3.9749   -0.1827    7.5411 H   0  0  0  0  0  0  0  0  0  0  0  0
   -3.1158   -1.6206    6.8924 H   0  0  0  0  0  0  0  0  0  0  0  0
   -2.4454   -0.7349    8.3040 H   0  0  0  0  0  0  0  0  0  0  0  0
  1  3  1  0  0  0  0
  1  7  1  0  0  0  0
  1  2  2  0  0  0  0
 29 30  1  0  0  0  0
 30 38  1  0  0  0  0
 30 31  2  0  0  0  0
  8  9  1  0  0  0  0
  9 17  1  0  0  0  0
  9 10  2  0  0  0  0
 18 19  1  0  0  0  0
 19 28  1  0  0  0  0
 19 20  2  0  0  0  0
 29 32  1  0  0  0  0
  8 11  1  0  0  0  0
 38 39  1  0  0  0  0
 18 21  1  0  0  0  0
 21 22  1  0  0  0  0
 28 29  1  0  0  0  0
  7  8  1  0  0  0  0
 17 18  1  0  0  0  0
  3  4  1  0  0  0  0
  3  5  1  0  0  0  0
  3  6  1  0  0  0  0
 32 35  1  0  0  0  0
 32 36  1  0  0  0  0
 32 37  1  0  0  0  0
 11 14  1  0  0  0  0
 11 15  1  0  0  0  0
 11 16  1  0  0  0  0
 39 41  1  0  0  0  0
 39 42  1  0  0  0  0
 39 43  1  0  0  0  0
 21 25  1  0  0  0  0
 21 26  1  0  0  0  0
 29 34  1  0  0  0  0
  8 13  1  0  0  0  0
 18 24  1  0  0  0  0
 38 40  1  0  0  0  0
  7 12  1  0  0  0  0
 28 33  1  0  0  0  0
 17 23  1  0  0  0  0
 22 27  1  0  0  0  0
M  END
$$$$

  -OEChem-05262214473D

 43 42  0     1  0  0  0  0  0999 V2000
   -2.8661   -4.7415    2.2943 C   0  0  0  0  0  0  0  0  0  0  0  0
   -2.0233   -5.5727    2.6109 O   0  0  0  0  0  0  0  0  0  0  0  0
   -4.3078   -5.0134    2.5698 C   0  0  0  0  0  0  0  0  0  0  0  0
   -4.8057   -5.5295    1.7332 H   0  0  0  0  0  0  0  0  0  0  0  0
   -4.4526   -5.6688    3.4436 H   0  0  0  0  0  0  0  0  0  0  0  0
   -4.9255   -4.1233    2.7700 H   0  0  0  0  0  0  0  0  0  0  0  0
   -2.6241   -3.5219    1.6838 N   0  0  0  0  0  0  0  0  0  0  0  0
   -1.3070   -3.0608    1.3315 C   0  0  2  0  0  0  0  0  0  0  0  0
   -1.3931   -1.5680    1.0422 C   0  0  0  0  0  0  0  0  0  0  0  0
   -2.4385   -1.0059    0.7226 O   0  0  0  0  0  0  0  0  0  0  0  0
   -0.7590   -3.8164    0.1309 C   0  0  0  0  0  0  0  0  0  0  0  0
   -3.4188   -2.9207    1.4735 H   0  0  0  0  0  0  0  0  0  0  0  0
   -0.6690   -3.2277    2.2062 H   0  0  0  0  0  0  0  0  0  0  0  0
   -1.3852   -3.6613   -0.7553 H   0  0  0  0  0  0  0  0  0  0  0  0
    0.2542   -3.4843   -0.1182 H   0  0  0  0  0  0  0  0  0  0  0  0
   -0.7257   -4.8930    0.3300 H   0  0  0  0  0  0  0  0  0  0  0  0
   -0.1563   -0.9420    1.1402 N   0  0  0  0  0  0  0  0  0  0  0  0
    0.0261    0.4671    0.9001 C   0  0  2  0  0  0  0  0  0  0  0  0
   -0.1589    1.2210    2.2155 C   0  0  0  0  0  0  0  0  0  0  0  0
    0.2133    2.3810    2.3806 O   0  0  0  0  0  0  0  0  0  0  0  0
   -0.8685    0.9865   -0.2281 C   0  0  0  0  0  0  0  0  0  0  0  0
   -0.4779    0.2769   -1.8610 S   0  0  0  0  0  0  0  0  0  0  0  0
    0.6533   -1.4855    1.4300 H   0  0  0  0  0  0  0  0  0  0  0  0
    1.0746    0.5812    0.5978 H   0  0  0  0  0  0  0  0  0  0  0  0
   -1.9199    0.7651   -0.0178 H   0  0  0  0  0  0  0  0  0  0  0  0
   -0.7702    2.0743   -0.3114 H   0  0  0  0  0  0  0  0  0  0  0  0
   -1.4256    0.9469   -2.5290 H   0  0  0  0  0  0  0  0  0  0  0  0
   -0.7648    0.4384    3.1882 N   0  0  0  0  0  0  0  0  0  0  0  0
   -1.0378    0.9245    4.5205 C   0  0  2  0  0  0  0  0  0  0  0  0
   -1.5518   -0.2439    5.3512 C   0  0  0  0  0  0  0  0  0  0  0  0
   -2.0619   -1.2464    4.8553 O   0  0  0  0  0  0  0  0  0  0  0  0
   -2.0474    2.0616    4.4986 C   0  0  0  0  0  0  0  0  0  0  0  0
   -1.0708   -0.5015    2.9546 H   0  0  0  0  0  0  0  0  0  0  0  0
   -0.0842    1.2738    4.9313 H   0  0  0  0  0  0  0  0  0  0  0  0
   -3.0092    1.7305    4.0901 H   0  0  0  0  0  0  0  0  0  0  0  0
   -2.2317    2.4479    5.5065 H   0  0  0  0  0  0  0  0  0  0  0  0
   -1.6892    2.8889    3.8765 H   0  0  0  0  0  0  0  0  0  0  0  0
   -1.4131   -0.0168    6.7133 N   0  0  0  0  0  0  0  0  0  0  0  0
   -1.8384   -0.9715    7.7102 C   0  0  0  0  0  0  0  0  0  0  0  0
   -0.9615    0.8345    7.0345 H   0  0  0  0  0  0  0  0  0  0  0  0
   -2.8696   -0.7452    8.0189 H   0  0  0  0  0  0  0  0  0  0  0  0
   -1.7966   -1.9861    7.2874 H   0  0  0  0  0  0  0  0  0  0  0  0
   -1.1725   -0.9105    8.5837 H   0  0  0  0  0  0  0  0  0  0  0  0
  1  3  1  0  0  0  0
  1  7  1  0  0  0  0
  1  2  2  0  0  0  0
 29 30  1  0  0  0  0
 30 38  1  0  0  0  0
 30 31  2  0  0  0  0
  8  9  1  0  0  0  0
  9 17  1  0  0  0  0
  9 10  2  0  0  0  0
 18 19  1  0  0  0  0
 19 28  1  0  0  0  0
 19 20  2  0  0  0  0
 29 32  1  0  0  0  0
  8 11  1  0  0  0  0
 38 39  1  0  0  0  0
 18 21  1  0  0  0  0
 21 22  1  0  0  0  0
 28 29  1  0  0  0  0
  7  8  1  0  0  0  0
 17 18  1  0  0  0  0
  3  4  1  0  0  0  0
  3  5  1  0  0  0  0
  3  6  1  0  0  0  0
 32 35  1  0  0  0  0
 32 36  1  0  0  0  0
 32 37  1  0  0  0  0
 11 14  1  0  0  0  0
 11 15  1  0  0  0  0
 11 16  1  0  0  0  0
 39 41  1  0  0  0  0
 39 42  1  0  0  0  0
 39 43  1  0  0  0  0
 21 25  1  0  0  0  0
 21 26  1  0  0  0  0
 29 34  1  0  0  0  0
  8 13  1  0  0  0  0
 18 24  1  0  0  0  0
 38 40  1  0  0  0  0
  7 12  1  0  0  0  0
 28 33  1  0  0  0  0
 17 23  1  0  0  0  0
 22 27  1  0  0  0  0
M  END
$$$$

  -OEChem-05262214473D

 43 42  0     1  0  0  0  0  0999 V2000
   -2.8661   -4.7415    2.2943 C   0  0  0  0  0  0  0  0  0  0  0  0
   -2.0233   -5.5727    2.6109 O   0  0  0  0  0  0  0  0  0  0  0  0
   -4.3078   -5.0134    2.5698 C   0  0  0  0  0  0  0  0  0  0  0  0
   -4.8057   -5.5295    1.7332 H   0  0  0  0  0  0  0  0  0  0  0  0
   -4.4526   -5.6688    3.4436 H   0  0  0  0  0  0  0  0  0  0  0  0
   -4.9255   -4.1233    2.7700 H   0  0  0  0  0  0  0  0  0  0  0  0
   -2.6241   -3.5219    1.6838 N   0  0  0  0  0  0  0  0  0  0  0  0
   -1.3070   -3.0608    1.3315 C   0  0  2  0  0  0  0  0  0  0  0  0
   -1.3931   -1.5680    1.0422 C   0  0  0  0  0  0  0  0  0  0  0  0
   -2.4385   -1.0059    0.7226 O   0  0  0  0  0  0  0  0  0  0  0  0
   -0.7590   -3.8164    0.1309 C   0  0  0  0  0  0  0  0  0  0  0  0
   -3.4188   -2.9207    1.4735 H   0  0  0  0  0  0  0  0  0  0  0  0
   -0.6690   -3.2277    2.2062 H   0  0  0  0  0  0  0  0  0  0  0  0
   -1.3852   -3.6613   -0.7553 H   0  0  0  0  0  0  0  0  0  0  0  0
    0.2542   -3.4843   -0.1182 H   0  0  0  0  0  0  0  0  0  0  0  0
   -0.7257   -4.8930    0.3300 H   0  0  0  0  0  0  0  0  0  0  0  0
   -0.1563   -0.9420    1.1402 N   0  0  0  0  0  0  0  0  0  0  0  0
    0.0261    0.4671    0.9001 C   0  0  2  0  0  0  0  0  0  0  0  0
   -0.1589    1.2210    2.2155 C   0  0  0  0  0  0  0  0  0  0  0  0
   -0.0396    2.4408    2.3107 O   0  0  0  0  0  0  0  0  0  0  0  0
   -0.8685    0.9865   -0.2281 C   0  0  0  0  0  0  0  0  0  0  0  0
   -0.4779    0.2769   -1.8610 S   0  0  0  0  0  0  0  0  0  0  0  0
    0.6533   -1.4855    1.4300 H   0  0  0  0  0  0  0  0  0  0  0  0
    1.0746    0.5812    0.5978 H   0  0  0  0  0  0  0  0  0  0  0  0
   -1.9199    0.7651   -0.0178 H   0  0  0  0  0  0  0  0  0  0  0  0
   -0.7702    2.0743   -0.3114 H   0  0  0  0  0  0  0  0  0  0  0  0
   -1.4256    0.9469   -2.5290 H   0  0  0  0  0  0  0  0  0  0  0  0
   -0.4476    0.3694    3.2724 N   0  0  0  0  0  0  0  0  0  0  0  0
   -0.6553    0.8436    4.6206 C   0  0  2  0  0  0  0  0  0  0  0  0
   -0.7861   -0.3701    5.5312 C   0  0  0  0  0  0  0  0  0  0  0  0
   -1.1152   -1.4822    5.1236 O   0  0  0  0  0  0  0  0  0  0  0  0
   -1.8895    1.7274    4.7123 C   0  0  0  0  0  0  0  0  0  0  0  0
   -0.5610   -0.6246    3.0969 H   0  0  0  0  0  0  0  0  0  0  0  0
    0.2386    1.4134    4.8967 H   0  0  0  0  0  0  0  0  0  0  0  0
   -2.7953    1.1738    4.4393 H   0  0  0  0  0  0  0  0  0  0  0  0
   -2.0294    2.1093    5.7290 H   0  0  0  0  0  0  0  0  0  0  0  0
   -1.8067    2.5840    4.0347 H   0  0  0  0  0  0  0  0  0  0  0  0
   -0.5340   -0.0558    6.8593 N   0  0  0  0  0  0  0  0  0  0  0  0
   -0.6064   -1.0340    7.9193 C   0  0  0  0  0  0  0  0  0  0  0  0
   -0.2491    0.8880    7.1040 H   0  0  0  0  0  0  0  0  0  0  0  0
   -1.6156   -1.0273    8.3569 H   0  0  0  0  0  0  0  0  0  0  0  0
   -0.3903   -2.0327    7.5119 H   0  0  0  0  0  0  0  0  0  0  0  0
    0.1318   -0.7875    8.6967 H   0  0  0  0  0  0  0  0  0  0  0  0
  1  3  1  0  0  0  0
  1  7  1  0  0  0  0
  1  2  2  0  0  0  0
 29 30  1  0  0  0  0
 30 38  1  0  0  0  0
 30 31  2  0  0  0  0
  8  9  1  0  0  0  0
  9 17  1  0  0  0  0
  9 10  2  0  0  0  0
 18 19  1  0  0  0  0
 19 28  1  0  0  0  0
 19 20  2  0  0  0  0
 29 32  1  0  0  0  0
  8 11  1  0  0  0  0
 38 39  1  0  0  0  0
 18 21  1  0  0  0  0
 21 22  1  0  0  0  0
 28 29  1  0  0  0  0
  7  8  1  0  0  0  0
 17 18  1  0  0  0  0
  3  4  1  0  0  0  0
  3  5  1  0  0  0  0
  3  6  1  0  0  0  0
 32 35  1  0  0  0  0
 32 36  1  0  0  0  0
 32 37  1  0  0  0  0
 11 14  1  0  0  0  0
 11 15  1  0  0  0  0
 11 16  1  0  0  0  0
 39 41  1  0  0  0  0
 39 42  1  0  0  0  0
 39 43  1  0  0  0  0
 21 25  1  0  0  0  0
 21 26  1  0  0  0  0
 29 34  1  0  0  0  0
  8 13  1  0  0  0  0
 18 24  1  0  0  0  0
 38 40  1  0  0  0  0
  7 12  1  0  0  0  0
 28 33  1  0  0  0  0
 17 23  1  0  0  0  0
 22 27  1  0  0  0  0
M  END
$$$$

  -OEChem-05262214473D

 43 42  0     1  0  0  0  0  0999 V2000
   -2.8661   -4.7415    2.2943 C   0  0  0  0  0  0  0  0  0  0  0  0
   -2.0233   -5.5727    2.6109 O   0  0  0  0  0  0  0  0  0  0  0  0
   -4.3078   -5.0134    2.5698 C   0  0  0  0  0  0  0  0  0  0  0  0
   -4.8057   -5.5295    1.7332 H   0  0  0  0  0  0  0  0  0  0  0  0
   -4.4526   -5.6688    3.4436 H   0  0  0  0  0  0  0  0  0  0  0  0
   -4.9255   -4.1233    2.7700 H   0  0  0  0  0  0  0  0  0  0  0  0
   -2.6241   -3.5219    1.6838 N   0  0  0  0  0  0  0  0  0  0  0  0
   -1.3070   -3.0608    1.3315 C   0  0  2  0  0  0  0  0  0  0  0  0
   -1.3931   -1.5680    1.0422 C   0  0  0  0  0  0  0  0  0  0  0  0
   -2.4385   -1.0059    0.7226 O   0  0  0  0  0  0  0  0  0  0  0  0
   -0.7590   -3.8164    0.1309 C   0  0  0  0  0  0  0  0  0  0  0  0
   -3.4188   -2.9207    1.4735 H   0  0  0  0  0  0  0  0  0  0  0  0
   -0.6690   -3.2277    2.2062 H   0  0  0  0  0  0  0  0  0  0  0  0
   -1.3852   -3.6613   -0.7553 H   0  0  0  0  0  0  0  0  0  0  0  0
    0.2542   -3.4843   -0.1182 H   0  0  0  0  0  0  0  0  0  0  0  0
   -0.7257   -4.8930    0.3300 H   0  0  0  0  0  0  0  0  0  0  0  0
   -0.1563   -0.9420    1.1402 N   0  0  0  0  0  0  0  0  0  0  0  0
    0.0261    0.4671    0.9001 C   0  0  2  0  0  0  0  0  0  0  0  0
   -0.1589    1.2210    2.2155 C   0  0  0  0  0  0  0  0  0  0  0  0
   -0.3062    2.4401    2.2736 O   0  0  0  0  0  0  0  0  0  0  0  0
   -0.8685    0.9865   -0.2281 C   0  0  0  0  0  0  0  0  0  0  0  0
   -0.4779    0.2769   -1.8610 S   0  0  0  0  0  0  0  0  0  0  0  0
    0.6533   -1.4855    1.4300 H   0  0  0  0  0  0  0  0  0  0  0  0
    1.0746    0.5812    0.5978 H   0  0  0  0  0  0  0  0  0  0  0  0
   -1.9199    0.7651   -0.0178 H   0  0  0  0  0  0  0  0  0  0  0  0
   -0.7702    2.0743   -0.3114 H   0  0  0  0  0  0  0  0  0  0  0  0
   -1.4256    0.9469   -2.5290 H   0  0  0  0  0  0  0  0  0  0  0  0
   -0.1151    0.3760    3.3154 N   0  0  0  0  0  0  0  0  0  0  0  0
   -0.2551    0.8539    4.6710 C   0  0  2  0  0  0  0  0  0  0  0  0
    0.0046   -0.3157    5.6112 C   0  0  0  0  0  0  0  0  0  0  0  0
   -0.1139   -1.4904    5.2692 O   0  0  0  0  0  0  0  0  0  0  0  0
   -1.6353    1.4466    4.9090 C   0  0  0  0  0  0  0  0  0  0  0  0
   -0.0229   -0.6255    3.1731 H   0  0  0  0  0  0  0  0  0  0  0  0
    0.5150    1.6191    4.8177 H   0  0  0  0  0  0  0  0  0  0  0  0
   -2.4200    0.6946    4.7667 H   0  0  0  0  0  0  0  0  0  0  0  0
   -1.7301    1.8343    5.9287 H   0  0  0  0  0  0  0  0  0  0  0  0
   -1.8320    2.2683    4.2120 H   0  0  0  0  0  0  0  0  0  0  0  0
    0.3425    0.1071    6.8892 N   0  0  0  0  0  0  0  0  0  0  0  0
    0.6242   -0.8134    7.9659 C   0  0  0  0  0  0  0  0  0  0  0  0
    0.4359    1.1007    7.0784 H   0  0  0  0  0  0  0  0  0  0  0  0
   -0.2983   -1.0096    8.5321 H   0  0  0  0  0  0  0  0  0  0  0  0
    1.0071   -1.7572    7.5505 H   0  0  0  0  0  0  0  0  0  0  0  0
    1.3787   -0.3745    8.6353 H   0  0  0  0  0  0  0  0  0  0  0  0
  1  3  1  0  0  0  0
  1  7  1  0  0  0  0
  1  2  2  0  0  0  0
 29 30  1  0  0  0  0
 30 38  1  0  0  0  0
 30 31  2  0  0  0  0
  8  9  1  0  0  0  0
  9 17  1  0  0  0  0
  9 10  2  0  0  0  0
 18 19  1  0  0  0  0
 19 28  1  0  0  0  0
 19 20  2  0  0  0  0
 29 32  1  0  0  0  0
  8 11  1  0  0  0  0
 38 39  1  0  0  0  0
 18 21  1  0  0  0  0
 21 22  1  0  0  0  0
 28 29  1  0  0  0  0
  7  8  1  0  0  0  0
 17 18  1  0  0  0  0
  3  4  1  0  0  0  0
  3  5  1  0  0  0  0
  3  6  1  0  0  0  0
 32 35  1  0  0  0  0
 32 36  1  0  0  0  0
 32 37  1  0  0  0  0
 11 14  1  0  0  0  0
 11 15  1  0  0  0  0
 11 16  1  0  0  0  0
 39 41  1  0  0  0  0
 39 42  1  0  0  0  0
 39 43  1  0  0  0  0
 21 25  1  0  0  0  0
 21 26  1  0  0  0  0
 29 34  1  0  0  0  0
  8 13  1  0  0  0  0
 18 24  1  0  0  0  0
 38 40  1  0  0  0  0
  7 12  1  0  0  0  0
 28 33  1  0  0  0  0
 17 23  1  0  0  0  0
 22 27  1  0  0  0  0
M  END
$$$$

  -OEChem-05262214473D

 43 42  0     1  0  0  0  0  0999 V2000
   -2.8661   -4.7415    2.2943 C   0  0  0  0  0  0  0  0  0  0  0  0
   -2.0233   -5.5727    2.6109 O   0  0  0  0  0  0  0  0  0  0  0  0
   -4.3078   -5.0134    2.5698 C   0  0  0  0  0  0  0  0  0  0  0  0
   -4.8057   -5.5295    1.7332 H   0  0  0  0  0  0  0  0  0  0  0  0
   -4.4526   -5.6688    3.4436 H   0  0  0  0  0  0  0  0  0  0  0  0
   -4.9255   -4.1233    2.7700 H   0  0  0  0  0  0  0  0  0  0  0  0
   -2.6241   -3.5219    1.6838 N   0  0  0  0  0  0  0  0  0  0  0  0
   -1.3070   -3.0608    1.3315 C   0  0  2  0  0  0  0  0  0  0  0  0
   -1.3931   -1.5680    1.0422 C   0  0  0  0  0  0  0  0  0  0  0  0
   -2.4385   -1.0059    0.7226 O   0  0  0  0  0  0  0  0  0  0  0  0
   -0.7590   -3.8164    0.1309 C   0  0  0  0  0  0  0  0  0  0  0  0
   -3.4188   -2.9207    1.4735 H   0  0  0  0  0  0  0  0  0  0  0  0
   -0.6690   -3.2277    2.2062 H   0  0  0  0  0  0  0  0  0  0  0  0
   -1.3852   -3.6613   -0.7553 H   0  0  0  0  0  0  0  0  0  0  0  0
    0.2542   -3.4843   -0.1182 H   0  0  0  0  0  0  0  0  0  0  0  0
   -0.7257   -4.8930    0.3300 H   0  0  0  0  0  0  0  0  0  0  0  0
   -0.1563   -0.9420    1.1402 N   0  0  0  0  0  0  0  0  0  0  0  0
    0.0261    0.4671    0.9001 C   0  0  2  0  0  0  0  0  0  0  0  0
   -0.1589    1.2210    2.2155 C   0  0  0  0  0  0  0  0  0  0  0  0
   -0.5682    2.3788    2.2719 O   0  0  0  0  0  0  0  0  0  0  0  0
   -0.8685    0.9865   -0.2281 C   0  0  0  0  0  0  0  0  0  0  0  0
   -0.4779    0.2769   -1.8610 S   0  0  0  0  0  0  0  0  0  0  0  0
    0.6533   -1.4855    1.4300 H   0  0  0  0  0  0  0  0  0  0  0  0
    1.0746    0.5812    0.5978 H   0  0  0  0  0  0  0  0  0  0  0  0
   -1.9199    0.7651   -0.0178 H   0  0  0  0  0  0  0  0  0  0  0  0
   -0.7702    2.0743   -0.3114 H   0  0  0  0  0  0  0  0  0  0  0  0
   -1.4256    0.9469   -2.5290 H   0  0  0  0  0  0  0  0  0  0  0  0
    0.2101    0.4578    3.3142 N   0  0  0  0  0  0  0  0  0  0  0  0
    0.1356    0.9547    4.6682 C   0  0  2  0  0  0  0  0  0  0  0  0
    0.7665   -0.0843    5.5858 C   0  0  0  0  0  0  0  0  0  0  0  0
    0.8737   -1.2706    5.2821 O   0  0  0  0  0  0  0  0  0  0  0  0
   -1.3019    1.2381    5.0754 C   0  0  0  0  0  0  0  0  0  0  0  0
    0.5068   -0.5040    3.1779 H   0  0  0  0  0  0  0  0  0  0  0  0
    0.7259    1.8770    4.6996 H   0  0  0  0  0  0  0  0  0  0  0  0
   -1.9088    0.3257    5.0500 H   0  0  0  0  0  0  0  0  0  0  0  0
   -1.3542    1.6416    6.0920 H   0  0  0  0  0  0  0  0  0  0  0  0
   -1.7635    1.9633    4.3965 H   0  0  0  0  0  0  0  0  0  0  0  0
    1.1566    0.4608    6.8010 N   0  0  0  0  0  0  0  0  0  0  0  0
    1.7696   -0.3244    7.8468 C   0  0  0  0  0  0  0  0  0  0  0  0
    1.0469    1.4581    6.9596 H   0  0  0  0  0  0  0  0  0  0  0  0
    0.9926   -0.6934    8.5324 H   0  0  0  0  0  0  0  0  0  0  0  0
    2.3004   -1.1784    7.4007 H   0  0  0  0  0  0  0  0  0  0  0  0
    2.4833    0.3004    8.4039 H   0  0  0  0  0  0  0  0  0  0  0  0
  1  3  1  0  0  0  0
  1  7  1  0  0  0  0
  1  2  2  0  0  0  0
 29 30  1  0  0  0  0
 30 38  1  0  0  0  0
 30 31  2  0  0  0  0
  8  9  1  0  0  0  0
  9 17  1  0  0  0  0
  9 10  2  0  0  0  0
 18 19  1  0  0  0  0
 19 28  1  0  0  0  0
 19 20  2  0  0  0  0
 29 32  1  0  0  0  0
  8 11  1  0  0  0  0
 38 39  1  0  0  0  0
 18 21  1  0  0  0  0
 21 22  1  0  0  0  0
 28 29  1  0  0  0  0
  7  8  1  0  0  0  0
 17 18  1  0  0  0  0
  3  4  1  0  0  0  0
  3  5  1  0  0  0  0
  3  6  1  0  0  0  0
 32 35  1  0  0  0  0
 32 36  1  0  0  0  0
 32 37  1  0  0  0  0
 11 14  1  0  0  0  0
 11 15  1  0  0  0  0
 11 16  1  0  0  0  0
 39 41  1  0  0  0  0
 39 42  1  0  0  0  0
 39 43  1  0  0  0  0
 21 25  1  0  0  0  0
 21 26  1  0  0  0  0
 29 34  1  0  0  0  0
  8 13  1  0  0  0  0
 18 24  1  0  0  0  0
 38 40  1  0  0  0  0
  7 12  1  0  0  0  0
 28 33  1  0  0  0  0
 17 23  1  0  0  0  0
 22 27  1  0  0  0  0
M  END
$$$$

  -OEChem-05262214473D

 43 42  0     1  0  0  0  0  0999 V2000
   -2.8661   -4.7415    2.2943 C   0  0  0  0  0  0  0  0  0  0  0  0
   -2.0233   -5.5727    2.6109 O   0  0  0  0  0  0  0  0  0  0  0  0
   -4.3078   -5.0134    2.5698 C   0  0  0  0  0  0  0  0  0  0  0  0
   -4.8057   -5.5295    1.7332 H   0  0  0  0  0  0  0  0  0  0  0  0
   -4.4526   -5.6688    3.4436 H   0  0  0  0  0  0  0  0  0  0  0  0
   -4.9255   -4.1233    2.7700 H   0  0  0  0  0  0  0  0  0  0  0  0
   -2.6241   -3.5219    1.6838 N   0  0  0  0  0  0  0  0  0  0  0  0
   -1.3070   -3.0608    1.3315 C   0  0  2  0  0  0  0  0  0  0  0  0
   -1.3931   -1.5680    1.0422 C   0  0  0  0  0  0  0  0  0  0  0  0
   -2.4385   -1.0059    0.7226 O   0  0  0  0  0  0  0  0  0  0  0  0
   -0.7590   -3.8164    0.1309 C   0  0  0  0  0  0  0  0  0  0  0  0
   -3.4188   -2.9207    1.4735 H   0  0  0  0  0  0  0  0  0  0  0  0
   -0.6690   -3.2277    2.2062 H   0  0  0  0  0  0  0  0  0  0  0  0
   -1.3852   -3.6613   -0.7553 H   0  0  0  0  0  0  0  0  0  0  0  0
    0.2542   -3.4843   -0.1182 H   0  0  0  0  0  0  0  0  0  0  0  0
   -0.7257   -4.8930    0.3300 H   0  0  0  0  0  0  0  0  0  0  0  0
   -0.1563   -0.9420    1.1402 N   0  0  0  0  0  0  0  0  0  0  0  0
    0.0261    0.4671    0.9001 C   0  0  2  0  0  0  0  0  0  0  0  0
   -0.1589    1.2210    2.2155 C   0  0  0  0  0  0  0  0  0  0  0  0
   -0.8079    2.2611    2.3056 O   0  0  0  0  0  0  0  0  0  0  0  0
   -0.8685    0.9865   -0.2281 C   0  0  0  0  0  0  0  0  0  0  0  0
   -0.4779    0.2769   -1.8610 S   0  0  0  0  0  0  0  0  0  0  0  0
    0.6533   -1.4855    1.4300 H   0  0  0  0  0  0  0  0  0  0  0  0
    1.0746    0.5812    0.5978 H   0  0  0  0  0  0  0  0  0  0  0  0
   -1.9199    0.7651   -0.0178 H   0  0  0  0  0  0  0  0  0  0  0  0
   -0.7702    2.0743   -0.3114 H   0  0  0  0  0  0  0  0  0  0  0  0
   -1.4256    0.9469   -2.5290 H   0  0  0  0  0  0  0  0  0  0  0  0
    0.5058    0.6093    3.2689 N   0  0  0  0  0  0  0  0  0  0  0  0
    0.4902    1.1390    4.6125 C   0  0  2  0  0  0  0  0  0  0  0  0
    1.4476    0.3082    5.4566 C   0  0  0  0  0  0  0  0  0  0  0  0
    1.7804   -0.8378    5.1616 O   0  0  0  0  0  0  0  0  0  0  0  0
   -0.9123    1.1163    5.2000 C   0  0  0  0  0  0  0  0  0  0  0  0
    0.9920   -0.2684    3.1111 H   0  0  0  0  0  0  0  0  0  0  0  0
    0.8571    2.1693    4.5505 H   0  0  0  0  0  0  0  0  0  0  0  0
   -1.2967    0.0922    5.2699 H   0  0  0  0  0  0  0  0  0  0  0  0
   -0.9273    1.5445    6.2077 H   0  0  0  0  0  0  0  0  0  0  0  0
   -1.6058    1.6897    4.5755 H   0  0  0  0  0  0  0  0  0  0  0  0
    1.8529    0.9811    6.6008 N   0  0  0  0  0  0  0  0  0  0  0  0
    2.7518    0.3995    7.5701 C   0  0  0  0  0  0  0  0  0  0  0  0
    1.5422    1.9357    6.7555 H   0  0  0  0  0  0  0  0  0  0  0  0
    2.1690   -0.1002    8.3579 H   0  0  0  0  0  0  0  0  0  0  0  0
    3.4015   -0.3357    7.0727 H   0  0  0  0  0  0  0  0  0  0  0  0
    3.3701    1.1914    8.0180 H   0  0  0  0  0  0  0  0  0  0  0  0
  1  3  1  0  0  0  0
  1  7  1  0  0  0  0
  1  2  2  0  0  0  0
 29 30  1  0  0  0  0
 30 38  1  0  0  0  0
 30 31  2  0  0  0  0
  8  9  1  0  0  0  0
  9 17  1  0  0  0  0
  9 10  2  0  0  0  0
 18 19  1  0  0  0  0
 19 28  1  0  0  0  0
 19 20  2  0  0  0  0
 29 32  1  0  0  0  0
  8 11  1  0  0  0  0
 38 39  1  0  0  0  0
 18 21  1  0  0  0  0
 21 22  1  0  0  0  0
 28 29  1  0  0  0  0
  7  8  1  0  0  0  0
 17 18  1  0  0  0  0
  3  4  1  0  0  0  0
  3  5  1  0  0  0  0
  3  6  1  0  0  0  0
 32 35  1  0  0  0  0
 32 36  1  0  0  0  0
 32 37  1  0  0  0  0
 11 14  1  0  0  0  0
 11 15  1  0  0  0  0
 11 16  1  0  0  0  0
 39 41  1  0  0  0  0
 39 42  1  0  0  0  0
 39 43  1  0  0  0  0
 21 25  1  0  0  0  0
 21 26  1  0  0  0  0
 29 34  1  0  0  0  0
  8 13  1  0  0  0  0
 18 24  1  0  0  0  0
 38 40  1  0  0  0  0
  7 12  1  0  0  0  0
 28 33  1  0  0  0  0
 17 23  1  0  0  0  0
 22 27  1  0  0  0  0
M  END
$$$$

  -OEChem-05262214473D

 43 42  0     1  0  0  0  0  0999 V2000
   -2.8661   -4.7415    2.2943 C   0  0  0  0  0  0  0  0  0  0  0  0
   -2.0233   -5.5727    2.6109 O   0  0  0  0  0  0  0  0  0  0  0  0
   -4.3078   -5.0134    2.5698 C   0  0  0  0  0  0  0  0  0  0  0  0
   -4.8057   -5.5295    1.7332 H   0  0  0  0  0  0  0  0  0  0  0  0
   -4.4526   -5.6688    3.4436 H   0  0  0  0  0  0  0  0  0  0  0  0
   -4.9255   -4.1233    2.7700 H   0  0  0  0  0  0  0  0  0  0  0  0
   -2.6241   -3.5219    1.6838 N   0  0  0  0  0  0  0  0  0  0  0  0
   -1.3070   -3.0608    1.3315 C   0  0  2  0  0  0  0  0  0  0  0  0
   -1.3931   -1.5680    1.0422 C   0  0  0  0  0  0  0  0  0  0  0  0
   -2.4385   -1.0059    0.7226 O   0  0  0  0  0  0  0  0  0  0  0  0
   -0.7590   -3.8164    0.1309 C   0  0  0  0  0  0  0  0  0  0  0  0
   -3.4188   -2.9207    1.4735 H   0  0  0  0  0  0  0  0  0  0  0  0
   -0.6690   -3.2277    2.2062 H   0  0  0  0  0  0  0  0  0  0  0  0
   -1.3852   -3.6613   -0.7553 H   0  0  0  0  0  0  0  0  0  0  0  0
    0.2542   -3.4843   -0.1182 H   0  0  0  0  0  0  0  0  0  0  0  0
   -0.7257   -4.8930    0.3300 H   0  0  0  0  0  0  0  0  0  0  0  0
   -0.1563   -0.9420    1.1402 N   0  0  0  0  0  0  0  0  0  0  0  0
    0.0261    0.4671    0.9001 C   0  0  2  0  0  0  0  0  0  0  0  0
   -0.1589    1.2210    2.2155 C   0  0  0  0  0  0  0  0  0  0  0  0
   -1.0089    2.0951    2.3725 O   0  0  0  0  0  0  0  0  0  0  0  0
   -0.8685    0.9865   -0.2281 C   0  0  0  0  0  0  0  0  0  0  0  0
   -0.4779    0.2769   -1.8610 S   0  0  0  0  0  0  0  0  0  0  0  0
    0.6533   -1.4855    1.4300 H   0  0  0  0  0  0  0  0  0  0  0  0
    1.0746    0.5812    0.5978 H   0  0  0  0  0  0  0  0  0  0  0  0
   -1.9199    0.7651   -0.0178 H   0  0  0  0  0  0  0  0  0  0  0  0
   -0.7702    2.0743   -0.3114 H   0  0  0  0  0  0  0  0  0  0  0  0
   -1.4256    0.9469   -2.5290 H   0  0  0  0  0  0  0  0  0  0  0  0
    0.7519    0.8202    3.1827 N   0  0  0  0  0  0  0  0  0  0  0  0
    0.7846    1.3944    4.5075 C   0  0  2  0  0  0  0  0  0  0  0  0
    2.0015    0.8351    5.2326 C   0  0  0  0  0  0  0  0  0  0  0  0
    2.5442   -0.2214    4.9157 O   0  0  0  0  0  0  0  0  0  0  0  0
   -0.4928    1.0894    5.2744 C   0  0  0  0  0  0  0  0  0  0  0  0
    1.3996    0.0653    2.9773 H   0  0  0  0  0  0  0  0  0  0  0  0
    0.8997    2.4763    4.3805 H   0  0  0  0  0  0  0  0  0  0  0  0
   -0.6253    0.0100    5.4115 H   0  0  0  0  0  0  0  0  0  0  0  0
   -0.4784    1.5494    6.2680 H   0  0  0  0  0  0  0  0  0  0  0  0
   -1.3696    1.4662    4.7368 H   0  0  0  0  0  0  0  0  0  0  0  0
    2.3839    1.6326    6.3021 N   0  0  0  0  0  0  0  0  0  0  0  0
    3.5039    1.3089    7.1547 C   0  0  0  0  0  0  0  0  0  0  0  0
    1.8882    2.5011    6.4802 H   0  0  0  0  0  0  0  0  0  0  0  0
    3.1508    0.7295    8.0205 H   0  0  0  0  0  0  0  0  0  0  0  0
    4.2353    0.7134    6.5887 H   0  0  0  0  0  0  0  0  0  0  0  0
    3.9789    2.2375    7.5041 H   0  0  0  0  0  0  0  0  0  0  0  0
  1  3  1  0  0  0  0
  1  7  1  0  0  0  0
  1  2  2  0  0  0  0
 29 30  1  0  0  0  0
 30 38  1  0  0  0  0
 30 31  2  0  0  0  0
  8  9  1  0  0  0  0
  9 17  1  0  0  0  0
  9 10  2  0  0  0  0
 18 19  1  0  0  0  0
 19 28  1  0  0  0  0
 19 20  2  0  0  0  0
 29 32  1  0  0  0  0
  8 11  1  0  0  0  0
 38 39  1  0  0  0  0
 18 21  1  0  0  0  0
 21 22  1  0  0  0  0
 28 29  1  0  0  0  0
  7  8  1  0  0  0  0
 17 18  1  0  0  0  0
  3  4  1  0  0  0  0
  3  5  1  0  0  0  0
  3  6  1  0  0  0  0
 32 35  1  0  0  0  0
 32 36  1  0  0  0  0
 32 37  1  0  0  0  0
 11 14  1  0  0  0  0
 11 15  1  0  0  0  0
 11 16  1  0  0  0  0
 39 41  1  0  0  0  0
 39 42  1  0  0  0  0
 39 43  1  0  0  0  0
 21 25  1  0  0  0  0
 21 26  1  0  0  0  0
 29 34  1  0  0  0  0
  8 13  1  0  0  0  0
 18 24  1  0  0  0  0
 38 40  1  0  0  0  0
  7 12  1  0  0  0  0
 28 33  1  0  0  0  0
 17 23  1  0  0  0  0
 22 27  1  0  0  0  0
M  END
$$$$

  -OEChem-05262214473D

 43 42  0     1  0  0  0  0  0999 V2000
   -2.8661   -4.7415    2.2943 C   0  0  0  0  0  0  0  0  0  0  0  0
   -2.0233   -5.5727    2.6109 O   0  0  0  0  0  0  0  0  0  0  0  0
   -4.3078   -5.0134    2.5698 C   0  0  0  0  0  0  0  0  0  0  0  0
   -4.8057   -5.5295    1.7332 H   0  0  0  0  0  0  0  0  0  0  0  0
   -4.4526   -5.6688    3.4436 H   0  0  0  0  0  0  0  0  0  0  0  0
   -4.9255   -4.1233    2.7700 H   0  0  0  0  0  0  0  0  0  0  0  0
   -2.6241   -3.5219    1.6838 N   0  0  0  0  0  0  0  0  0  0  0  0
   -1.3070   -3.0608    1.3315 C   0  0  2  0  0  0  0  0  0  0  0  0
   -1.3931   -1.5680    1.0422 C   0  0  0  0  0  0  0  0  0  0  0  0
   -2.4385   -1.0059    0.7226 O   0  0  0  0  0  0  0  0  0  0  0  0
   -0.7590   -3.8164    0.1309 C   0  0  0  0  0  0  0  0  0  0  0  0
   -3.4188   -2.9207    1.4735 H   0  0  0  0  0  0  0  0  0  0  0  0
   -0.6690   -3.2277    2.2062 H   0  0  0  0  0  0  0  0  0  0  0  0
   -1.3852   -3.6613   -0.7553 H   0  0  0  0  0  0  0  0  0  0  0  0
    0.2542   -3.4843   -0.1182 H   0  0  0  0  0  0  0  0  0  0  0  0
   -0.7257   -4.8930    0.3300 H   0  0  0  0  0  0  0  0  0  0  0  0
   -0.1563   -0.9420    1.1402 N   0  0  0  0  0  0  0  0  0  0  0  0
    0.0261    0.4671    0.9001 C   0  0  2  0  0  0  0  0  0  0  0  0
   -0.1589    1.2210    2.2155 C   0  0  0  0  0  0  0  0  0  0  0  0
   -1.1575    1.8920    2.4680 O   0  0  0  0  0  0  0  0  0  0  0  0
   -0.8685    0.9865   -0.2281 C   0  0  0  0  0  0  0  0  0  0  0  0
   -0.4779    0.2769   -1.8610 S   0  0  0  0  0  0  0  0  0  0  0  0
    0.6533   -1.4855    1.4300 H   0  0  0  0  0  0  0  0  0  0  0  0
    1.0746    0.5812    0.5978 H   0  0  0  0  0  0  0  0  0  0  0  0
   -1.9199    0.7651   -0.0178 H   0  0  0  0  0  0  0  0  0  0  0  0
   -0.7702    2.0743   -0.3114 H   0  0  0  0  0  0  0  0  0  0  0  0
   -1.4256    0.9469   -2.5290 H   0  0  0  0  0  0  0  0  0  0  0  0
    0.9316    1.0760    3.0614 N   0  0  0  0  0  0  0  0  0  0  0  0
    0.9985    1.7033    4.3605 C   0  0  2  0  0  0  0  0  0  0  0  0
    2.3905    1.4605    4.9289 C   0  0  0  0  0  0  0  0  0  0  0  0
    3.1132    0.5366    4.5614 O   0  0  0  0  0  0  0  0  0  0  0  0
   -0.0721    1.1592    5.2935 C   0  0  0  0  0  0  0  0  0  0  0  0
    1.7018    0.4742    2.7854 H   0  0  0  0  0  0  0  0  0  0  0  0
    0.8506    2.7770    4.2013 H   0  0  0  0  0  0  0  0  0  0  0  0
    0.0597    0.0847    5.4650 H   0  0  0  0  0  0  0  0  0  0  0  0
   -0.0383    1.6561    6.2688 H   0  0  0  0  0  0  0  0  0  0  0  0
   -1.0710    1.3081    4.8694 H   0  0  0  0  0  0  0  0  0  0  0  0
    2.7135    2.3709    5.9253 N   0  0  0  0  0  0  0  0  0  0  0  0
    3.9745    2.3420    6.6288 C   0  0  0  0  0  0  0  0  0  0  0  0
    2.0611    3.1157    6.1523 H   0  0  0  0  0  0  0  0  0  0  0  0
    3.8712    1.7393    7.5432 H   0  0  0  0  0  0  0  0  0  0  0  0
    4.7451    1.8974    5.9818 H   0  0  0  0  0  0  0  0  0  0  0  0
    4.2681    3.3676    6.8971 H   0  0  0  0  0  0  0  0  0  0  0  0
  1  3  1  0  0  0  0
  1  7  1  0  0  0  0
  1  2  2  0  0  0  0
 29 30  1  0  0  0  0
 30 38  1  0  0  0  0
 30 31  2  0  0  0  0
  8  9  1  0  0  0  0
  9 17  1  0  0  0  0
  9 10  2  0  0  0  0
 18 19  1  0  0  0  0
 19 28  1  0  0  0  0
 19 20  2  0  0  0  0
 29 32  1  0  0  0  0
  8 11  1  0  0  0  0
 38 39  1  0  0  0  0
 18 21  1  0  0  0  0
 21 22  1  0  0  0  0
 28 29  1  0  0  0  0
  7  8  1  0  0  0  0
 17 18  1  0  0  0  0
  3  4  1  0  0  0  0
  3  5  1  0  0  0  0
  3  6  1  0  0  0  0
 32 35  1  0  0  0  0
 32 36  1  0  0  0  0
 32 37  1  0  0  0  0
 11 14  1  0  0  0  0
 11 15  1  0  0  0  0
 11 16  1  0  0  0  0
 39 41  1  0  0  0  0
 39 42  1  0  0  0  0
 39 43  1  0  0  0  0
 21 25  1  0  0  0  0
 21 26  1  0  0  0  0
 29 34  1  0  0  0  0
  8 13  1  0  0  0  0
 18 24  1  0  0  0  0
 38 40  1  0  0  0  0
  7 12  1  0  0  0  0
 28 33  1  0  0  0  0
 17 23  1  0  0  0  0
 22 27  1  0  0  0  0
M  END
$$$$

  -OEChem-05262214473D

 43 42  0     1  0  0  0  0  0999 V2000
   -2.8661   -4.7415    2.2943 C   0  0  0  0  0  0  0  0  0  0  0  0
   -2.0233   -5.5727    2.6109 O   0  0  0  0  0  0  0  0  0  0  0  0
   -4.3078   -5.0134    2.5698 C   0  0  0  0  0  0  0  0  0  0  0  0
   -4.8057   -5.5295    1.7332 H   0  0  0  0  0  0  0  0  0  0  0  0
   -4.4526   -5.6688    3.4436 H   0  0  0  0  0  0  0  0  0  0  0  0
   -4.9255   -4.1233    2.7700 H   0  0  0  0  0  0  0  0  0  0  0  0
   -2.6241   -3.5219    1.6838 N   0  0  0  0  0  0  0  0  0  0  0  0
   -1.3070   -3.0608    1.3315 C   0  0  2  0  0  0  0  0  0  0  0  0
   -1.3931   -1.5680    1.0422 C   0  0  0  0  0  0  0  0  0  0  0  0
   -2.4385   -1.0059    0.7226 O   0  0  0  0  0  0  0  0  0  0  0  0
   -0.7590   -3.8164    0.1309 C   0  0  0  0  0  0  0  0  0  0  0  0
   -3.4188   -2.9207    1.4735 H   0  0  0  0  0  0  0  0  0  0  0  0
   -0.6690   -3.2277    2.2062 H   0  0  0  0  0  0  0  0  0  0  0  0
   -1.3852   -3.6613   -0.7553 H   0  0  0  0  0  0  0  0  0  0  0  0
    0.2542   -3.4843   -0.1182 H   0  0  0  0  0  0  0  0  0  0  0  0
   -0.7257   -4.8930    0.3300 H   0  0  0  0  0  0  0  0  0  0  0  0
   -0.1563   -0.9420    1.1402 N   0  0  0  0  0  0  0  0  0  0  0  0
    0.0261    0.4671    0.9001 C   0  0  2  0  0  0  0  0  0  0  0  0
   -0.1589    1.2210    2.2155 C   0  0  0  0  0  0  0  0  0  0  0  0
   -1.2436    1.6657    2.5856 O   0  0  0  0  0  0  0  0  0  0  0  0
   -0.8685    0.9865   -0.2281 C   0  0  0  0  0  0  0  0  0  0  0  0
   -0.4779    0.2769   -1.8610 S   0  0  0  0  0  0  0  0  0  0  0  0
    0.6533   -1.4855    1.4300 H   0  0  0  0  0  0  0  0  0  0  0  0
    1.0746    0.5812    0.5978 H   0  0  0  0  0  0  0  0  0  0  0  0
   -1.9199    0.7651   -0.0178 H   0  0  0  0  0  0  0  0  0  0  0  0
   -0.7702    2.0743   -0.3114 H   0  0  0  0  0  0  0  0  0  0  0  0
   -1.4256    0.9469   -2.5290 H   0  0  0  0  0  0  0  0  0  0  0  0
    1.0326    1.3594    2.9132 N   0  0  0  0  0  0  0  0  0  0  0  0
    1.1175    2.0448    4.1816 C   0  0  2  0  0  0  0  0  0  0  0  0
    2.5880    2.1417    4.5663 C   0  0  0  0  0  0  0  0  0  0  0  0
    3.4487    1.3844    4.1227 O   0  0  0  0  0  0  0  0  0  0  0  0
    0.3211    1.3211    5.2561 C   0  0  0  0  0  0  0  0  0  0  0  0
    1.8781    0.9305    2.5487 H   0  0  0  0  0  0  0  0  0  0  0  0
    0.7133    3.0509    4.0250 H   0  0  0  0  0  0  0  0  0  0  0  0
    0.7115    0.3112    5.4269 H   0  0  0  0  0  0  0  0  0  0  0  0
    0.3631    1.8573    6.2099 H   0  0  0  0  0  0  0  0  0  0  0  0
   -0.7303    1.2260    4.9643 H   0  0  0  0  0  0  0  0  0  0  0  0
    2.8191    3.1457    5.4962 N   0  0  0  0  0  0  0  0  0  0  0  0
    4.1316    3.4284    6.0284 C   0  0  0  0  0  0  0  0  0  0  0  0
    2.0493    3.7376    5.7942 H   0  0  0  0  0  0  0  0  0  0  0  0
    4.2809    2.8602    6.9584 H   0  0  0  0  0  0  0  0  0  0  0  0
    4.8960    3.1358    5.2934 H   0  0  0  0  0  0  0  0  0  0  0  0
    4.2180    4.5046    6.2385 H   0  0  0  0  0  0  0  0  0  0  0  0
  1  3  1  0  0  0  0
  1  7  1  0  0  0  0
  1  2  2  0  0  0  0
 29 30  1  0  0  0  0
 30 38  1  0  0  0  0
 30 31  2  0  0  0  0
  8  9  1  0  0  0  0
  9 17  1  0  0  0  0
  9 10  2  0  0  0  0
 18 19  1  0  0  0  0
 19 28  1  0  0  0  0
 19 20  2  0  0  0  0
 29 32  1  0  0  0  0
  8 11  1  0  0  0  0
 38 39  1  0  0  0  0
 18 21  1  0  0  0  0
 21 22  1  0  0  0  0
 28 29  1  0  0  0  0
  7  8  1  0  0  0  0
 17 18  1  0  0  0  0
  3  4  1  0  0  0  0
  3  5  1  0  0  0  0
  3  6  1  0  0  0  0
 32 35  1  0  0  0  0
 32 36  1  0  0  0  0
 32 37  1  0  0  0  0
 11 14  1  0  0  0  0
 11 15  1  0  0  0  0
 11 16  1  0  0  0  0
 39 41  1  0  0  0  0
 39 42  1  0  0  0  0
 39 43  1  0  0  0  0
 21 25  1  0  0  0  0
 21 26  1  0  0  0  0
 29 34  1  0  0  0  0
  8 13  1  0  0  0  0
 18 24  1  0  0  0  0
 38 40  1  0  0  0  0
  7 12  1  0  0  0  0
 28 33  1  0  0  0  0
 17 23  1  0  0  0  0
 22 27  1  0  0  0  0
M  END
$$$$

  -OEChem-05262214473D

 43 42  0     1  0  0  0  0  0999 V2000
   -2.8661   -4.7415    2.2943 C   0  0  0  0  0  0  0  0  0  0  0  0
   -2.0233   -5.5727    2.6109 O   0  0  0  0  0  0  0  0  0  0  0  0
   -4.3078   -5.0134    2.5698 C   0  0  0  0  0  0  0  0  0  0  0  0
   -4.8057   -5.5295    1.7332 H   0  0  0  0  0  0  0  0  0  0  0  0
   -4.4526   -5.6688    3.4436 H   0  0  0  0  0  0  0  0  0  0  0  0
   -4.9255   -4.1233    2.7700 H   0  0  0  0  0  0  0  0  0  0  0  0
   -2.6241   -3.5219    1.6838 N   0  0  0  0  0  0  0  0  0  0  0  0
   -1.3070   -3.0608    1.3315 C   0  0  2  0  0  0  0  0  0  0  0  0
   -1.3931   -1.5680    1.0422 C   0  0  0  0  0  0  0  0  0  0  0  0
   -2.4385   -1.0059    0.7226 O   0  0  0  0  0  0  0  0  0  0  0  0
   -0.7590   -3.8164    0.1309 C   0  0  0  0  0  0  0  0  0  0  0  0
   -3.4188   -2.9207    1.4735 H   0  0  0  0  0  0  0  0  0  0  0  0
   -0.6690   -3.2277    2.2062 H   0  0  0  0  0  0  0  0  0  0  0  0
   -1.3852   -3.6613   -0.7553 H   0  0  0  0  0  0  0  0  0  0  0  0
    0.2542   -3.4843   -0.1182 H   0  0  0  0  0  0  0  0  0  0  0  0
   -0.7257   -4.8930    0.3300 H   0  0  0  0  0  0  0  0  0  0  0  0
   -0.1563   -0.9420    1.1402 N   0  0  0  0  0  0  0  0  0  0  0  0
    0.0261    0.4671    0.9001 C   0  0  2  0  0  0  0  0  0  0  0  0
   -0.1589    1.2210    2.2155 C   0  0  0  0  0  0  0  0  0  0  0  0
   -1.2613    1.4316    2.7172 O   0  0  0  0  0  0  0  0  0  0  0  0
   -0.8685    0.9865   -0.2281 C   0  0  0  0  0  0  0  0  0  0  0  0
   -0.4779    0.2769   -1.8610 S   0  0  0  0  0  0  0  0  0  0  0  0
    0.6533   -1.4855    1.4300 H   0  0  0  0  0  0  0  0  0  0  0  0
    1.0746    0.5812    0.5978 H   0  0  0  0  0  0  0  0  0  0  0  0
   -1.9199    0.7651   -0.0178 H   0  0  0  0  0  0  0  0  0  0  0  0
   -0.7702    2.0743   -0.3114 H   0  0  0  0  0  0  0  0  0  0  0  0
   -1.4256    0.9469   -2.5290 H   0  0  0  0  0  0  0  0  0  0  0  0
    1.0481    1.6509    2.7483 N   0  0  0  0  0  0  0  0  0  0  0  0
    1.1335    2.3956    3.9828 C   0  0  2  0  0  0  0  0  0  0  0  0
    2.5806    2.8324    4.1694 C   0  0  0  0  0  0  0  0  0  0  0  0
    3.5276    2.2644    3.6295 O   0  0  0  0  0  0  0  0  0  0  0  0
    0.6601    1.5639    5.1646 C   0  0  0  0  0  0  0  0  0  0  0  0
    1.9165    1.4032    2.2832 H   0  0  0  0  0  0  0  0  0  0  0  0
    0.4971    3.2793    3.8637 H   0  0  0  0  0  0  0  0  0  0  0  0
    1.2858    0.6740    5.2997 H   0  0  0  0  0  0  0  0  0  0  0  0
    0.6985    2.1392    6.0955 H   0  0  0  0  0  0  0  0  0  0  0  0
   -0.3709    1.2256    5.0151 H   0  0  0  0  0  0  0  0  0  0  0  0
    2.6936    3.9042    5.0438 N   0  0  0  0  0  0  0  0  0  0  0  0
    3.9646    4.4939    5.3943 C   0  0  0  0  0  0  0  0  0  0  0  0
    1.8535    4.3245    5.4303 H   0  0  0  0  0  0  0  0  0  0  0  0
    4.3521    4.0160    6.3061 H   0  0  0  0  0  0  0  0  0  0  0  0
    4.6778    4.3439    4.5703 H   0  0  0  0  0  0  0  0  0  0  0  0
    3.8320    5.5711    5.5730 H   0  0  0  0  0  0  0  0  0  0  0  0
  1  3  1  0  0  0  0
  1  7  1  0  0  0  0
  1  2  2  0  0  0  0
 29 30  1  0  0  0  0
 30 38  1  0  0  0  0
 30 31  2  0  0  0  0
  8  9  1  0  0  0  0
  9 17  1  0  0  0  0
  9 10  2  0  0  0  0
 18 19  1  0  0  0  0
 19 28  1  0  0  0  0
 19 20  2  0  0  0  0
 29 32  1  0  0  0  0
  8 11  1  0  0  0  0
 38 39  1  0  0  0  0
 18 21  1  0  0  0  0
 21 22  1  0  0  0  0
 28 29  1  0  0  0  0
  7  8  1  0  0  0  0
 17 18  1  0  0  0  0
  3  4  1  0  0  0  0
  3  5  1  0  0  0  0
  3  6  1  0  0  0  0
 32 35  1  0  0  0  0
 32 36  1  0  0  0  0
 32 37  1  0  0  0  0
 11 14  1  0  0  0  0
 11 15  1  0  0  0  0
 11 16  1  0  0  0  0
 39 41  1  0  0  0  0
 39 42  1  0  0  0  0
 39 43  1  0  0  0  0
 21 25  1  0  0  0  0
 21 26  1  0  0  0  0
 29 34  1  0  0  0  0
  8 13  1  0  0  0  0
 18 24  1  0  0  0  0
 38 40  1  0  0  0  0
  7 12  1  0  0  0  0
 28 33  1  0  0  0  0
 17 23  1  0  0  0  0
 22 27  1  0  0  0  0
M  END
$$$$

  -OEChem-05262214473D

 43 42  0     1  0  0  0  0  0999 V2000
   -2.8661   -4.7415    2.2943 C   0  0  0  0  0  0  0  0  0  0  0  0
   -2.0233   -5.5727    2.6109 O   0  0  0  0  0  0  0  0  0  0  0  0
   -4.3078   -5.0134    2.5698 C   0  0  0  0  0  0  0  0  0  0  0  0
   -4.8057   -5.5295    1.7332 H   0  0  0  0  0  0  0  0  0  0  0  0
   -4.4526   -5.6688    3.4436 H   0  0  0  0  0  0  0  0  0  0  0  0
   -4.9255   -4.1233    2.7700 H   0  0  0  0  0  0  0  0  0  0  0  0
   -2.6241   -3.5219    1.6838 N   0  0  0  0  0  0  0  0  0  0  0  0
   -1.3070   -3.0608    1.3315 C   0  0  2  0  0  0  0  0  0  0  0  0
   -1.3931   -1.5680    1.0422 C   0  0  0  0  0  0  0  0  0  0  0  0
   -2.4385   -1.0059    0.7226 O   0  0  0  0  0  0  0  0  0  0  0  0
   -0.7590   -3.8164    0.1309 C   0  0  0  0  0  0  0  0  0  0  0  0
   -3.4188   -2.9207    1.4735 H   0  0  0  0  0  0  0  0  0  0  0  0
   -0.6690   -3.2277    2.2062 H   0  0  0  0  0  0  0  0  0  0  0  0
   -1.3852   -3.6613   -0.7553 H   0  0  0  0  0  0  0  0  0  0  0  0
    0.2542   -3.4843   -0.1182 H   0  0  0  0  0  0  0  0  0  0  0  0
   -0.7257   -4.8930    0.3300 H   0  0  0  0  0  0  0  0  0  0  0  0
   -0.1563   -0.9420    1.1402 N   0  0  0  0  0  0  0  0  0  0  0  0
    0.0261    0.4671    0.9001 C   0  0  2  0  0  0  0  0  0  0  0  0
   -0.1589    1.2210    2.2155 C   0  0  0  0  0  0  0  0  0  0  0  0
   -1.2093    1.2057    2.8540 O   0  0  0  0  0  0  0  0  0  0  0  0
   -0.8685    0.9865   -0.2281 C   0  0  0  0  0  0  0  0  0  0  0  0
   -0.4779    0.2769   -1.8610 S   0  0  0  0  0  0  0  0  0  0  0  0
    0.6533   -1.4855    1.4300 H   0  0  0  0  0  0  0  0  0  0  0  0
    1.0746    0.5812    0.5978 H   0  0  0  0  0  0  0  0  0  0  0  0
   -1.9199    0.7651   -0.0178 H   0  0  0  0  0  0  0  0  0  0  0  0
   -0.7702    2.0743   -0.3114 H   0  0  0  0  0  0  0  0  0  0  0  0
   -1.4256    0.9469   -2.5290 H   0  0  0  0  0  0  0  0  0  0  0  0
    0.9771    1.9308    2.5779 N   0  0  0  0  0  0  0  0  0  0  0  0
    1.0454    2.7318    3.7777 C   0  0  2  0  0  0  0  0  0  0  0  0
    2.3688    3.4855    3.7653 C   0  0  0  0  0  0  0  0  0  0  0  0
    3.3447    3.1166    3.1154 O   0  0  0  0  0  0  0  0  0  0  0  0
    0.9217    1.8711    5.0254 C   0  0  0  0  0  0  0  0  0  0  0  0
    1.8142    1.8600    2.0071 H   0  0  0  0  0  0  0  0  0  0  0  0
    0.2168    3.4467    3.7284 H   0  0  0  0  0  0  0  0  0  0  0  0
    1.7433    1.1486    5.0921 H   0  0  0  0  0  0  0  0  0  0  0  0
    0.9450    2.4828    5.9333 H   0  0  0  0  0  0  0  0  0  0  0  0
   -0.0172    1.3070    5.0182 H   0  0  0  0  0  0  0  0  0  0  0  0
    2.3455    4.5947    4.5992 N   0  0  0  0  0  0  0  0  0  0  0  0
    3.4847    5.4659    4.7697 C   0  0  0  0  0  0  0  0  0  0  0  0
    1.4870    4.8363    5.0855 H   0  0  0  0  0  0  0  0  0  0  0  0
    4.0800    5.1277    5.6306 H   0  0  0  0  0  0  0  0  0  0  0  0
    4.1054    5.4396    3.8619 H   0  0  0  0  0  0  0  0  0  0  0  0
    3.1365    6.4943    4.9461 H   0  0  0  0  0  0  0  0  0  0  0  0
  1  3  1  0  0  0  0
  1  7  1  0  0  0  0
  1  2  2  0  0  0  0
 29 30  1  0  0  0  0
 30 38  1  0  0  0  0
 30 31  2  0  0  0  0
  8  9  1  0  0  0  0
  9 17  1  0  0  0  0
  9 10  2  0  0  0  0
 18 19  1  0  0  0  0
 19 28  1  0  0  0  0
 19 20  2  0  0  0  0
 29 32  1  0  0  0  0
  8 11  1  0  0  0  0
 38 39  1  0  0  0  0
 18 21  1  0  0  0  0
 21 22  1  0  0  0  0
 28 29  1  0  0  0  0
  7  8  1  0  0  0  0
 17 18  1  0  0  0  0
  3  4  1  0  0  0  0
  3  5  1  0  0  0  0
  3  6  1  0  0  0  0
 32 35  1  0  0  0  0
 32 36  1  0  0  0  0
 32 37  1  0  0  0  0
 11 14  1  0  0  0  0
 11 15  1  0  0  0  0
 11 16  1  0  0  0  0
 39 41  1  0  0  0  0
 39 42  1  0  0  0  0
 39 43  1  0  0  0  0
 21 25  1  0  0  0  0
 21 26  1  0  0  0  0
 29 34  1  0  0  0  0
  8 13  1  0  0  0  0
 18 24  1  0  0  0  0
 38 40  1  0  0  0  0
  7 12  1  0  0  0  0
 28 33  1  0  0  0  0
 17 23  1  0  0  0  0
 22 27  1  0  0  0  0
M  END
$$$$

  -OEChem-05262214473D

 43 42  0     1  0  0  0  0  0999 V2000
   -2.8661   -4.7415    2.2943 C   0  0  0  0  0  0  0  0  0  0  0  0
   -2.0233   -5.5727    2.6109 O   0  0  0  0  0  0  0  0  0  0  0  0
   -4.3078   -5.0134    2.5698 C   0  0  0  0  0  0  0  0  0  0  0  0
   -4.8057   -5.5295    1.7332 H   0  0  0  0  0  0  0  0  0  0  0  0
   -4.4526   -5.6688    3.4436 H   0  0  0  0  0  0  0  0  0  0  0  0
   -4.9255   -4.1233    2.7700 H   0  0  0  0  0  0  0  0  0  0  0  0
   -2.6241   -3.5219    1.6838 N   0  0  0  0  0  0  0  0  0  0  0  0
   -1.3070   -3.0608    1.3315 C   0  0  2  0  0  0  0  0  0  0  0  0
   -1.3931   -1.5680    1.0422 C   0  0  0  0  0  0  0  0  0  0  0  0
   -2.4385   -1.0059    0.7226 O   0  0  0  0  0  0  0  0  0  0  0  0
   -0.7590   -3.8164    0.1309 C   0  0  0  0  0  0  0  0  0  0  0  0
   -3.4188   -2.9207    1.4735 H   0  0  0  0  0  0  0  0  0  0  0  0
   -0.6690   -3.2277    2.2062 H   0  0  0  0  0  0  0  0  0  0  0  0
   -1.3852   -3.6613   -0.7553 H   0  0  0  0  0  0  0  0  0  0  0  0
    0.2542   -3.4843   -0.1182 H   0  0  0  0  0  0  0  0  0  0  0  0
   -0.7257   -4.8930    0.3300 H   0  0  0  0  0  0  0  0  0  0  0  0
   -0.1563   -0.9420    1.1402 N   0  0  0  0  0  0  0  0  0  0  0  0
    0.0261    0.4671    0.9001 C   0  0  2  0  0  0  0  0  0  0  0  0
   -0.1589    1.2210    2.2155 C   0  0  0  0  0  0  0  0  0  0  0  0
   -1.0913    1.0034    2.9866 O   0  0  0  0  0  0  0  0  0  0  0  0
   -0.8685    0.9865   -0.2281 C   0  0  0  0  0  0  0  0  0  0  0  0
   -0.4779    0.2769   -1.8610 S   0  0  0  0  0  0  0  0  0  0  0  0
    0.6533   -1.4855    1.4300 H   0  0  0  0  0  0  0  0  0  0  0  0
    1.0746    0.5812    0.5978 H   0  0  0  0  0  0  0  0  0  0  0  0
   -1.9199    0.7651   -0.0178 H   0  0  0  0  0  0  0  0  0  0  0  0
   -0.7702    2.0743   -0.3114 H   0  0  0  0  0  0  0  0  0  0  0  0
   -1.4256    0.9469   -2.5290 H   0  0  0  0  0  0  0  0  0  0  0  0
    0.8242    2.1800    2.4136 N   0  0  0  0  0  0  0  0  0  0  0  0
    0.8591    3.0304    3.5804 C   0  0  2  0  0  0  0  0  0  0  0  0
    1.9670    4.0564    3.3816 C   0  0  0  0  0  0  0  0  0  0  0  0
    2.9125    3.8828    2.6155 O   0  0  0  0  0  0  0  0  0  0  0  0
    1.0882    2.2218    4.8478 C   0  0  0  0  0  0  0  0  0  0  0  0
    1.5783    2.2697    1.7391 H   0  0  0  0  0  0  0  0  0  0  0  0
   -0.1086    3.5416    3.6282 H   0  0  0  0  0  0  0  0  0  0  0  0
    2.0530    1.7024    4.8182 H   0  0  0  0  0  0  0  0  0  0  0  0
    1.0859    2.8645    5.7344 H   0  0  0  0  0  0  0  0  0  0  0  0
    0.3068    1.4645    4.9735 H   0  0  0  0  0  0  0  0  0  0  0  0
    1.7985    5.1701    4.1925 N   0  0  0  0  0  0  0  0  0  0  0  0
    2.7247    6.2783    4.1972 C   0  0  0  0  0  0  0  0  0  0  0  0
    0.9750    5.2382    4.7831 H   0  0  0  0  0  0  0  0  0  0  0  0
    3.4830    6.1198    4.9781 H   0  0  0  0  0  0  0  0  0  0  0  0
    3.2177    6.3482    3.2164 H   0  0  0  0  0  0  0  0  0  0  0  0
    2.1788    7.2114    4.4005 H   0  0  0  0  0  0  0  0  0  0  0  0
  1  3  1  0  0  0  0
  1  7  1  0  0  0  0
  1  2  2  0  0  0  0
 29 30  1  0  0  0  0
 30 38  1  0  0  0  0
 30 31  2  0  0  0  0
  8  9  1  0  0  0  0
  9 17  1  0  0  0  0
  9 10  2  0  0  0  0
 18 19  1  0  0  0  0
 19 28  1  0  0  0  0
 19 20  2  0  0  0  0
 29 32  1  0  0  0  0
  8 11  1  0  0  0  0
 38 39  1  0  0  0  0
 18 21  1  0  0  0  0
 21 22  1  0  0  0  0
 28 29  1  0  0  0  0
  7  8  1  0  0  0  0
 17 18  1  0  0  0  0
  3  4  1  0  0  0  0
  3  5  1  0  0  0  0
  3  6  1  0  0  0  0
 32 35  1  0  0  0  0
 32 36  1  0  0  0  0
 32 37  1  0  0  0  0
 11 14  1  0  0  0  0
 11 15  1  0  0  0  0
 11 16  1  0  0  0  0
 39 41  1  0  0  0  0
 39 42  1  0  0  0  0
 39 43  1  0  0  0  0
 21 25  1  0  0  0  0
 21 26  1  0  0  0  0
 29 34  1  0  0  0  0
  8 13  1  0  0  0  0
 18 24  1  0  0  0  0
 38 40  1  0  0  0  0
  7 12  1  0  0  0  0
 28 33  1  0  0  0  0
 17 23  1  0  0  0  0
 22 27  1  0  0  0  0
M  END
$$$$

  -OEChem-05262214473D

 43 42  0     1  0  0  0  0  0999 V2000
   -2.8661   -4.7415    2.2943 C   0  0  0  0  0  0  0  0  0  0  0  0
   -2.0233   -5.5727    2.6109 O   0  0  0  0  0  0  0  0  0  0  0  0
   -4.3078   -5.0134    2.5698 C   0  0  0  0  0  0  0  0  0  0  0  0
   -4.8057   -5.5295    1.7332 H   0  0  0  0  0  0  0  0  0  0  0  0
   -4.4526   -5.6688    3.4436 H   0  0  0  0  0  0  0  0  0  0  0  0
   -4.9255   -4.1233    2.7700 H   0  0  0  0  0  0  0  0  0  0  0  0
   -2.6241   -3.5219    1.6838 N   0  0  0  0  0  0  0  0  0  0  0  0
   -1.3070   -3.0608    1.3315 C   0  0  2  0  0  0  0  0  0  0  0  0
   -1.3931   -1.5680    1.0422 C   0  0  0  0  0  0  0  0  0  0  0  0
   -2.4385   -1.0059    0.7226 O   0  0  0  0  0  0  0  0  0  0  0  0
   -0.7590   -3.8164    0.1309 C   0  0  0  0  0  0  0  0  0  0  0  0
   -3.4188   -2.9207    1.4735 H   0  0  0  0  0  0  0  0  0  0  0  0
   -0.6690   -3.2277    2.2062 H   0  0  0  0  0  0  0  0  0  0  0  0
   -1.3852   -3.6613   -0.7553 H   0  0  0  0  0  0  0  0  0  0  0  0
    0.2542   -3.4843   -0.1182 H   0  0  0  0  0  0  0  0  0  0  0  0
   -0.7257   -4.8930    0.3300 H   0  0  0  0  0  0  0  0  0  0  0  0
   -0.1563   -0.9420    1.1402 N   0  0  0  0  0  0  0  0  0  0  0  0
    0.0261    0.4671    0.9001 C   0  0  2  0  0  0  0  0  0  0  0  0
   -0.1589    1.2210    2.2155 C   0  0  0  0  0  0  0  0  0  0  0  0
   -0.9153    0.8384    3.1059 O   0  0  0  0  0  0  0  0  0  0  0  0
   -0.8685    0.9865   -0.2281 C   0  0  0  0  0  0  0  0  0  0  0  0
   -0.4779    0.2769   -1.8610 S   0  0  0  0  0  0  0  0  0  0  0  0
    0.6533   -1.4855    1.4300 H   0  0  0  0  0  0  0  0  0  0  0  0
    1.0746    0.5812    0.5978 H   0  0  0  0  0  0  0  0  0  0  0  0
   -1.9199    0.7651   -0.0178 H   0  0  0  0  0  0  0  0  0  0  0  0
   -0.7702    2.0743   -0.3114 H   0  0  0  0  0  0  0  0  0  0  0  0
   -1.4256    0.9469   -2.5290 H   0  0  0  0  0  0  0  0  0  0  0  0
    0.6001    2.3815    2.2666 N   0  0  0  0  0  0  0  0  0  0  0  0
    0.5874    3.2712    3.4042 C   0  0  2  0  0  0  0  0  0  0  0  0
    1.4026    4.5063    3.0444 C   0  0  0  0  0  0  0  0  0  0  0  0
    2.2603    4.5109    2.1638 O   0  0  0  0  0  0  0  0  0  0  0  0
    1.1481    2.5921    4.6440 C   0  0  0  0  0  0  0  0  0  0  0  0
    1.2249    2.6045    1.4975 H   0  0  0  0  0  0  0  0  0  0  0  0
   -0.4568    3.5577    3.5700 H   0  0  0  0  0  0  0  0  0  0  0  0
    2.1936    2.2978    4.4968 H   0  0  0  0  0  0  0  0  0  0  0  0
    1.1114    3.2583    5.5122 H   0  0  0  0  0  0  0  0  0  0  0  0
    0.5789    1.6875    4.8840 H   0  0  0  0  0  0  0  0  0  0  0  0
    1.0900    5.5913    3.8515 N   0  0  0  0  0  0  0  0  0  0  0  0
    1.7364    6.8757    3.7159 C   0  0  0  0  0  0  0  0  0  0  0  0
    0.3521    5.5028    4.5439 H   0  0  0  0  0  0  0  0  0  0  0  0
    2.6019    6.9245    4.3930 H   0  0  0  0  0  0  0  0  0  0  0  0
    2.0753    7.0077    2.6777 H   0  0  0  0  0  0  0  0  0  0  0  0
    1.0241    7.6735    3.9733 H   0  0  0  0  0  0  0  0  0  0  0  0
  1  3  1  0  0  0  0
  1  7  1  0  0  0  0
  1  2  2  0  0  0  0
 29 30  1  0  0  0  0
 30 38  1  0  0  0  0
 30 31  2  0  0  0  0
  8  9  1  0  0  0  0
  9 17  1  0  0  0  0
  9 10  2  0  0  0  0
 18 19  1  0  0  0  0
 19 28  1  0  0  0  0
 19 20  2  0  0  0  0
 29 32  1  0  0  0  0
  8 11  1  0  0  0  0
 38 39  1  0  0  0  0
 18 21  1  0  0  0  0
 21 22  1  0  0  0  0
 28 29  1  0  0  0  0
  7  8  1  0  0  0  0
 17 18  1  0  0  0  0
  3  4  1  0  0  0  0
  3  5  1  0  0  0  0
  3  6  1  0  0  0  0
 32 35  1  0  0  0  0
 32 36  1  0  0  0  0
 32 37  1  0  0  0  0
 11 14  1  0  0  0  0
 11 15  1  0  0  0  0
 11 16  1  0  0  0  0
 39 41  1  0  0  0  0
 39 42  1  0  0  0  0
 39 43  1  0  0  0  0
 21 25  1  0  0  0  0
 21 26  1  0  0  0  0
 29 34  1  0  0  0  0
  8 13  1  0  0  0  0
 18 24  1  0  0  0  0
 38 40  1  0  0  0  0
  7 12  1  0  0  0  0
 28 33  1  0  0  0  0
 17 23  1  0  0  0  0
 22 27  1  0  0  0  0
M  END
$$$$

  -OEChem-05262214473D

 43 42  0     1  0  0  0  0  0999 V2000
   -2.8661   -4.7415    2.2943 C   0  0  0  0  0  0  0  0  0  0  0  0
   -2.0233   -5.5727    2.6109 O   0  0  0  0  0  0  0  0  0  0  0  0
   -4.3078   -5.0134    2.5698 C   0  0  0  0  0  0  0  0  0  0  0  0
   -4.8057   -5.5295    1.7332 H   0  0  0  0  0  0  0  0  0  0  0  0
   -4.4526   -5.6688    3.4436 H   0  0  0  0  0  0  0  0  0  0  0  0
   -4.9255   -4.1233    2.7700 H   0  0  0  0  0  0  0  0  0  0  0  0
   -2.6241   -3.5219    1.6838 N   0  0  0  0  0  0  0  0  0  0  0  0
   -1.3070   -3.0608    1.3315 C   0  0  2  0  0  0  0  0  0  0  0  0
   -1.3931   -1.5680    1.0422 C   0  0  0  0  0  0  0  0  0  0  0  0
   -2.4385   -1.0059    0.7226 O   0  0  0  0  0  0  0  0  0  0  0  0
   -0.7590   -3.8164    0.1309 C   0  0  0  0  0  0  0  0  0  0  0  0
   -3.4188   -2.9207    1.4735 H   0  0  0  0  0  0  0  0  0  0  0  0
   -0.6690   -3.2277    2.2062 H   0  0  0  0  0  0  0  0  0  0  0  0
   -1.3852   -3.6613   -0.7553 H   0  0  0  0  0  0  0  0  0  0  0  0
    0.2542   -3.4843   -0.1182 H   0  0  0  0  0  0  0  0  0  0  0  0
   -0.7257   -4.8930    0.3300 H   0  0  0  0  0  0  0  0  0  0  0  0
   -0.1563   -0.9420    1.1402 N   0  0  0  0  0  0  0  0  0  0  0  0
    0.0261    0.4671    0.9001 C   0  0  2  0  0  0  0  0  0  0  0  0
   -0.1589    1.2210    2.2155 C   0  0  0  0  0  0  0  0  0  0  0  0
   -0.6933    0.7220    3.2038 O   0  0  0  0  0  0  0  0  0  0  0  0
   -0.8685    0.9865   -0.2281 C   0  0  0  0  0  0  0  0  0  0  0  0
   -0.4779    0.2769   -1.8610 S   0  0  0  0  0  0  0  0  0  0  0  0
    0.6533   -1.4855    1.4300 H   0  0  0  0  0  0  0  0  0  0  0  0
    1.0746    0.5812    0.5978 H   0  0  0  0  0  0  0  0  0  0  0  0
   -1.9199    0.7651   -0.0178 H   0  0  0  0  0  0  0  0  0  0  0  0
   -0.7702    2.0743   -0.3114 H   0  0  0  0  0  0  0  0  0  0  0  0
   -1.4256    0.9469   -2.5290 H   0  0  0  0  0  0  0  0  0  0  0  0
    0.3199    2.5216    2.1469 N   0  0  0  0  0  0  0  0  0  0  0  0
    0.2488    3.4377    3.2612 C   0  0  2  0  0  0  0  0  0  0  0  0
    0.7141    4.8045    2.7767 C   0  0  0  0  0  0  0  0  0  0  0  0
    1.4326    4.9580    1.7912 O   0  0  0  0  0  0  0  0  0  0  0  0
    1.0974    2.9567    4.4279 C   0  0  0  0  0  0  0  0  0  0  0  0
    0.7781    2.8416    1.2988 H   0  0  0  0  0  0  0  0  0  0  0  0
   -0.8042    3.4937    3.5578 H   0  0  0  0  0  0  0  0  0  0  0  0
    2.1557    2.8942    4.1497 H   0  0  0  0  0  0  0  0  0  0  0  0
    1.0199    3.6375    5.2821 H   0  0  0  0  0  0  0  0  0  0  0  0
    0.7805    1.9607    4.7558 H   0  0  0  0  0  0  0  0  0  0  0  0
    0.2682    5.8294    3.5994 N   0  0  0  0  0  0  0  0  0  0  0  0
    0.5871    7.2173    3.3584 C   0  0  0  0  0  0  0  0  0  0  0  0
   -0.3390    5.6120    4.3841 H   0  0  0  0  0  0  0  0  0  0  0  0
    1.4966    7.4871    3.9152 H   0  0  0  0  0  0  0  0  0  0  0  0
    0.7560    7.3732    2.2827 H   0  0  0  0  0  0  0  0  0  0  0  0
   -0.2487    7.8490    3.6936 H   0  0  0  0  0  0  0  0  0  0  0  0
  1  3  1  0  0  0  0
  1  7  1  0  0  0  0
  1  2  2  0  0  0  0
 29 30  1  0  0  0  0
 30 38  1  0  0  0  0
 30 31  2  0  0  0  0
  8  9  1  0  0  0  0
  9 17  1  0  0  0  0
  9 10  2  0  0  0  0
 18 19  1  0  0  0  0
 19 28  1  0  0  0  0
 19 20  2  0  0  0  0
 29 32  1  0  0  0  0
  8 11  1  0  0  0  0
 38 39  1  0  0  0  0
 18 21  1  0  0  0  0
 21 22  1  0  0  0  0
 28 29  1  0  0  0  0
  7  8  1  0  0  0  0
 17 18  1  0  0  0  0
  3  4  1  0  0  0  0
  3  5  1  0  0  0  0
  3  6  1  0  0  0  0
 32 35  1  0  0  0  0
 32 36  1  0  0  0  0
 32 37  1  0  0  0  0
 11 14  1  0  0  0  0
 11 15  1  0  0  0  0
 11 16  1  0  0  0  0
 39 41  1  0  0  0  0
 39 42  1  0  0  0  0
 39 43  1  0  0  0  0
 21 25  1  0  0  0  0
 21 26  1  0  0  0  0
 29 34  1  0  0  0  0
  8 13  1  0  0  0  0
 18 24  1  0  0  0  0
 38 40  1  0  0  0  0
  7 12  1  0  0  0  0
 28 33  1  0  0  0  0
 17 23  1  0  0  0  0
 22 27  1  0  0  0  0
M  END
$$$$

  -OEChem-05262214473D

 43 42  0     1  0  0  0  0  0999 V2000
   -2.8661   -4.7415    2.2943 C   0  0  0  0  0  0  0  0  0  0  0  0
   -2.0233   -5.5727    2.6109 O   0  0  0  0  0  0  0  0  0  0  0  0
   -4.3078   -5.0134    2.5698 C   0  0  0  0  0  0  0  0  0  0  0  0
   -4.8057   -5.5295    1.7332 H   0  0  0  0  0  0  0  0  0  0  0  0
   -4.4526   -5.6688    3.4436 H   0  0  0  0  0  0  0  0  0  0  0  0
   -4.9255   -4.1233    2.7700 H   0  0  0  0  0  0  0  0  0  0  0  0
   -2.6241   -3.5219    1.6838 N   0  0  0  0  0  0  0  0  0  0  0  0
   -1.3070   -3.0608    1.3315 C   0  0  2  0  0  0  0  0  0  0  0  0
   -1.3931   -1.5680    1.0422 C   0  0  0  0  0  0  0  0  0  0  0  0
   -2.4385   -1.0059    0.7226 O   0  0  0  0  0  0  0  0  0  0  0  0
   -0.7590   -3.8164    0.1309 C   0  0  0  0  0  0  0  0  0  0  0  0
   -3.4188   -2.9207    1.4735 H   0  0  0  0  0  0  0  0  0  0  0  0
   -0.6690   -3.2277    2.2062 H   0  0  0  0  0  0  0  0  0  0  0  0
   -1.3852   -3.6613   -0.7553 H   0  0  0  0  0  0  0  0  0  0  0  0
    0.2542   -3.4843   -0.1182 H   0  0  0  0  0  0  0  0  0  0  0  0
   -0.7257   -4.8930    0.3300 H   0  0  0  0  0  0  0  0  0  0  0  0
   -0.1563   -0.9420    1.1402 N   0  0  0  0  0  0  0  0  0  0  0  0
    0.0261    0.4671    0.9001 C   0  0  2  0  0  0  0  0  0  0  0  0
    0.2150    1.1766    2.2394 C   0  0  0  0  0  0  0  0  0  0  0  0
    0.1835    0.5890    3.3188 O   0  0  0  0  0  0  0  0  0  0  0  0
   -1.0986    1.0638    0.0505 C   0  0  0  0  0  0  0  0  0  0  0  0
   -1.1668    0.4026   -1.6468 S   0  0  0  0  0  0  0  0  0  0  0  0
    0.6533   -1.4855    1.4300 H   0  0  0  0  0  0  0  0  0  0  0  0
    0.9685    0.5518    0.3448 H   0  0  0  0  0  0  0  0  0  0  0  0
   -2.0722    0.8755    0.5146 H   0  0  0  0  0  0  0  0  0  0  0  0
   -0.9732    2.1493   -0.0254 H   0  0  0  0  0  0  0  0  0  0  0  0
   -2.2196    1.1341   -2.0339 H   0  0  0  0  0  0  0  0  0  0  0  0
    0.3975    2.5439    2.0879 N   0  0  0  0  0  0  0  0  0  0  0  0
    0.5868    3.4335    3.2098 C   0  0  2  0  0  0  0  0  0  0  0  0
    0.5905    4.8620    2.6817 C   0  0  0  0  0  0  0  0  0  0  0  0
    0.8514    5.1449    1.5143 O   0  0  0  0  0  0  0  0  0  0  0  0
    1.8790    3.1241    3.9495 C   0  0  0  0  0  0  0  0  0  0  0  0
    0.4431    2.9418    1.1545 H   0  0  0  0  0  0  0  0  0  0  0  0
   -0.2723    3.2915    3.8745 H   0  0  0  0  0  0  0  0  0  0  0  0
    2.7509    3.2608    3.2995 H   0  0  0  0  0  0  0  0  0  0  0  0
    2.0069    3.7806    4.8164 H   0  0  0  0  0  0  0  0  0  0  0  0
    1.8871    2.0873    4.3028 H   0  0  0  0  0  0  0  0  0  0  0  0
    0.3105    5.7873    3.6776 N   0  0  0  0  0  0  0  0  0  0  0  0
    0.2678    7.2096    3.4306 C   0  0  0  0  0  0  0  0  0  0  0  0
    0.0875    5.4619    4.6136 H   0  0  0  0  0  0  0  0  0  0  0  0
    1.2567    7.6472    3.6323 H   0  0  0  0  0  0  0  0  0  0  0  0
   -0.0061    7.3913    2.3808 H   0  0  0  0  0  0  0  0  0  0  0  0
   -0.4800    7.6740    4.0903 H   0  0  0  0  0  0  0  0  0  0  0  0
  1  3  1  0  0  0  0
  1  7  1  0  0  0  0
  1  2  2  0  0  0  0
 29 30  1  0  0  0  0
 30 38  1  0  0  0  0
 30 31  2  0  0  0  0
  8  9  1  0  0  0  0
  9 17  1  0  0  0  0
  9 10  2  0  0  0  0
 18 19  1  0  0  0  0
 19 28  1  0  0  0  0
 19 20  2  0  0  0  0
 29 32  1  0  0  0  0
  8 11  1  0  0  0  0
 38 39  1  0  0  0  0
 18 21  1  0  0  0  0
 21 22  1  0  0  0  0
 28 29  1  0  0  0  0
  7  8  1  0  0  0  0
 17 18  1  0  0  0  0
  3  4  1  0  0  0  0
  3  5  1  0  0  0  0
  3  6  1  0  0  0  0
 32 35  1  0  0  0  0
 32 36  1  0  0  0  0
 32 37  1  0  0  0  0
 11 14  1  0  0  0  0
 11 15  1  0  0  0  0
 11 16  1  0  0  0  0
 39 41  1  0  0  0  0
 39 42  1  0  0  0  0
 39 43  1  0  0  0  0
 21 25  1  0  0  0  0
 21 26  1  0  0  0  0
 29 34  1  0  0  0  0
  8 13  1  0  0  0  0
 18 24  1  0  0  0  0
 38 40  1  0  0  0  0
  7 12  1  0  0  0  0
 28 33  1  0  0  0  0
 17 23  1  0  0  0  0
 22 27  1  0  0  0  0
M  END
$$$$

  -OEChem-05262214473D

 43 42  0     1  0  0  0  0  0999 V2000
   -2.8661   -4.7415    2.2943 C   0  0  0  0  0  0  0  0  0  0  0  0
   -2.0233   -5.5727    2.6109 O   0  0  0  0  0  0  0  0  0  0  0  0
   -4.3078   -5.0134    2.5698 C   0  0  0  0  0  0  0  0  0  0  0  0
   -4.8057   -5.5295    1.7332 H   0  0  0  0  0  0  0  0  0  0  0  0
   -4.4526   -5.6688    3.4436 H   0  0  0  0  0  0  0  0  0  0  0  0
   -4.9255   -4.1233    2.7700 H   0  0  0  0  0  0  0  0  0  0  0  0
   -2.6241   -3.5219    1.6838 N   0  0  0  0  0  0  0  0  0  0  0  0
   -1.3070   -3.0608    1.3315 C   0  0  2  0  0  0  0  0  0  0  0  0
   -1.3931   -1.5680    1.0422 C   0  0  0  0  0  0  0  0  0  0  0  0
   -2.4385   -1.0059    0.7226 O   0  0  0  0  0  0  0  0  0  0  0  0
   -0.7590   -3.8164    0.1309 C   0  0  0  0  0  0  0  0  0  0  0  0
   -3.4188   -2.9207    1.4735 H   0  0  0  0  0  0  0  0  0  0  0  0
   -0.6690   -3.2277    2.2062 H   0  0  0  0  0  0  0  0  0  0  0  0
   -1.3852   -3.6613   -0.7553 H   0  0  0  0  0  0  0  0  0  0  0  0
    0.2542   -3.4843   -0.1182 H   0  0  0  0  0  0  0  0  0  0  0  0
   -0.7257   -4.8930    0.3300 H   0  0  0  0  0  0  0  0  0  0  0  0
   -0.1563   -0.9420    1.1402 N   0  0  0  0  0  0  0  0  0  0  0  0
    0.0261    0.4671    0.9001 C   0  0  2  0  0  0  0  0  0  0  0  0
    0.2150    1.1766    2.2394 C   0  0  0  0  0  0  0  0  0  0  0  0
    0.4506    0.5779    3.2870 O   0  0  0  0  0  0  0  0  0  0  0  0
   -1.0986    1.0638    0.0505 C   0  0  0  0  0  0  0  0  0  0  0  0
   -1.1668    0.4026   -1.6468 S   0  0  0  0  0  0  0  0  0  0  0  0
    0.6533   -1.4855    1.4300 H   0  0  0  0  0  0  0  0  0  0  0  0
    0.9685    0.5518    0.3448 H   0  0  0  0  0  0  0  0  0  0  0  0
   -2.0722    0.8755    0.5146 H   0  0  0  0  0  0  0  0  0  0  0  0
   -0.9732    2.1493   -0.0254 H   0  0  0  0  0  0  0  0  0  0  0  0
   -2.2196    1.1341   -2.0339 H   0  0  0  0  0  0  0  0  0  0  0  0
    0.0649    2.5518    2.1306 N   0  0  0  0  0  0  0  0  0  0  0  0
    0.1867    3.4407    3.2624 C   0  0  2  0  0  0  0  0  0  0  0  0
   -0.1965    4.8415    2.8036 C   0  0  0  0  0  0  0  0  0  0  0  0
   -0.1527    5.1977    1.6279 O   0  0  0  0  0  0  0  0  0  0  0  0
    1.5969    3.4219    3.8315 C   0  0  0  0  0  0  0  0  0  0  0  0
   -0.0962    2.9665    1.2175 H   0  0  0  0  0  0  0  0  0  0  0  0
   -0.5292    3.0938    4.0155 H   0  0  0  0  0  0  0  0  0  0  0  0
    2.3282    3.7664    3.0912 H   0  0  0  0  0  0  0  0  0  0  0  0
    1.6802    4.0745    4.7068 H   0  0  0  0  0  0  0  0  0  0  0  0
    1.8818    2.4083    4.1334 H   0  0  0  0  0  0  0  0  0  0  0  0
   -0.5518    5.6599    3.8667 N   0  0  0  0  0  0  0  0  0  0  0  0
   -0.9437    7.0389    3.6918 C   0  0  0  0  0  0  0  0  0  0  0  0
   -0.5782    5.2752    4.8064 H   0  0  0  0  0  0  0  0  0  0  0  0
   -0.0615    7.6875    3.7969 H   0  0  0  0  0  0  0  0  0  0  0  0
   -1.3794    7.1721    2.6906 H   0  0  0  0  0  0  0  0  0  0  0  0
   -1.6892    7.3077    4.4548 H   0  0  0  0  0  0  0  0  0  0  0  0
  1  3  1  0  0  0  0
  1  7  1  0  0  0  0
  1  2  2  0  0  0  0
 29 30  1  0  0  0  0
 30 38  1  0  0  0  0
 30 31  2  0  0  0  0
  8  9  1  0  0  0  0
  9 17  1  0  0  0  0
  9 10  2  0  0  0  0
 18 19  1  0  0  0  0
 19 28  1  0  0  0  0
 19 20  2  0  0  0  0
 29 32  1  0  0  0  0
  8 11  1  0  0  0  0
 38 39  1  0  0  0  0
 18 21  1  0  0  0  0
 21 22  1  0  0  0  0
 28 29  1  0  0  0  0
  7  8  1  0  0  0  0
 17 18  1  0  0  0  0
  3  4  1  0  0  0  0
  3  5  1  0  0  0  0
  3  6  1  0  0  0  0
 32 35  1  0  0  0  0
 32 36  1  0  0  0  0
 32 37  1  0  0  0  0
 11 14  1  0  0  0  0
 11 15  1  0  0  0  0
 11 16  1  0  0  0  0
 39 41  1  0  0  0  0
 39 42  1  0  0  0  0
 39 43  1  0  0  0  0
 21 25  1  0  0  0  0
 21 26  1  0  0  0  0
 29 34  1  0  0  0  0
  8 13  1  0  0  0  0
 18 24  1  0  0  0  0
 38 40  1  0  0  0  0
  7 12  1  0  0  0  0
 28 33  1  0  0  0  0
 17 23  1  0  0  0  0
 22 27  1  0  0  0  0
M  END
$$$$

  -OEChem-05262214473D

 43 42  0     1  0  0  0  0  0999 V2000
   -2.8661   -4.7415    2.2943 C   0  0  0  0  0  0  0  0  0  0  0  0
   -2.0233   -5.5727    2.6109 O   0  0  0  0  0  0  0  0  0  0  0  0
   -4.3078   -5.0134    2.5698 C   0  0  0  0  0  0  0  0  0  0  0  0
   -4.8057   -5.5295    1.7332 H   0  0  0  0  0  0  0  0  0  0  0  0
   -4.4526   -5.6688    3.4436 H   0  0  0  0  0  0  0  0  0  0  0  0
   -4.9255   -4.1233    2.7700 H   0  0  0  0  0  0  0  0  0  0  0  0
   -2.6241   -3.5219    1.6838 N   0  0  0  0  0  0  0  0  0  0  0  0
   -1.3070   -3.0608    1.3315 C   0  0  2  0  0  0  0  0  0  0  0  0
   -1.3931   -1.5680    1.0422 C   0  0  0  0  0  0  0  0  0  0  0  0
   -2.4385   -1.0059    0.7226 O   0  0  0  0  0  0  0  0  0  0  0  0
   -0.7590   -3.8164    0.1309 C   0  0  0  0  0  0  0  0  0  0  0  0
   -3.4188   -2.9207    1.4735 H   0  0  0  0  0  0  0  0  0  0  0  0
   -0.6690   -3.2277    2.2062 H   0  0  0  0  0  0  0  0  0  0  0  0
   -1.3852   -3.6613   -0.7553 H   0  0  0  0  0  0  0  0  0  0  0  0
    0.2542   -3.4843   -0.1182 H   0  0  0  0  0  0  0  0  0  0  0  0
   -0.7257   -4.8930    0.3300 H   0  0  0  0  0  0  0  0  0  0  0  0
   -0.1563   -0.9420    1.1402 N   0  0  0  0  0  0  0  0  0  0  0  0
    0.0261    0.4671    0.9001 C   0  0  2  0  0  0  0  0  0  0  0  0
    0.2150    1.1766    2.2394 C   0  0  0  0  0  0  0  0  0  0  0  0
    0.7072    0.6288    3.2238 O   0  0  0  0  0  0  0  0  0  0  0  0
   -1.0986    1.0638    0.0505 C   0  0  0  0  0  0  0  0  0  0  0  0
   -1.1668    0.4026   -1.6468 S   0  0  0  0  0  0  0  0  0  0  0  0
    0.6533   -1.4855    1.4300 H   0  0  0  0  0  0  0  0  0  0  0  0
    0.9685    0.5518    0.3448 H   0  0  0  0  0  0  0  0  0  0  0  0
   -2.0722    0.8755    0.5146 H   0  0  0  0  0  0  0  0  0  0  0  0
   -0.9732    2.1493   -0.0254 H   0  0  0  0  0  0  0  0  0  0  0  0
   -2.2196    1.1341   -2.0339 H   0  0  0  0  0  0  0  0  0  0  0  0
   -0.2529    2.4827    2.2120 N   0  0  0  0  0  0  0  0  0  0  0  0
   -0.1950    3.3552    3.3615 C   0  0  2  0  0  0  0  0  0  0  0  0
   -0.9373    4.6391    3.0152 C   0  0  0  0  0  0  0  0  0  0  0  0
   -1.1208    5.0172    1.8600 O   0  0  0  0  0  0  0  0  0  0  0  0
    1.2426    3.6494    3.7609 C   0  0  0  0  0  0  0  0  0  0  0  0
   -0.6151    2.8660    1.3439 H   0  0  0  0  0  0  0  0  0  0  0  0
   -0.7155    2.8401    4.1762 H   0  0  0  0  0  0  0  0  0  0  0  0
    1.7802    4.1655    2.9571 H   0  0  0  0  0  0  0  0  0  0  0  0
    1.2848    4.2878    4.6496 H   0  0  0  0  0  0  0  0  0  0  0  0
    1.7835    2.7226    3.9808 H   0  0  0  0  0  0  0  0  0  0  0  0
   -1.3332    5.3350    4.1489 N   0  0  0  0  0  0  0  0  0  0  0  0
   -2.0439    6.5907    4.0844 C   0  0  0  0  0  0  0  0  0  0  0  0
   -1.1556    4.9376    5.0666 H   0  0  0  0  0  0  0  0  0  0  0  0
   -1.3241    7.4220    4.1156 H   0  0  0  0  0  0  0  0  0  0  0  0
   -2.6190    6.6387    3.1480 H   0  0  0  0  0  0  0  0  0  0  0  0
   -2.7302    6.6679    4.9406 H   0  0  0  0  0  0  0  0  0  0  0  0
  1  3  1  0  0  0  0
  1  7  1  0  0  0  0
  1  2  2  0  0  0  0
 29 30  1  0  0  0  0
 30 38  1  0  0  0  0
 30 31  2  0  0  0  0
  8  9  1  0  0  0  0
  9 17  1  0  0  0  0
  9 10  2  0  0  0  0
 18 19  1  0  0  0  0
 19 28  1  0  0  0  0
 19 20  2  0  0  0  0
 29 32  1  0  0  0  0
  8 11  1  0  0  0  0
 38 39  1  0  0  0  0
 18 21  1  0  0  0  0
 21 22  1  0  0  0  0
 28 29  1  0  0  0  0
  7  8  1  0  0  0  0
 17 18  1  0  0  0  0
  3  4  1  0  0  0  0
  3  5  1  0  0  0  0
  3  6  1  0  0  0  0
 32 35  1  0  0  0  0
 32 36  1  0  0  0  0
 32 37  1  0  0  0  0
 11 14  1  0  0  0  0
 11 15  1  0  0  0  0
 11 16  1  0  0  0  0
 39 41  1  0  0  0  0
 39 42  1  0  0  0  0
 39 43  1  0  0  0  0
 21 25  1  0  0  0  0
 21 26  1  0  0  0  0
 29 34  1  0  0  0  0
  8 13  1  0  0  0  0
 18 24  1  0  0  0  0
 38 40  1  0  0  0  0
  7 12  1  0  0  0  0
 28 33  1  0  0  0  0
 17 23  1  0  0  0  0
 22 27  1  0  0  0  0
M  END
$$$$

  -OEChem-05262214473D

 43 42  0     1  0  0  0  0  0999 V2000
   -2.8661   -4.7415    2.2943 C   0  0  0  0  0  0  0  0  0  0  0  0
   -2.0233   -5.5727    2.6109 O   0  0  0  0  0  0  0  0  0  0  0  0
   -4.3078   -5.0134    2.5698 C   0  0  0  0  0  0  0  0  0  0  0  0
   -4.8057   -5.5295    1.7332 H   0  0  0  0  0  0  0  0  0  0  0  0
   -4.4526   -5.6688    3.4436 H   0  0  0  0  0  0  0  0  0  0  0  0
   -4.9255   -4.1233    2.7700 H   0  0  0  0  0  0  0  0  0  0  0  0
   -2.6241   -3.5219    1.6838 N   0  0  0  0  0  0  0  0  0  0  0  0
   -1.3070   -3.0608    1.3315 C   0  0  2  0  0  0  0  0  0  0  0  0
   -1.3931   -1.5680    1.0422 C   0  0  0  0  0  0  0  0  0  0  0  0
   -2.4385   -1.0059    0.7226 O   0  0  0  0  0  0  0  0  0  0  0  0
   -0.7590   -3.8164    0.1309 C   0  0  0  0  0  0  0  0  0  0  0  0
   -3.4188   -2.9207    1.4735 H   0  0  0  0  0  0  0  0  0  0  0  0
   -0.6690   -3.2277    2.2062 H   0  0  0  0  0  0  0  0  0  0  0  0
   -1.3852   -3.6613   -0.7553 H   0  0  0  0  0  0  0  0  0  0  0  0
    0.2542   -3.4843   -0.1182 H   0  0  0  0  0  0  0  0  0  0  0  0
   -0.7257   -4.8930    0.3300 H   0  0  0  0  0  0  0  0  0  0  0  0
   -0.1563   -0.9420    1.1402 N   0  0  0  0  0  0  0  0  0  0  0  0
    0.0261    0.4671    0.9001 C   0  0  2  0  0  0  0  0  0  0  0  0
    0.2150    1.1766    2.2394 C   0  0  0  0  0  0  0  0  0  0  0  0
    0.9359    0.7383    3.1336 O   0  0  0  0  0  0  0  0  0  0  0  0
   -1.0986    1.0638    0.0505 C   0  0  0  0  0  0  0  0  0  0  0  0
   -1.1668    0.4026   -1.6468 S   0  0  0  0  0  0  0  0  0  0  0  0
    0.6533   -1.4855    1.4300 H   0  0  0  0  0  0  0  0  0  0  0  0
    0.9685    0.5518    0.3448 H   0  0  0  0  0  0  0  0  0  0  0  0
   -2.0722    0.8755    0.5146 H   0  0  0  0  0  0  0  0  0  0  0  0
   -0.9732    2.1493   -0.0254 H   0  0  0  0  0  0  0  0  0  0  0  0
   -2.2196    1.1341   -2.0339 H   0  0  0  0  0  0  0  0  0  0  0  0
   -0.5345    2.3412    2.3267 N   0  0  0  0  0  0  0  0  0  0  0  0
   -0.5323    3.1828    3.5004 C   0  0  2  0  0  0  0  0  0  0  0  0
   -1.5816    4.2688    3.3023 C   0  0  0  0  0  0  0  0  0  0  0  0
   -1.9872    4.6157    2.1949 O   0  0  0  0  0  0  0  0  0  0  0  0
    0.8403    3.7910    3.7426 C   0  0  0  0  0  0  0  0  0  0  0  0
   -1.0783    2.6470    1.5252 H   0  0  0  0  0  0  0  0  0  0  0  0
   -0.8185    2.5475    4.3457 H   0  0  0  0  0  0  0  0  0  0  0  0
    1.1441    4.4309    2.9062 H   0  0  0  0  0  0  0  0  0  0  0  0
    0.8476    4.4058    4.6487 H   0  0  0  0  0  0  0  0  0  0  0  0
    1.5988    3.0088    3.8552 H   0  0  0  0  0  0  0  0  0  0  0  0
   -1.9802    4.8349    4.5051 N   0  0  0  0  0  0  0  0  0  0  0  0
   -2.9576    5.8955    4.5815 C   0  0  0  0  0  0  0  0  0  0  0  0
   -1.6054    4.4721    5.3767 H   0  0  0  0  0  0  0  0  0  0  0  0
   -2.4452    6.8688    4.5667 H   0  0  0  0  0  0  0  0  0  0  0  0
   -3.6402    5.8276    3.7217 H   0  0  0  0  0  0  0  0  0  0  0  0
   -3.5322    5.7980    5.5145 H   0  0  0  0  0  0  0  0  0  0  0  0
  1  3  1  0  0  0  0
  1  7  1  0  0  0  0
  1  2  2  0  0  0  0
 29 30  1  0  0  0  0
 30 38  1  0  0  0  0
 30 31  2  0  0  0  0
  8  9  1  0  0  0  0
  9 17  1  0  0  0  0
  9 10  2  0  0  0  0
 18 19  1  0  0  0  0
 19 28  1  0  0  0  0
 19 20  2  0  0  0  0
 29 32  1  0  0  0  0
  8 11  1  0  0  0  0
 38 39  1  0  0  0  0
 18 21  1  0  0  0  0
 21 22  1  0  0  0  0
 28 29  1  0  0  0  0
  7  8  1  0  0  0  0
 17 18  1  0  0  0  0
  3  4  1  0  0  0  0
  3  5  1  0  0  0  0
  3  6  1  0  0  0  0
 32 35  1  0  0  0  0
 32 36  1  0  0  0  0
 32 37  1  0  0  0  0
 11 14  1  0  0  0  0
 11 15  1  0  0  0  0
 11 16  1  0  0  0  0
 39 41  1  0  0  0  0
 39 42  1  0  0  0  0
 39 43  1  0  0  0  0
 21 25  1  0  0  0  0
 21 26  1  0  0  0  0
 29 34  1  0  0  0  0
  8 13  1  0  0  0  0
 18 24  1  0  0  0  0
 38 40  1  0  0  0  0
  7 12  1  0  0  0  0
 28 33  1  0  0  0  0
 17 23  1  0  0  0  0
 22 27  1  0  0  0  0
M  END
$$$$

  -OEChem-05262214473D

 43 42  0     1  0  0  0  0  0999 V2000
   -2.8661   -4.7415    2.2943 C   0  0  0  0  0  0  0  0  0  0  0  0
   -2.0233   -5.5727    2.6109 O   0  0  0  0  0  0  0  0  0  0  0  0
   -4.3078   -5.0134    2.5698 C   0  0  0  0  0  0  0  0  0  0  0  0
   -4.8057   -5.5295    1.7332 H   0  0  0  0  0  0  0  0  0  0  0  0
   -4.4526   -5.6688    3.4436 H   0  0  0  0  0  0  0  0  0  0  0  0
   -4.9255   -4.1233    2.7700 H   0  0  0  0  0  0  0  0  0  0  0  0
   -2.6241   -3.5219    1.6838 N   0  0  0  0  0  0  0  0  0  0  0  0
   -1.3070   -3.0608    1.3315 C   0  0  2  0  0  0  0  0  0  0  0  0
   -1.3931   -1.5680    1.0422 C   0  0  0  0  0  0  0  0  0  0  0  0
   -2.4385   -1.0059    0.7226 O   0  0  0  0  0  0  0  0  0  0  0  0
   -0.7590   -3.8164    0.1309 C   0  0  0  0  0  0  0  0  0  0  0  0
   -3.4188   -2.9207    1.4735 H   0  0  0  0  0  0  0  0  0  0  0  0
   -0.6690   -3.2277    2.2062 H   0  0  0  0  0  0  0  0  0  0  0  0
   -1.3852   -3.6613   -0.7553 H   0  0  0  0  0  0  0  0  0  0  0  0
    0.2542   -3.4843   -0.1182 H   0  0  0  0  0  0  0  0  0  0  0  0
   -0.7257   -4.8930    0.3300 H   0  0  0  0  0  0  0  0  0  0  0  0
   -0.1563   -0.9420    1.1402 N   0  0  0  0  0  0  0  0  0  0  0  0
    0.0261    0.4671    0.9001 C   0  0  2  0  0  0  0  0  0  0  0  0
    0.2150    1.1766    2.2394 C   0  0  0  0  0  0  0  0  0  0  0  0
    1.1211    0.8988    3.0224 O   0  0  0  0  0  0  0  0  0  0  0  0
   -1.0986    1.0638    0.0505 C   0  0  0  0  0  0  0  0  0  0  0  0
   -1.1668    0.4026   -1.6468 S   0  0  0  0  0  0  0  0  0  0  0  0
    0.6533   -1.4855    1.4300 H   0  0  0  0  0  0  0  0  0  0  0  0
    0.9685    0.5518    0.3448 H   0  0  0  0  0  0  0  0  0  0  0  0
   -2.0722    0.8755    0.5146 H   0  0  0  0  0  0  0  0  0  0  0  0
   -0.9732    2.1493   -0.0254 H   0  0  0  0  0  0  0  0  0  0  0  0
   -2.2196    1.1341   -2.0339 H   0  0  0  0  0  0  0  0  0  0  0  0
   -0.7605    2.1369    2.4668 N   0  0  0  0  0  0  0  0  0  0  0  0
   -0.8024    2.9353    3.6696 C   0  0  2  0  0  0  0  0  0  0  0  0
   -2.0853    3.7556    3.6452 C   0  0  0  0  0  0  0  0  0  0  0  0
   -2.6925    4.0205    2.6097 O   0  0  0  0  0  0  0  0  0  0  0  0
    0.4174    3.8370    3.7779 C   0  0  0  0  0  0  0  0  0  0  0  0
   -1.4543    2.3246    1.7490 H   0  0  0  0  0  0  0  0  0  0  0  0
   -0.8313    2.2361    4.5124 H   0  0  0  0  0  0  0  0  0  0  0  0
    0.4634    4.5445    2.9419 H   0  0  0  0  0  0  0  0  0  0  0  0
    0.3983    4.4207    4.7042 H   0  0  0  0  0  0  0  0  0  0  0  0
    1.3404    3.2473    3.7653 H   0  0  0  0  0  0  0  0  0  0  0  0
   -2.4489    4.1936    4.9109 N   0  0  0  0  0  0  0  0  0  0  0  0
   -3.6226    5.0008    5.1493 C   0  0  0  0  0  0  0  0  0  0  0  0
   -1.8971    3.9105    5.7153 H   0  0  0  0  0  0  0  0  0  0  0  0
   -3.3483    6.0656    5.1196 H   0  0  0  0  0  0  0  0  0  0  0  0
   -4.3736    4.7939    4.3727 H   0  0  0  0  0  0  0  0  0  0  0  0
   -4.0404    4.7574    6.1374 H   0  0  0  0  0  0  0  0  0  0  0  0
  1  3  1  0  0  0  0
  1  7  1  0  0  0  0
  1  2  2  0  0  0  0
 29 30  1  0  0  0  0
 30 38  1  0  0  0  0
 30 31  2  0  0  0  0
  8  9  1  0  0  0  0
  9 17  1  0  0  0  0
  9 10  2  0  0  0  0
 18 19  1  0  0  0  0
 19 28  1  0  0  0  0
 19 20  2  0  0  0  0
 29 32  1  0  0  0  0
  8 11  1  0  0  0  0
 38 39  1  0  0  0  0
 18 21  1  0  0  0  0
 21 22  1  0  0  0  0
 28 29  1  0  0  0  0
  7  8  1  0  0  0  0
 17 18  1  0  0  0  0
  3  4  1  0  0  0  0
  3  5  1  0  0  0  0
  3  6  1  0  0  0  0
 32 35  1  0  0  0  0
 32 36  1  0  0  0  0
 32 37  1  0  0  0  0
 11 14  1  0  0  0  0
 11 15  1  0  0  0  0
 11 16  1  0  0  0  0
 39 41  1  0  0  0  0
 39 42  1  0  0  0  0
 39 43  1  0  0  0  0
 21 25  1  0  0  0  0
 21 26  1  0  0  0  0
 29 34  1  0  0  0  0
  8 13  1  0  0  0  0
 18 24  1  0  0  0  0
 38 40  1  0  0  0  0
  7 12  1  0  0  0  0
 28 33  1  0  0  0  0
 17 23  1  0  0  0  0
 22 27  1  0  0  0  0
M  END
$$$$

  -OEChem-05262214473D

 43 42  0     1  0  0  0  0  0999 V2000
   -2.8661   -4.7415    2.2943 C   0  0  0  0  0  0  0  0  0  0  0  0
   -2.0233   -5.5727    2.6109 O   0  0  0  0  0  0  0  0  0  0  0  0
   -4.3078   -5.0134    2.5698 C   0  0  0  0  0  0  0  0  0  0  0  0
   -4.8057   -5.5295    1.7332 H   0  0  0  0  0  0  0  0  0  0  0  0
   -4.4526   -5.6688    3.4436 H   0  0  0  0  0  0  0  0  0  0  0  0
   -4.9255   -4.1233    2.7700 H   0  0  0  0  0  0  0  0  0  0  0  0
   -2.6241   -3.5219    1.6838 N   0  0  0  0  0  0  0  0  0  0  0  0
   -1.3070   -3.0608    1.3315 C   0  0  2  0  0  0  0  0  0  0  0  0
   -1.3931   -1.5680    1.0422 C   0  0  0  0  0  0  0  0  0  0  0  0
   -2.4385   -1.0059    0.7226 O   0  0  0  0  0  0  0  0  0  0  0  0
   -0.7590   -3.8164    0.1309 C   0  0  0  0  0  0  0  0  0  0  0  0
   -3.4188   -2.9207    1.4735 H   0  0  0  0  0  0  0  0  0  0  0  0
   -0.6690   -3.2277    2.2062 H   0  0  0  0  0  0  0  0  0  0  0  0
   -1.3852   -3.6613   -0.7553 H   0  0  0  0  0  0  0  0  0  0  0  0
    0.2542   -3.4843   -0.1182 H   0  0  0  0  0  0  0  0  0  0  0  0
   -0.7257   -4.8930    0.3300 H   0  0  0  0  0  0  0  0  0  0  0  0
   -0.1563   -0.9420    1.1402 N   0  0  0  0  0  0  0  0  0  0  0  0
    0.0261    0.4671    0.9001 C   0  0  2  0  0  0  0  0  0  0  0  0
    0.2150    1.1766    2.2394 C   0  0  0  0  0  0  0  0  0  0  0  0
    1.2503    1.0995    2.8979 O   0  0  0  0  0  0  0  0  0  0  0  0
   -1.0986    1.0638    0.0505 C   0  0  0  0  0  0  0  0  0  0  0  0
   -1.1668    0.4026   -1.6468 S   0  0  0  0  0  0  0  0  0  0  0  0
    0.6533   -1.4855    1.4300 H   0  0  0  0  0  0  0  0  0  0  0  0
    0.9685    0.5518    0.3448 H   0  0  0  0  0  0  0  0  0  0  0  0
   -2.0722    0.8755    0.5146 H   0  0  0  0  0  0  0  0  0  0  0  0
   -0.9732    2.1493   -0.0254 H   0  0  0  0  0  0  0  0  0  0  0  0
   -2.2196    1.1341   -2.0339 H   0  0  0  0  0  0  0  0  0  0  0  0
   -0.9157    1.8839    2.6228 N   0  0  0  0  0  0  0  0  0  0  0  0
   -0.9867    2.6295    3.8576 C   0  0  2  0  0  0  0  0  0  0  0  0
   -2.4142    3.1347    4.0205 C   0  0  0  0  0  0  0  0  0  0  0  0
   -3.1890    3.2722    3.0761 O   0  0  0  0  0  0  0  0  0  0  0  0
    0.0027    3.7844    3.8643 C   0  0  0  0  0  0  0  0  0  0  0  0
   -1.7173    1.9207    2.0001 H   0  0  0  0  0  0  0  0  0  0  0  0
   -0.7529    1.9271    4.6651 H   0  0  0  0  0  0  0  0  0  0  0  0
   -0.2157    4.4987    3.0620 H   0  0  0  0  0  0  0  0  0  0  0  0
   -0.0323    4.3313    4.8122 H   0  0  0  0  0  0  0  0  0  0  0  0
    1.0258    3.4219    3.7172 H   0  0  0  0  0  0  0  0  0  0  0  0
   -2.7073    3.4548    5.3387 N   0  0  0  0  0  0  0  0  0  0  0  0
   -3.9937    3.9674    5.7491 C   0  0  0  0  0  0  0  0  0  0  0  0
   -2.0105    3.2909    6.0595 H   0  0  0  0  0  0  0  0  0  0  0  0
   -3.9718    5.0671    5.7364 H   0  0  0  0  0  0  0  0  0  0  0  0
   -4.7692    3.6082    5.0566 H   0  0  0  0  0  0  0  0  0  0  0  0
   -4.2202    3.6170    6.7669 H   0  0  0  0  0  0  0  0  0  0  0  0
  1  3  1  0  0  0  0
  1  7  1  0  0  0  0
  1  2  2  0  0  0  0
 29 30  1  0  0  0  0
 30 38  1  0  0  0  0
 30 31  2  0  0  0  0
  8  9  1  0  0  0  0
  9 17  1  0  0  0  0
  9 10  2  0  0  0  0
 18 19  1  0  0  0  0
 19 28  1  0  0  0  0
 19 20  2  0  0  0  0
 29 32  1  0  0  0  0
  8 11  1  0  0  0  0
 38 39  1  0  0  0  0
 18 21  1  0  0  0  0
 21 22  1  0  0  0  0
 28 29  1  0  0  0  0
  7  8  1  0  0  0  0
 17 18  1  0  0  0  0
  3  4  1  0  0  0  0
  3  5  1  0  0  0  0
  3  6  1  0  0  0  0
 32 35  1  0  0  0  0
 32 36  1  0  0  0  0
 32 37  1  0  0  0  0
 11 14  1  0  0  0  0
 11 15  1  0  0  0  0
 11 16  1  0  0  0  0
 39 41  1  0  0  0  0
 39 42  1  0  0  0  0
 39 43  1  0  0  0  0
 21 25  1  0  0  0  0
 21 26  1  0  0  0  0
 29 34  1  0  0  0  0
  8 13  1  0  0  0  0
 18 24  1  0  0  0  0
 38 40  1  0  0  0  0
  7 12  1  0  0  0  0
 28 33  1  0  0  0  0
 17 23  1  0  0  0  0
 22 27  1  0  0  0  0
M  END
$$$$

  -OEChem-05262214473D

 43 42  0     1  0  0  0  0  0999 V2000
   -2.8661   -4.7415    2.2943 C   0  0  0  0  0  0  0  0  0  0  0  0
   -2.0233   -5.5727    2.6109 O   0  0  0  0  0  0  0  0  0  0  0  0
   -4.3078   -5.0134    2.5698 C   0  0  0  0  0  0  0  0  0  0  0  0
   -4.8057   -5.5295    1.7332 H   0  0  0  0  0  0  0  0  0  0  0  0
   -4.4526   -5.6688    3.4436 H   0  0  0  0  0  0  0  0  0  0  0  0
   -4.9255   -4.1233    2.7700 H   0  0  0  0  0  0  0  0  0  0  0  0
   -2.6241   -3.5219    1.6838 N   0  0  0  0  0  0  0  0  0  0  0  0
   -1.3070   -3.0608    1.3315 C   0  0  2  0  0  0  0  0  0  0  0  0
   -1.3931   -1.5680    1.0422 C   0  0  0  0  0  0  0  0  0  0  0  0
   -2.4385   -1.0059    0.7226 O   0  0  0  0  0  0  0  0  0  0  0  0
   -0.7590   -3.8164    0.1309 C   0  0  0  0  0  0  0  0  0  0  0  0
   -3.4188   -2.9207    1.4735 H   0  0  0  0  0  0  0  0  0  0  0  0
   -0.6690   -3.2277    2.2062 H   0  0  0  0  0  0  0  0  0  0  0  0
   -1.3852   -3.6613   -0.7553 H   0  0  0  0  0  0  0  0  0  0  0  0
    0.2542   -3.4843   -0.1182 H   0  0  0  0  0  0  0  0  0  0  0  0
   -0.7257   -4.8930    0.3300 H   0  0  0  0  0  0  0  0  0  0  0  0
   -0.1563   -0.9420    1.1402 N   0  0  0  0  0  0  0  0  0  0  0  0
    0.0261    0.4671    0.9001 C   0  0  2  0  0  0  0  0  0  0  0  0
    0.2150    1.1766    2.2394 C   0  0  0  0  0  0  0  0  0  0  0  0
    1.3145    1.3266    2.7685 O   0  0  0  0  0  0  0  0  0  0  0  0
   -1.0986    1.0638    0.0505 C   0  0  0  0  0  0  0  0  0  0  0  0
   -1.1668    0.4026   -1.6468 S   0  0  0  0  0  0  0  0  0  0  0  0
    0.6533   -1.4855    1.4300 H   0  0  0  0  0  0  0  0  0  0  0  0
    0.9685    0.5518    0.3448 H   0  0  0  0  0  0  0  0  0  0  0  0
   -2.0722    0.8755    0.5146 H   0  0  0  0  0  0  0  0  0  0  0  0
   -0.9732    2.1493   -0.0254 H   0  0  0  0  0  0  0  0  0  0  0  0
   -2.2196    1.1341   -2.0339 H   0  0  0  0  0  0  0  0  0  0  0  0
   -0.9894    1.5992    2.7840 N   0  0  0  0  0  0  0  0  0  0  0  0
   -1.0727    2.2863    4.0515 C   0  0  2  0  0  0  0  0  0  0  0  0
   -2.5458    2.4482    4.4027 C   0  0  0  0  0  0  0  0  0  0  0  0
   -3.4426    2.4218    3.5623 O   0  0  0  0  0  0  0  0  0  0  0  0
   -0.3756    3.6367    3.9959 C   0  0  0  0  0  0  0  0  0  0  0  0
   -1.8496    1.4629    2.2613 H   0  0  0  0  0  0  0  0  0  0  0  0
   -0.5886    1.6416    4.7932 H   0  0  0  0  0  0  0  0  0  0  0  0
   -0.8467    4.2964    3.2581 H   0  0  0  0  0  0  0  0  0  0  0  0
   -0.4149    4.1438    4.9655 H   0  0  0  0  0  0  0  0  0  0  0  0
    0.6765    3.5208    3.7141 H   0  0  0  0  0  0  0  0  0  0  0  0
   -2.7377    2.6688    5.7594 N   0  0  0  0  0  0  0  0  0  0  0  0
   -4.0454    2.8658    6.3400 C   0  0  0  0  0  0  0  0  0  0  0  0
   -1.9382    2.6558    6.3858 H   0  0  0  0  0  0  0  0  0  0  0  0
   -4.2733    3.9413    6.3753 H   0  0  0  0  0  0  0  0  0  0  0  0
   -4.8000    2.3512    5.7268 H   0  0  0  0  0  0  0  0  0  0  0  0
   -4.0594    2.4544    7.3601 H   0  0  0  0  0  0  0  0  0  0  0  0
  1  3  1  0  0  0  0
  1  7  1  0  0  0  0
  1  2  2  0  0  0  0
 29 30  1  0  0  0  0
 30 38  1  0  0  0  0
 30 31  2  0  0  0  0
  8  9  1  0  0  0  0
  9 17  1  0  0  0  0
  9 10  2  0  0  0  0
 18 19  1  0  0  0  0
 19 28  1  0  0  0  0
 19 20  2  0  0  0  0
 29 32  1  0  0  0  0
  8 11  1  0  0  0  0
 38 39  1  0  0  0  0
 18 21  1  0  0  0  0
 21 22  1  0  0  0  0
 28 29  1  0  0  0  0
  7  8  1  0  0  0  0
 17 18  1  0  0  0  0
  3  4  1  0  0  0  0
  3  5  1  0  0  0  0
  3  6  1  0  0  0  0
 32 35  1  0  0  0  0
 32 36  1  0  0  0  0
 32 37  1  0  0  0  0
 11 14  1  0  0  0  0
 11 15  1  0  0  0  0
 11 16  1  0  0  0  0
 39 41  1  0  0  0  0
 39 42  1  0  0  0  0
 39 43  1  0  0  0  0
 21 25  1  0  0  0  0
 21 26  1  0  0  0  0
 29 34  1  0  0  0  0
  8 13  1  0  0  0  0
 18 24  1  0  0  0  0
 38 40  1  0  0  0  0
  7 12  1  0  0  0  0
 28 33  1  0  0  0  0
 17 23  1  0  0  0  0
 22 27  1  0  0  0  0
M  END
$$$$

  -OEChem-05262214473D

 43 42  0     1  0  0  0  0  0999 V2000
   -2.8661   -4.7415    2.2943 C   0  0  0  0  0  0  0  0  0  0  0  0
   -2.0233   -5.5727    2.6109 O   0  0  0  0  0  0  0  0  0  0  0  0
   -4.3078   -5.0134    2.5698 C   0  0  0  0  0  0  0  0  0  0  0  0
   -4.8057   -5.5295    1.7332 H   0  0  0  0  0  0  0  0  0  0  0  0
   -4.4526   -5.6688    3.4436 H   0  0  0  0  0  0  0  0  0  0  0  0
   -4.9255   -4.1233    2.7700 H   0  0  0  0  0  0  0  0  0  0  0  0
   -2.6241   -3.5219    1.6838 N   0  0  0  0  0  0  0  0  0  0  0  0
   -1.3070   -3.0608    1.3315 C   0  0  2  0  0  0  0  0  0  0  0  0
   -1.3931   -1.5680    1.0422 C   0  0  0  0  0  0  0  0  0  0  0  0
   -2.4385   -1.0059    0.7226 O   0  0  0  0  0  0  0  0  0  0  0  0
   -0.7590   -3.8164    0.1309 C   0  0  0  0  0  0  0  0  0  0  0  0
   -3.4188   -2.9207    1.4735 H   0  0  0  0  0  0  0  0  0  0  0  0
   -0.6690   -3.2277    2.2062 H   0  0  0  0  0  0  0  0  0  0  0  0
   -1.3852   -3.6613   -0.7553 H   0  0  0  0  0  0  0  0  0  0  0  0
    0.2542   -3.4843   -0.1182 H   0  0  0  0  0  0  0  0  0  0  0  0
   -0.7257   -4.8930    0.3300 H   0  0  0  0  0  0  0  0  0  0  0  0
   -0.1563   -0.9420    1.1402 N   0  0  0  0  0  0  0  0  0  0  0  0
    0.0261    0.4671    0.9001 C   0  0  2  0  0  0  0  0  0  0  0  0
    0.2150    1.1766    2.2394 C   0  0  0  0  0  0  0  0  0  0  0  0
    1.3094    1.5647    2.6431 O   0  0  0  0  0  0  0  0  0  0  0  0
   -1.0986    1.0638    0.0505 C   0  0  0  0  0  0  0  0  0  0  0  0
   -1.1668    0.4026   -1.6468 S   0  0  0  0  0  0  0  0  0  0  0  0
    0.6533   -1.4855    1.4300 H   0  0  0  0  0  0  0  0  0  0  0  0
    0.9685    0.5518    0.3448 H   0  0  0  0  0  0  0  0  0  0  0  0
   -2.0722    0.8755    0.5146 H   0  0  0  0  0  0  0  0  0  0  0  0
   -0.9732    2.1493   -0.0254 H   0  0  0  0  0  0  0  0  0  0  0  0
   -2.2196    1.1341   -2.0339 H   0  0  0  0  0  0  0  0  0  0  0  0
   -0.9766    1.3023    2.9394 N   0  0  0  0  0  0  0  0  0  0  0  0
   -1.0546    1.9290    4.2383 C   0  0  2  0  0  0  0  0  0  0  0  0
   -2.4712    1.7431    4.7657 C   0  0  0  0  0  0  0  0  0  0  0  0
   -3.4361    1.5273    4.0353 O   0  0  0  0  0  0  0  0  0  0  0  0
   -0.6916    3.4039    4.1637 C   0  0  0  0  0  0  0  0  0  0  0  0
   -1.8420    0.9822    2.5149 H   0  0  0  0  0  0  0  0  0  0  0  0
   -0.3498    1.3989    4.8881 H   0  0  0  0  0  0  0  0  0  0  0  0
   -1.3868    3.9515    3.5170 H   0  0  0  0  0  0  0  0  0  0  0  0
   -0.7236    3.8709    5.1536 H   0  0  0  0  0  0  0  0  0  0  0  0
    0.3164    3.5371    3.7562 H   0  0  0  0  0  0  0  0  0  0  0  0
   -2.5382    1.8892    6.1443 N   0  0  0  0  0  0  0  0  0  0  0  0
   -3.7744    1.7711    6.8817 C   0  0  0  0  0  0  0  0  0  0  0  0
   -1.6849    2.0482    6.6719 H   0  0  0  0  0  0  0  0  0  0  0  0
   -4.2322    2.7651    6.9926 H   0  0  0  0  0  0  0  0  0  0  0  0
   -4.4638    1.1087    6.3376 H   0  0  0  0  0  0  0  0  0  0  0  0
   -3.5689    1.3490    7.8765 H   0  0  0  0  0  0  0  0  0  0  0  0
  1  3  1  0  0  0  0
  1  7  1  0  0  0  0
  1  2  2  0  0  0  0
 29 30  1  0  0  0  0
 30 38  1  0  0  0  0
 30 31  2  0  0  0  0
  8  9  1  0  0  0  0
  9 17  1  0  0  0  0
  9 10  2  0  0  0  0
 18 19  1  0  0  0  0
 19 28  1  0  0  0  0
 19 20  2  0  0  0  0
 29 32  1  0  0  0  0
  8 11  1  0  0  0  0
 38 39  1  0  0  0  0
 18 21  1  0  0  0  0
 21 22  1  0  0  0  0
 28 29  1  0  0  0  0
  7  8  1  0  0  0  0
 17 18  1  0  0  0  0
  3  4  1  0  0  0  0
  3  5  1  0  0  0  0
  3  6  1  0  0  0  0
 32 35  1  0  0  0  0
 32 36  1  0  0  0  0
 32 37  1  0  0  0  0
 11 14  1  0  0  0  0
 11 15  1  0  0  0  0
 11 16  1  0  0  0  0
 39 41  1  0  0  0  0
 39 42  1  0  0  0  0
 39 43  1  0  0  0  0
 21 25  1  0  0  0  0
 21 26  1  0  0  0  0
 29 34  1  0  0  0  0
  8 13  1  0  0  0  0
 18 24  1  0  0  0  0
 38 40  1  0  0  0  0
  7 12  1  0  0  0  0
 28 33  1  0  0  0  0
 17 23  1  0  0  0  0
 22 27  1  0  0  0  0
M  END
$$$$

  -OEChem-05262214473D

 43 42  0     1  0  0  0  0  0999 V2000
   -2.8661   -4.7415    2.2943 C   0  0  0  0  0  0  0  0  0  0  0  0
   -2.0233   -5.5727    2.6109 O   0  0  0  0  0  0  0  0  0  0  0  0
   -4.3078   -5.0134    2.5698 C   0  0  0  0  0  0  0  0  0  0  0  0
   -4.8057   -5.5295    1.7332 H   0  0  0  0  0  0  0  0  0  0  0  0
   -4.4526   -5.6688    3.4436 H   0  0  0  0  0  0  0  0  0  0  0  0
   -4.9255   -4.1233    2.7700 H   0  0  0  0  0  0  0  0  0  0  0  0
   -2.6241   -3.5219    1.6838 N   0  0  0  0  0  0  0  0  0  0  0  0
   -1.3070   -3.0608    1.3315 C   0  0  2  0  0  0  0  0  0  0  0  0
   -1.3931   -1.5680    1.0422 C   0  0  0  0  0  0  0  0  0  0  0  0
   -2.4385   -1.0059    0.7226 O   0  0  0  0  0  0  0  0  0  0  0  0
   -0.7590   -3.8164    0.1309 C   0  0  0  0  0  0  0  0  0  0  0  0
   -3.4188   -2.9207    1.4735 H   0  0  0  0  0  0  0  0  0  0  0  0
   -0.6690   -3.2277    2.2062 H   0  0  0  0  0  0  0  0  0  0  0  0
   -1.3852   -3.6613   -0.7553 H   0  0  0  0  0  0  0  0  0  0  0  0
    0.2542   -3.4843   -0.1182 H   0  0  0  0  0  0  0  0  0  0  0  0
   -0.7257   -4.8930    0.3300 H   0  0  0  0  0  0  0  0  0  0  0  0
   -0.1563   -0.9420    1.1402 N   0  0  0  0  0  0  0  0  0  0  0  0
    0.0261    0.4671    0.9001 C   0  0  2  0  0  0  0  0  0  0  0  0
    0.2150    1.1766    2.2394 C   0  0  0  0  0  0  0  0  0  0  0  0
    1.2354    1.7975    2.5302 O   0  0  0  0  0  0  0  0  0  0  0  0
   -1.0986    1.0638    0.0505 C   0  0  0  0  0  0  0  0  0  0  0  0
   -1.1668    0.4026   -1.6468 S   0  0  0  0  0  0  0  0  0  0  0  0
    0.6533   -1.4855    1.4300 H   0  0  0  0  0  0  0  0  0  0  0  0
    0.9685    0.5518    0.3448 H   0  0  0  0  0  0  0  0  0  0  0  0
   -2.0722    0.8755    0.5146 H   0  0  0  0  0  0  0  0  0  0  0  0
   -0.9732    2.1493   -0.0254 H   0  0  0  0  0  0  0  0  0  0  0  0
   -2.2196    1.1341   -2.0339 H   0  0  0  0  0  0  0  0  0  0  0  0
   -0.8781    1.0135    3.0785 N   0  0  0  0  0  0  0  0  0  0  0  0
   -0.9336    1.5820    4.4050 C   0  0  2  0  0  0  0  0  0  0  0  0
   -2.1955    1.0672    5.0849 C   0  0  0  0  0  0  0  0  0  0  0  0
   -3.1699    0.6496    4.4627 O   0  0  0  0  0  0  0  0  0  0  0  0
   -0.9238    3.1020    4.3564 C   0  0  0  0  0  0  0  0  0  0  0  0
   -1.6951    0.5115    2.7435 H   0  0  0  0  0  0  0  0  0  0  0  0
   -0.0526    1.2157    4.9432 H   0  0  0  0  0  0  0  0  0  0  0  0
   -1.7991    3.4876    3.8209 H   0  0  0  0  0  0  0  0  0  0  0  0
   -0.9371    3.5312    5.3637 H   0  0  0  0  0  0  0  0  0  0  0  0
   -0.0302    3.4697    3.8408 H   0  0  0  0  0  0  0  0  0  0  0  0
   -2.1222    1.1692    6.4670 N   0  0  0  0  0  0  0  0  0  0  0  0
   -3.1990    0.7578    7.3373 C   0  0  0  0  0  0  0  0  0  0  0  0
   -1.2680    1.5097    6.8984 H   0  0  0  0  0  0  0  0  0  0  0  0
   -3.8513    1.6185    7.5463 H   0  0  0  0  0  0  0  0  0  0  0  0
   -3.7837   -0.0348    6.8475 H   0  0  0  0  0  0  0  0  0  0  0  0
   -2.7822    0.3761    8.2810 H   0  0  0  0  0  0  0  0  0  0  0  0
  1  3  1  0  0  0  0
  1  7  1  0  0  0  0
  1  2  2  0  0  0  0
 29 30  1  0  0  0  0
 30 38  1  0  0  0  0
 30 31  2  0  0  0  0
  8  9  1  0  0  0  0
  9 17  1  0  0  0  0
  9 10  2  0  0  0  0
 18 19  1  0  0  0  0
 19 28  1  0  0  0  0
 19 20  2  0  0  0  0
 29 32  1  0  0  0  0
  8 11  1  0  0  0  0
 38 39  1  0  0  0  0
 18 21  1  0  0  0  0
 21 22  1  0  0  0  0
 28 29  1  0  0  0  0
  7  8  1  0  0  0  0
 17 18  1  0  0  0  0
  3  4  1  0  0  0  0
  3  5  1  0  0  0  0
  3  6  1  0  0  0  0
 32 35  1  0  0  0  0
 32 36  1  0  0  0  0
 32 37  1  0  0  0  0
 11 14  1  0  0  0  0
 11 15  1  0  0  0  0
 11 16  1  0  0  0  0
 39 41  1  0  0  0  0
 39 42  1  0  0  0  0
 39 43  1  0  0  0  0
 21 25  1  0  0  0  0
 21 26  1  0  0  0  0
 29 34  1  0  0  0  0
  8 13  1  0  0  0  0
 18 24  1  0  0  0  0
 38 40  1  0  0  0  0
  7 12  1  0  0  0  0
 28 33  1  0  0  0  0
 17 23  1  0  0  0  0
 22 27  1  0  0  0  0
M  END
$$$$

  -OEChem-05262214473D

 43 42  0     1  0  0  0  0  0999 V2000
   -2.8661   -4.7415    2.2943 C   0  0  0  0  0  0  0  0  0  0  0  0
   -2.0233   -5.5727    2.6109 O   0  0  0  0  0  0  0  0  0  0  0  0
   -4.3078   -5.0134    2.5698 C   0  0  0  0  0  0  0  0  0  0  0  0
   -4.8057   -5.5295    1.7332 H   0  0  0  0  0  0  0  0  0  0  0  0
   -4.4526   -5.6688    3.4436 H   0  0  0  0  0  0  0  0  0  0  0  0
   -4.9255   -4.1233    2.7700 H   0  0  0  0  0  0  0  0  0  0  0  0
   -2.6241   -3.5219    1.6838 N   0  0  0  0  0  0  0  0  0  0  0  0
   -1.3070   -3.0608    1.3315 C   0  0  2  0  0  0  0  0  0  0  0  0
   -1.3931   -1.5680    1.0422 C   0  0  0  0  0  0  0  0  0  0  0  0
   -2.4385   -1.0059    0.7226 O   0  0  0  0  0  0  0  0  0  0  0  0
   -0.7590   -3.8164    0.1309 C   0  0  0  0  0  0  0  0  0  0  0  0
   -3.4188   -2.9207    1.4735 H   0  0  0  0  0  0  0  0  0  0  0  0
   -0.6690   -3.2277    2.2062 H   0  0  0  0  0  0  0  0  0  0  0  0
   -1.3852   -3.6613   -0.7553 H   0  0  0  0  0  0  0  0  0  0  0  0
    0.2542   -3.4843   -0.1182 H   0  0  0  0  0  0  0  0  0  0  0  0
   -0.7257   -4.8930    0.3300 H   0  0  0  0  0  0  0  0  0  0  0  0
   -0.1563   -0.9420    1.1402 N   0  0  0  0  0  0  0  0  0  0  0  0
    0.0261    0.4671    0.9001 C   0  0  2  0  0  0  0  0  0  0  0  0
    0.2150    1.1766    2.2394 C   0  0  0  0  0  0  0  0  0  0  0  0
    1.0975    2.0093    2.4375 O   0  0  0  0  0  0  0  0  0  0  0  0
   -1.0986    1.0638    0.0505 C   0  0  0  0  0  0  0  0  0  0  0  0
   -1.1668    0.4026   -1.6468 S   0  0  0  0  0  0  0  0  0  0  0  0
    0.6533   -1.4855    1.4300 H   0  0  0  0  0  0  0  0  0  0  0  0
    0.9685    0.5518    0.3448 H   0  0  0  0  0  0  0  0  0  0  0  0
   -2.0722    0.8755    0.5146 H   0  0  0  0  0  0  0  0  0  0  0  0
   -0.9732    2.1493   -0.0254 H   0  0  0  0  0  0  0  0  0  0  0  0
   -2.2196    1.1341   -2.0339 H   0  0  0  0  0  0  0  0  0  0  0  0
   -0.7008    0.7525    3.1918 N   0  0  0  0  0  0  0  0  0  0  0  0
   -0.7179    1.2690    4.5404 C   0  0  2  0  0  0  0  0  0  0  0  0
   -1.7373    0.4668    5.3383 C   0  0  0  0  0  0  0  0  0  0  0  0
   -2.6623   -0.1514    4.8155 O   0  0  0  0  0  0  0  0  0  0  0  0
   -1.0565    2.7515    4.5608 C   0  0  0  0  0  0  0  0  0  0  0  0
   -1.4189    0.0829    2.9316 H   0  0  0  0  0  0  0  0  0  0  0  0
    0.2826    1.1043    4.9549 H   0  0  0  0  0  0  0  0  0  0  0  0
   -2.0555    2.9361    4.1492 H   0  0  0  0  0  0  0  0  0  0  0  0
   -1.0411    3.1480    5.5814 H   0  0  0  0  0  0  0  0  0  0  0  0
   -0.3394    3.3233    3.9619 H   0  0  0  0  0  0  0  0  0  0  0  0
   -1.5182    0.5577    6.7058 N   0  0  0  0  0  0  0  0  0  0  0  0
   -2.3585   -0.1049    7.6758 C   0  0  0  0  0  0  0  0  0  0  0  0
   -0.7158    1.0769    7.0498 H   0  0  0  0  0  0  0  0  0  0  0  0
   -3.1567    0.5797    7.9987 H   0  0  0  0  0  0  0  0  0  0  0  0
   -2.8059   -1.0013    7.2216 H   0  0  0  0  0  0  0  0  0  0  0  0
   -1.7528   -0.3981    8.5459 H   0  0  0  0  0  0  0  0  0  0  0  0
  1  3  1  0  0  0  0
  1  7  1  0  0  0  0
  1  2  2  0  0  0  0
 29 30  1  0  0  0  0
 30 38  1  0  0  0  0
 30 31  2  0  0  0  0
  8  9  1  0  0  0  0
  9 17  1  0  0  0  0
  9 10  2  0  0  0  0
 18 19  1  0  0  0  0
 19 28  1  0  0  0  0
 19 20  2  0  0  0  0
 29 32  1  0  0  0  0
  8 11  1  0  0  0  0
 38 39  1  0  0  0  0
 18 21  1  0  0  0  0
 21 22  1  0  0  0  0
 28 29  1  0  0  0  0
  7  8  1  0  0  0  0
 17 18  1  0  0  0  0
  3  4  1  0  0  0  0
  3  5  1  0  0  0  0
  3  6  1  0  0  0  0
 32 35  1  0  0  0  0
 32 36  1  0  0  0  0
 32 37  1  0  0  0  0
 11 14  1  0  0  0  0
 11 15  1  0  0  0  0
 11 16  1  0  0  0  0
 39 41  1  0  0  0  0
 39 42  1  0  0  0  0
 39 43  1  0  0  0  0
 21 25  1  0  0  0  0
 21 26  1  0  0  0  0
 29 34  1  0  0  0  0
  8 13  1  0  0  0  0
 18 24  1  0  0  0  0
 38 40  1  0  0  0  0
  7 12  1  0  0  0  0
 28 33  1  0  0  0  0
 17 23  1  0  0  0  0
 22 27  1  0  0  0  0
M  END
$$$$

  -OEChem-05262214473D

 43 42  0     1  0  0  0  0  0999 V2000
   -2.8661   -4.7415    2.2943 C   0  0  0  0  0  0  0  0  0  0  0  0
   -2.0233   -5.5727    2.6109 O   0  0  0  0  0  0  0  0  0  0  0  0
   -4.3078   -5.0134    2.5698 C   0  0  0  0  0  0  0  0  0  0  0  0
   -4.8057   -5.5295    1.7332 H   0  0  0  0  0  0  0  0  0  0  0  0
   -4.4526   -5.6688    3.4436 H   0  0  0  0  0  0  0  0  0  0  0  0
   -4.9255   -4.1233    2.7700 H   0  0  0  0  0  0  0  0  0  0  0  0
   -2.6241   -3.5219    1.6838 N   0  0  0  0  0  0  0  0  0  0  0  0
   -1.3070   -3.0608    1.3315 C   0  0  2  0  0  0  0  0  0  0  0  0
   -1.3931   -1.5680    1.0422 C   0  0  0  0  0  0  0  0  0  0  0  0
   -2.4385   -1.0059    0.7226 O   0  0  0  0  0  0  0  0  0  0  0  0
   -0.7590   -3.8164    0.1309 C   0  0  0  0  0  0  0  0  0  0  0  0
   -3.4188   -2.9207    1.4735 H   0  0  0  0  0  0  0  0  0  0  0  0
   -0.6690   -3.2277    2.2062 H   0  0  0  0  0  0  0  0  0  0  0  0
   -1.3852   -3.6613   -0.7553 H   0  0  0  0  0  0  0  0  0  0  0  0
    0.2542   -3.4843   -0.1182 H   0  0  0  0  0  0  0  0  0  0  0  0
   -0.7257   -4.8930    0.3300 H   0  0  0  0  0  0  0  0  0  0  0  0
   -0.1563   -0.9420    1.1402 N   0  0  0  0  0  0  0  0  0  0  0  0
    0.0261    0.4671    0.9001 C   0  0  2  0  0  0  0  0  0  0  0  0
    0.2150    1.1766    2.2394 C   0  0  0  0  0  0  0  0  0  0  0  0
    0.9051    2.1854    2.3713 O   0  0  0  0  0  0  0  0  0  0  0  0
   -1.0986    1.0638    0.0505 C   0  0  0  0  0  0  0  0  0  0  0  0
   -1.1668    0.4026   -1.6468 S   0  0  0  0  0  0  0  0  0  0  0  0
    0.6533   -1.4855    1.4300 H   0  0  0  0  0  0  0  0  0  0  0  0
    0.9685    0.5518    0.3448 H   0  0  0  0  0  0  0  0  0  0  0  0
   -2.0722    0.8755    0.5146 H   0  0  0  0  0  0  0  0  0  0  0  0
   -0.9732    2.1493   -0.0254 H   0  0  0  0  0  0  0  0  0  0  0  0
   -2.2196    1.1341   -2.0339 H   0  0  0  0  0  0  0  0  0  0  0  0
   -0.4566    0.5369    3.2716 N   0  0  0  0  0  0  0  0  0  0  0  0
   -0.4223    1.0113    4.6352 C   0  0  2  0  0  0  0  0  0  0  0  0
   -1.1281   -0.0173    5.5089 C   0  0  0  0  0  0  0  0  0  0  0  0
   -1.9477   -0.8212    5.0696 O   0  0  0  0  0  0  0  0  0  0  0  0
   -1.0805    2.3763    4.7629 C   0  0  0  0  0  0  0  0  0  0  0  0
   -1.0322   -0.2744    3.0663 H   0  0  0  0  0  0  0  0  0  0  0  0
    0.6331    1.0725    4.9223 H   0  0  0  0  0  0  0  0  0  0  0  0
   -2.1385    2.3347    4.4795 H   0  0  0  0  0  0  0  0  0  0  0  0
   -1.0283    2.7472    5.7919 H   0  0  0  0  0  0  0  0  0  0  0  0
   -0.5903    3.1078    4.1115 H   0  0  0  0  0  0  0  0  0  0  0  0
   -0.7673    0.0966    6.8442 N   0  0  0  0  0  0  0  0  0  0  0  0
   -1.3101   -0.7582    7.8741 C   0  0  0  0  0  0  0  0  0  0  0  0
   -0.0660    0.7793    7.1158 H   0  0  0  0  0  0  0  0  0  0  0  0
   -2.1955   -0.2805    8.3189 H   0  0  0  0  0  0  0  0  0  0  0  0
   -1.5971   -1.7249    7.4345 H   0  0  0  0  0  0  0  0  0  0  0  0
   -0.5509   -0.9207    8.6533 H   0  0  0  0  0  0  0  0  0  0  0  0
  1  3  1  0  0  0  0
  1  7  1  0  0  0  0
  1  2  2  0  0  0  0
 29 30  1  0  0  0  0
 30 38  1  0  0  0  0
 30 31  2  0  0  0  0
  8  9  1  0  0  0  0
  9 17  1  0  0  0  0
  9 10  2  0  0  0  0
 18 19  1  0  0  0  0
 19 28  1  0  0  0  0
 19 20  2  0  0  0  0
 29 32  1  0  0  0  0
  8 11  1  0  0  0  0
 38 39  1  0  0  0  0
 18 21  1  0  0  0  0
 21 22  1  0  0  0  0
 28 29  1  0  0  0  0
  7  8  1  0  0  0  0
 17 18  1  0  0  0  0
  3  4  1  0  0  0  0
  3  5  1  0  0  0  0
  3  6  1  0  0  0  0
 32 35  1  0  0  0  0
 32 36  1  0  0  0  0
 32 37  1  0  0  0  0
 11 14  1  0  0  0  0
 11 15  1  0  0  0  0
 11 16  1  0  0  0  0
 39 41  1  0  0  0  0
 39 42  1  0  0  0  0
 39 43  1  0  0  0  0
 21 25  1  0  0  0  0
 21 26  1  0  0  0  0
 29 34  1  0  0  0  0
  8 13  1  0  0  0  0
 18 24  1  0  0  0  0
 38 40  1  0  0  0  0
  7 12  1  0  0  0  0
 28 33  1  0  0  0  0
 17 23  1  0  0  0  0
 22 27  1  0  0  0  0
M  END
$$$$

  -OEChem-05262214473D

 43 42  0     1  0  0  0  0  0999 V2000
   -2.8661   -4.7415    2.2943 C   0  0  0  0  0  0  0  0  0  0  0  0
   -2.0233   -5.5727    2.6109 O   0  0  0  0  0  0  0  0  0  0  0  0
   -4.3078   -5.0134    2.5698 C   0  0  0  0  0  0  0  0  0  0  0  0
   -4.8057   -5.5295    1.7332 H   0  0  0  0  0  0  0  0  0  0  0  0
   -4.4526   -5.6688    3.4436 H   0  0  0  0  0  0  0  0  0  0  0  0
   -4.9255   -4.1233    2.7700 H   0  0  0  0  0  0  0  0  0  0  0  0
   -2.6241   -3.5219    1.6838 N   0  0  0  0  0  0  0  0  0  0  0  0
   -1.3070   -3.0608    1.3315 C   0  0  2  0  0  0  0  0  0  0  0  0
   -1.3931   -1.5680    1.0422 C   0  0  0  0  0  0  0  0  0  0  0  0
   -2.4385   -1.0059    0.7226 O   0  0  0  0  0  0  0  0  0  0  0  0
   -0.7590   -3.8164    0.1309 C   0  0  0  0  0  0  0  0  0  0  0  0
   -3.4188   -2.9207    1.4735 H   0  0  0  0  0  0  0  0  0  0  0  0
   -0.6690   -3.2277    2.2062 H   0  0  0  0  0  0  0  0  0  0  0  0
   -1.3852   -3.6613   -0.7553 H   0  0  0  0  0  0  0  0  0  0  0  0
    0.2542   -3.4843   -0.1182 H   0  0  0  0  0  0  0  0  0  0  0  0
   -0.7257   -4.8930    0.3300 H   0  0  0  0  0  0  0  0  0  0  0  0
   -0.1563   -0.9420    1.1402 N   0  0  0  0  0  0  0  0  0  0  0  0
    0.0261    0.4671    0.9001 C   0  0  2  0  0  0  0  0  0  0  0  0
    0.2150    1.1766    2.2394 C   0  0  0  0  0  0  0  0  0  0  0  0
    0.6713    2.3141    2.3361 O   0  0  0  0  0  0  0  0  0  0  0  0
   -1.0986    1.0638    0.0505 C   0  0  0  0  0  0  0  0  0  0  0  0
   -1.1668    0.4026   -1.6468 S   0  0  0  0  0  0  0  0  0  0  0  0
    0.6533   -1.4855    1.4300 H   0  0  0  0  0  0  0  0  0  0  0  0
    0.9685    0.5518    0.3448 H   0  0  0  0  0  0  0  0  0  0  0  0
   -2.0722    0.8755    0.5146 H   0  0  0  0  0  0  0  0  0  0  0  0
   -0.9732    2.1493   -0.0254 H   0  0  0  0  0  0  0  0  0  0  0  0
   -2.2196    1.1341   -2.0339 H   0  0  0  0  0  0  0  0  0  0  0  0
   -0.1622    0.3816    3.3123 N   0  0  0  0  0  0  0  0  0  0  0  0
   -0.0668    0.8264    4.6830 C   0  0  2  0  0  0  0  0  0  0  0  0
   -0.4092   -0.3521    5.5849 C   0  0  0  0  0  0  0  0  0  0  0  0
   -1.0749   -1.3142    5.2076 O   0  0  0  0  0  0  0  0  0  0  0  0
   -0.9942    2.0019    4.9491 C   0  0  0  0  0  0  0  0  0  0  0  0
   -0.5614   -0.5361    3.1386 H   0  0  0  0  0  0  0  0  0  0  0  0
    0.9750    1.1224    4.8477 H   0  0  0  0  0  0  0  0  0  0  0  0
   -2.0425    1.7245    4.7892 H   0  0  0  0  0  0  0  0  0  0  0  0
   -0.8998    2.3562    5.9809 H   0  0  0  0  0  0  0  0  0  0  0  0
   -0.7658    2.8379    4.2792 H   0  0  0  0  0  0  0  0  0  0  0  0
    0.0793   -0.1829    6.8729 N   0  0  0  0  0  0  0  0  0  0  0  0
   -0.1253   -1.1578    7.9187 C   0  0  0  0  0  0  0  0  0  0  0  0
    0.6371    0.6372    7.0920 H   0  0  0  0  0  0  0  0  0  0  0  0
   -1.0334   -0.9036    8.4851 H   0  0  0  0  0  0  0  0  0  0  0  0
   -0.2397   -2.1563    7.4716 H   0  0  0  0  0  0  0  0  0  0  0  0
    0.7415   -1.1563    8.5959 H   0  0  0  0  0  0  0  0  0  0  0  0
  1  3  1  0  0  0  0
  1  7  1  0  0  0  0
  1  2  2  0  0  0  0
 29 30  1  0  0  0  0
 30 38  1  0  0  0  0
 30 31  2  0  0  0  0
  8  9  1  0  0  0  0
  9 17  1  0  0  0  0
  9 10  2  0  0  0  0
 18 19  1  0  0  0  0
 19 28  1  0  0  0  0
 19 20  2  0  0  0  0
 29 32  1  0  0  0  0
  8 11  1  0  0  0  0
 38 39  1  0  0  0  0
 18 21  1  0  0  0  0
 21 22  1  0  0  0  0
 28 29  1  0  0  0  0
  7  8  1  0  0  0  0
 17 18  1  0  0  0  0
  3  4  1  0  0  0  0
  3  5  1  0  0  0  0
  3  6  1  0  0  0  0
 32 35  1  0  0  0  0
 32 36  1  0  0  0  0
 32 37  1  0  0  0  0
 11 14  1  0  0  0  0
 11 15  1  0  0  0  0
 11 16  1  0  0  0  0
 39 41  1  0  0  0  0
 39 42  1  0  0  0  0
 39 43  1  0  0  0  0
 21 25  1  0  0  0  0
 21 26  1  0  0  0  0
 29 34  1  0  0  0  0
  8 13  1  0  0  0  0
 18 24  1  0  0  0  0
 38 40  1  0  0  0  0
  7 12  1  0  0  0  0
 28 33  1  0  0  0  0
 17 23  1  0  0  0  0
 22 27  1  0  0  0  0
M  END
$$$$

  -OEChem-05262214473D

 43 42  0     1  0  0  0  0  0999 V2000
   -2.8661   -4.7415    2.2943 C   0  0  0  0  0  0  0  0  0  0  0  0
   -2.0233   -5.5727    2.6109 O   0  0  0  0  0  0  0  0  0  0  0  0
   -4.3078   -5.0134    2.5698 C   0  0  0  0  0  0  0  0  0  0  0  0
   -4.8057   -5.5295    1.7332 H   0  0  0  0  0  0  0  0  0  0  0  0
   -4.4526   -5.6688    3.4436 H   0  0  0  0  0  0  0  0  0  0  0  0
   -4.9255   -4.1233    2.7700 H   0  0  0  0  0  0  0  0  0  0  0  0
   -2.6241   -3.5219    1.6838 N   0  0  0  0  0  0  0  0  0  0  0  0
   -1.3070   -3.0608    1.3315 C   0  0  2  0  0  0  0  0  0  0  0  0
   -1.3931   -1.5680    1.0422 C   0  0  0  0  0  0  0  0  0  0  0  0
   -2.4385   -1.0059    0.7226 O   0  0  0  0  0  0  0  0  0  0  0  0
   -0.7590   -3.8164    0.1309 C   0  0  0  0  0  0  0  0  0  0  0  0
   -3.4188   -2.9207    1.4735 H   0  0  0  0  0  0  0  0  0  0  0  0
   -0.6690   -3.2277    2.2062 H   0  0  0  0  0  0  0  0  0  0  0  0
   -1.3852   -3.6613   -0.7553 H   0  0  0  0  0  0  0  0  0  0  0  0
    0.2542   -3.4843   -0.1182 H   0  0  0  0  0  0  0  0  0  0  0  0
   -0.7257   -4.8930    0.3300 H   0  0  0  0  0  0  0  0  0  0  0  0
   -0.1563   -0.9420    1.1402 N   0  0  0  0  0  0  0  0  0  0  0  0
    0.0261    0.4671    0.9001 C   0  0  2  0  0  0  0  0  0  0  0  0
    0.2150    1.1766    2.2394 C   0  0  0  0  0  0  0  0  0  0  0  0
    0.4121    2.3864    2.3344 O   0  0  0  0  0  0  0  0  0  0  0  0
   -1.0986    1.0638    0.0505 C   0  0  0  0  0  0  0  0  0  0  0  0
   -1.1668    0.4026   -1.6468 S   0  0  0  0  0  0  0  0  0  0  0  0
    0.6533   -1.4855    1.4300 H   0  0  0  0  0  0  0  0  0  0  0  0
    0.9685    0.5518    0.3448 H   0  0  0  0  0  0  0  0  0  0  0  0
   -2.0722    0.8755    0.5146 H   0  0  0  0  0  0  0  0  0  0  0  0
   -0.9732    2.1493   -0.0254 H   0  0  0  0  0  0  0  0  0  0  0  0
   -2.2196    1.1341   -2.0339 H   0  0  0  0  0  0  0  0  0  0  0  0
    0.1623    0.2970    3.3114 N   0  0  0  0  0  0  0  0  0  0  0  0
    0.3243    0.7270    4.6806 C   0  0  2  0  0  0  0  0  0  0  0  0
    0.3702   -0.5148    5.5611 C   0  0  0  0  0  0  0  0  0  0  0  0
   -0.1033   -1.5967    5.2203 O   0  0  0  0  0  0  0  0  0  0  0  0
   -0.8035    1.6540    5.1065 C   0  0  0  0  0  0  0  0  0  0  0  0
   -0.0386   -0.6844    3.1434 H   0  0  0  0  0  0  0  0  0  0  0  0
    1.2849    1.2506    4.7361 H   0  0  0  0  0  0  0  0  0  0  0  0
   -1.7740    1.1468    5.0574 H   0  0  0  0  0  0  0  0  0  0  0  0
   -0.6641    2.0017    6.1354 H   0  0  0  0  0  0  0  0  0  0  0  0
   -0.8539    2.5320    4.4537 H   0  0  0  0  0  0  0  0  0  0  0  0
    0.9639   -0.2616    6.7898 N   0  0  0  0  0  0  0  0  0  0  0  0
    1.1151   -1.2762    7.8065 C   0  0  0  0  0  0  0  0  0  0  0  0
    1.3457    0.6603    6.9798 H   0  0  0  0  0  0  0  0  0  0  0  0
    0.2505   -1.2470    8.4859 H   0  0  0  0  0  0  0  0  0  0  0  0
    1.1739   -2.2662    7.3305 H   0  0  0  0  0  0  0  0  0  0  0  0
    2.0364   -1.0886    8.3774 H   0  0  0  0  0  0  0  0  0  0  0  0
  1  3  1  0  0  0  0
  1  7  1  0  0  0  0
  1  2  2  0  0  0  0
 29 30  1  0  0  0  0
 30 38  1  0  0  0  0
 30 31  2  0  0  0  0
  8  9  1  0  0  0  0
  9 17  1  0  0  0  0
  9 10  2  0  0  0  0
 18 19  1  0  0  0  0
 19 28  1  0  0  0  0
 19 20  2  0  0  0  0
 29 32  1  0  0  0  0
  8 11  1  0  0  0  0
 38 39  1  0  0  0  0
 18 21  1  0  0  0  0
 21 22  1  0  0  0  0
 28 29  1  0  0  0  0
  7  8  1  0  0  0  0
 17 18  1  0  0  0  0
  3  4  1  0  0  0  0
  3  5  1  0  0  0  0
  3  6  1  0  0  0  0
 32 35  1  0  0  0  0
 32 36  1  0  0  0  0
 32 37  1  0  0  0  0
 11 14  1  0  0  0  0
 11 15  1  0  0  0  0
 11 16  1  0  0  0  0
 39 41  1  0  0  0  0
 39 42  1  0  0  0  0
 39 43  1  0  0  0  0
 21 25  1  0  0  0  0
 21 26  1  0  0  0  0
 29 34  1  0  0  0  0
  8 13  1  0  0  0  0
 18 24  1  0  0  0  0
 38 40  1  0  0  0  0
  7 12  1  0  0  0  0
 28 33  1  0  0  0  0
 17 23  1  0  0  0  0
 22 27  1  0  0  0  0
M  END
$$$$

  -OEChem-05262214473D

 43 42  0     1  0  0  0  0  0999 V2000
   -2.8661   -4.7415    2.2943 C   0  0  0  0  0  0  0  0  0  0  0  0
   -2.0233   -5.5727    2.6109 O   0  0  0  0  0  0  0  0  0  0  0  0
   -4.3078   -5.0134    2.5698 C   0  0  0  0  0  0  0  0  0  0  0  0
   -4.8057   -5.5295    1.7332 H   0  0  0  0  0  0  0  0  0  0  0  0
   -4.4526   -5.6688    3.4436 H   0  0  0  0  0  0  0  0  0  0  0  0
   -4.9255   -4.1233    2.7700 H   0  0  0  0  0  0  0  0  0  0  0  0
   -2.6241   -3.5219    1.6838 N   0  0  0  0  0  0  0  0  0  0  0  0
   -1.3070   -3.0608    1.3315 C   0  0  2  0  0  0  0  0  0  0  0  0
   -1.3931   -1.5680    1.0422 C   0  0  0  0  0  0  0  0  0  0  0  0
   -2.4385   -1.0059    0.7226 O   0  0  0  0  0  0  0  0  0  0  0  0
   -0.7590   -3.8164    0.1309 C   0  0  0  0  0  0  0  0  0  0  0  0
   -3.4188   -2.9207    1.4735 H   0  0  0  0  0  0  0  0  0  0  0  0
   -0.6690   -3.2277    2.2062 H   0  0  0  0  0  0  0  0  0  0  0  0
   -1.3852   -3.6613   -0.7553 H   0  0  0  0  0  0  0  0  0  0  0  0
    0.2542   -3.4843   -0.1182 H   0  0  0  0  0  0  0  0  0  0  0  0
   -0.7257   -4.8930    0.3300 H   0  0  0  0  0  0  0  0  0  0  0  0
   -0.1563   -0.9420    1.1402 N   0  0  0  0  0  0  0  0  0  0  0  0
    0.0261    0.4671    0.9001 C   0  0  2  0  0  0  0  0  0  0  0  0
    0.2150    1.1766    2.2394 C   0  0  0  0  0  0  0  0  0  0  0  0
    0.1450    2.3974    2.3662 O   0  0  0  0  0  0  0  0  0  0  0  0
   -1.0986    1.0638    0.0505 C   0  0  0  0  0  0  0  0  0  0  0  0
   -1.1668    0.4026   -1.6468 S   0  0  0  0  0  0  0  0  0  0  0  0
    0.6533   -1.4855    1.4300 H   0  0  0  0  0  0  0  0  0  0  0  0
    0.9685    0.5518    0.3448 H   0  0  0  0  0  0  0  0  0  0  0  0
   -2.0722    0.8755    0.5146 H   0  0  0  0  0  0  0  0  0  0  0  0
   -0.9732    2.1493   -0.0254 H   0  0  0  0  0  0  0  0  0  0  0  0
   -2.2196    1.1341   -2.0339 H   0  0  0  0  0  0  0  0  0  0  0  0
    0.4948    0.2890    3.2687 N   0  0  0  0  0  0  0  0  0  0  0  0
    0.7243    0.7198    4.6280 C   0  0  2  0  0  0  0  0  0  0  0  0
    1.1572   -0.4942    5.4393 C   0  0  0  0  0  0  0  0  0  0  0  0
    0.9007   -1.6495    5.1067 O   0  0  0  0  0  0  0  0  0  0  0  0
   -0.5215    1.3561    5.2246 C   0  0  0  0  0  0  0  0  0  0  0  0
    0.5007   -0.7091    3.0805 H   0  0  0  0  0  0  0  0  0  0  0  0
    1.5418    1.4483    4.5952 H   0  0  0  0  0  0  0  0  0  0  0  0
   -1.3514    0.6413    5.2656 H   0  0  0  0  0  0  0  0  0  0  0  0
   -0.3374    1.7078    6.2451 H   0  0  0  0  0  0  0  0  0  0  0  0
   -0.8486    2.2110    4.6230 H   0  0  0  0  0  0  0  0  0  0  0  0
    1.8263   -0.1342    6.6007 N   0  0  0  0  0  0  0  0  0  0  0  0
    2.3267   -1.1055    7.5452 C   0  0  0  0  0  0  0  0  0  0  0  0
    2.0114    0.8470    6.7870 H   0  0  0  0  0  0  0  0  0  0  0  0
    1.5687   -1.2873    8.3214 H   0  0  0  0  0  0  0  0  0  0  0  0
    2.5472   -2.0469    7.0207 H   0  0  0  0  0  0  0  0  0  0  0  0
    3.2456   -0.7224    8.0129 H   0  0  0  0  0  0  0  0  0  0  0  0
  1  3  1  0  0  0  0
  1  7  1  0  0  0  0
  1  2  2  0  0  0  0
 29 30  1  0  0  0  0
 30 38  1  0  0  0  0
 30 31  2  0  0  0  0
  8  9  1  0  0  0  0
  9 17  1  0  0  0  0
  9 10  2  0  0  0  0
 18 19  1  0  0  0  0
 19 28  1  0  0  0  0
 19 20  2  0  0  0  0
 29 32  1  0  0  0  0
  8 11  1  0  0  0  0
 38 39  1  0  0  0  0
 18 21  1  0  0  0  0
 21 22  1  0  0  0  0
 28 29  1  0  0  0  0
  7  8  1  0  0  0  0
 17 18  1  0  0  0  0
  3  4  1  0  0  0  0
  3  5  1  0  0  0  0
  3  6  1  0  0  0  0
 32 35  1  0  0  0  0
 32 36  1  0  0  0  0
 32 37  1  0  0  0  0
 11 14  1  0  0  0  0
 11 15  1  0  0  0  0
 11 16  1  0  0  0  0
 39 41  1  0  0  0  0
 39 42  1  0  0  0  0
 39 43  1  0  0  0  0
 21 25  1  0  0  0  0
 21 26  1  0  0  0  0
 29 34  1  0  0  0  0
  8 13  1  0  0  0  0
 18 24  1  0  0  0  0
 38 40  1  0  0  0  0
  7 12  1  0  0  0  0
 28 33  1  0  0  0  0
 17 23  1  0  0  0  0
 22 27  1  0  0  0  0
M  END
$$$$

  -OEChem-05262214473D

 43 42  0     1  0  0  0  0  0999 V2000
   -2.8661   -4.7415    2.2943 C   0  0  0  0  0  0  0  0  0  0  0  0
   -2.0233   -5.5727    2.6109 O   0  0  0  0  0  0  0  0  0  0  0  0
   -4.3078   -5.0134    2.5698 C   0  0  0  0  0  0  0  0  0  0  0  0
   -4.8057   -5.5295    1.7332 H   0  0  0  0  0  0  0  0  0  0  0  0
   -4.4526   -5.6688    3.4436 H   0  0  0  0  0  0  0  0  0  0  0  0
   -4.9255   -4.1233    2.7700 H   0  0  0  0  0  0  0  0  0  0  0  0
   -2.6241   -3.5219    1.6838 N   0  0  0  0  0  0  0  0  0  0  0  0
   -1.3070   -3.0608    1.3315 C   0  0  2  0  0  0  0  0  0  0  0  0
   -1.3931   -1.5680    1.0422 C   0  0  0  0  0  0  0  0  0  0  0  0
   -2.4385   -1.0059    0.7226 O   0  0  0  0  0  0  0  0  0  0  0  0
   -0.7590   -3.8164    0.1309 C   0  0  0  0  0  0  0  0  0  0  0  0
   -3.4188   -2.9207    1.4735 H   0  0  0  0  0  0  0  0  0  0  0  0
   -0.6690   -3.2277    2.2062 H   0  0  0  0  0  0  0  0  0  0  0  0
   -1.3852   -3.6613   -0.7553 H   0  0  0  0  0  0  0  0  0  0  0  0
    0.2542   -3.4843   -0.1182 H   0  0  0  0  0  0  0  0  0  0  0  0
   -0.7257   -4.8930    0.3300 H   0  0  0  0  0  0  0  0  0  0  0  0
   -0.1563   -0.9420    1.1402 N   0  0  0  0  0  0  0  0  0  0  0  0
    0.0261    0.4671    0.9001 C   0  0  2  0  0  0  0  0  0  0  0  0
    0.2150    1.1766    2.2394 C   0  0  0  0  0  0  0  0  0  0  0  0
   -0.1116    2.3465    2.4293 O   0  0  0  0  0  0  0  0  0  0  0  0
   -1.0986    1.0638    0.0505 C   0  0  0  0  0  0  0  0  0  0  0  0
   -1.1668    0.4026   -1.6468 S   0  0  0  0  0  0  0  0  0  0  0  0
    0.6533   -1.4855    1.4300 H   0  0  0  0  0  0  0  0  0  0  0  0
    0.9685    0.5518    0.3448 H   0  0  0  0  0  0  0  0  0  0  0  0
   -2.0722    0.8755    0.5146 H   0  0  0  0  0  0  0  0  0  0  0  0
   -0.9732    2.1493   -0.0254 H   0  0  0  0  0  0  0  0  0  0  0  0
   -2.2196    1.1341   -2.0339 H   0  0  0  0  0  0  0  0  0  0  0  0
    0.8127    0.3582    3.1873 N   0  0  0  0  0  0  0  0  0  0  0  0
    1.1060    0.8053    4.5289 C   0  0  2  0  0  0  0  0  0  0  0  0
    1.8981   -0.2919    5.2276 C   0  0  0  0  0  0  0  0  0  0  0  0
    1.8689   -1.4690    4.8745 O   0  0  0  0  0  0  0  0  0  0  0  0
   -0.1672    1.1286    5.2951 C   0  0  0  0  0  0  0  0  0  0  0  0
    1.0196   -0.6085    2.9540 H   0  0  0  0  0  0  0  0  0  0  0  0
    1.7281    1.7020    4.4345 H   0  0  0  0  0  0  0  0  0  0  0  0
   -0.8034    0.2422    5.3998 H   0  0  0  0  0  0  0  0  0  0  0  0
    0.0580    1.4946    6.3023 H   0  0  0  0  0  0  0  0  0  0  0  0
   -0.7503    1.8967    4.7756 H   0  0  0  0  0  0  0  0  0  0  0  0
    2.6076    0.1906    6.3185 N   0  0  0  0  0  0  0  0  0  0  0  0
    3.4268   -0.6573    7.1526 C   0  0  0  0  0  0  0  0  0  0  0  0
    2.5888    1.1846    6.5268 H   0  0  0  0  0  0  0  0  0  0  0  0
    2.8314   -1.0218    8.0027 H   0  0  0  0  0  0  0  0  0  0  0  0
    3.7868   -1.5136    6.5634 H   0  0  0  0  0  0  0  0  0  0  0  0
    4.2867   -0.0825    7.5271 H   0  0  0  0  0  0  0  0  0  0  0  0
  1  3  1  0  0  0  0
  1  7  1  0  0  0  0
  1  2  2  0  0  0  0
 29 30  1  0  0  0  0
 30 38  1  0  0  0  0
 30 31  2  0  0  0  0
  8  9  1  0  0  0  0
  9 17  1  0  0  0  0
  9 10  2  0  0  0  0
 18 19  1  0  0  0  0
 19 28  1  0  0  0  0
 19 20  2  0  0  0  0
 29 32  1  0  0  0  0
  8 11  1  0  0  0  0
 38 39  1  0  0  0  0
 18 21  1  0  0  0  0
 21 22  1  0  0  0  0
 28 29  1  0  0  0  0
  7  8  1  0  0  0  0
 17 18  1  0  0  0  0
  3  4  1  0  0  0  0
  3  5  1  0  0  0  0
  3  6  1  0  0  0  0
 32 35  1  0  0  0  0
 32 36  1  0  0  0  0
 32 37  1  0  0  0  0
 11 14  1  0  0  0  0
 11 15  1  0  0  0  0
 11 16  1  0  0  0  0
 39 41  1  0  0  0  0
 39 42  1  0  0  0  0
 39 43  1  0  0  0  0
 21 25  1  0  0  0  0
 21 26  1  0  0  0  0
 29 34  1  0  0  0  0
  8 13  1  0  0  0  0
 18 24  1  0  0  0  0
 38 40  1  0  0  0  0
  7 12  1  0  0  0  0
 28 33  1  0  0  0  0
 17 23  1  0  0  0  0
 22 27  1  0  0  0  0
M  END
$$$$

  -OEChem-05262214473D

 43 42  0     1  0  0  0  0  0999 V2000
   -2.8661   -4.7415    2.2943 C   0  0  0  0  0  0  0  0  0  0  0  0
   -2.0233   -5.5727    2.6109 O   0  0  0  0  0  0  0  0  0  0  0  0
   -4.3078   -5.0134    2.5698 C   0  0  0  0  0  0  0  0  0  0  0  0
   -4.8057   -5.5295    1.7332 H   0  0  0  0  0  0  0  0  0  0  0  0
   -4.4526   -5.6688    3.4436 H   0  0  0  0  0  0  0  0  0  0  0  0
   -4.9255   -4.1233    2.7700 H   0  0  0  0  0  0  0  0  0  0  0  0
   -2.6241   -3.5219    1.6838 N   0  0  0  0  0  0  0  0  0  0  0  0
   -1.3070   -3.0608    1.3315 C   0  0  2  0  0  0  0  0  0  0  0  0
   -1.3931   -1.5680    1.0422 C   0  0  0  0  0  0  0  0  0  0  0  0
   -2.4385   -1.0059    0.7226 O   0  0  0  0  0  0  0  0  0  0  0  0
   -0.7590   -3.8164    0.1309 C   0  0  0  0  0  0  0  0  0  0  0  0
   -3.4188   -2.9207    1.4735 H   0  0  0  0  0  0  0  0  0  0  0  0
   -0.6690   -3.2277    2.2062 H   0  0  0  0  0  0  0  0  0  0  0  0
   -1.3852   -3.6613   -0.7553 H   0  0  0  0  0  0  0  0  0  0  0  0
    0.2542   -3.4843   -0.1182 H   0  0  0  0  0  0  0  0  0  0  0  0
   -0.7257   -4.8930    0.3300 H   0  0  0  0  0  0  0  0  0  0  0  0
   -0.1563   -0.9420    1.1402 N   0  0  0  0  0  0  0  0  0  0  0  0
    0.0261    0.4671    0.9001 C   0  0  2  0  0  0  0  0  0  0  0  0
    0.2150    1.1766    2.2394 C   0  0  0  0  0  0  0  0  0  0  0  0
   -0.3403    2.2370    2.5196 O   0  0  0  0  0  0  0  0  0  0  0  0
   -1.0986    1.0638    0.0505 C   0  0  0  0  0  0  0  0  0  0  0  0
   -1.1668    0.4026   -1.6468 S   0  0  0  0  0  0  0  0  0  0  0  0
    0.6533   -1.4855    1.4300 H   0  0  0  0  0  0  0  0  0  0  0  0
    0.9685    0.5518    0.3448 H   0  0  0  0  0  0  0  0  0  0  0  0
   -2.0722    0.8755    0.5146 H   0  0  0  0  0  0  0  0  0  0  0  0
   -0.9732    2.1493   -0.0254 H   0  0  0  0  0  0  0  0  0  0  0  0
   -2.2196    1.1341   -2.0339 H   0  0  0  0  0  0  0  0  0  0  0  0
    1.0943    0.4997    3.0726 N   0  0  0  0  0  0  0  0  0  0  0  0
    1.4434    0.9777    4.3900 C   0  0  2  0  0  0  0  0  0  0  0  0
    2.5423    0.0785    4.9406 C   0  0  0  0  0  0  0  0  0  0  0  0
    2.7352   -1.0674    4.5396 O   0  0  0  0  0  0  0  0  0  0  0  0
    0.2351    0.9870    5.3134 C   0  0  0  0  0  0  0  0  0  0  0  0
    1.4828   -0.3896    2.7727 H   0  0  0  0  0  0  0  0  0  0  0  0
    1.8311    1.9946    4.2650 H   0  0  0  0  0  0  0  0  0  0  0  0
   -0.1673   -0.0233    5.4507 H   0  0  0  0  0  0  0  0  0  0  0  0
    0.4952    1.3765    6.3032 H   0  0  0  0  0  0  0  0  0  0  0  0
   -0.5656    1.6105    4.9012 H   0  0  0  0  0  0  0  0  0  0  0  0
    3.2547    0.6908    5.9623 N   0  0  0  0  0  0  0  0  0  0  0  0
    4.3405    0.0379    6.6555 C   0  0  0  0  0  0  0  0  0  0  0  0
    3.0386    1.6501    6.2167 H   0  0  0  0  0  0  0  0  0  0  0  0
    3.9524   -0.4686    7.5516 H   0  0  0  0  0  0  0  0  0  0  0  0
    4.8081   -0.7024    5.9896 H   0  0  0  0  0  0  0  0  0  0  0  0
    5.0886    0.7874    6.9532 H   0  0  0  0  0  0  0  0  0  0  0  0
  1  3  1  0  0  0  0
  1  7  1  0  0  0  0
  1  2  2  0  0  0  0
 29 30  1  0  0  0  0
 30 38  1  0  0  0  0
 30 31  2  0  0  0  0
  8  9  1  0  0  0  0
  9 17  1  0  0  0  0
  9 10  2  0  0  0  0
 18 19  1  0  0  0  0
 19 28  1  0  0  0  0
 19 20  2  0  0  0  0
 29 32  1  0  0  0  0
  8 11  1  0  0  0  0
 38 39  1  0  0  0  0
 18 21  1  0  0  0  0
 21 22  1  0  0  0  0
 28 29  1  0  0  0  0
  7  8  1  0  0  0  0
 17 18  1  0  0  0  0
  3  4  1  0  0  0  0
  3  5  1  0  0  0  0
  3  6  1  0  0  0  0
 32 35  1  0  0  0  0
 32 36  1  0  0  0  0
 32 37  1  0  0  0  0
 11 14  1  0  0  0  0
 11 15  1  0  0  0  0
 11 16  1  0  0  0  0
 39 41  1  0  0  0  0
 39 42  1  0  0  0  0
 39 43  1  0  0  0  0
 21 25  1  0  0  0  0
 21 26  1  0  0  0  0
 29 34  1  0  0  0  0
  8 13  1  0  0  0  0
 18 24  1  0  0  0  0
 38 40  1  0  0  0  0
  7 12  1  0  0  0  0
 28 33  1  0  0  0  0
 17 23  1  0  0  0  0
 22 27  1  0  0  0  0
M  END
$$$$

  -OEChem-05262214473D

 43 42  0     1  0  0  0  0  0999 V2000
   -2.8661   -4.7415    2.2943 C   0  0  0  0  0  0  0  0  0  0  0  0
   -2.0233   -5.5727    2.6109 O   0  0  0  0  0  0  0  0  0  0  0  0
   -4.3078   -5.0134    2.5698 C   0  0  0  0  0  0  0  0  0  0  0  0
   -4.8057   -5.5295    1.7332 H   0  0  0  0  0  0  0  0  0  0  0  0
   -4.4526   -5.6688    3.4436 H   0  0  0  0  0  0  0  0  0  0  0  0
   -4.9255   -4.1233    2.7700 H   0  0  0  0  0  0  0  0  0  0  0  0
   -2.6241   -3.5219    1.6838 N   0  0  0  0  0  0  0  0  0  0  0  0
   -1.3070   -3.0608    1.3315 C   0  0  2  0  0  0  0  0  0  0  0  0
   -1.3931   -1.5680    1.0422 C   0  0  0  0  0  0  0  0  0  0  0  0
   -2.4385   -1.0059    0.7226 O   0  0  0  0  0  0  0  0  0  0  0  0
   -0.7590   -3.8164    0.1309 C   0  0  0  0  0  0  0  0  0  0  0  0
   -3.4188   -2.9207    1.4735 H   0  0  0  0  0  0  0  0  0  0  0  0
   -0.6690   -3.2277    2.2062 H   0  0  0  0  0  0  0  0  0  0  0  0
   -1.3852   -3.6613   -0.7553 H   0  0  0  0  0  0  0  0  0  0  0  0
    0.2542   -3.4843   -0.1182 H   0  0  0  0  0  0  0  0  0  0  0  0
   -0.7257   -4.8930    0.3300 H   0  0  0  0  0  0  0  0  0  0  0  0
   -0.1563   -0.9420    1.1402 N   0  0  0  0  0  0  0  0  0  0  0  0
    0.0261    0.4671    0.9001 C   0  0  2  0  0  0  0  0  0  0  0  0
    0.2150    1.1766    2.2394 C   0  0  0  0  0  0  0  0  0  0  0  0
   -0.5256    2.0765    2.6307 O   0  0  0  0  0  0  0  0  0  0  0  0
   -1.0986    1.0638    0.0505 C   0  0  0  0  0  0  0  0  0  0  0  0
   -1.1668    0.4026   -1.6468 S   0  0  0  0  0  0  0  0  0  0  0  0
    0.6533   -1.4855    1.4300 H   0  0  0  0  0  0  0  0  0  0  0  0
    0.9685    0.5518    0.3448 H   0  0  0  0  0  0  0  0  0  0  0  0
   -2.0722    0.8755    0.5146 H   0  0  0  0  0  0  0  0  0  0  0  0
   -0.9732    2.1493   -0.0254 H   0  0  0  0  0  0  0  0  0  0  0  0
   -2.2196    1.1341   -2.0339 H   0  0  0  0  0  0  0  0  0  0  0  0
    1.3203    0.7039    2.9325 N   0  0  0  0  0  0  0  0  0  0  0  0
    1.7134    1.2252    4.2208 C   0  0  2  0  0  0  0  0  0  0  0  0
    3.0461    0.5916    4.5977 C   0  0  0  0  0  0  0  0  0  0  0  0
    3.4406   -0.4722    4.1249 O   0  0  0  0  0  0  0  0  0  0  0  0
    0.6580    0.9410    5.2781 C   0  0  0  0  0  0  0  0  0  0  0  0
    1.8587   -0.0672    2.5489 H   0  0  0  0  0  0  0  0  0  0  0  0
    1.8439    2.3059    4.0982 H   0  0  0  0  0  0  0  0  0  0  0  0
    0.5135   -0.1369    5.4149 H   0  0  0  0  0  0  0  0  0  0  0  0
    0.9444    1.3617    6.2477 H   0  0  0  0  0  0  0  0  0  0  0  0
   -0.3072    1.3720    4.9911 H   0  0  0  0  0  0  0  0  0  0  0  0
    3.7233    1.3321    5.5565 N   0  0  0  0  0  0  0  0  0  0  0  0
    5.0056    0.9327    6.0877 C   0  0  0  0  0  0  0  0  0  0  0  0
    3.3303    2.2117    5.8781 H   0  0  0  0  0  0  0  0  0  0  0  0
    4.8555    0.3347    6.9987 H   0  0  0  0  0  0  0  0  0  0  0  0
    5.5415    0.3312    5.3386 H   0  0  0  0  0  0  0  0  0  0  0  0
    5.5968    1.8280    6.3303 H   0  0  0  0  0  0  0  0  0  0  0  0
  1  3  1  0  0  0  0
  1  7  1  0  0  0  0
  1  2  2  0  0  0  0
 29 30  1  0  0  0  0
 30 38  1  0  0  0  0
 30 31  2  0  0  0  0
  8  9  1  0  0  0  0
  9 17  1  0  0  0  0
  9 10  2  0  0  0  0
 18 19  1  0  0  0  0
 19 28  1  0  0  0  0
 19 20  2  0  0  0  0
 29 32  1  0  0  0  0
  8 11  1  0  0  0  0
 38 39  1  0  0  0  0
 18 21  1  0  0  0  0
 21 22  1  0  0  0  0
 28 29  1  0  0  0  0
  7  8  1  0  0  0  0
 17 18  1  0  0  0  0
  3  4  1  0  0  0  0
  3  5  1  0  0  0  0
  3  6  1  0  0  0  0
 32 35  1  0  0  0  0
 32 36  1  0  0  0  0
 32 37  1  0  0  0  0
 11 14  1  0  0  0  0
 11 15  1  0  0  0  0
 11 16  1  0  0  0  0
 39 41  1  0  0  0  0
 39 42  1  0  0  0  0
 39 43  1  0  0  0  0
 21 25  1  0  0  0  0
 21 26  1  0  0  0  0
 29 34  1  0  0  0  0
  8 13  1  0  0  0  0
 18 24  1  0  0  0  0
 38 40  1  0  0  0  0
  7 12  1  0  0  0  0
 28 33  1  0  0  0  0
 17 23  1  0  0  0  0
 22 27  1  0  0  0  0
M  END
$$$$

  -OEChem-05262214473D

 43 42  0     1  0  0  0  0  0999 V2000
   -2.8661   -4.7415    2.2943 C   0  0  0  0  0  0  0  0  0  0  0  0
   -2.0233   -5.5727    2.6109 O   0  0  0  0  0  0  0  0  0  0  0  0
   -4.3078   -5.0134    2.5698 C   0  0  0  0  0  0  0  0  0  0  0  0
   -4.8057   -5.5295    1.7332 H   0  0  0  0  0  0  0  0  0  0  0  0
   -4.4526   -5.6688    3.4436 H   0  0  0  0  0  0  0  0  0  0  0  0
   -4.9255   -4.1233    2.7700 H   0  0  0  0  0  0  0  0  0  0  0  0
   -2.6241   -3.5219    1.6838 N   0  0  0  0  0  0  0  0  0  0  0  0
   -1.3070   -3.0608    1.3315 C   0  0  2  0  0  0  0  0  0  0  0  0
   -1.3931   -1.5680    1.0422 C   0  0  0  0  0  0  0  0  0  0  0  0
   -2.4385   -1.0059    0.7226 O   0  0  0  0  0  0  0  0  0  0  0  0
   -0.7590   -3.8164    0.1309 C   0  0  0  0  0  0  0  0  0  0  0  0
   -3.4188   -2.9207    1.4735 H   0  0  0  0  0  0  0  0  0  0  0  0
   -0.6690   -3.2277    2.2062 H   0  0  0  0  0  0  0  0  0  0  0  0
   -1.3852   -3.6613   -0.7553 H   0  0  0  0  0  0  0  0  0  0  0  0
    0.2542   -3.4843   -0.1182 H   0  0  0  0  0  0  0  0  0  0  0  0
   -0.7257   -4.8930    0.3300 H   0  0  0  0  0  0  0  0  0  0  0  0
   -0.1563   -0.9420    1.1402 N   0  0  0  0  0  0  0  0  0  0  0  0
    0.0261    0.4671    0.9001 C   0  0  2  0  0  0  0  0  0  0  0  0
    0.2150    1.1766    2.2394 C   0  0  0  0  0  0  0  0  0  0  0  0
   -0.6547    1.8759    2.7553 O   0  0  0  0  0  0  0  0  0  0  0  0
   -1.0986    1.0638    0.0505 C   0  0  0  0  0  0  0  0  0  0  0  0
   -1.1668    0.4026   -1.6468 S   0  0  0  0  0  0  0  0  0  0  0  0
    0.6533   -1.4855    1.4300 H   0  0  0  0  0  0  0  0  0  0  0  0
    0.9685    0.5518    0.3448 H   0  0  0  0  0  0  0  0  0  0  0  0
   -2.0722    0.8755    0.5146 H   0  0  0  0  0  0  0  0  0  0  0  0
   -0.9732    2.1493   -0.0254 H   0  0  0  0  0  0  0  0  0  0  0  0
   -2.2196    1.1341   -2.0339 H   0  0  0  0  0  0  0  0  0  0  0  0
    1.4755    0.9570    2.7766 N   0  0  0  0  0  0  0  0  0  0  0  0
    1.8977    1.5310    4.0328 C   0  0  2  0  0  0  0  0  0  0  0  0
    3.3750    1.2126    4.2224 C   0  0  0  0  0  0  0  0  0  0  0  0
    3.9370    0.2760    3.6585 O   0  0  0  0  0  0  0  0  0  0  0  0
    1.0727    0.9936    5.1918 C   0  0  0  0  0  0  0  0  0  0  0  0
    2.1218    0.3367    2.2979 H   0  0  0  0  0  0  0  0  0  0  0  0
    1.7655    2.6150    3.9456 H   0  0  0  0  0  0  0  0  0  0  0  0
    1.1925   -0.0910    5.2948 H   0  0  0  0  0  0  0  0  0  0  0  0
    1.3750    1.4510    6.1396 H   0  0  0  0  0  0  0  0  0  0  0  0
    0.0074    1.1974    5.0392 H   0  0  0  0  0  0  0  0  0  0  0  0
    3.9817    2.0709    5.1286 N   0  0  0  0  0  0  0  0  0  0  0  0
    5.3766    1.9661    5.4880 C   0  0  0  0  0  0  0  0  0  0  0  0
    3.4437    2.8313    5.5339 H   0  0  0  0  0  0  0  0  0  0  0  0
    5.4790    1.3332    6.3818 H   0  0  0  0  0  0  0  0  0  0  0  0
    5.9370    1.5169    4.6547 H   0  0  0  0  0  0  0  0  0  0  0  0
    5.7767    2.9684    5.7008 H   0  0  0  0  0  0  0  0  0  0  0  0
  1  3  1  0  0  0  0
  1  7  1  0  0  0  0
  1  2  2  0  0  0  0
 29 30  1  0  0  0  0
 30 38  1  0  0  0  0
 30 31  2  0  0  0  0
  8  9  1  0  0  0  0
  9 17  1  0  0  0  0
  9 10  2  0  0  0  0
 18 19  1  0  0  0  0
 19 28  1  0  0  0  0
 19 20  2  0  0  0  0
 29 32  1  0  0  0  0
  8 11  1  0  0  0  0
 38 39  1  0  0  0  0
 18 21  1  0  0  0  0
 21 22  1  0  0  0  0
 28 29  1  0  0  0  0
  7  8  1  0  0  0  0
 17 18  1  0  0  0  0
  3  4  1  0  0  0  0
  3  5  1  0  0  0  0
  3  6  1  0  0  0  0
 32 35  1  0  0  0  0
 32 36  1  0  0  0  0
 32 37  1  0  0  0  0
 11 14  1  0  0  0  0
 11 15  1  0  0  0  0
 11 16  1  0  0  0  0
 39 41  1  0  0  0  0
 39 42  1  0  0  0  0
 39 43  1  0  0  0  0
 21 25  1  0  0  0  0
 21 26  1  0  0  0  0
 29 34  1  0  0  0  0
  8 13  1  0  0  0  0
 18 24  1  0  0  0  0
 38 40  1  0  0  0  0
  7 12  1  0  0  0  0
 28 33  1  0  0  0  0
 17 23  1  0  0  0  0
 22 27  1  0  0  0  0
M  END
$$$$

  -OEChem-05262214473D

 43 42  0     1  0  0  0  0  0999 V2000
   -2.8661   -4.7415    2.2943 C   0  0  0  0  0  0  0  0  0  0  0  0
   -2.0233   -5.5727    2.6109 O   0  0  0  0  0  0  0  0  0  0  0  0
   -4.3078   -5.0134    2.5698 C   0  0  0  0  0  0  0  0  0  0  0  0
   -4.8057   -5.5295    1.7332 H   0  0  0  0  0  0  0  0  0  0  0  0
   -4.4526   -5.6688    3.4436 H   0  0  0  0  0  0  0  0  0  0  0  0
   -4.9255   -4.1233    2.7700 H   0  0  0  0  0  0  0  0  0  0  0  0
   -2.6241   -3.5219    1.6838 N   0  0  0  0  0  0  0  0  0  0  0  0
   -1.3070   -3.0608    1.3315 C   0  0  2  0  0  0  0  0  0  0  0  0
   -1.3931   -1.5680    1.0422 C   0  0  0  0  0  0  0  0  0  0  0  0
   -2.4385   -1.0059    0.7226 O   0  0  0  0  0  0  0  0  0  0  0  0
   -0.7590   -3.8164    0.1309 C   0  0  0  0  0  0  0  0  0  0  0  0
   -3.4188   -2.9207    1.4735 H   0  0  0  0  0  0  0  0  0  0  0  0
   -0.6690   -3.2277    2.2062 H   0  0  0  0  0  0  0  0  0  0  0  0
   -1.3852   -3.6613   -0.7553 H   0  0  0  0  0  0  0  0  0  0  0  0
    0.2542   -3.4843   -0.1182 H   0  0  0  0  0  0  0  0  0  0  0  0
   -0.7257   -4.8930    0.3300 H   0  0  0  0  0  0  0  0  0  0  0  0
   -0.1563   -0.9420    1.1402 N   0  0  0  0  0  0  0  0  0  0  0  0
    0.0261    0.4671    0.9001 C   0  0  2  0  0  0  0  0  0  0  0  0
    0.2150    1.1766    2.2394 C   0  0  0  0  0  0  0  0  0  0  0  0
   -0.7189    1.6487    2.8846 O   0  0  0  0  0  0  0  0  0  0  0  0
   -1.0986    1.0638    0.0505 C   0  0  0  0  0  0  0  0  0  0  0  0
   -1.1668    0.4026   -1.6468 S   0  0  0  0  0  0  0  0  0  0  0  0
    0.6533   -1.4855    1.4300 H   0  0  0  0  0  0  0  0  0  0  0  0
    0.9685    0.5518    0.3448 H   0  0  0  0  0  0  0  0  0  0  0  0
   -2.0722    0.8755    0.5146 H   0  0  0  0  0  0  0  0  0  0  0  0
   -0.9732    2.1493   -0.0254 H   0  0  0  0  0  0  0  0  0  0  0  0
   -2.2196    1.1341   -2.0339 H   0  0  0  0  0  0  0  0  0  0  0  0
    1.5492    1.2417    2.6154 N   0  0  0  0  0  0  0  0  0  0  0  0
    1.9838    1.8742    3.8388 C   0  0  2  0  0  0  0  0  0  0  0  0
    3.5066    1.8990    3.8402 C   0  0  0  0  0  0  0  0  0  0  0  0
    4.1906    1.1264    3.1722 O   0  0  0  0  0  0  0  0  0  0  0  0
    1.4510    1.1414    5.0602 C   0  0  0  0  0  0  0  0  0  0  0  0
    2.2540    0.7946    2.0367 H   0  0  0  0  0  0  0  0  0  0  0  0
    1.6013    2.9005    3.8174 H   0  0  0  0  0  0  0  0  0  0  0  0
    1.8236    0.1112    5.0987 H   0  0  0  0  0  0  0  0  0  0  0  0
    1.7577    1.6386    5.9863 H   0  0  0  0  0  0  0  0  0  0  0  0
    0.3566    1.0985    5.0424 H   0  0  0  0  0  0  0  0  0  0  0  0
    4.0121    2.8569    4.7080 N   0  0  0  0  0  0  0  0  0  0  0  0
    5.4284    3.0676    4.8971 C   0  0  0  0  0  0  0  0  0  0  0  0
    3.3714    3.4664    5.2076 H   0  0  0  0  0  0  0  0  0  0  0  0
    5.7805    2.4589    5.7430 H   0  0  0  0  0  0  0  0  0  0  0  0
    5.9678    2.7739    3.9845 H   0  0  0  0  0  0  0  0  0  0  0  0
    5.6159    4.1309    5.1076 H   0  0  0  0  0  0  0  0  0  0  0  0
  1  3  1  0  0  0  0
  1  7  1  0  0  0  0
  1  2  2  0  0  0  0
 29 30  1  0  0  0  0
 30 38  1  0  0  0  0
 30 31  2  0  0  0  0
  8  9  1  0  0  0  0
  9 17  1  0  0  0  0
  9 10  2  0  0  0  0
 18 19  1  0  0  0  0
 19 28  1  0  0  0  0
 19 20  2  0  0  0  0
 29 32  1  0  0  0  0
  8 11  1  0  0  0  0
 38 39  1  0  0  0  0
 18 21  1  0  0  0  0
 21 22  1  0  0  0  0
 28 29  1  0  0  0  0
  7  8  1  0  0  0  0
 17 18  1  0  0  0  0
  3  4  1  0  0  0  0
  3  5  1  0  0  0  0
  3  6  1  0  0  0  0
 32 35  1  0  0  0  0
 32 36  1  0  0  0  0
 32 37  1  0  0  0  0
 11 14  1  0  0  0  0
 11 15  1  0  0  0  0
 11 16  1  0  0  0  0
 39 41  1  0  0  0  0
 39 42  1  0  0  0  0
 39 43  1  0  0  0  0
 21 25  1  0  0  0  0
 21 26  1  0  0  0  0
 29 34  1  0  0  0  0
  8 13  1  0  0  0  0
 18 24  1  0  0  0  0
 38 40  1  0  0  0  0
  7 12  1  0  0  0  0
 28 33  1  0  0  0  0
 17 23  1  0  0  0  0
 22 27  1  0  0  0  0
M  END
$$$$

  -OEChem-05262214473D

 43 42  0     1  0  0  0  0  0999 V2000
   -2.8661   -4.7415    2.2943 C   0  0  0  0  0  0  0  0  0  0  0  0
   -2.0233   -5.5727    2.6109 O   0  0  0  0  0  0  0  0  0  0  0  0
   -4.3078   -5.0134    2.5698 C   0  0  0  0  0  0  0  0  0  0  0  0
   -4.8057   -5.5295    1.7332 H   0  0  0  0  0  0  0  0  0  0  0  0
   -4.4526   -5.6688    3.4436 H   0  0  0  0  0  0  0  0  0  0  0  0
   -4.9255   -4.1233    2.7700 H   0  0  0  0  0  0  0  0  0  0  0  0
   -2.6241   -3.5219    1.6838 N   0  0  0  0  0  0  0  0  0  0  0  0
   -1.3070   -3.0608    1.3315 C   0  0  2  0  0  0  0  0  0  0  0  0
   -1.3931   -1.5680    1.0422 C   0  0  0  0  0  0  0  0  0  0  0  0
   -2.4385   -1.0059    0.7226 O   0  0  0  0  0  0  0  0  0  0  0  0
   -0.7590   -3.8164    0.1309 C   0  0  0  0  0  0  0  0  0  0  0  0
   -3.4188   -2.9207    1.4735 H   0  0  0  0  0  0  0  0  0  0  0  0
   -0.6690   -3.2277    2.2062 H   0  0  0  0  0  0  0  0  0  0  0  0
   -1.3852   -3.6613   -0.7553 H   0  0  0  0  0  0  0  0  0  0  0  0
    0.2542   -3.4843   -0.1182 H   0  0  0  0  0  0  0  0  0  0  0  0
   -0.7257   -4.8930    0.3300 H   0  0  0  0  0  0  0  0  0  0  0  0
   -0.1563   -0.9420    1.1402 N   0  0  0  0  0  0  0  0  0  0  0  0
    0.0261    0.4671    0.9001 C   0  0  2  0  0  0  0  0  0  0  0  0
    0.2150    1.1766    2.2394 C   0  0  0  0  0  0  0  0  0  0  0  0
   -0.7138    1.4106    3.0100 O   0  0  0  0  0  0  0  0  0  0  0  0
   -1.0986    1.0638    0.0505 C   0  0  0  0  0  0  0  0  0  0  0  0
   -1.1668    0.4026   -1.6468 S   0  0  0  0  0  0  0  0  0  0  0  0
    0.6533   -1.4855    1.4300 H   0  0  0  0  0  0  0  0  0  0  0  0
    0.9685    0.5518    0.3448 H   0  0  0  0  0  0  0  0  0  0  0  0
   -2.0722    0.8755    0.5146 H   0  0  0  0  0  0  0  0  0  0  0  0
   -0.9732    2.1493   -0.0254 H   0  0  0  0  0  0  0  0  0  0  0  0
   -2.2196    1.1341   -2.0339 H   0  0  0  0  0  0  0  0  0  0  0  0
    1.5363    1.5386    2.4599 N   0  0  0  0  0  0  0  0  0  0  0  0
    1.9657    2.2315    3.6521 C   0  0  2  0  0  0  0  0  0  0  0  0
    3.4320    2.6042    3.4771 C   0  0  0  0  0  0  0  0  0  0  0  0
    4.1841    2.0209    2.6993 O   0  0  0  0  0  0  0  0  0  0  0  0
    1.7670    1.3741    4.8923 C   0  0  0  0  0  0  0  0  0  0  0  0
    2.2465    1.2752    1.7831 H   0  0  0  0  0  0  0  0  0  0  0  0
    1.3624    3.1432    3.7226 H   0  0  0  0  0  0  0  0  0  0  0  0
    2.3636    0.4561    4.8398 H   0  0  0  0  0  0  0  0  0  0  0  0
    2.0663    1.9115    5.7982 H   0  0  0  0  0  0  0  0  0  0  0  0
    0.7168    1.0822    5.0002 H   0  0  0  0  0  0  0  0  0  0  0  0
    3.8126    3.6365    4.3231 N   0  0  0  0  0  0  0  0  0  0  0  0
    5.1574    4.1624    4.3554 C   0  0  0  0  0  0  0  0  0  0  0  0
    3.1181    4.0740    4.9215 H   0  0  0  0  0  0  0  0  0  0  0  0
    5.7394    3.6351    5.1256 H   0  0  0  0  0  0  0  0  0  0  0  0
    5.6316    4.0165    3.3737 H   0  0  0  0  0  0  0  0  0  0  0  0
    5.1254    5.2363    4.5912 H   0  0  0  0  0  0  0  0  0  0  0  0
  1  3  1  0  0  0  0
  1  7  1  0  0  0  0
  1  2  2  0  0  0  0
 29 30  1  0  0  0  0
 30 38  1  0  0  0  0
 30 31  2  0  0  0  0
  8  9  1  0  0  0  0
  9 17  1  0  0  0  0
  9 10  2  0  0  0  0
 18 19  1  0  0  0  0
 19 28  1  0  0  0  0
 19 20  2  0  0  0  0
 29 32  1  0  0  0  0
  8 11  1  0  0  0  0
 38 39  1  0  0  0  0
 18 21  1  0  0  0  0
 21 22  1  0  0  0  0
 28 29  1  0  0  0  0
  7  8  1  0  0  0  0
 17 18  1  0  0  0  0
  3  4  1  0  0  0  0
  3  5  1  0  0  0  0
  3  6  1  0  0  0  0
 32 35  1  0  0  0  0
 32 36  1  0  0  0  0
 32 37  1  0  0  0  0
 11 14  1  0  0  0  0
 11 15  1  0  0  0  0
 11 16  1  0  0  0  0
 39 41  1  0  0  0  0
 39 42  1  0  0  0  0
 39 43  1  0  0  0  0
 21 25  1  0  0  0  0
 21 26  1  0  0  0  0
 29 34  1  0  0  0  0
  8 13  1  0  0  0  0
 18 24  1  0  0  0  0
 38 40  1  0  0  0  0
  7 12  1  0  0  0  0
 28 33  1  0  0  0  0
 17 23  1  0  0  0  0
 22 27  1  0  0  0  0
M  END
$$$$

  -OEChem-05262214473D

 43 42  0     1  0  0  0  0  0999 V2000
   -2.8661   -4.7415    2.2943 C   0  0  0  0  0  0  0  0  0  0  0  0
   -2.0233   -5.5727    2.6109 O   0  0  0  0  0  0  0  0  0  0  0  0
   -4.3078   -5.0134    2.5698 C   0  0  0  0  0  0  0  0  0  0  0  0
   -4.8057   -5.5295    1.7332 H   0  0  0  0  0  0  0  0  0  0  0  0
   -4.4526   -5.6688    3.4436 H   0  0  0  0  0  0  0  0  0  0  0  0
   -4.9255   -4.1233    2.7700 H   0  0  0  0  0  0  0  0  0  0  0  0
   -2.6241   -3.5219    1.6838 N   0  0  0  0  0  0  0  0  0  0  0  0
   -1.3070   -3.0608    1.3315 C   0  0  2  0  0  0  0  0  0  0  0  0
   -1.3931   -1.5680    1.0422 C   0  0  0  0  0  0  0  0  0  0  0  0
   -2.4385   -1.0059    0.7226 O   0  0  0  0  0  0  0  0  0  0  0  0
   -0.7590   -3.8164    0.1309 C   0  0  0  0  0  0  0  0  0  0  0  0
   -3.4188   -2.9207    1.4735 H   0  0  0  0  0  0  0  0  0  0  0  0
   -0.6690   -3.2277    2.2062 H   0  0  0  0  0  0  0  0  0  0  0  0
   -1.3852   -3.6613   -0.7553 H   0  0  0  0  0  0  0  0  0  0  0  0
    0.2542   -3.4843   -0.1182 H   0  0  0  0  0  0  0  0  0  0  0  0
   -0.7257   -4.8930    0.3300 H   0  0  0  0  0  0  0  0  0  0  0  0
   -0.1563   -0.9420    1.1402 N   0  0  0  0  0  0  0  0  0  0  0  0
    0.0261    0.4671    0.9001 C   0  0  2  0  0  0  0  0  0  0  0  0
    0.2150    1.1766    2.2394 C   0  0  0  0  0  0  0  0  0  0  0  0
   -0.6398    1.1778    3.1229 O   0  0  0  0  0  0  0  0  0  0  0  0
   -1.0986    1.0638    0.0505 C   0  0  0  0  0  0  0  0  0  0  0  0
   -1.1668    0.4026   -1.6468 S   0  0  0  0  0  0  0  0  0  0  0  0
    0.6533   -1.4855    1.4300 H   0  0  0  0  0  0  0  0  0  0  0  0
    0.9685    0.5518    0.3448 H   0  0  0  0  0  0  0  0  0  0  0  0
   -2.0722    0.8755    0.5146 H   0  0  0  0  0  0  0  0  0  0  0  0
   -0.9732    2.1493   -0.0254 H   0  0  0  0  0  0  0  0  0  0  0  0
   -2.2196    1.1341   -2.0339 H   0  0  0  0  0  0  0  0  0  0  0  0
    1.4379    1.8274    2.3208 N   0  0  0  0  0  0  0  0  0  0  0  0
    1.8447    2.5785    3.4854 C   0  0  2  0  0  0  0  0  0  0  0  0
    3.1562    3.2800    3.1580 C   0  0  0  0  0  0  0  0  0  0  0  0
    3.9180    2.8986    2.2719 O   0  0  0  0  0  0  0  0  0  0  0  0
    1.9993    1.6760    4.6996 C   0  0  0  0  0  0  0  0  0  0  0  0
    2.0996    1.7459    1.5545 H   0  0  0  0  0  0  0  0  0  0  0  0
    1.0653    3.3264    3.6674 H   0  0  0  0  0  0  0  0  0  0  0  0
    2.7759    0.9201    4.5359 H   0  0  0  0  0  0  0  0  0  0  0  0
    2.2799    2.2511    5.5882 H   0  0  0  0  0  0  0  0  0  0  0  0
    1.0633    1.1496    4.9156 H   0  0  0  0  0  0  0  0  0  0  0  0
    3.3966    4.3565    4.0003 N   0  0  0  0  0  0  0  0  0  0  0  0
    4.5820    5.1756    3.8998 C   0  0  0  0  0  0  0  0  0  0  0  0
    2.7012    4.6125    4.6950 H   0  0  0  0  0  0  0  0  0  0  0  0
    5.3586    4.7817    4.5719 H   0  0  0  0  0  0  0  0  0  0  0  0
    4.9515    5.1600    2.8638 H   0  0  0  0  0  0  0  0  0  0  0  0
    4.3386    6.2093    4.1867 H   0  0  0  0  0  0  0  0  0  0  0  0
  1  3  1  0  0  0  0
  1  7  1  0  0  0  0
  1  2  2  0  0  0  0
 29 30  1  0  0  0  0
 30 38  1  0  0  0  0
 30 31  2  0  0  0  0
  8  9  1  0  0  0  0
  9 17  1  0  0  0  0
  9 10  2  0  0  0  0
 18 19  1  0  0  0  0
 19 28  1  0  0  0  0
 19 20  2  0  0  0  0
 29 32  1  0  0  0  0
  8 11  1  0  0  0  0
 38 39  1  0  0  0  0
 18 21  1  0  0  0  0
 21 22  1  0  0  0  0
 28 29  1  0  0  0  0
  7  8  1  0  0  0  0
 17 18  1  0  0  0  0
  3  4  1  0  0  0  0
  3  5  1  0  0  0  0
  3  6  1  0  0  0  0
 32 35  1  0  0  0  0
 32 36  1  0  0  0  0
 32 37  1  0  0  0  0
 11 14  1  0  0  0  0
 11 15  1  0  0  0  0
 11 16  1  0  0  0  0
 39 41  1  0  0  0  0
 39 42  1  0  0  0  0
 39 43  1  0  0  0  0
 21 25  1  0  0  0  0
 21 26  1  0  0  0  0
 29 34  1  0  0  0  0
  8 13  1  0  0  0  0
 18 24  1  0  0  0  0
 38 40  1  0  0  0  0
  7 12  1  0  0  0  0
 28 33  1  0  0  0  0
 17 23  1  0  0  0  0
 22 27  1  0  0  0  0
M  END
$$$$

  -OEChem-05262214473D

 43 42  0     1  0  0  0  0  0999 V2000
   -2.8661   -4.7415    2.2943 C   0  0  0  0  0  0  0  0  0  0  0  0
   -2.0233   -5.5727    2.6109 O   0  0  0  0  0  0  0  0  0  0  0  0
   -4.3078   -5.0134    2.5698 C   0  0  0  0  0  0  0  0  0  0  0  0
   -4.8057   -5.5295    1.7332 H   0  0  0  0  0  0  0  0  0  0  0  0
   -4.4526   -5.6688    3.4436 H   0  0  0  0  0  0  0  0  0  0  0  0
   -4.9255   -4.1233    2.7700 H   0  0  0  0  0  0  0  0  0  0  0  0
   -2.6241   -3.5219    1.6838 N   0  0  0  0  0  0  0  0  0  0  0  0
   -1.3070   -3.0608    1.3315 C   0  0  2  0  0  0  0  0  0  0  0  0
   -1.3931   -1.5680    1.0422 C   0  0  0  0  0  0  0  0  0  0  0  0
   -2.4385   -1.0059    0.7226 O   0  0  0  0  0  0  0  0  0  0  0  0
   -0.7590   -3.8164    0.1309 C   0  0  0  0  0  0  0  0  0  0  0  0
   -3.4188   -2.9207    1.4735 H   0  0  0  0  0  0  0  0  0  0  0  0
   -0.6690   -3.2277    2.2062 H   0  0  0  0  0  0  0  0  0  0  0  0
   -1.3852   -3.6613   -0.7553 H   0  0  0  0  0  0  0  0  0  0  0  0
    0.2542   -3.4843   -0.1182 H   0  0  0  0  0  0  0  0  0  0  0  0
   -0.7257   -4.8930    0.3300 H   0  0  0  0  0  0  0  0  0  0  0  0
   -0.1563   -0.9420    1.1402 N   0  0  0  0  0  0  0  0  0  0  0  0
    0.0261    0.4671    0.9001 C   0  0  2  0  0  0  0  0  0  0  0  0
    0.2150    1.1766    2.2394 C   0  0  0  0  0  0  0  0  0  0  0  0
   -0.5019    0.9661    3.2157 O   0  0  0  0  0  0  0  0  0  0  0  0
   -1.0986    1.0638    0.0505 C   0  0  0  0  0  0  0  0  0  0  0  0
   -1.1668    0.4026   -1.6468 S   0  0  0  0  0  0  0  0  0  0  0  0
    0.6533   -1.4855    1.4300 H   0  0  0  0  0  0  0  0  0  0  0  0
    0.9685    0.5518    0.3448 H   0  0  0  0  0  0  0  0  0  0  0  0
   -2.0722    0.8755    0.5146 H   0  0  0  0  0  0  0  0  0  0  0  0
   -0.9732    2.1493   -0.0254 H   0  0  0  0  0  0  0  0  0  0  0  0
   -2.2196    1.1341   -2.0339 H   0  0  0  0  0  0  0  0  0  0  0  0
    1.2605    2.0884    2.2075 N   0  0  0  0  0  0  0  0  0  0  0  0
    1.6290    2.8915    3.3500 C   0  0  2  0  0  0  0  0  0  0  0  0
    2.6981    3.8804    2.9045 C   0  0  0  0  0  0  0  0  0  0  0  0
    3.4103    3.6996    1.9191 O   0  0  0  0  0  0  0  0  0  0  0  0
    2.1319    2.0265    4.4952 C   0  0  0  0  0  0  0  0  0  0  0  0
    1.8234    2.1745    1.3664 H   0  0  0  0  0  0  0  0  0  0  0  0
    0.7300    3.4377    3.6557 H   0  0  0  0  0  0  0  0  0  0  0  0
    3.0323    1.4715    4.2076 H   0  0  0  0  0  0  0  0  0  0  0  0
    2.3838    2.6344    5.3705 H   0  0  0  0  0  0  0  0  0  0  0  0
    1.3726    1.2960    4.7945 H   0  0  0  0  0  0  0  0  0  0  0  0
    2.7926    4.9679    3.7616 N   0  0  0  0  0  0  0  0  0  0  0  0
    3.7414    6.0383    3.5613 C   0  0  0  0  0  0  0  0  0  0  0  0
    2.1490    5.0453    4.5436 H   0  0  0  0  0  0  0  0  0  0  0  0
    4.6639    5.8206    4.1196 H   0  0  0  0  0  0  0  0  0  0  0  0
    3.9737    6.1264    2.4897 H   0  0  0  0  0  0  0  0  0  0  0  0
    3.3093    6.9834    3.9218 H   0  0  0  0  0  0  0  0  0  0  0  0
  1  3  1  0  0  0  0
  1  7  1  0  0  0  0
  1  2  2  0  0  0  0
 29 30  1  0  0  0  0
 30 38  1  0  0  0  0
 30 31  2  0  0  0  0
  8  9  1  0  0  0  0
  9 17  1  0  0  0  0
  9 10  2  0  0  0  0
 18 19  1  0  0  0  0
 19 28  1  0  0  0  0
 19 20  2  0  0  0  0
 29 32  1  0  0  0  0
  8 11  1  0  0  0  0
 38 39  1  0  0  0  0
 18 21  1  0  0  0  0
 21 22  1  0  0  0  0
 28 29  1  0  0  0  0
  7  8  1  0  0  0  0
 17 18  1  0  0  0  0
  3  4  1  0  0  0  0
  3  5  1  0  0  0  0
  3  6  1  0  0  0  0
 32 35  1  0  0  0  0
 32 36  1  0  0  0  0
 32 37  1  0  0  0  0
 11 14  1  0  0  0  0
 11 15  1  0  0  0  0
 11 16  1  0  0  0  0
 39 41  1  0  0  0  0
 39 42  1  0  0  0  0
 39 43  1  0  0  0  0
 21 25  1  0  0  0  0
 21 26  1  0  0  0  0
 29 34  1  0  0  0  0
  8 13  1  0  0  0  0
 18 24  1  0  0  0  0
 38 40  1  0  0  0  0
  7 12  1  0  0  0  0
 28 33  1  0  0  0  0
 17 23  1  0  0  0  0
 22 27  1  0  0  0  0
M  END
$$$$

  -OEChem-05262214473D

 43 42  0     1  0  0  0  0  0999 V2000
   -2.8661   -4.7415    2.2943 C   0  0  0  0  0  0  0  0  0  0  0  0
   -2.0233   -5.5727    2.6109 O   0  0  0  0  0  0  0  0  0  0  0  0
   -4.3078   -5.0134    2.5698 C   0  0  0  0  0  0  0  0  0  0  0  0
   -4.8057   -5.5295    1.7332 H   0  0  0  0  0  0  0  0  0  0  0  0
   -4.4526   -5.6688    3.4436 H   0  0  0  0  0  0  0  0  0  0  0  0
   -4.9255   -4.1233    2.7700 H   0  0  0  0  0  0  0  0  0  0  0  0
   -2.6241   -3.5219    1.6838 N   0  0  0  0  0  0  0  0  0  0  0  0
   -1.3070   -3.0608    1.3315 C   0  0  2  0  0  0  0  0  0  0  0  0
   -1.3931   -1.5680    1.0422 C   0  0  0  0  0  0  0  0  0  0  0  0
   -2.4385   -1.0059    0.7226 O   0  0  0  0  0  0  0  0  0  0  0  0
   -0.7590   -3.8164    0.1309 C   0  0  0  0  0  0  0  0  0  0  0  0
   -3.4188   -2.9207    1.4735 H   0  0  0  0  0  0  0  0  0  0  0  0
   -0.6690   -3.2277    2.2062 H   0  0  0  0  0  0  0  0  0  0  0  0
   -1.3852   -3.6613   -0.7553 H   0  0  0  0  0  0  0  0  0  0  0  0
    0.2542   -3.4843   -0.1182 H   0  0  0  0  0  0  0  0  0  0  0  0
   -0.7257   -4.8930    0.3300 H   0  0  0  0  0  0  0  0  0  0  0  0
   -0.1563   -0.9420    1.1402 N   0  0  0  0  0  0  0  0  0  0  0  0
    0.0261    0.4671    0.9001 C   0  0  2  0  0  0  0  0  0  0  0  0
    0.2150    1.1766    2.2394 C   0  0  0  0  0  0  0  0  0  0  0  0
   -0.3095    0.7899    3.2819 O   0  0  0  0  0  0  0  0  0  0  0  0
   -1.0986    1.0638    0.0505 C   0  0  0  0  0  0  0  0  0  0  0  0
   -1.1668    0.4026   -1.6468 S   0  0  0  0  0  0  0  0  0  0  0  0
    0.6533   -1.4855    1.4300 H   0  0  0  0  0  0  0  0  0  0  0  0
    0.9685    0.5518    0.3448 H   0  0  0  0  0  0  0  0  0  0  0  0
   -2.0722    0.8755    0.5146 H   0  0  0  0  0  0  0  0  0  0  0  0
   -0.9732    2.1493   -0.0254 H   0  0  0  0  0  0  0  0  0  0  0  0
   -2.2196    1.1341   -2.0339 H   0  0  0  0  0  0  0  0  0  0  0  0
    1.0163    2.3040    2.1278 N   0  0  0  0  0  0  0  0  0  0  0  0
    1.3333    3.1492    3.2551 C   0  0  2  0  0  0  0  0  0  0  0  0
    2.0889    4.3646    2.7340 C   0  0  0  0  0  0  0  0  0  0  0  0
    2.6957    4.3695    1.6650 O   0  0  0  0  0  0  0  0  0  0  0  0
    2.1559    2.4018    4.2931 C   0  0  0  0  0  0  0  0  0  0  0  0
    1.4367    2.5318    1.2316 H   0  0  0  0  0  0  0  0  0  0  0  0
    0.3795    3.4695    3.6883 H   0  0  0  0  0  0  0  0  0  0  0  0
    3.1153    2.0729    3.8774 H   0  0  0  0  0  0  0  0  0  0  0  0
    2.3711    3.0352    5.1600 H   0  0  0  0  0  0  0  0  0  0  0  0
    1.6235    1.5115    4.6449 H   0  0  0  0  0  0  0  0  0  0  0  0
    2.0418    5.4291    3.6232 N   0  0  0  0  0  0  0  0  0  0  0  0
    2.6931    6.6917    3.3630 C   0  0  0  0  0  0  0  0  0  0  0  0
    1.4992    5.3429    4.4776 H   0  0  0  0  0  0  0  0  0  0  0  0
    3.7027    6.6808    3.7994 H   0  0  0  0  0  0  0  0  0  0  0  0
    2.7649    6.8501    2.2768 H   0  0  0  0  0  0  0  0  0  0  0  0
    2.1074    7.5061    3.8143 H   0  0  0  0  0  0  0  0  0  0  0  0
  1  3  1  0  0  0  0
  1  7  1  0  0  0  0
  1  2  2  0  0  0  0
 29 30  1  0  0  0  0
 30 38  1  0  0  0  0
 30 31  2  0  0  0  0
  8  9  1  0  0  0  0
  9 17  1  0  0  0  0
  9 10  2  0  0  0  0
 18 19  1  0  0  0  0
 19 28  1  0  0  0  0
 19 20  2  0  0  0  0
 29 32  1  0  0  0  0
  8 11  1  0  0  0  0
 38 39  1  0  0  0  0
 18 21  1  0  0  0  0
 21 22  1  0  0  0  0
 28 29  1  0  0  0  0
  7  8  1  0  0  0  0
 17 18  1  0  0  0  0
  3  4  1  0  0  0  0
  3  5  1  0  0  0  0
  3  6  1  0  0  0  0
 32 35  1  0  0  0  0
 32 36  1  0  0  0  0
 32 37  1  0  0  0  0
 11 14  1  0  0  0  0
 11 15  1  0  0  0  0
 11 16  1  0  0  0  0
 39 41  1  0  0  0  0
 39 42  1  0  0  0  0
 39 43  1  0  0  0  0
 21 25  1  0  0  0  0
 21 26  1  0  0  0  0
 29 34  1  0  0  0  0
  8 13  1  0  0  0  0
 18 24  1  0  0  0  0
 38 40  1  0  0  0  0
  7 12  1  0  0  0  0
 28 33  1  0  0  0  0
 17 23  1  0  0  0  0
 22 27  1  0  0  0  0
M  END
$$$$

  -OEChem-05262214473D

 43 42  0     1  0  0  0  0  0999 V2000
   -2.8661   -4.7415    2.2943 C   0  0  0  0  0  0  0  0  0  0  0  0
   -2.0233   -5.5727    2.6109 O   0  0  0  0  0  0  0  0  0  0  0  0
   -4.3078   -5.0134    2.5698 C   0  0  0  0  0  0  0  0  0  0  0  0
   -4.8057   -5.5295    1.7332 H   0  0  0  0  0  0  0  0  0  0  0  0
   -4.4526   -5.6688    3.4436 H   0  0  0  0  0  0  0  0  0  0  0  0
   -4.9255   -4.1233    2.7700 H   0  0  0  0  0  0  0  0  0  0  0  0
   -2.6241   -3.5219    1.6838 N   0  0  0  0  0  0  0  0  0  0  0  0
   -1.3070   -3.0608    1.3315 C   0  0  2  0  0  0  0  0  0  0  0  0
   -1.3931   -1.5680    1.0422 C   0  0  0  0  0  0  0  0  0  0  0  0
   -2.4385   -1.0059    0.7226 O   0  0  0  0  0  0  0  0  0  0  0  0
   -0.7590   -3.8164    0.1309 C   0  0  0  0  0  0  0  0  0  0  0  0
   -3.4188   -2.9207    1.4735 H   0  0  0  0  0  0  0  0  0  0  0  0
   -0.6690   -3.2277    2.2062 H   0  0  0  0  0  0  0  0  0  0  0  0
   -1.3852   -3.6613   -0.7553 H   0  0  0  0  0  0  0  0  0  0  0  0
    0.2542   -3.4843   -0.1182 H   0  0  0  0  0  0  0  0  0  0  0  0
   -0.7257   -4.8930    0.3300 H   0  0  0  0  0  0  0  0  0  0  0  0
   -0.1563   -0.9420    1.1402 N   0  0  0  0  0  0  0  0  0  0  0  0
    0.0261    0.4671    0.9001 C   0  0  2  0  0  0  0  0  0  0  0  0
    0.2150    1.1766    2.2394 C   0  0  0  0  0  0  0  0  0  0  0  0
   -0.0757    0.6613    3.3170 O   0  0  0  0  0  0  0  0  0  0  0  0
   -1.0986    1.0638    0.0505 C   0  0  0  0  0  0  0  0  0  0  0  0
   -1.1668    0.4026   -1.6468 S   0  0  0  0  0  0  0  0  0  0  0  0
    0.6533   -1.4855    1.4300 H   0  0  0  0  0  0  0  0  0  0  0  0
    0.9685    0.5518    0.3448 H   0  0  0  0  0  0  0  0  0  0  0  0
   -2.0722    0.8755    0.5146 H   0  0  0  0  0  0  0  0  0  0  0  0
   -0.9732    2.1493   -0.0254 H   0  0  0  0  0  0  0  0  0  0  0  0
   -2.2196    1.1341   -2.0339 H   0  0  0  0  0  0  0  0  0  0  0  0
    0.7220    2.4593    2.0870 N   0  0  0  0  0  0  0  0  0  0  0  0
    0.9778    3.3341    3.2073 C   0  0  2  0  0  0  0  0  0  0  0  0
    1.3700    4.6994    2.6580 C   0  0  0  0  0  0  0  0  0  0  0  0
    1.8229    4.8624    1.5269 O   0  0  0  0  0  0  0  0  0  0  0  0
    2.0696    2.7761    4.1069 C   0  0  0  0  0  0  0  0  0  0  0  0
    0.9659    2.7935    1.1594 H   0  0  0  0  0  0  0  0  0  0  0  0
    0.0376    3.4197    3.7629 H   0  0  0  0  0  0  0  0  0  0  0  0
    3.0193    2.6832    3.5676 H   0  0  0  0  0  0  0  0  0  0  0  0
    2.2425    3.4261    4.9710 H   0  0  0  0  0  0  0  0  0  0  0  0
    1.7990    1.7814    4.4772 H   0  0  0  0  0  0  0  0  0  0  0  0
    1.1952    5.7086    3.5945 N   0  0  0  0  0  0  0  0  0  0  0  0
    1.5083    7.0912    3.3184 C   0  0  0  0  0  0  0  0  0  0  0  0
    0.7961    5.4850    4.5014 H   0  0  0  0  0  0  0  0  0  0  0  0
    2.5406    7.3038    3.6332 H   0  0  0  0  0  0  0  0  0  0  0  0
    1.4075    7.2815    2.2397 H   0  0  0  0  0  0  0  0  0  0  0  0
    0.8150    7.7416    3.8718 H   0  0  0  0  0  0  0  0  0  0  0  0
  1  3  1  0  0  0  0
  1  7  1  0  0  0  0
  1  2  2  0  0  0  0
 29 30  1  0  0  0  0
 30 38  1  0  0  0  0
 30 31  2  0  0  0  0
  8  9  1  0  0  0  0
  9 17  1  0  0  0  0
  9 10  2  0  0  0  0
 18 19  1  0  0  0  0
 19 28  1  0  0  0  0
 19 20  2  0  0  0  0
 29 32  1  0  0  0  0
  8 11  1  0  0  0  0
 38 39  1  0  0  0  0
 18 21  1  0  0  0  0
 21 22  1  0  0  0  0
 28 29  1  0  0  0  0
  7  8  1  0  0  0  0
 17 18  1  0  0  0  0
  3  4  1  0  0  0  0
  3  5  1  0  0  0  0
  3  6  1  0  0  0  0
 32 35  1  0  0  0  0
 32 36  1  0  0  0  0
 32 37  1  0  0  0  0
 11 14  1  0  0  0  0
 11 15  1  0  0  0  0
 11 16  1  0  0  0  0
 39 41  1  0  0  0  0
 39 42  1  0  0  0  0
 39 43  1  0  0  0  0
 21 25  1  0  0  0  0
 21 26  1  0  0  0  0
 29 34  1  0  0  0  0
  8 13  1  0  0  0  0
 18 24  1  0  0  0  0
 38 40  1  0  0  0  0
  7 12  1  0  0  0  0
 28 33  1  0  0  0  0
 17 23  1  0  0  0  0
 22 27  1  0  0  0  0
M  END
$$$$

  -OEChem-05262214473D

 43 42  0     1  0  0  0  0  0999 V2000
   -2.8661   -4.7415    2.2943 C   0  0  0  0  0  0  0  0  0  0  0  0
   -2.0233   -5.5727    2.6109 O   0  0  0  0  0  0  0  0  0  0  0  0
   -4.3078   -5.0134    2.5698 C   0  0  0  0  0  0  0  0  0  0  0  0
   -4.8057   -5.5295    1.7332 H   0  0  0  0  0  0  0  0  0  0  0  0
   -4.4526   -5.6688    3.4436 H   0  0  0  0  0  0  0  0  0  0  0  0
   -4.9255   -4.1233    2.7700 H   0  0  0  0  0  0  0  0  0  0  0  0
   -2.6241   -3.5219    1.6838 N   0  0  0  0  0  0  0  0  0  0  0  0
   -1.3070   -3.0608    1.3315 C   0  0  2  0  0  0  0  0  0  0  0  0
   -1.3931   -1.5680    1.0422 C   0  0  0  0  0  0  0  0  0  0  0  0
   -2.4385   -1.0059    0.7226 O   0  0  0  0  0  0  0  0  0  0  0  0
   -0.7590   -3.8164    0.1309 C   0  0  0  0  0  0  0  0  0  0  0  0
   -3.4188   -2.9207    1.4735 H   0  0  0  0  0  0  0  0  0  0  0  0
   -0.6690   -3.2277    2.2062 H   0  0  0  0  0  0  0  0  0  0  0  0
   -1.3852   -3.6613   -0.7553 H   0  0  0  0  0  0  0  0  0  0  0  0
    0.2542   -3.4843   -0.1182 H   0  0  0  0  0  0  0  0  0  0  0  0
   -0.7257   -4.8930    0.3300 H   0  0  0  0  0  0  0  0  0  0  0  0
   -0.1563   -0.9420    1.1402 N   0  0  0  0  0  0  0  0  0  0  0  0
    0.0261    0.4671    0.9001 C   0  0  2  0  0  0  0  0  0  0  0  0
    0.5802    1.1169    2.1664 C   0  0  0  0  0  0  0  0  0  0  0  0
    0.7944    0.4900    3.2020 O   0  0  0  0  0  0  0  0  0  0  0  0
   -1.2471    1.1393    0.3803 C   0  0  0  0  0  0  0  0  0  0  0  0
   -1.7726    0.5467   -1.2614 S   0  0  0  0  0  0  0  0  0  0  0  0
    0.6533   -1.4855    1.4300 H   0  0  0  0  0  0  0  0  0  0  0  0
    0.8008    0.5363    0.1264 H   0  0  0  0  0  0  0  0  0  0  0  0
   -2.0798    0.9713    1.0711 H   0  0  0  0  0  0  0  0  0  0  0  0
   -1.0936    2.2212    0.3046 H   0  0  0  0  0  0  0  0  0  0  0  0
   -2.8532    1.3329   -1.3486 H   0  0  0  0  0  0  0  0  0  0  0  0
    0.7831    2.4808    2.0109 N   0  0  0  0  0  0  0  0  0  0  0  0
    1.2913    3.3188    3.0717 C   0  0  2  0  0  0  0  0  0  0  0  0
    1.2293    4.7652    2.5991 C   0  0  0  0  0  0  0  0  0  0  0  0
    1.2002    5.0823    1.4118 O   0  0  0  0  0  0  0  0  0  0  0  0
    2.7122    2.9311    3.4505 C   0  0  0  0  0  0  0  0  0  0  0  0
    0.6105    2.9121    1.1077 H   0  0  0  0  0  0  0  0  0  0  0  0
    0.6221    3.1849    3.9286 H   0  0  0  0  0  0  0  0  0  0  0  0
    3.3973    3.0586    2.6045 H   0  0  0  0  0  0  0  0  0  0  0  0
    3.0857    3.5485    4.2742 H   0  0  0  0  0  0  0  0  0  0  0  0
    2.7601    1.8820    3.7618 H   0  0  0  0  0  0  0  0  0  0  0  0
    1.2538    5.6618    3.6582 N   0  0  0  0  0  0  0  0  0  0  0  0
    1.2176    7.0932    3.4689 C   0  0  0  0  0  0  0  0  0  0  0  0
    1.2591    5.3097    4.6110 H   0  0  0  0  0  0  0  0  0  0  0  0
    2.2449    7.4839    3.4250 H   0  0  0  0  0  0  0  0  0  0  0  0
    0.6965    7.3255    2.5284 H   0  0  0  0  0  0  0  0  0  0  0  0
    0.6833    7.5606    4.3092 H   0  0  0  0  0  0  0  0  0  0  0  0
  1  3  1  0  0  0  0
  1  7  1  0  0  0  0
  1  2  2  0  0  0  0
 29 30  1  0  0  0  0
 30 38  1  0  0  0  0
 30 31  2  0  0  0  0
  8  9  1  0  0  0  0
  9 17  1  0  0  0  0
  9 10  2  0  0  0  0
 18 19  1  0  0  0  0
 19 28  1  0  0  0  0
 19 20  2  0  0  0  0
 29 32  1  0  0  0  0
  8 11  1  0  0  0  0
 38 39  1  0  0  0  0
 18 21  1  0  0  0  0
 21 22  1  0  0  0  0
 28 29  1  0  0  0  0
  7  8  1  0  0  0  0
 17 18  1  0  0  0  0
  3  4  1  0  0  0  0
  3  5  1  0  0  0  0
  3  6  1  0  0  0  0
 32 35  1  0  0  0  0
 32 36  1  0  0  0  0
 32 37  1  0  0  0  0
 11 14  1  0  0  0  0
 11 15  1  0  0  0  0
 11 16  1  0  0  0  0
 39 41  1  0  0  0  0
 39 42  1  0  0  0  0
 39 43  1  0  0  0  0
 21 25  1  0  0  0  0
 21 26  1  0  0  0  0
 29 34  1  0  0  0  0
  8 13  1  0  0  0  0
 18 24  1  0  0  0  0
 38 40  1  0  0  0  0
  7 12  1  0  0  0  0
 28 33  1  0  0  0  0
 17 23  1  0  0  0  0
 22 27  1  0  0  0  0
M  END
$$$$

  -OEChem-05262214473D

 43 42  0     1  0  0  0  0  0999 V2000
   -2.8661   -4.7415    2.2943 C   0  0  0  0  0  0  0  0  0  0  0  0
   -2.0233   -5.5727    2.6109 O   0  0  0  0  0  0  0  0  0  0  0  0
   -4.3078   -5.0134    2.5698 C   0  0  0  0  0  0  0  0  0  0  0  0
   -4.8057   -5.5295    1.7332 H   0  0  0  0  0  0  0  0  0  0  0  0
   -4.4526   -5.6688    3.4436 H   0  0  0  0  0  0  0  0  0  0  0  0
   -4.9255   -4.1233    2.7700 H   0  0  0  0  0  0  0  0  0  0  0  0
   -2.6241   -3.5219    1.6838 N   0  0  0  0  0  0  0  0  0  0  0  0
   -1.3070   -3.0608    1.3315 C   0  0  2  0  0  0  0  0  0  0  0  0
   -1.3931   -1.5680    1.0422 C   0  0  0  0  0  0  0  0  0  0  0  0
   -2.4385   -1.0059    0.7226 O   0  0  0  0  0  0  0  0  0  0  0  0
   -0.7590   -3.8164    0.1309 C   0  0  0  0  0  0  0  0  0  0  0  0
   -3.4188   -2.9207    1.4735 H   0  0  0  0  0  0  0  0  0  0  0  0
   -0.6690   -3.2277    2.2062 H   0  0  0  0  0  0  0  0  0  0  0  0
   -1.3852   -3.6613   -0.7553 H   0  0  0  0  0  0  0  0  0  0  0  0
    0.2542   -3.4843   -0.1182 H   0  0  0  0  0  0  0  0  0  0  0  0
   -0.7257   -4.8930    0.3300 H   0  0  0  0  0  0  0  0  0  0  0  0
   -0.1563   -0.9420    1.1402 N   0  0  0  0  0  0  0  0  0  0  0  0
    0.0261    0.4671    0.9001 C   0  0  2  0  0  0  0  0  0  0  0  0
    0.5802    1.1169    2.1664 C   0  0  0  0  0  0  0  0  0  0  0  0
    1.0439    0.4697    3.1032 O   0  0  0  0  0  0  0  0  0  0  0  0
   -1.2471    1.1393    0.3803 C   0  0  0  0  0  0  0  0  0  0  0  0
   -1.7726    0.5467   -1.2614 S   0  0  0  0  0  0  0  0  0  0  0  0
    0.6533   -1.4855    1.4300 H   0  0  0  0  0  0  0  0  0  0  0  0
    0.8008    0.5363    0.1264 H   0  0  0  0  0  0  0  0  0  0  0  0
   -2.0798    0.9713    1.0711 H   0  0  0  0  0  0  0  0  0  0  0  0
   -1.0936    2.2212    0.3046 H   0  0  0  0  0  0  0  0  0  0  0  0
   -2.8532    1.3329   -1.3486 H   0  0  0  0  0  0  0  0  0  0  0  0
    0.4729    2.5001    2.1367 N   0  0  0  0  0  0  0  0  0  0  0  0
    0.9183    3.3395    3.2243 C   0  0  2  0  0  0  0  0  0  0  0  0
    0.4985    4.7707    2.9161 C   0  0  0  0  0  0  0  0  0  0  0  0
    0.2610    5.1697    1.7779 O   0  0  0  0  0  0  0  0  0  0  0  0
    2.4239    3.2441    3.4161 C   0  0  0  0  0  0  0  0  0  0  0  0
    0.1063    2.9554    1.3061 H   0  0  0  0  0  0  0  0  0  0  0  0
    0.4000    2.9921    4.1247 H   0  0  0  0  0  0  0  0  0  0  0  0
    2.9602    3.5879    2.5242 H   0  0  0  0  0  0  0  0  0  0  0  0
    2.7562    3.8589    4.2591 H   0  0  0  0  0  0  0  0  0  0  0  0
    2.7275    2.2093    3.6082 H   0  0  0  0  0  0  0  0  0  0  0  0
    0.4621    5.5609    4.0564 N   0  0  0  0  0  0  0  0  0  0  0  0
    0.1045    6.9599    4.0244 C   0  0  0  0  0  0  0  0  0  0  0  0
    0.6556    5.1418    4.9612 H   0  0  0  0  0  0  0  0  0  0  0  0
    1.0144    7.5691    3.9197 H   0  0  0  0  0  0  0  0  0  0  0  0
   -0.5630    7.1481    3.1706 H   0  0  0  0  0  0  0  0  0  0  0  0
   -0.4107    7.2280    4.9586 H   0  0  0  0  0  0  0  0  0  0  0  0
  1  3  1  0  0  0  0
  1  7  1  0  0  0  0
  1  2  2  0  0  0  0
 29 30  1  0  0  0  0
 30 38  1  0  0  0  0
 30 31  2  0  0  0  0
  8  9  1  0  0  0  0
  9 17  1  0  0  0  0
  9 10  2  0  0  0  0
 18 19  1  0  0  0  0
 19 28  1  0  0  0  0
 19 20  2  0  0  0  0
 29 32  1  0  0  0  0
  8 11  1  0  0  0  0
 38 39  1  0  0  0  0
 18 21  1  0  0  0  0
 21 22  1  0  0  0  0
 28 29  1  0  0  0  0
  7  8  1  0  0  0  0
 17 18  1  0  0  0  0
  3  4  1  0  0  0  0
  3  5  1  0  0  0  0
  3  6  1  0  0  0  0
 32 35  1  0  0  0  0
 32 36  1  0  0  0  0
 32 37  1  0  0  0  0
 11 14  1  0  0  0  0
 11 15  1  0  0  0  0
 11 16  1  0  0  0  0
 39 41  1  0  0  0  0
 39 42  1  0  0  0  0
 39 43  1  0  0  0  0
 21 25  1  0  0  0  0
 21 26  1  0  0  0  0
 29 34  1  0  0  0  0
  8 13  1  0  0  0  0
 18 24  1  0  0  0  0
 38 40  1  0  0  0  0
  7 12  1  0  0  0  0
 28 33  1  0  0  0  0
 17 23  1  0  0  0  0
 22 27  1  0  0  0  0
M  END
$$$$

  -OEChem-05262214473D

 43 42  0     1  0  0  0  0  0999 V2000
   -2.8661   -4.7415    2.2943 C   0  0  0  0  0  0  0  0  0  0  0  0
   -2.0233   -5.5727    2.6109 O   0  0  0  0  0  0  0  0  0  0  0  0
   -4.3078   -5.0134    2.5698 C   0  0  0  0  0  0  0  0  0  0  0  0
   -4.8057   -5.5295    1.7332 H   0  0  0  0  0  0  0  0  0  0  0  0
   -4.4526   -5.6688    3.4436 H   0  0  0  0  0  0  0  0  0  0  0  0
   -4.9255   -4.1233    2.7700 H   0  0  0  0  0  0  0  0  0  0  0  0
   -2.6241   -3.5219    1.6838 N   0  0  0  0  0  0  0  0  0  0  0  0
   -1.3070   -3.0608    1.3315 C   0  0  2  0  0  0  0  0  0  0  0  0
   -1.3931   -1.5680    1.0422 C   0  0  0  0  0  0  0  0  0  0  0  0
   -2.4385   -1.0059    0.7226 O   0  0  0  0  0  0  0  0  0  0  0  0
   -0.7590   -3.8164    0.1309 C   0  0  0  0  0  0  0  0  0  0  0  0
   -3.4188   -2.9207    1.4735 H   0  0  0  0  0  0  0  0  0  0  0  0
   -0.6690   -3.2277    2.2062 H   0  0  0  0  0  0  0  0  0  0  0  0
   -1.3852   -3.6613   -0.7553 H   0  0  0  0  0  0  0  0  0  0  0  0
    0.2542   -3.4843   -0.1182 H   0  0  0  0  0  0  0  0  0  0  0  0
   -0.7257   -4.8930    0.3300 H   0  0  0  0  0  0  0  0  0  0  0  0
   -0.1563   -0.9420    1.1402 N   0  0  0  0  0  0  0  0  0  0  0  0
    0.0261    0.4671    0.9001 C   0  0  2  0  0  0  0  0  0  0  0  0
    0.5802    1.1169    2.1664 C   0  0  0  0  0  0  0  0  0  0  0  0
    1.2784    0.5130    2.9784 O   0  0  0  0  0  0  0  0  0  0  0  0
   -1.2471    1.1393    0.3803 C   0  0  0  0  0  0  0  0  0  0  0  0
   -1.7726    0.5467   -1.2614 S   0  0  0  0  0  0  0  0  0  0  0  0
    0.6533   -1.4855    1.4300 H   0  0  0  0  0  0  0  0  0  0  0  0
    0.8008    0.5363    0.1264 H   0  0  0  0  0  0  0  0  0  0  0  0
   -2.0798    0.9713    1.0711 H   0  0  0  0  0  0  0  0  0  0  0  0
   -1.0936    2.2212    0.3046 H   0  0  0  0  0  0  0  0  0  0  0  0
   -2.8532    1.3329   -1.3486 H   0  0  0  0  0  0  0  0  0  0  0  0
    0.1830    2.4403    2.2943 N   0  0  0  0  0  0  0  0  0  0  0  0
    0.5704    3.2652    3.4147 C   0  0  2  0  0  0  0  0  0  0  0  0
   -0.1737    4.5893    3.3033 C   0  0  0  0  0  0  0  0  0  0  0  0
   -0.6247    5.0182    2.2432 O   0  0  0  0  0  0  0  0  0  0  0  0
    2.0745    3.4877    3.4440 C   0  0  0  0  0  0  0  0  0  0  0  0
   -0.3680    2.8703    1.5573 H   0  0  0  0  0  0  0  0  0  0  0  0
    0.2485    2.7398    4.3205 H   0  0  0  0  0  0  0  0  0  0  0  0
    2.4156    4.0129    2.5444 H   0  0  0  0  0  0  0  0  0  0  0  0
    2.3697    4.0894    4.3099 H   0  0  0  0  0  0  0  0  0  0  0  0
    2.6088    2.5328    3.4941 H   0  0  0  0  0  0  0  0  0  0  0  0
   -0.2372    5.2562    4.5188 N   0  0  0  0  0  0  0  0  0  0  0  0
   -0.8809    6.5401    4.6710 C   0  0  0  0  0  0  0  0  0  0  0  0
    0.1472    4.8172    5.3502 H   0  0  0  0  0  0  0  0  0  0  0  0
   -0.1381    7.3409    4.5411 H   0  0  0  0  0  0  0  0  0  0  0  0
   -1.6708    6.6463    3.9128 H   0  0  0  0  0  0  0  0  0  0  0  0
   -1.3245    6.6110    5.6751 H   0  0  0  0  0  0  0  0  0  0  0  0
  1  3  1  0  0  0  0
  1  7  1  0  0  0  0
  1  2  2  0  0  0  0
 29 30  1  0  0  0  0
 30 38  1  0  0  0  0
 30 31  2  0  0  0  0
  8  9  1  0  0  0  0
  9 17  1  0  0  0  0
  9 10  2  0  0  0  0
 18 19  1  0  0  0  0
 19 28  1  0  0  0  0
 19 20  2  0  0  0  0
 29 32  1  0  0  0  0
  8 11  1  0  0  0  0
 38 39  1  0  0  0  0
 18 21  1  0  0  0  0
 21 22  1  0  0  0  0
 28 29  1  0  0  0  0
  7  8  1  0  0  0  0
 17 18  1  0  0  0  0
  3  4  1  0  0  0  0
  3  5  1  0  0  0  0
  3  6  1  0  0  0  0
 32 35  1  0  0  0  0
 32 36  1  0  0  0  0
 32 37  1  0  0  0  0
 11 14  1  0  0  0  0
 11 15  1  0  0  0  0
 11 16  1  0  0  0  0
 39 41  1  0  0  0  0
 39 42  1  0  0  0  0
 39 43  1  0  0  0  0
 21 25  1  0  0  0  0
 21 26  1  0  0  0  0
 29 34  1  0  0  0  0
  8 13  1  0  0  0  0
 18 24  1  0  0  0  0
 38 40  1  0  0  0  0
  7 12  1  0  0  0  0
 28 33  1  0  0  0  0
 17 23  1  0  0  0  0
 22 27  1  0  0  0  0
M  END
$$$$

  -OEChem-05262214473D

 43 42  0     1  0  0  0  0  0999 V2000
   -2.8661   -4.7415    2.2943 C   0  0  0  0  0  0  0  0  0  0  0  0
   -2.0233   -5.5727    2.6109 O   0  0  0  0  0  0  0  0  0  0  0  0
   -4.3078   -5.0134    2.5698 C   0  0  0  0  0  0  0  0  0  0  0  0
   -4.8057   -5.5295    1.7332 H   0  0  0  0  0  0  0  0  0  0  0  0
   -4.4526   -5.6688    3.4436 H   0  0  0  0  0  0  0  0  0  0  0  0
   -4.9255   -4.1233    2.7700 H   0  0  0  0  0  0  0  0  0  0  0  0
   -2.6241   -3.5219    1.6838 N   0  0  0  0  0  0  0  0  0  0  0  0
   -1.3070   -3.0608    1.3315 C   0  0  2  0  0  0  0  0  0  0  0  0
   -1.3931   -1.5680    1.0422 C   0  0  0  0  0  0  0  0  0  0  0  0
   -2.4385   -1.0059    0.7226 O   0  0  0  0  0  0  0  0  0  0  0  0
   -0.7590   -3.8164    0.1309 C   0  0  0  0  0  0  0  0  0  0  0  0
   -3.4188   -2.9207    1.4735 H   0  0  0  0  0  0  0  0  0  0  0  0
   -0.6690   -3.2277    2.2062 H   0  0  0  0  0  0  0  0  0  0  0  0
   -1.3852   -3.6613   -0.7553 H   0  0  0  0  0  0  0  0  0  0  0  0
    0.2542   -3.4843   -0.1182 H   0  0  0  0  0  0  0  0  0  0  0  0
   -0.7257   -4.8930    0.3300 H   0  0  0  0  0  0  0  0  0  0  0  0
   -0.1563   -0.9420    1.1402 N   0  0  0  0  0  0  0  0  0  0  0  0
    0.0261    0.4671    0.9001 C   0  0  2  0  0  0  0  0  0  0  0  0
    0.5802    1.1169    2.1664 C   0  0  0  0  0  0  0  0  0  0  0  0
    1.4819    0.6169    2.8361 O   0  0  0  0  0  0  0  0  0  0  0  0
   -1.2471    1.1393    0.3803 C   0  0  0  0  0  0  0  0  0  0  0  0
   -1.7726    0.5467   -1.2614 S   0  0  0  0  0  0  0  0  0  0  0  0
    0.6533   -1.4855    1.4300 H   0  0  0  0  0  0  0  0  0  0  0  0
    0.8008    0.5363    0.1264 H   0  0  0  0  0  0  0  0  0  0  0  0
   -2.0798    0.9713    1.0711 H   0  0  0  0  0  0  0  0  0  0  0  0
   -1.0936    2.2212    0.3046 H   0  0  0  0  0  0  0  0  0  0  0  0
   -2.8532    1.3329   -1.3486 H   0  0  0  0  0  0  0  0  0  0  0  0
   -0.0669    2.3055    2.4728 N   0  0  0  0  0  0  0  0  0  0  0  0
    0.2712    3.1008    3.6299 C   0  0  2  0  0  0  0  0  0  0  0  0
   -0.7415    4.2336    3.7343 C   0  0  0  0  0  0  0  0  0  0  0  0
   -1.3965    4.6382    2.7759 O   0  0  0  0  0  0  0  0  0  0  0  0
    1.6878    3.6454    3.5323 C   0  0  0  0  0  0  0  0  0  0  0  0
   -0.7803    2.6628    1.8442 H   0  0  0  0  0  0  0  0  0  0  0  0
    0.1779    2.4452    4.5025 H   0  0  0  0  0  0  0  0  0  0  0  0
    1.8006    4.3046    2.6639 H   0  0  0  0  0  0  0  0  0  0  0  0
    1.9525    4.2243    4.4233 H   0  0  0  0  0  0  0  0  0  0  0  0
    2.4122    2.8305    3.4274 H   0  0  0  0  0  0  0  0  0  0  0  0
   -0.7964    4.7683    5.0138 N   0  0  0  0  0  0  0  0  0  0  0  0
   -1.6715    5.8624    5.3646 C   0  0  0  0  0  0  0  0  0  0  0  0
   -0.2314    4.3580    5.7515 H   0  0  0  0  0  0  0  0  0  0  0  0
   -1.1339    6.8149    5.2468 H   0  0  0  0  0  0  0  0  0  0  0  0
   -2.5514    5.8541    4.7047 H   0  0  0  0  0  0  0  0  0  0  0  0
   -1.9959    5.7516    6.4098 H   0  0  0  0  0  0  0  0  0  0  0  0
  1  3  1  0  0  0  0
  1  7  1  0  0  0  0
  1  2  2  0  0  0  0
 29 30  1  0  0  0  0
 30 38  1  0  0  0  0
 30 31  2  0  0  0  0
  8  9  1  0  0  0  0
  9 17  1  0  0  0  0
  9 10  2  0  0  0  0
 18 19  1  0  0  0  0
 19 28  1  0  0  0  0
 19 20  2  0  0  0  0
 29 32  1  0  0  0  0
  8 11  1  0  0  0  0
 38 39  1  0  0  0  0
 18 21  1  0  0  0  0
 21 22  1  0  0  0  0
 28 29  1  0  0  0  0
  7  8  1  0  0  0  0
 17 18  1  0  0  0  0
  3  4  1  0  0  0  0
  3  5  1  0  0  0  0
  3  6  1  0  0  0  0
 32 35  1  0  0  0  0
 32 36  1  0  0  0  0
 32 37  1  0  0  0  0
 11 14  1  0  0  0  0
 11 15  1  0  0  0  0
 11 16  1  0  0  0  0
 39 41  1  0  0  0  0
 39 42  1  0  0  0  0
 39 43  1  0  0  0  0
 21 25  1  0  0  0  0
 21 26  1  0  0  0  0
 29 34  1  0  0  0  0
  8 13  1  0  0  0  0
 18 24  1  0  0  0  0
 38 40  1  0  0  0  0
  7 12  1  0  0  0  0
 28 33  1  0  0  0  0
 17 23  1  0  0  0  0
 22 27  1  0  0  0  0
M  END
$$$$

  -OEChem-05262214473D

 43 42  0     1  0  0  0  0  0999 V2000
   -2.8661   -4.7415    2.2943 C   0  0  0  0  0  0  0  0  0  0  0  0
   -2.0233   -5.5727    2.6109 O   0  0  0  0  0  0  0  0  0  0  0  0
   -4.3078   -5.0134    2.5698 C   0  0  0  0  0  0  0  0  0  0  0  0
   -4.8057   -5.5295    1.7332 H   0  0  0  0  0  0  0  0  0  0  0  0
   -4.4526   -5.6688    3.4436 H   0  0  0  0  0  0  0  0  0  0  0  0
   -4.9255   -4.1233    2.7700 H   0  0  0  0  0  0  0  0  0  0  0  0
   -2.6241   -3.5219    1.6838 N   0  0  0  0  0  0  0  0  0  0  0  0
   -1.3070   -3.0608    1.3315 C   0  0  2  0  0  0  0  0  0  0  0  0
   -1.3931   -1.5680    1.0422 C   0  0  0  0  0  0  0  0  0  0  0  0
   -2.4385   -1.0059    0.7226 O   0  0  0  0  0  0  0  0  0  0  0  0
   -0.7590   -3.8164    0.1309 C   0  0  0  0  0  0  0  0  0  0  0  0
   -3.4188   -2.9207    1.4735 H   0  0  0  0  0  0  0  0  0  0  0  0
   -0.6690   -3.2277    2.2062 H   0  0  0  0  0  0  0  0  0  0  0  0
   -1.3852   -3.6613   -0.7553 H   0  0  0  0  0  0  0  0  0  0  0  0
    0.2542   -3.4843   -0.1182 H   0  0  0  0  0  0  0  0  0  0  0  0
   -0.7257   -4.8930    0.3300 H   0  0  0  0  0  0  0  0  0  0  0  0
   -0.1563   -0.9420    1.1402 N   0  0  0  0  0  0  0  0  0  0  0  0
    0.0261    0.4671    0.9001 C   0  0  2  0  0  0  0  0  0  0  0  0
    0.5802    1.1169    2.1664 C   0  0  0  0  0  0  0  0  0  0  0  0
    1.6405    0.7743    2.6859 O   0  0  0  0  0  0  0  0  0  0  0  0
   -1.2471    1.1393    0.3803 C   0  0  0  0  0  0  0  0  0  0  0  0
   -1.7726    0.5467   -1.2614 S   0  0  0  0  0  0  0  0  0  0  0  0
    0.6533   -1.4855    1.4300 H   0  0  0  0  0  0  0  0  0  0  0  0
    0.8008    0.5363    0.1264 H   0  0  0  0  0  0  0  0  0  0  0  0
   -2.0798    0.9713    1.0711 H   0  0  0  0  0  0  0  0  0  0  0  0
   -1.0936    2.2212    0.3046 H   0  0  0  0  0  0  0  0  0  0  0  0
   -2.8532    1.3329   -1.3486 H   0  0  0  0  0  0  0  0  0  0  0  0
   -0.2597    2.1050    2.6600 N   0  0  0  0  0  0  0  0  0  0  0  0
    0.0412    2.8577    3.8553 C   0  0  2  0  0  0  0  0  0  0  0  0
   -1.1661    3.7277    4.1796 C   0  0  0  0  0  0  0  0  0  0  0  0
   -2.0017    4.0554    3.3398 O   0  0  0  0  0  0  0  0  0  0  0  0
    1.2901    3.7065    3.6750 C   0  0  0  0  0  0  0  0  0  0  0  0
   -1.1024    2.3469    2.1472 H   0  0  0  0  0  0  0  0  0  0  0  0
    0.1929    2.1284    4.6585 H   0  0  0  0  0  0  0  0  0  0  0  0
    1.1571    4.4432    2.8743 H   0  0  0  0  0  0  0  0  0  0  0  0
    1.5331    4.2545    4.5913 H   0  0  0  0  0  0  0  0  0  0  0  0
    2.1510    3.0822    3.4125 H   0  0  0  0  0  0  0  0  0  0  0  0
   -1.1773    4.1306    5.5077 N   0  0  0  0  0  0  0  0  0  0  0  0
   -2.2133    4.9731    6.0581 C   0  0  0  0  0  0  0  0  0  0  0  0
   -0.4543    3.7956    6.1376 H   0  0  0  0  0  0  0  0  0  0  0  0
   -1.9052    6.0268    5.9886 H   0  0  0  0  0  0  0  0  0  0  0  0
   -3.1449    4.8256    5.4921 H   0  0  0  0  0  0  0  0  0  0  0  0
   -2.3792    4.7085    7.1128 H   0  0  0  0  0  0  0  0  0  0  0  0
  1  3  1  0  0  0  0
  1  7  1  0  0  0  0
  1  2  2  0  0  0  0
 29 30  1  0  0  0  0
 30 38  1  0  0  0  0
 30 31  2  0  0  0  0
  8  9  1  0  0  0  0
  9 17  1  0  0  0  0
  9 10  2  0  0  0  0
 18 19  1  0  0  0  0
 19 28  1  0  0  0  0
 19 20  2  0  0  0  0
 29 32  1  0  0  0  0
  8 11  1  0  0  0  0
 38 39  1  0  0  0  0
 18 21  1  0  0  0  0
 21 22  1  0  0  0  0
 28 29  1  0  0  0  0
  7  8  1  0  0  0  0
 17 18  1  0  0  0  0
  3  4  1  0  0  0  0
  3  5  1  0  0  0  0
  3  6  1  0  0  0  0
 32 35  1  0  0  0  0
 32 36  1  0  0  0  0
 32 37  1  0  0  0  0
 11 14  1  0  0  0  0
 11 15  1  0  0  0  0
 11 16  1  0  0  0  0
 39 41  1  0  0  0  0
 39 42  1  0  0  0  0
 39 43  1  0  0  0  0
 21 25  1  0  0  0  0
 21 26  1  0  0  0  0
 29 34  1  0  0  0  0
  8 13  1  0  0  0  0
 18 24  1  0  0  0  0
 38 40  1  0  0  0  0
  7 12  1  0  0  0  0
 28 33  1  0  0  0  0
 17 23  1  0  0  0  0
 22 27  1  0  0  0  0
M  END
$$$$

  -OEChem-05262214473D

 43 42  0     1  0  0  0  0  0999 V2000
   -2.8661   -4.7415    2.2943 C   0  0  0  0  0  0  0  0  0  0  0  0
   -2.0233   -5.5727    2.6109 O   0  0  0  0  0  0  0  0  0  0  0  0
   -4.3078   -5.0134    2.5698 C   0  0  0  0  0  0  0  0  0  0  0  0
   -4.8057   -5.5295    1.7332 H   0  0  0  0  0  0  0  0  0  0  0  0
   -4.4526   -5.6688    3.4436 H   0  0  0  0  0  0  0  0  0  0  0  0
   -4.9255   -4.1233    2.7700 H   0  0  0  0  0  0  0  0  0  0  0  0
   -2.6241   -3.5219    1.6838 N   0  0  0  0  0  0  0  0  0  0  0  0
   -1.3070   -3.0608    1.3315 C   0  0  2  0  0  0  0  0  0  0  0  0
   -1.3931   -1.5680    1.0422 C   0  0  0  0  0  0  0  0  0  0  0  0
   -2.4385   -1.0059    0.7226 O   0  0  0  0  0  0  0  0  0  0  0  0
   -0.7590   -3.8164    0.1309 C   0  0  0  0  0  0  0  0  0  0  0  0
   -3.4188   -2.9207    1.4735 H   0  0  0  0  0  0  0  0  0  0  0  0
   -0.6690   -3.2277    2.2062 H   0  0  0  0  0  0  0  0  0  0  0  0
   -1.3852   -3.6613   -0.7553 H   0  0  0  0  0  0  0  0  0  0  0  0
    0.2542   -3.4843   -0.1182 H   0  0  0  0  0  0  0  0  0  0  0  0
   -0.7257   -4.8930    0.3300 H   0  0  0  0  0  0  0  0  0  0  0  0
   -0.1563   -0.9420    1.1402 N   0  0  0  0  0  0  0  0  0  0  0  0
    0.0261    0.4671    0.9001 C   0  0  2  0  0  0  0  0  0  0  0  0
    0.5802    1.1169    2.1664 C   0  0  0  0  0  0  0  0  0  0  0  0
    1.7433    0.9744    2.5382 O   0  0  0  0  0  0  0  0  0  0  0  0
   -1.2471    1.1393    0.3803 C   0  0  0  0  0  0  0  0  0  0  0  0
   -1.7726    0.5467   -1.2614 S   0  0  0  0  0  0  0  0  0  0  0  0
    0.6533   -1.4855    1.4300 H   0  0  0  0  0  0  0  0  0  0  0  0
    0.8008    0.5363    0.1264 H   0  0  0  0  0  0  0  0  0  0  0  0
   -2.0798    0.9713    1.0711 H   0  0  0  0  0  0  0  0  0  0  0  0
   -1.0936    2.2212    0.3046 H   0  0  0  0  0  0  0  0  0  0  0  0
   -2.8532    1.3329   -1.3486 H   0  0  0  0  0  0  0  0  0  0  0  0
   -0.3823    1.8524    2.8433 N   0  0  0  0  0  0  0  0  0  0  0  0
   -0.1040    2.5523    4.0755 C   0  0  2  0  0  0  0  0  0  0  0  0
   -1.4186    3.1060    4.6091 C   0  0  0  0  0  0  0  0  0  0  0  0
   -2.3992    3.3097    3.8964 O   0  0  0  0  0  0  0  0  0  0  0  0
    0.9086    3.6667    3.8623 C   0  0  0  0  0  0  0  0  0  0  0  0
   -1.3124    1.9442    2.4457 H   0  0  0  0  0  0  0  0  0  0  0  0
    0.2925    1.8110    4.7778 H   0  0  0  0  0  0  0  0  0  0  0  0
    0.5289    4.4192    3.1615 H   0  0  0  0  0  0  0  0  0  0  0  0
    1.1399    4.1779    4.8027 H   0  0  0  0  0  0  0  0  0  0  0  0
    1.8431    3.2707    3.4506 H   0  0  0  0  0  0  0  0  0  0  0  0
   -1.3540    3.3865    5.9668 N   0  0  0  0  0  0  0  0  0  0  0  0
   -2.4695    3.9327    6.7040 C   0  0  0  0  0  0  0  0  0  0  0  0
   -0.5065    3.1682    6.4824 H   0  0  0  0  0  0  0  0  0  0  0  0
   -2.3994    5.0304    6.7161 H   0  0  0  0  0  0  0  0  0  0  0  0
   -3.4108    3.6308    6.2215 H   0  0  0  0  0  0  0  0  0  0  0  0
   -2.4481    3.5526    7.7360 H   0  0  0  0  0  0  0  0  0  0  0  0
  1  3  1  0  0  0  0
  1  7  1  0  0  0  0
  1  2  2  0  0  0  0
 29 30  1  0  0  0  0
 30 38  1  0  0  0  0
 30 31  2  0  0  0  0
  8  9  1  0  0  0  0
  9 17  1  0  0  0  0
  9 10  2  0  0  0  0
 18 19  1  0  0  0  0
 19 28  1  0  0  0  0
 19 20  2  0  0  0  0
 29 32  1  0  0  0  0
  8 11  1  0  0  0  0
 38 39  1  0  0  0  0
 18 21  1  0  0  0  0
 21 22  1  0  0  0  0
 28 29  1  0  0  0  0
  7  8  1  0  0  0  0
 17 18  1  0  0  0  0
  3  4  1  0  0  0  0
  3  5  1  0  0  0  0
  3  6  1  0  0  0  0
 32 35  1  0  0  0  0
 32 36  1  0  0  0  0
 32 37  1  0  0  0  0
 11 14  1  0  0  0  0
 11 15  1  0  0  0  0
 11 16  1  0  0  0  0
 39 41  1  0  0  0  0
 39 42  1  0  0  0  0
 39 43  1  0  0  0  0
 21 25  1  0  0  0  0
 21 26  1  0  0  0  0
 29 34  1  0  0  0  0
  8 13  1  0  0  0  0
 18 24  1  0  0  0  0
 38 40  1  0  0  0  0
  7 12  1  0  0  0  0
 28 33  1  0  0  0  0
 17 23  1  0  0  0  0
 22 27  1  0  0  0  0
M  END
$$$$

  -OEChem-05262214473D

 43 42  0     1  0  0  0  0  0999 V2000
   -2.8661   -4.7415    2.2943 C   0  0  0  0  0  0  0  0  0  0  0  0
   -2.0233   -5.5727    2.6109 O   0  0  0  0  0  0  0  0  0  0  0  0
   -4.3078   -5.0134    2.5698 C   0  0  0  0  0  0  0  0  0  0  0  0
   -4.8057   -5.5295    1.7332 H   0  0  0  0  0  0  0  0  0  0  0  0
   -4.4526   -5.6688    3.4436 H   0  0  0  0  0  0  0  0  0  0  0  0
   -4.9255   -4.1233    2.7700 H   0  0  0  0  0  0  0  0  0  0  0  0
   -2.6241   -3.5219    1.6838 N   0  0  0  0  0  0  0  0  0  0  0  0
   -1.3070   -3.0608    1.3315 C   0  0  2  0  0  0  0  0  0  0  0  0
   -1.3931   -1.5680    1.0422 C   0  0  0  0  0  0  0  0  0  0  0  0
   -2.4385   -1.0059    0.7226 O   0  0  0  0  0  0  0  0  0  0  0  0
   -0.7590   -3.8164    0.1309 C   0  0  0  0  0  0  0  0  0  0  0  0
   -3.4188   -2.9207    1.4735 H   0  0  0  0  0  0  0  0  0  0  0  0
   -0.6690   -3.2277    2.2062 H   0  0  0  0  0  0  0  0  0  0  0  0
   -1.3852   -3.6613   -0.7553 H   0  0  0  0  0  0  0  0  0  0  0  0
    0.2542   -3.4843   -0.1182 H   0  0  0  0  0  0  0  0  0  0  0  0
   -0.7257   -4.8930    0.3300 H   0  0  0  0  0  0  0  0  0  0  0  0
   -0.1563   -0.9420    1.1402 N   0  0  0  0  0  0  0  0  0  0  0  0
    0.0261    0.4671    0.9001 C   0  0  2  0  0  0  0  0  0  0  0  0
    0.5802    1.1169    2.1664 C   0  0  0  0  0  0  0  0  0  0  0  0
    1.7835    1.2036    2.4030 O   0  0  0  0  0  0  0  0  0  0  0  0
   -1.2471    1.1393    0.3803 C   0  0  0  0  0  0  0  0  0  0  0  0
   -1.7726    0.5467   -1.2614 S   0  0  0  0  0  0  0  0  0  0  0  0
    0.6533   -1.4855    1.4300 H   0  0  0  0  0  0  0  0  0  0  0  0
    0.8008    0.5363    0.1264 H   0  0  0  0  0  0  0  0  0  0  0  0
   -2.0798    0.9713    1.0711 H   0  0  0  0  0  0  0  0  0  0  0  0
   -1.0936    2.2212    0.3046 H   0  0  0  0  0  0  0  0  0  0  0  0
   -2.8532    1.3329   -1.3486 H   0  0  0  0  0  0  0  0  0  0  0  0
   -0.4263    1.5648    3.0101 N   0  0  0  0  0  0  0  0  0  0  0  0
   -0.1545    2.2055    4.2756 C   0  0  2  0  0  0  0  0  0  0  0  0
   -1.4819    2.4111    4.9934 C   0  0  0  0  0  0  0  0  0  0  0  0
   -2.5619    2.4518    4.4077 O   0  0  0  0  0  0  0  0  0  0  0  0
    0.5692    3.5289    4.0815 C   0  0  0  0  0  0  0  0  0  0  0  0
   -1.3960    1.4822    2.7194 H   0  0  0  0  0  0  0  0  0  0  0  0
    0.4701    1.5145    4.8522 H   0  0  0  0  0  0  0  0  0  0  0  0
   -0.0411    4.2343    3.5058 H   0  0  0  0  0  0  0  0  0  0  0  0
    0.7999    3.9996    5.0429 H   0  0  0  0  0  0  0  0  0  0  0  0
    1.5095    3.3831    3.5389 H   0  0  0  0  0  0  0  0  0  0  0  0
   -1.3145    2.5868    6.3599 N   0  0  0  0  0  0  0  0  0  0  0  0
   -2.4225    2.8121    7.2584 C   0  0  0  0  0  0  0  0  0  0  0  0
   -0.3843    2.5187    6.7622 H   0  0  0  0  0  0  0  0  0  0  0  0
   -2.5829    3.8936    7.3797 H   0  0  0  0  0  0  0  0  0  0  0  0
   -3.3308    2.3512    6.8431 H   0  0  0  0  0  0  0  0  0  0  0  0
   -2.1980    2.3628    8.2371 H   0  0  0  0  0  0  0  0  0  0  0  0
  1  3  1  0  0  0  0
  1  7  1  0  0  0  0
  1  2  2  0  0  0  0
 29 30  1  0  0  0  0
 30 38  1  0  0  0  0
 30 31  2  0  0  0  0
  8  9  1  0  0  0  0
  9 17  1  0  0  0  0
  9 10  2  0  0  0  0
 18 19  1  0  0  0  0
 19 28  1  0  0  0  0
 19 20  2  0  0  0  0
 29 32  1  0  0  0  0
  8 11  1  0  0  0  0
 38 39  1  0  0  0  0
 18 21  1  0  0  0  0
 21 22  1  0  0  0  0
 28 29  1  0  0  0  0
  7  8  1  0  0  0  0
 17 18  1  0  0  0  0
  3  4  1  0  0  0  0
  3  5  1  0  0  0  0
  3  6  1  0  0  0  0
 32 35  1  0  0  0  0
 32 36  1  0  0  0  0
 32 37  1  0  0  0  0
 11 14  1  0  0  0  0
 11 15  1  0  0  0  0
 11 16  1  0  0  0  0
 39 41  1  0  0  0  0
 39 42  1  0  0  0  0
 39 43  1  0  0  0  0
 21 25  1  0  0  0  0
 21 26  1  0  0  0  0
 29 34  1  0  0  0  0
  8 13  1  0  0  0  0
 18 24  1  0  0  0  0
 38 40  1  0  0  0  0
  7 12  1  0  0  0  0
 28 33  1  0  0  0  0
 17 23  1  0  0  0  0
 22 27  1  0  0  0  0
M  END
$$$$

  -OEChem-05262214473D

 43 42  0     1  0  0  0  0  0999 V2000
   -2.8661   -4.7415    2.2943 C   0  0  0  0  0  0  0  0  0  0  0  0
   -2.0233   -5.5727    2.6109 O   0  0  0  0  0  0  0  0  0  0  0  0
   -4.3078   -5.0134    2.5698 C   0  0  0  0  0  0  0  0  0  0  0  0
   -4.8057   -5.5295    1.7332 H   0  0  0  0  0  0  0  0  0  0  0  0
   -4.4526   -5.6688    3.4436 H   0  0  0  0  0  0  0  0  0  0  0  0
   -4.9255   -4.1233    2.7700 H   0  0  0  0  0  0  0  0  0  0  0  0
   -2.6241   -3.5219    1.6838 N   0  0  0  0  0  0  0  0  0  0  0  0
   -1.3070   -3.0608    1.3315 C   0  0  2  0  0  0  0  0  0  0  0  0
   -1.3931   -1.5680    1.0422 C   0  0  0  0  0  0  0  0  0  0  0  0
   -2.4385   -1.0059    0.7226 O   0  0  0  0  0  0  0  0  0  0  0  0
   -0.7590   -3.8164    0.1309 C   0  0  0  0  0  0  0  0  0  0  0  0
   -3.4188   -2.9207    1.4735 H   0  0  0  0  0  0  0  0  0  0  0  0
   -0.6690   -3.2277    2.2062 H   0  0  0  0  0  0  0  0  0  0  0  0
   -1.3852   -3.6613   -0.7553 H   0  0  0  0  0  0  0  0  0  0  0  0
    0.2542   -3.4843   -0.1182 H   0  0  0  0  0  0  0  0  0  0  0  0
   -0.7257   -4.8930    0.3300 H   0  0  0  0  0  0  0  0  0  0  0  0
   -0.1563   -0.9420    1.1402 N   0  0  0  0  0  0  0  0  0  0  0  0
    0.0261    0.4671    0.9001 C   0  0  2  0  0  0  0  0  0  0  0  0
    0.5802    1.1169    2.1664 C   0  0  0  0  0  0  0  0  0  0  0  0
    1.7582    1.4463    2.2896 O   0  0  0  0  0  0  0  0  0  0  0  0
   -1.2471    1.1393    0.3803 C   0  0  0  0  0  0  0  0  0  0  0  0
   -1.7726    0.5467   -1.2614 S   0  0  0  0  0  0  0  0  0  0  0  0
    0.6533   -1.4855    1.4300 H   0  0  0  0  0  0  0  0  0  0  0  0
    0.8008    0.5363    0.1264 H   0  0  0  0  0  0  0  0  0  0  0  0
   -2.0798    0.9713    1.0711 H   0  0  0  0  0  0  0  0  0  0  0  0
   -1.0936    2.2212    0.3046 H   0  0  0  0  0  0  0  0  0  0  0  0
   -2.8532    1.3329   -1.3486 H   0  0  0  0  0  0  0  0  0  0  0  0
   -0.3887    1.2619    3.1491 N   0  0  0  0  0  0  0  0  0  0  0  0
   -0.1068    1.8409    4.4418 C   0  0  2  0  0  0  0  0  0  0  0  0
   -1.3515    1.6902    5.3063 C   0  0  0  0  0  0  0  0  0  0  0  0
   -2.4786    1.5403    4.8390 O   0  0  0  0  0  0  0  0  0  0  0  0
    0.2951    3.3024    4.3177 C   0  0  0  0  0  0  0  0  0  0  0  0
   -1.3474    0.9922    2.9495 H   0  0  0  0  0  0  0  0  0  0  0  0
    0.7133    1.2593    4.8767 H   0  0  0  0  0  0  0  0  0  0  0  0
   -0.5140    3.9010    3.8838 H   0  0  0  0  0  0  0  0  0  0  0  0
    0.5362    3.7320    5.2957 H   0  0  0  0  0  0  0  0  0  0  0  0
    1.1728    3.4117    3.6715 H   0  0  0  0  0  0  0  0  0  0  0  0
   -1.0614    1.7859    6.6601 N   0  0  0  0  0  0  0  0  0  0  0  0
   -2.0757    1.6877    7.6836 C   0  0  0  0  0  0  0  0  0  0  0  0
   -0.0961    1.8912    6.9580 H   0  0  0  0  0  0  0  0  0  0  0  0
   -2.4431    2.6938    7.9341 H   0  0  0  0  0  0  0  0  0  0  0  0
   -2.9106    1.0740    7.3145 H   0  0  0  0  0  0  0  0  0  0  0  0
   -1.6460    1.2202    8.5818 H   0  0  0  0  0  0  0  0  0  0  0  0
  1  3  1  0  0  0  0
  1  7  1  0  0  0  0
  1  2  2  0  0  0  0
 29 30  1  0  0  0  0
 30 38  1  0  0  0  0
 30 31  2  0  0  0  0
  8  9  1  0  0  0  0
  9 17  1  0  0  0  0
  9 10  2  0  0  0  0
 18 19  1  0  0  0  0
 19 28  1  0  0  0  0
 19 20  2  0  0  0  0
 29 32  1  0  0  0  0
  8 11  1  0  0  0  0
 38 39  1  0  0  0  0
 18 21  1  0  0  0  0
 21 22  1  0  0  0  0
 28 29  1  0  0  0  0
  7  8  1  0  0  0  0
 17 18  1  0  0  0  0
  3  4  1  0  0  0  0
  3  5  1  0  0  0  0
  3  6  1  0  0  0  0
 32 35  1  0  0  0  0
 32 36  1  0  0  0  0
 32 37  1  0  0  0  0
 11 14  1  0  0  0  0
 11 15  1  0  0  0  0
 11 16  1  0  0  0  0
 39 41  1  0  0  0  0
 39 42  1  0  0  0  0
 39 43  1  0  0  0  0
 21 25  1  0  0  0  0
 21 26  1  0  0  0  0
 29 34  1  0  0  0  0
  8 13  1  0  0  0  0
 18 24  1  0  0  0  0
 38 40  1  0  0  0  0
  7 12  1  0  0  0  0
 28 33  1  0  0  0  0
 17 23  1  0  0  0  0
 22 27  1  0  0  0  0
M  END
$$$$

  -OEChem-05262214473D

 43 42  0     1  0  0  0  0  0999 V2000
   -2.8661   -4.7415    2.2943 C   0  0  0  0  0  0  0  0  0  0  0  0
   -2.0233   -5.5727    2.6109 O   0  0  0  0  0  0  0  0  0  0  0  0
   -4.3078   -5.0134    2.5698 C   0  0  0  0  0  0  0  0  0  0  0  0
   -4.8057   -5.5295    1.7332 H   0  0  0  0  0  0  0  0  0  0  0  0
   -4.4526   -5.6688    3.4436 H   0  0  0  0  0  0  0  0  0  0  0  0
   -4.9255   -4.1233    2.7700 H   0  0  0  0  0  0  0  0  0  0  0  0
   -2.6241   -3.5219    1.6838 N   0  0  0  0  0  0  0  0  0  0  0  0
   -1.3070   -3.0608    1.3315 C   0  0  2  0  0  0  0  0  0  0  0  0
   -1.3931   -1.5680    1.0422 C   0  0  0  0  0  0  0  0  0  0  0  0
   -2.4385   -1.0059    0.7226 O   0  0  0  0  0  0  0  0  0  0  0  0
   -0.7590   -3.8164    0.1309 C   0  0  0  0  0  0  0  0  0  0  0  0
   -3.4188   -2.9207    1.4735 H   0  0  0  0  0  0  0  0  0  0  0  0
   -0.6690   -3.2277    2.2062 H   0  0  0  0  0  0  0  0  0  0  0  0
   -1.3852   -3.6613   -0.7553 H   0  0  0  0  0  0  0  0  0  0  0  0
    0.2542   -3.4843   -0.1182 H   0  0  0  0  0  0  0  0  0  0  0  0
   -0.7257   -4.8930    0.3300 H   0  0  0  0  0  0  0  0  0  0  0  0
   -0.1563   -0.9420    1.1402 N   0  0  0  0  0  0  0  0  0  0  0  0
    0.0261    0.4671    0.9001 C   0  0  2  0  0  0  0  0  0  0  0  0
    0.5802    1.1169    2.1664 C   0  0  0  0  0  0  0  0  0  0  0  0
    1.6692    1.6860    2.2055 O   0  0  0  0  0  0  0  0  0  0  0  0
   -1.2471    1.1393    0.3803 C   0  0  0  0  0  0  0  0  0  0  0  0
   -1.7726    0.5467   -1.2614 S   0  0  0  0  0  0  0  0  0  0  0  0
    0.6533   -1.4855    1.4300 H   0  0  0  0  0  0  0  0  0  0  0  0
    0.8008    0.5363    0.1264 H   0  0  0  0  0  0  0  0  0  0  0  0
   -2.0798    0.9713    1.0711 H   0  0  0  0  0  0  0  0  0  0  0  0
   -1.0936    2.2212    0.3046 H   0  0  0  0  0  0  0  0  0  0  0  0
   -2.8532    1.3329   -1.3486 H   0  0  0  0  0  0  0  0  0  0  0  0
   -0.2722    0.9644    3.2507 N   0  0  0  0  0  0  0  0  0  0  0  0
    0.0359    1.4834    4.5628 C   0  0  2  0  0  0  0  0  0  0  0  0
   -1.0365    0.9924    5.5264 C   0  0  0  0  0  0  0  0  0  0  0  0
   -2.1550    0.6372    5.1608 O   0  0  0  0  0  0  0  0  0  0  0  0
    0.1050    3.0025    4.5548 C   0  0  0  0  0  0  0  0  0  0  0  0
   -1.1701    0.5078    3.1205 H   0  0  0  0  0  0  0  0  0  0  0  0
    1.0058    1.0626    4.8497 H   0  0  0  0  0  0  0  0  0  0  0  0
   -0.8578    3.4421    4.2696 H   0  0  0  0  0  0  0  0  0  0  0  0
    0.3667    3.3931    5.5437 H   0  0  0  0  0  0  0  0  0  0  0  0
    0.8560    3.3547    3.8394 H   0  0  0  0  0  0  0  0  0  0  0  0
   -0.6120    1.0384    6.8470 N   0  0  0  0  0  0  0  0  0  0  0  0
   -1.4526    0.6362    7.9505 C   0  0  0  0  0  0  0  0  0  0  0  0
    0.3386    1.3286    7.0565 H   0  0  0  0  0  0  0  0  0  0  0  0
   -1.9895    1.5129    8.3416 H   0  0  0  0  0  0  0  0  0  0  0  0
   -2.1788   -0.1138    7.6038 H   0  0  0  0  0  0  0  0  0  0  0  0
   -0.8296    0.2026    8.7467 H   0  0  0  0  0  0  0  0  0  0  0  0
  1  3  1  0  0  0  0
  1  7  1  0  0  0  0
  1  2  2  0  0  0  0
 29 30  1  0  0  0  0
 30 38  1  0  0  0  0
 30 31  2  0  0  0  0
  8  9  1  0  0  0  0
  9 17  1  0  0  0  0
  9 10  2  0  0  0  0
 18 19  1  0  0  0  0
 19 28  1  0  0  0  0
 19 20  2  0  0  0  0
 29 32  1  0  0  0  0
  8 11  1  0  0  0  0
 38 39  1  0  0  0  0
 18 21  1  0  0  0  0
 21 22  1  0  0  0  0
 28 29  1  0  0  0  0
  7  8  1  0  0  0  0
 17 18  1  0  0  0  0
  3  4  1  0  0  0  0
  3  5  1  0  0  0  0
  3  6  1  0  0  0  0
 32 35  1  0  0  0  0
 32 36  1  0  0  0  0
 32 37  1  0  0  0  0
 11 14  1  0  0  0  0
 11 15  1  0  0  0  0
 11 16  1  0  0  0  0
 39 41  1  0  0  0  0
 39 42  1  0  0  0  0
 39 43  1  0  0  0  0
 21 25  1  0  0  0  0
 21 26  1  0  0  0  0
 29 34  1  0  0  0  0
  8 13  1  0  0  0  0
 18 24  1  0  0  0  0
 38 40  1  0  0  0  0
  7 12  1  0  0  0  0
 28 33  1  0  0  0  0
 17 23  1  0  0  0  0
 22 27  1  0  0  0  0
M  END
$$$$

  -OEChem-05262214473D

 43 42  0     1  0  0  0  0  0999 V2000
   -2.8661   -4.7415    2.2943 C   0  0  0  0  0  0  0  0  0  0  0  0
   -2.0233   -5.5727    2.6109 O   0  0  0  0  0  0  0  0  0  0  0  0
   -4.3078   -5.0134    2.5698 C   0  0  0  0  0  0  0  0  0  0  0  0
   -4.8057   -5.5295    1.7332 H   0  0  0  0  0  0  0  0  0  0  0  0
   -4.4526   -5.6688    3.4436 H   0  0  0  0  0  0  0  0  0  0  0  0
   -4.9255   -4.1233    2.7700 H   0  0  0  0  0  0  0  0  0  0  0  0
   -2.6241   -3.5219    1.6838 N   0  0  0  0  0  0  0  0  0  0  0  0
   -1.3070   -3.0608    1.3315 C   0  0  2  0  0  0  0  0  0  0  0  0
   -1.3931   -1.5680    1.0422 C   0  0  0  0  0  0  0  0  0  0  0  0
   -2.4385   -1.0059    0.7226 O   0  0  0  0  0  0  0  0  0  0  0  0
   -0.7590   -3.8164    0.1309 C   0  0  0  0  0  0  0  0  0  0  0  0
   -3.4188   -2.9207    1.4735 H   0  0  0  0  0  0  0  0  0  0  0  0
   -0.6690   -3.2277    2.2062 H   0  0  0  0  0  0  0  0  0  0  0  0
   -1.3852   -3.6613   -0.7553 H   0  0  0  0  0  0  0  0  0  0  0  0
    0.2542   -3.4843   -0.1182 H   0  0  0  0  0  0  0  0  0  0  0  0
   -0.7257   -4.8930    0.3300 H   0  0  0  0  0  0  0  0  0  0  0  0
   -0.1563   -0.9420    1.1402 N   0  0  0  0  0  0  0  0  0  0  0  0
    0.0261    0.4671    0.9001 C   0  0  2  0  0  0  0  0  0  0  0  0
    0.5802    1.1169    2.1664 C   0  0  0  0  0  0  0  0  0  0  0  0
    1.5226    1.9064    2.1566 O   0  0  0  0  0  0  0  0  0  0  0  0
   -1.2471    1.1393    0.3803 C   0  0  0  0  0  0  0  0  0  0  0  0
   -1.7726    0.5467   -1.2614 S   0  0  0  0  0  0  0  0  0  0  0  0
    0.6533   -1.4855    1.4300 H   0  0  0  0  0  0  0  0  0  0  0  0
    0.8008    0.5363    0.1264 H   0  0  0  0  0  0  0  0  0  0  0  0
   -2.0798    0.9713    1.0711 H   0  0  0  0  0  0  0  0  0  0  0  0
   -1.0936    2.2212    0.3046 H   0  0  0  0  0  0  0  0  0  0  0  0
   -2.8532    1.3329   -1.3486 H   0  0  0  0  0  0  0  0  0  0  0  0
   -0.0845    0.6925    3.3081 N   0  0  0  0  0  0  0  0  0  0  0  0
    0.2637    1.1573    4.6305 C   0  0  2  0  0  0  0  0  0  0  0  0
   -0.5582    0.3653    5.6389 C   0  0  0  0  0  0  0  0  0  0  0  0
   -1.6133   -0.1960    5.3513 O   0  0  0  0  0  0  0  0  0  0  0  0
    0.0118    2.6499    4.7765 C   0  0  0  0  0  0  0  0  0  0  0  0
   -0.8760    0.0619    3.2206 H   0  0  0  0  0  0  0  0  0  0  0  0
    1.3275    0.9380    4.7728 H   0  0  0  0  0  0  0  0  0  0  0  0
   -1.0488    2.8889    4.6371 H   0  0  0  0  0  0  0  0  0  0  0  0
    0.3030    3.0061    5.7701 H   0  0  0  0  0  0  0  0  0  0  0  0
    0.5808    3.2159    4.0310 H   0  0  0  0  0  0  0  0  0  0  0  0
    0.0030    0.3952    6.9079 N   0  0  0  0  0  0  0  0  0  0  0  0
   -0.5957   -0.2709    8.0410 C   0  0  0  0  0  0  0  0  0  0  0  0
    0.8899    0.8691    7.0510 H   0  0  0  0  0  0  0  0  0  0  0  0
   -1.2532    0.4313    8.5744 H   0  0  0  0  0  0  0  0  0  0  0  0
   -1.1851   -1.1312    7.6910 H   0  0  0  0  0  0  0  0  0  0  0  0
    0.1954   -0.6206    8.7206 H   0  0  0  0  0  0  0  0  0  0  0  0
  1  3  1  0  0  0  0
  1  7  1  0  0  0  0
  1  2  2  0  0  0  0
 29 30  1  0  0  0  0
 30 38  1  0  0  0  0
 30 31  2  0  0  0  0
  8  9  1  0  0  0  0
  9 17  1  0  0  0  0
  9 10  2  0  0  0  0
 18 19  1  0  0  0  0
 19 28  1  0  0  0  0
 19 20  2  0  0  0  0
 29 32  1  0  0  0  0
  8 11  1  0  0  0  0
 38 39  1  0  0  0  0
 18 21  1  0  0  0  0
 21 22  1  0  0  0  0
 28 29  1  0  0  0  0
  7  8  1  0  0  0  0
 17 18  1  0  0  0  0
  3  4  1  0  0  0  0
  3  5  1  0  0  0  0
  3  6  1  0  0  0  0
 32 35  1  0  0  0  0
 32 36  1  0  0  0  0
 32 37  1  0  0  0  0
 11 14  1  0  0  0  0
 11 15  1  0  0  0  0
 11 16  1  0  0  0  0
 39 41  1  0  0  0  0
 39 42  1  0  0  0  0
 39 43  1  0  0  0  0
 21 25  1  0  0  0  0
 21 26  1  0  0  0  0
 29 34  1  0  0  0  0
  8 13  1  0  0  0  0
 18 24  1  0  0  0  0
 38 40  1  0  0  0  0
  7 12  1  0  0  0  0
 28 33  1  0  0  0  0
 17 23  1  0  0  0  0
 22 27  1  0  0  0  0
M  END
$$$$

  -OEChem-05262214473D

 43 42  0     1  0  0  0  0  0999 V2000
   -2.8661   -4.7415    2.2943 C   0  0  0  0  0  0  0  0  0  0  0  0
   -2.0233   -5.5727    2.6109 O   0  0  0  0  0  0  0  0  0  0  0  0
   -4.3078   -5.0134    2.5698 C   0  0  0  0  0  0  0  0  0  0  0  0
   -4.8057   -5.5295    1.7332 H   0  0  0  0  0  0  0  0  0  0  0  0
   -4.4526   -5.6688    3.4436 H   0  0  0  0  0  0  0  0  0  0  0  0
   -4.9255   -4.1233    2.7700 H   0  0  0  0  0  0  0  0  0  0  0  0
   -2.6241   -3.5219    1.6838 N   0  0  0  0  0  0  0  0  0  0  0  0
   -1.3070   -3.0608    1.3315 C   0  0  2  0  0  0  0  0  0  0  0  0
   -1.3931   -1.5680    1.0422 C   0  0  0  0  0  0  0  0  0  0  0  0
   -2.4385   -1.0059    0.7226 O   0  0  0  0  0  0  0  0  0  0  0  0
   -0.7590   -3.8164    0.1309 C   0  0  0  0  0  0  0  0  0  0  0  0
   -3.4188   -2.9207    1.4735 H   0  0  0  0  0  0  0  0  0  0  0  0
   -0.6690   -3.2277    2.2062 H   0  0  0  0  0  0  0  0  0  0  0  0
   -1.3852   -3.6613   -0.7553 H   0  0  0  0  0  0  0  0  0  0  0  0
    0.2542   -3.4843   -0.1182 H   0  0  0  0  0  0  0  0  0  0  0  0
   -0.7257   -4.8930    0.3300 H   0  0  0  0  0  0  0  0  0  0  0  0
   -0.1563   -0.9420    1.1402 N   0  0  0  0  0  0  0  0  0  0  0  0
    0.0261    0.4671    0.9001 C   0  0  2  0  0  0  0  0  0  0  0  0
    0.5802    1.1169    2.1664 C   0  0  0  0  0  0  0  0  0  0  0  0
    1.3283    2.0923    2.1463 O   0  0  0  0  0  0  0  0  0  0  0  0
   -1.2471    1.1393    0.3803 C   0  0  0  0  0  0  0  0  0  0  0  0
   -1.7726    0.5467   -1.2614 S   0  0  0  0  0  0  0  0  0  0  0  0
    0.6533   -1.4855    1.4300 H   0  0  0  0  0  0  0  0  0  0  0  0
    0.8008    0.5363    0.1264 H   0  0  0  0  0  0  0  0  0  0  0  0
   -2.0798    0.9713    1.0711 H   0  0  0  0  0  0  0  0  0  0  0  0
   -1.0936    2.2212    0.3046 H   0  0  0  0  0  0  0  0  0  0  0  0
   -2.8532    1.3329   -1.3486 H   0  0  0  0  0  0  0  0  0  0  0  0
    0.1614    0.4647    3.3174 N   0  0  0  0  0  0  0  0  0  0  0  0
    0.5612    0.8848    4.6401 C   0  0  2  0  0  0  0  0  0  0  0  0
    0.0508   -0.1483    5.6360 C   0  0  0  0  0  0  0  0  0  0  0  0
   -0.8903   -0.9023    5.3973 O   0  0  0  0  0  0  0  0  0  0  0  0
    0.0219    2.2684    4.9678 C   0  0  0  0  0  0  0  0  0  0  0  0
   -0.4852   -0.3151    3.2430 H   0  0  0  0  0  0  0  0  0  0  0  0
    1.6565    0.8939    4.6515 H   0  0  0  0  0  0  0  0  0  0  0  0
   -1.0742    2.2790    4.9611 H   0  0  0  0  0  0  0  0  0  0  0  0
    0.3495    2.5973    5.9595 H   0  0  0  0  0  0  0  0  0  0  0  0
    0.3658    3.0048    4.2334 H   0  0  0  0  0  0  0  0  0  0  0  0
    0.7418   -0.0998    6.8386 N   0  0  0  0  0  0  0  0  0  0  0  0
    0.4367   -0.9717    7.9488 C   0  0  0  0  0  0  0  0  0  0  0  0
    1.5205    0.5442    6.9418 H   0  0  0  0  0  0  0  0  0  0  0  0
   -0.2842   -0.4773    8.6166 H   0  0  0  0  0  0  0  0  0  0  0  0
    0.0026   -1.9089    7.5703 H   0  0  0  0  0  0  0  0  0  0  0  0
    1.3594   -1.1934    8.5052 H   0  0  0  0  0  0  0  0  0  0  0  0
  1  3  1  0  0  0  0
  1  7  1  0  0  0  0
  1  2  2  0  0  0  0
 29 30  1  0  0  0  0
 30 38  1  0  0  0  0
 30 31  2  0  0  0  0
  8  9  1  0  0  0  0
  9 17  1  0  0  0  0
  9 10  2  0  0  0  0
 18 19  1  0  0  0  0
 19 28  1  0  0  0  0
 19 20  2  0  0  0  0
 29 32  1  0  0  0  0
  8 11  1  0  0  0  0
 38 39  1  0  0  0  0
 18 21  1  0  0  0  0
 21 22  1  0  0  0  0
 28 29  1  0  0  0  0
  7  8  1  0  0  0  0
 17 18  1  0  0  0  0
  3  4  1  0  0  0  0
  3  5  1  0  0  0  0
  3  6  1  0  0  0  0
 32 35  1  0  0  0  0
 32 36  1  0  0  0  0
 32 37  1  0  0  0  0
 11 14  1  0  0  0  0
 11 15  1  0  0  0  0
 11 16  1  0  0  0  0
 39 41  1  0  0  0  0
 39 42  1  0  0  0  0
 39 43  1  0  0  0  0
 21 25  1  0  0  0  0
 21 26  1  0  0  0  0
 29 34  1  0  0  0  0
  8 13  1  0  0  0  0
 18 24  1  0  0  0  0
 38 40  1  0  0  0  0
  7 12  1  0  0  0  0
 28 33  1  0  0  0  0
 17 23  1  0  0  0  0
 22 27  1  0  0  0  0
M  END
$$$$

  -OEChem-05262214473D

 43 42  0     1  0  0  0  0  0999 V2000
   -2.8661   -4.7415    2.2943 C   0  0  0  0  0  0  0  0  0  0  0  0
   -2.0233   -5.5727    2.6109 O   0  0  0  0  0  0  0  0  0  0  0  0
   -4.3078   -5.0134    2.5698 C   0  0  0  0  0  0  0  0  0  0  0  0
   -4.8057   -5.5295    1.7332 H   0  0  0  0  0  0  0  0  0  0  0  0
   -4.4526   -5.6688    3.4436 H   0  0  0  0  0  0  0  0  0  0  0  0
   -4.9255   -4.1233    2.7700 H   0  0  0  0  0  0  0  0  0  0  0  0
   -2.6241   -3.5219    1.6838 N   0  0  0  0  0  0  0  0  0  0  0  0
   -1.3070   -3.0608    1.3315 C   0  0  2  0  0  0  0  0  0  0  0  0
   -1.3931   -1.5680    1.0422 C   0  0  0  0  0  0  0  0  0  0  0  0
   -2.4385   -1.0059    0.7226 O   0  0  0  0  0  0  0  0  0  0  0  0
   -0.7590   -3.8164    0.1309 C   0  0  0  0  0  0  0  0  0  0  0  0
   -3.4188   -2.9207    1.4735 H   0  0  0  0  0  0  0  0  0  0  0  0
   -0.6690   -3.2277    2.2062 H   0  0  0  0  0  0  0  0  0  0  0  0
   -1.3852   -3.6613   -0.7553 H   0  0  0  0  0  0  0  0  0  0  0  0
    0.2542   -3.4843   -0.1182 H   0  0  0  0  0  0  0  0  0  0  0  0
   -0.7257   -4.8930    0.3300 H   0  0  0  0  0  0  0  0  0  0  0  0
   -0.1563   -0.9420    1.1402 N   0  0  0  0  0  0  0  0  0  0  0  0
    0.0261    0.4671    0.9001 C   0  0  2  0  0  0  0  0  0  0  0  0
    0.5802    1.1169    2.1664 C   0  0  0  0  0  0  0  0  0  0  0  0
    1.0995    2.2312    2.1751 O   0  0  0  0  0  0  0  0  0  0  0  0
   -1.2471    1.1393    0.3803 C   0  0  0  0  0  0  0  0  0  0  0  0
   -1.7726    0.5467   -1.2614 S   0  0  0  0  0  0  0  0  0  0  0  0
    0.6533   -1.4855    1.4300 H   0  0  0  0  0  0  0  0  0  0  0  0
    0.8008    0.5363    0.1264 H   0  0  0  0  0  0  0  0  0  0  0  0
   -2.0798    0.9713    1.0711 H   0  0  0  0  0  0  0  0  0  0  0  0
   -1.0936    2.2212    0.3046 H   0  0  0  0  0  0  0  0  0  0  0  0
   -2.8532    1.3329   -1.3486 H   0  0  0  0  0  0  0  0  0  0  0  0
    0.4488    0.2966    3.2779 N   0  0  0  0  0  0  0  0  0  0  0  0
    0.9080    0.6845    4.5911 C   0  0  2  0  0  0  0  0  0  0  0  0
    0.7489   -0.5135    5.5179 C   0  0  0  0  0  0  0  0  0  0  0  0
   -0.0352   -1.4338    5.2959 O   0  0  0  0  0  0  0  0  0  0  0  0
    0.1345    1.8842    5.1157 C   0  0  0  0  0  0  0  0  0  0  0  0
   -0.0243   -0.5975    3.1863 H   0  0  0  0  0  0  0  0  0  0  0  0
    1.9704    0.9332    4.4939 H   0  0  0  0  0  0  0  0  0  0  0  0
   -0.9321    1.6540    5.2197 H   0  0  0  0  0  0  0  0  0  0  0  0
    0.5029    2.1947    6.0990 H   0  0  0  0  0  0  0  0  0  0  0  0
    0.2257    2.7357    4.4328 H   0  0  0  0  0  0  0  0  0  0  0  0
    1.5540   -0.4129    6.6438 N   0  0  0  0  0  0  0  0  0  0  0  0
    1.5741   -1.4185    7.6803 C   0  0  0  0  0  0  0  0  0  0  0  0
    2.1873    0.3759    6.7364 H   0  0  0  0  0  0  0  0  0  0  0  0
    0.8514   -1.1510    8.4654 H   0  0  0  0  0  0  0  0  0  0  0  0
    1.3035   -2.3939    7.2500 H   0  0  0  0  0  0  0  0  0  0  0  0
    2.5828   -1.4766    8.1151 H   0  0  0  0  0  0  0  0  0  0  0  0
  1  3  1  0  0  0  0
  1  7  1  0  0  0  0
  1  2  2  0  0  0  0
 29 30  1  0  0  0  0
 30 38  1  0  0  0  0
 30 31  2  0  0  0  0
  8  9  1  0  0  0  0
  9 17  1  0  0  0  0
  9 10  2  0  0  0  0
 18 19  1  0  0  0  0
 19 28  1  0  0  0  0
 19 20  2  0  0  0  0
 29 32  1  0  0  0  0
  8 11  1  0  0  0  0
 38 39  1  0  0  0  0
 18 21  1  0  0  0  0
 21 22  1  0  0  0  0
 28 29  1  0  0  0  0
  7  8  1  0  0  0  0
 17 18  1  0  0  0  0
  3  4  1  0  0  0  0
  3  5  1  0  0  0  0
  3  6  1  0  0  0  0
 32 35  1  0  0  0  0
 32 36  1  0  0  0  0
 32 37  1  0  0  0  0
 11 14  1  0  0  0  0
 11 15  1  0  0  0  0
 11 16  1  0  0  0  0
 39 41  1  0  0  0  0
 39 42  1  0  0  0  0
 39 43  1  0  0  0  0
 21 25  1  0  0  0  0
 21 26  1  0  0  0  0
 29 34  1  0  0  0  0
  8 13  1  0  0  0  0
 18 24  1  0  0  0  0
 38 40  1  0  0  0  0
  7 12  1  0  0  0  0
 28 33  1  0  0  0  0
 17 23  1  0  0  0  0
 22 27  1  0  0  0  0
M  END
$$$$

  -OEChem-05262214473D

 43 42  0     1  0  0  0  0  0999 V2000
   -2.8661   -4.7415    2.2943 C   0  0  0  0  0  0  0  0  0  0  0  0
   -2.0233   -5.5727    2.6109 O   0  0  0  0  0  0  0  0  0  0  0  0
   -4.3078   -5.0134    2.5698 C   0  0  0  0  0  0  0  0  0  0  0  0
   -4.8057   -5.5295    1.7332 H   0  0  0  0  0  0  0  0  0  0  0  0
   -4.4526   -5.6688    3.4436 H   0  0  0  0  0  0  0  0  0  0  0  0
   -4.9255   -4.1233    2.7700 H   0  0  0  0  0  0  0  0  0  0  0  0
   -2.6241   -3.5219    1.6838 N   0  0  0  0  0  0  0  0  0  0  0  0
   -1.3070   -3.0608    1.3315 C   0  0  2  0  0  0  0  0  0  0  0  0
   -1.3931   -1.5680    1.0422 C   0  0  0  0  0  0  0  0  0  0  0  0
   -2.4385   -1.0059    0.7226 O   0  0  0  0  0  0  0  0  0  0  0  0
   -0.7590   -3.8164    0.1309 C   0  0  0  0  0  0  0  0  0  0  0  0
   -3.4188   -2.9207    1.4735 H   0  0  0  0  0  0  0  0  0  0  0  0
   -0.6690   -3.2277    2.2062 H   0  0  0  0  0  0  0  0  0  0  0  0
   -1.3852   -3.6613   -0.7553 H   0  0  0  0  0  0  0  0  0  0  0  0
    0.2542   -3.4843   -0.1182 H   0  0  0  0  0  0  0  0  0  0  0  0
   -0.7257   -4.8930    0.3300 H   0  0  0  0  0  0  0  0  0  0  0  0
   -0.1563   -0.9420    1.1402 N   0  0  0  0  0  0  0  0  0  0  0  0
    0.0261    0.4671    0.9001 C   0  0  2  0  0  0  0  0  0  0  0  0
    0.5802    1.1169    2.1664 C   0  0  0  0  0  0  0  0  0  0  0  0
    0.8519    2.3135    2.2412 O   0  0  0  0  0  0  0  0  0  0  0  0
   -1.2471    1.1393    0.3803 C   0  0  0  0  0  0  0  0  0  0  0  0
   -1.7726    0.5467   -1.2614 S   0  0  0  0  0  0  0  0  0  0  0  0
    0.6533   -1.4855    1.4300 H   0  0  0  0  0  0  0  0  0  0  0  0
    0.8008    0.5363    0.1264 H   0  0  0  0  0  0  0  0  0  0  0  0
   -2.0798    0.9713    1.0711 H   0  0  0  0  0  0  0  0  0  0  0  0
   -1.0936    2.2212    0.3046 H   0  0  0  0  0  0  0  0  0  0  0  0
   -2.8532    1.3329   -1.3486 H   0  0  0  0  0  0  0  0  0  0  0  0
    0.7582    0.1996    3.1923 N   0  0  0  0  0  0  0  0  0  0  0  0
    1.2807    0.5701    4.4867 C   0  0  2  0  0  0  0  0  0  0  0  0
    1.4885   -0.7053    5.2927 C   0  0  0  0  0  0  0  0  0  0  0  0
    0.8936   -1.7542    5.0538 O   0  0  0  0  0  0  0  0  0  0  0  0
    0.3420    1.5233    5.2101 C   0  0  0  0  0  0  0  0  0  0  0  0
    0.4752   -0.7661    3.0542 H   0  0  0  0  0  0  0  0  0  0  0  0
    2.2479    1.0534    4.3109 H   0  0  0  0  0  0  0  0  0  0  0  0
   -0.6323    1.0565    5.3951 H   0  0  0  0  0  0  0  0  0  0  0  0
    0.7529    1.8256    6.1790 H   0  0  0  0  0  0  0  0  0  0  0  0
    0.1701    2.4270    4.6155 H   0  0  0  0  0  0  0  0  0  0  0  0
    2.3843   -0.5227    6.3369 N   0  0  0  0  0  0  0  0  0  0  0  0
    2.7390   -1.5807    7.2538 C   0  0  0  0  0  0  0  0  0  0  0  0
    2.8449    0.3757    6.4487 H   0  0  0  0  0  0  0  0  0  0  0  0
    2.0763   -1.5439    8.1310 H   0  0  0  0  0  0  0  0  0  0  0  0
    2.6288   -2.5532    6.7517 H   0  0  0  0  0  0  0  0  0  0  0  0
    3.7824   -1.4511    7.5771 H   0  0  0  0  0  0  0  0  0  0  0  0
  1  3  1  0  0  0  0
  1  7  1  0  0  0  0
  1  2  2  0  0  0  0
 29 30  1  0  0  0  0
 30 38  1  0  0  0  0
 30 31  2  0  0  0  0
  8  9  1  0  0  0  0
  9 17  1  0  0  0  0
  9 10  2  0  0  0  0
 18 19  1  0  0  0  0
 19 28  1  0  0  0  0
 19 20  2  0  0  0  0
 29 32  1  0  0  0  0
  8 11  1  0  0  0  0
 38 39  1  0  0  0  0
 18 21  1  0  0  0  0
 21 22  1  0  0  0  0
 28 29  1  0  0  0  0
  7  8  1  0  0  0  0
 17 18  1  0  0  0  0
  3  4  1  0  0  0  0
  3  5  1  0  0  0  0
  3  6  1  0  0  0  0
 32 35  1  0  0  0  0
 32 36  1  0  0  0  0
 32 37  1  0  0  0  0
 11 14  1  0  0  0  0
 11 15  1  0  0  0  0
 11 16  1  0  0  0  0
 39 41  1  0  0  0  0
 39 42  1  0  0  0  0
 39 43  1  0  0  0  0
 21 25  1  0  0  0  0
 21 26  1  0  0  0  0
 29 34  1  0  0  0  0
  8 13  1  0  0  0  0
 18 24  1  0  0  0  0
 38 40  1  0  0  0  0
  7 12  1  0  0  0  0
 28 33  1  0  0  0  0
 17 23  1  0  0  0  0
 22 27  1  0  0  0  0
M  END
$$$$

  -OEChem-05262214473D

 43 42  0     1  0  0  0  0  0999 V2000
   -2.8661   -4.7415    2.2943 C   0  0  0  0  0  0  0  0  0  0  0  0
   -2.0233   -5.5727    2.6109 O   0  0  0  0  0  0  0  0  0  0  0  0
   -4.3078   -5.0134    2.5698 C   0  0  0  0  0  0  0  0  0  0  0  0
   -4.8057   -5.5295    1.7332 H   0  0  0  0  0  0  0  0  0  0  0  0
   -4.4526   -5.6688    3.4436 H   0  0  0  0  0  0  0  0  0  0  0  0
   -4.9255   -4.1233    2.7700 H   0  0  0  0  0  0  0  0  0  0  0  0
   -2.6241   -3.5219    1.6838 N   0  0  0  0  0  0  0  0  0  0  0  0
   -1.3070   -3.0608    1.3315 C   0  0  2  0  0  0  0  0  0  0  0  0
   -1.3931   -1.5680    1.0422 C   0  0  0  0  0  0  0  0  0  0  0  0
   -2.4385   -1.0059    0.7226 O   0  0  0  0  0  0  0  0  0  0  0  0
   -0.7590   -3.8164    0.1309 C   0  0  0  0  0  0  0  0  0  0  0  0
   -3.4188   -2.9207    1.4735 H   0  0  0  0  0  0  0  0  0  0  0  0
   -0.6690   -3.2277    2.2062 H   0  0  0  0  0  0  0  0  0  0  0  0
   -1.3852   -3.6613   -0.7553 H   0  0  0  0  0  0  0  0  0  0  0  0
    0.2542   -3.4843   -0.1182 H   0  0  0  0  0  0  0  0  0  0  0  0
   -0.7257   -4.8930    0.3300 H   0  0  0  0  0  0  0  0  0  0  0  0
   -0.1563   -0.9420    1.1402 N   0  0  0  0  0  0  0  0  0  0  0  0
    0.0261    0.4671    0.9001 C   0  0  2  0  0  0  0  0  0  0  0  0
    0.5802    1.1169    2.1664 C   0  0  0  0  0  0  0  0  0  0  0  0
    0.6024    2.3337    2.3400 O   0  0  0  0  0  0  0  0  0  0  0  0
   -1.2471    1.1393    0.3803 C   0  0  0  0  0  0  0  0  0  0  0  0
   -1.7726    0.5467   -1.2614 S   0  0  0  0  0  0  0  0  0  0  0  0
    0.6533   -1.4855    1.4300 H   0  0  0  0  0  0  0  0  0  0  0  0
    0.8008    0.5363    0.1264 H   0  0  0  0  0  0  0  0  0  0  0  0
   -2.0798    0.9713    1.0711 H   0  0  0  0  0  0  0  0  0  0  0  0
   -1.0936    2.2212    0.3046 H   0  0  0  0  0  0  0  0  0  0  0  0
   -2.8532    1.3329   -1.3486 H   0  0  0  0  0  0  0  0  0  0  0  0
    1.0684    0.1803    3.0664 N   0  0  0  0  0  0  0  0  0  0  0  0
    1.6536    0.5494    4.3342 C   0  0  2  0  0  0  0  0  0  0  0  0
    2.2193   -0.7108    4.9757 C   0  0  0  0  0  0  0  0  0  0  0  0
    1.8328   -1.8416    4.6877 O   0  0  0  0  0  0  0  0  0  0  0  0
    0.6303    1.2103    5.2445 C   0  0  0  0  0  0  0  0  0  0  0  0
    0.9793   -0.8093    2.8558 H   0  0  0  0  0  0  0  0  0  0  0  0
    2.4699    1.2462    4.1148 H   0  0  0  0  0  0  0  0  0  0  0  0
   -0.1953    0.5273    5.4754 H   0  0  0  0  0  0  0  0  0  0  0  0
    1.0824    1.5153    6.1941 H   0  0  0  0  0  0  0  0  0  0  0  0
    0.2028    2.0997    4.7691 H   0  0  0  0  0  0  0  0  0  0  0  0
    3.1761   -0.4218    5.9386 N   0  0  0  0  0  0  0  0  0  0  0  0
    3.8521   -1.4474    6.6984 C   0  0  0  0  0  0  0  0  0  0  0  0
    3.4485    0.5436    6.0985 H   0  0  0  0  0  0  0  0  0  0  0  0
    3.3068   -1.6291    7.6363 H   0  0  0  0  0  0  0  0  0  0  0  0
    3.8883   -2.3758    6.1096 H   0  0  0  0  0  0  0  0  0  0  0  0
    4.8764   -1.1185    6.9277 H   0  0  0  0  0  0  0  0  0  0  0  0
  1  3  1  0  0  0  0
  1  7  1  0  0  0  0
  1  2  2  0  0  0  0
 29 30  1  0  0  0  0
 30 38  1  0  0  0  0
 30 31  2  0  0  0  0
  8  9  1  0  0  0  0
  9 17  1  0  0  0  0
  9 10  2  0  0  0  0
 18 19  1  0  0  0  0
 19 28  1  0  0  0  0
 19 20  2  0  0  0  0
 29 32  1  0  0  0  0
  8 11  1  0  0  0  0
 38 39  1  0  0  0  0
 18 21  1  0  0  0  0
 21 22  1  0  0  0  0
 28 29  1  0  0  0  0
  7  8  1  0  0  0  0
 17 18  1  0  0  0  0
  3  4  1  0  0  0  0
  3  5  1  0  0  0  0
  3  6  1  0  0  0  0
 32 35  1  0  0  0  0
 32 36  1  0  0  0  0
 32 37  1  0  0  0  0
 11 14  1  0  0  0  0
 11 15  1  0  0  0  0
 11 16  1  0  0  0  0
 39 41  1  0  0  0  0
 39 42  1  0  0  0  0
 39 43  1  0  0  0  0
 21 25  1  0  0  0  0
 21 26  1  0  0  0  0
 29 34  1  0  0  0  0
  8 13  1  0  0  0  0
 18 24  1  0  0  0  0
 38 40  1  0  0  0  0
  7 12  1  0  0  0  0
 28 33  1  0  0  0  0
 17 23  1  0  0  0  0
 22 27  1  0  0  0  0
M  END
$$$$

  -OEChem-05262214473D

 43 42  0     1  0  0  0  0  0999 V2000
   -2.8661   -4.7415    2.2943 C   0  0  0  0  0  0  0  0  0  0  0  0
   -2.0233   -5.5727    2.6109 O   0  0  0  0  0  0  0  0  0  0  0  0
   -4.3078   -5.0134    2.5698 C   0  0  0  0  0  0  0  0  0  0  0  0
   -4.8057   -5.5295    1.7332 H   0  0  0  0  0  0  0  0  0  0  0  0
   -4.4526   -5.6688    3.4436 H   0  0  0  0  0  0  0  0  0  0  0  0
   -4.9255   -4.1233    2.7700 H   0  0  0  0  0  0  0  0  0  0  0  0
   -2.6241   -3.5219    1.6838 N   0  0  0  0  0  0  0  0  0  0  0  0
   -1.3070   -3.0608    1.3315 C   0  0  2  0  0  0  0  0  0  0  0  0
   -1.3931   -1.5680    1.0422 C   0  0  0  0  0  0  0  0  0  0  0  0
   -2.4385   -1.0059    0.7226 O   0  0  0  0  0  0  0  0  0  0  0  0
   -0.7590   -3.8164    0.1309 C   0  0  0  0  0  0  0  0  0  0  0  0
   -3.4188   -2.9207    1.4735 H   0  0  0  0  0  0  0  0  0  0  0  0
   -0.6690   -3.2277    2.2062 H   0  0  0  0  0  0  0  0  0  0  0  0
   -1.3852   -3.6613   -0.7553 H   0  0  0  0  0  0  0  0  0  0  0  0
    0.2542   -3.4843   -0.1182 H   0  0  0  0  0  0  0  0  0  0  0  0
   -0.7257   -4.8930    0.3300 H   0  0  0  0  0  0  0  0  0  0  0  0
   -0.1563   -0.9420    1.1402 N   0  0  0  0  0  0  0  0  0  0  0  0
    0.0261    0.4671    0.9001 C   0  0  2  0  0  0  0  0  0  0  0  0
    0.5802    1.1169    2.1664 C   0  0  0  0  0  0  0  0  0  0  0  0
    0.3679    2.2905    2.4648 O   0  0  0  0  0  0  0  0  0  0  0  0
   -1.2471    1.1393    0.3803 C   0  0  0  0  0  0  0  0  0  0  0  0
   -1.7726    0.5467   -1.2614 S   0  0  0  0  0  0  0  0  0  0  0  0
    0.6533   -1.4855    1.4300 H   0  0  0  0  0  0  0  0  0  0  0  0
    0.8008    0.5363    0.1264 H   0  0  0  0  0  0  0  0  0  0  0  0
   -2.0798    0.9713    1.0711 H   0  0  0  0  0  0  0  0  0  0  0  0
   -1.0936    2.2212    0.3046 H   0  0  0  0  0  0  0  0  0  0  0  0
   -2.8532    1.3329   -1.3486 H   0  0  0  0  0  0  0  0  0  0  0  0
    1.3584    0.2401    2.9089 N   0  0  0  0  0  0  0  0  0  0  0  0
    2.0016    0.6237    4.1438 C   0  0  2  0  0  0  0  0  0  0  0  0
    2.8915   -0.5294    4.5885 C   0  0  0  0  0  0  0  0  0  0  0  0
    2.7185   -1.6901    4.2224 O   0  0  0  0  0  0  0  0  0  0  0  0
    0.9798    0.9667    5.2166 C   0  0  0  0  0  0  0  0  0  0  0  0
    1.4537   -0.7243    2.6046 H   0  0  0  0  0  0  0  0  0  0  0  0
    2.6214    1.4985    3.9190 H   0  0  0  0  0  0  0  0  0  0  0  0
    0.3494    0.1023    5.4551 H   0  0  0  0  0  0  0  0  0  0  0  0
    1.4689    1.2848    6.1432 H   0  0  0  0  0  0  0  0  0  0  0  0
    0.3215    1.7762    4.8832 H   0  0  0  0  0  0  0  0  0  0  0  0
    3.8754   -0.1171    5.4763 N   0  0  0  0  0  0  0  0  0  0  0  0
    4.8375   -1.0276    6.0518 C   0  0  0  0  0  0  0  0  0  0  0  0
    3.9568    0.8682    5.7095 H   0  0  0  0  0  0  0  0  0  0  0  0
    4.4593   -1.4009    7.0149 H   0  0  0  0  0  0  0  0  0  0  0  0
    4.9961   -1.8740    5.3673 H   0  0  0  0  0  0  0  0  0  0  0  0
    5.7903   -0.5014    6.2113 H   0  0  0  0  0  0  0  0  0  0  0  0
  1  3  1  0  0  0  0
  1  7  1  0  0  0  0
  1  2  2  0  0  0  0
 29 30  1  0  0  0  0
 30 38  1  0  0  0  0
 30 31  2  0  0  0  0
  8  9  1  0  0  0  0
  9 17  1  0  0  0  0
  9 10  2  0  0  0  0
 18 19  1  0  0  0  0
 19 28  1  0  0  0  0
 19 20  2  0  0  0  0
 29 32  1  0  0  0  0
  8 11  1  0  0  0  0
 38 39  1  0  0  0  0
 18 21  1  0  0  0  0
 21 22  1  0  0  0  0
 28 29  1  0  0  0  0
  7  8  1  0  0  0  0
 17 18  1  0  0  0  0
  3  4  1  0  0  0  0
  3  5  1  0  0  0  0
  3  6  1  0  0  0  0
 32 35  1  0  0  0  0
 32 36  1  0  0  0  0
 32 37  1  0  0  0  0
 11 14  1  0  0  0  0
 11 15  1  0  0  0  0
 11 16  1  0  0  0  0
 39 41  1  0  0  0  0
 39 42  1  0  0  0  0
 39 43  1  0  0  0  0
 21 25  1  0  0  0  0
 21 26  1  0  0  0  0
 29 34  1  0  0  0  0
  8 13  1  0  0  0  0
 18 24  1  0  0  0  0
 38 40  1  0  0  0  0
  7 12  1  0  0  0  0
 28 33  1  0  0  0  0
 17 23  1  0  0  0  0
 22 27  1  0  0  0  0
M  END
$$$$

  -OEChem-05262214473D

 43 42  0     1  0  0  0  0  0999 V2000
   -2.8661   -4.7415    2.2943 C   0  0  0  0  0  0  0  0  0  0  0  0
   -2.0233   -5.5727    2.6109 O   0  0  0  0  0  0  0  0  0  0  0  0
   -4.3078   -5.0134    2.5698 C   0  0  0  0  0  0  0  0  0  0  0  0
   -4.8057   -5.5295    1.7332 H   0  0  0  0  0  0  0  0  0  0  0  0
   -4.4526   -5.6688    3.4436 H   0  0  0  0  0  0  0  0  0  0  0  0
   -4.9255   -4.1233    2.7700 H   0  0  0  0  0  0  0  0  0  0  0  0
   -2.6241   -3.5219    1.6838 N   0  0  0  0  0  0  0  0  0  0  0  0
   -1.3070   -3.0608    1.3315 C   0  0  2  0  0  0  0  0  0  0  0  0
   -1.3931   -1.5680    1.0422 C   0  0  0  0  0  0  0  0  0  0  0  0
   -2.4385   -1.0059    0.7226 O   0  0  0  0  0  0  0  0  0  0  0  0
   -0.7590   -3.8164    0.1309 C   0  0  0  0  0  0  0  0  0  0  0  0
   -3.4188   -2.9207    1.4735 H   0  0  0  0  0  0  0  0  0  0  0  0
   -0.6690   -3.2277    2.2062 H   0  0  0  0  0  0  0  0  0  0  0  0
   -1.3852   -3.6613   -0.7553 H   0  0  0  0  0  0  0  0  0  0  0  0
    0.2542   -3.4843   -0.1182 H   0  0  0  0  0  0  0  0  0  0  0  0
   -0.7257   -4.8930    0.3300 H   0  0  0  0  0  0  0  0  0  0  0  0
   -0.1563   -0.9420    1.1402 N   0  0  0  0  0  0  0  0  0  0  0  0
    0.0261    0.4671    0.9001 C   0  0  2  0  0  0  0  0  0  0  0  0
    0.5802    1.1169    2.1664 C   0  0  0  0  0  0  0  0  0  0  0  0
    0.1645    2.1866    2.6071 O   0  0  0  0  0  0  0  0  0  0  0  0
   -1.2471    1.1393    0.3803 C   0  0  0  0  0  0  0  0  0  0  0  0
   -1.7726    0.5467   -1.2614 S   0  0  0  0  0  0  0  0  0  0  0  0
    0.6533   -1.4855    1.4300 H   0  0  0  0  0  0  0  0  0  0  0  0
    0.8008    0.5363    0.1264 H   0  0  0  0  0  0  0  0  0  0  0  0
   -2.0798    0.9713    1.0711 H   0  0  0  0  0  0  0  0  0  0  0  0
   -1.0936    2.2212    0.3046 H   0  0  0  0  0  0  0  0  0  0  0  0
   -2.8532    1.3329   -1.3486 H   0  0  0  0  0  0  0  0  0  0  0  0
    1.6083    0.3748    2.7304 N   0  0  0  0  0  0  0  0  0  0  0  0
    2.3008    0.7880    3.9286 C   0  0  2  0  0  0  0  0  0  0  0  0
    3.4593   -0.1737    4.1575 C   0  0  0  0  0  0  0  0  0  0  0  0
    3.4902   -1.3100    3.6897 O   0  0  0  0  0  0  0  0  0  0  0  0
    1.3665    0.8090    5.1283 C   0  0  0  0  0  0  0  0  0  0  0  0
    1.8660   -0.5168    2.3177 H   0  0  0  0  0  0  0  0  0  0  0  0
    2.6921    1.7931    3.7370 H   0  0  0  0  0  0  0  0  0  0  0  0
    0.9644   -0.1894    5.3357 H   0  0  0  0  0  0  0  0  0  0  0  0
    1.8861    1.1498    6.0299 H   0  0  0  0  0  0  0  0  0  0  0  0
    0.5181    1.4785    4.9500 H   0  0  0  0  0  0  0  0  0  0  0  0
    4.4345    0.3708    4.9813 N   0  0  0  0  0  0  0  0  0  0  0  0
    5.6281   -0.3499    5.3581 C   0  0  0  0  0  0  0  0  0  0  0  0
    4.3354    1.3274    5.3082 H   0  0  0  0  0  0  0  0  0  0  0  0
    5.4551   -0.8749    6.3092 H   0  0  0  0  0  0  0  0  0  0  0  0
    5.8768   -1.0818    4.5755 H   0  0  0  0  0  0  0  0  0  0  0  0
    6.4617    0.3579    5.4765 H   0  0  0  0  0  0  0  0  0  0  0  0
  1  3  1  0  0  0  0
  1  7  1  0  0  0  0
  1  2  2  0  0  0  0
 29 30  1  0  0  0  0
 30 38  1  0  0  0  0
 30 31  2  0  0  0  0
  8  9  1  0  0  0  0
  9 17  1  0  0  0  0
  9 10  2  0  0  0  0
 18 19  1  0  0  0  0
 19 28  1  0  0  0  0
 19 20  2  0  0  0  0
 29 32  1  0  0  0  0
  8 11  1  0  0  0  0
 38 39  1  0  0  0  0
 18 21  1  0  0  0  0
 21 22  1  0  0  0  0
 28 29  1  0  0  0  0
  7  8  1  0  0  0  0
 17 18  1  0  0  0  0
  3  4  1  0  0  0  0
  3  5  1  0  0  0  0
  3  6  1  0  0  0  0
 32 35  1  0  0  0  0
 32 36  1  0  0  0  0
 32 37  1  0  0  0  0
 11 14  1  0  0  0  0
 11 15  1  0  0  0  0
 11 16  1  0  0  0  0
 39 41  1  0  0  0  0
 39 42  1  0  0  0  0
 39 43  1  0  0  0  0
 21 25  1  0  0  0  0
 21 26  1  0  0  0  0
 29 34  1  0  0  0  0
  8 13  1  0  0  0  0
 18 24  1  0  0  0  0
 38 40  1  0  0  0  0
  7 12  1  0  0  0  0
 28 33  1  0  0  0  0
 17 23  1  0  0  0  0
 22 27  1  0  0  0  0
M  END
$$$$

  -OEChem-05262214473D

 43 42  0     1  0  0  0  0  0999 V2000
   -2.8661   -4.7415    2.2943 C   0  0  0  0  0  0  0  0  0  0  0  0
   -2.0233   -5.5727    2.6109 O   0  0  0  0  0  0  0  0  0  0  0  0
   -4.3078   -5.0134    2.5698 C   0  0  0  0  0  0  0  0  0  0  0  0
   -4.8057   -5.5295    1.7332 H   0  0  0  0  0  0  0  0  0  0  0  0
   -4.4526   -5.6688    3.4436 H   0  0  0  0  0  0  0  0  0  0  0  0
   -4.9255   -4.1233    2.7700 H   0  0  0  0  0  0  0  0  0  0  0  0
   -2.6241   -3.5219    1.6838 N   0  0  0  0  0  0  0  0  0  0  0  0
   -1.3070   -3.0608    1.3315 C   0  0  2  0  0  0  0  0  0  0  0  0
   -1.3931   -1.5680    1.0422 C   0  0  0  0  0  0  0  0  0  0  0  0
   -2.4385   -1.0059    0.7226 O   0  0  0  0  0  0  0  0  0  0  0  0
   -0.7590   -3.8164    0.1309 C   0  0  0  0  0  0  0  0  0  0  0  0
   -3.4188   -2.9207    1.4735 H   0  0  0  0  0  0  0  0  0  0  0  0
   -0.6690   -3.2277    2.2062 H   0  0  0  0  0  0  0  0  0  0  0  0
   -1.3852   -3.6613   -0.7553 H   0  0  0  0  0  0  0  0  0  0  0  0
    0.2542   -3.4843   -0.1182 H   0  0  0  0  0  0  0  0  0  0  0  0
   -0.7257   -4.8930    0.3300 H   0  0  0  0  0  0  0  0  0  0  0  0
   -0.1563   -0.9420    1.1402 N   0  0  0  0  0  0  0  0  0  0  0  0
    0.0261    0.4671    0.9001 C   0  0  2  0  0  0  0  0  0  0  0  0
    0.5802    1.1169    2.1664 C   0  0  0  0  0  0  0  0  0  0  0  0
    0.0059    2.0292    2.7573 O   0  0  0  0  0  0  0  0  0  0  0  0
   -1.2471    1.1393    0.3803 C   0  0  0  0  0  0  0  0  0  0  0  0
   -1.7726    0.5467   -1.2614 S   0  0  0  0  0  0  0  0  0  0  0  0
    0.6533   -1.4855    1.4300 H   0  0  0  0  0  0  0  0  0  0  0  0
    0.8008    0.5363    0.1264 H   0  0  0  0  0  0  0  0  0  0  0  0
   -2.0798    0.9713    1.0711 H   0  0  0  0  0  0  0  0  0  0  0  0
   -1.0936    2.2212    0.3046 H   0  0  0  0  0  0  0  0  0  0  0  0
   -2.8532    1.3329   -1.3486 H   0  0  0  0  0  0  0  0  0  0  0  0
    1.8011    0.5753    2.5432 N   0  0  0  0  0  0  0  0  0  0  0  0
    2.5308    1.0312    3.7031 C   0  0  2  0  0  0  0  0  0  0  0  0
    3.8839    0.3322    3.7121 C   0  0  0  0  0  0  0  0  0  0  0  0
    4.0955   -0.7273    3.1258 O   0  0  0  0  0  0  0  0  0  0  0  0
    1.7641    0.7479    4.9856 C   0  0  0  0  0  0  0  0  0  0  0  0
    2.1881   -0.2009    2.0146 H   0  0  0  0  0  0  0  0  0  0  0  0
    2.6771    2.1099    3.5810 H   0  0  0  0  0  0  0  0  0  0  0  0
    1.6079   -0.3280    5.1252 H   0  0  0  0  0  0  0  0  0  0  0  0
    2.3055    1.1196    5.8618 H   0  0  0  0  0  0  0  0  0  0  0  0
    0.7792    1.2268    4.9648 H   0  0  0  0  0  0  0  0  0  0  0  0
    4.8154    1.0085    4.4874 N   0  0  0  0  0  0  0  0  0  0  0  0
    6.1699    0.5394    4.6647 C   0  0  0  0  0  0  0  0  0  0  0  0
    4.5584    1.8898    4.9221 H   0  0  0  0  0  0  0  0  0  0  0  0
    6.2264   -0.0868    5.5673 H   0  0  0  0  0  0  0  0  0  0  0  0
    6.4703   -0.0533    3.7881 H   0  0  0  0  0  0  0  0  0  0  0  0
    6.8449    1.4011    4.7736 H   0  0  0  0  0  0  0  0  0  0  0  0
  1  3  1  0  0  0  0
  1  7  1  0  0  0  0
  1  2  2  0  0  0  0
 29 30  1  0  0  0  0
 30 38  1  0  0  0  0
 30 31  2  0  0  0  0
  8  9  1  0  0  0  0
  9 17  1  0  0  0  0
  9 10  2  0  0  0  0
 18 19  1  0  0  0  0
 19 28  1  0  0  0  0
 19 20  2  0  0  0  0
 29 32  1  0  0  0  0
  8 11  1  0  0  0  0
 38 39  1  0  0  0  0
 18 21  1  0  0  0  0
 21 22  1  0  0  0  0
 28 29  1  0  0  0  0
  7  8  1  0  0  0  0
 17 18  1  0  0  0  0
  3  4  1  0  0  0  0
  3  5  1  0  0  0  0
  3  6  1  0  0  0  0
 32 35  1  0  0  0  0
 32 36  1  0  0  0  0
 32 37  1  0  0  0  0
 11 14  1  0  0  0  0
 11 15  1  0  0  0  0
 11 16  1  0  0  0  0
 39 41  1  0  0  0  0
 39 42  1  0  0  0  0
 39 43  1  0  0  0  0
 21 25  1  0  0  0  0
 21 26  1  0  0  0  0
 29 34  1  0  0  0  0
  8 13  1  0  0  0  0
 18 24  1  0  0  0  0
 38 40  1  0  0  0  0
  7 12  1  0  0  0  0
 28 33  1  0  0  0  0
 17 23  1  0  0  0  0
 22 27  1  0  0  0  0
M  END
$$$$

  -OEChem-05262214473D

 43 42  0     1  0  0  0  0  0999 V2000
   -2.8661   -4.7415    2.2943 C   0  0  0  0  0  0  0  0  0  0  0  0
   -2.0233   -5.5727    2.6109 O   0  0  0  0  0  0  0  0  0  0  0  0
   -4.3078   -5.0134    2.5698 C   0  0  0  0  0  0  0  0  0  0  0  0
   -4.8057   -5.5295    1.7332 H   0  0  0  0  0  0  0  0  0  0  0  0
   -4.4526   -5.6688    3.4436 H   0  0  0  0  0  0  0  0  0  0  0  0
   -4.9255   -4.1233    2.7700 H   0  0  0  0  0  0  0  0  0  0  0  0
   -2.6241   -3.5219    1.6838 N   0  0  0  0  0  0  0  0  0  0  0  0
   -1.3070   -3.0608    1.3315 C   0  0  2  0  0  0  0  0  0  0  0  0
   -1.3931   -1.5680    1.0422 C   0  0  0  0  0  0  0  0  0  0  0  0
   -2.4385   -1.0059    0.7226 O   0  0  0  0  0  0  0  0  0  0  0  0
   -0.7590   -3.8164    0.1309 C   0  0  0  0  0  0  0  0  0  0  0  0
   -3.4188   -2.9207    1.4735 H   0  0  0  0  0  0  0  0  0  0  0  0
   -0.6690   -3.2277    2.2062 H   0  0  0  0  0  0  0  0  0  0  0  0
   -1.3852   -3.6613   -0.7553 H   0  0  0  0  0  0  0  0  0  0  0  0
    0.2542   -3.4843   -0.1182 H   0  0  0  0  0  0  0  0  0  0  0  0
   -0.7257   -4.8930    0.3300 H   0  0  0  0  0  0  0  0  0  0  0  0
   -0.1563   -0.9420    1.1402 N   0  0  0  0  0  0  0  0  0  0  0  0
    0.0261    0.4671    0.9001 C   0  0  2  0  0  0  0  0  0  0  0  0
    0.5802    1.1169    2.1664 C   0  0  0  0  0  0  0  0  0  0  0  0
   -0.0970    1.8291    2.9049 O   0  0  0  0  0  0  0  0  0  0  0  0
   -1.2471    1.1393    0.3803 C   0  0  0  0  0  0  0  0  0  0  0  0
   -1.7726    0.5467   -1.2614 S   0  0  0  0  0  0  0  0  0  0  0  0
    0.6533   -1.4855    1.4300 H   0  0  0  0  0  0  0  0  0  0  0  0
    0.8008    0.5363    0.1264 H   0  0  0  0  0  0  0  0  0  0  0  0
   -2.0798    0.9713    1.0711 H   0  0  0  0  0  0  0  0  0  0  0  0
   -1.0936    2.2212    0.3046 H   0  0  0  0  0  0  0  0  0  0  0  0
   -2.8532    1.3329   -1.3486 H   0  0  0  0  0  0  0  0  0  0  0  0
    1.9236    0.8280    2.3599 N   0  0  0  0  0  0  0  0  0  0  0  0
    2.6759    1.3365    3.4829 C   0  0  2  0  0  0  0  0  0  0  0  0
    4.1364    0.9538    3.2827 C   0  0  0  0  0  0  0  0  0  0  0  0
    4.4930    0.0184    2.5693 O   0  0  0  0  0  0  0  0  0  0  0  0
    2.1457    0.7876    4.7983 C   0  0  0  0  0  0  0  0  0  0  0  0
    2.3981    0.2018    1.7161 H   0  0  0  0  0  0  0  0  0  0  0  0
    2.5774    2.4273    3.4617 H   0  0  0  0  0  0  0  0  0  0  0  0
    2.2360   -0.3040    4.8380 H   0  0  0  0  0  0  0  0  0  0  0  0
    2.6987    1.1963    5.6505 H   0  0  0  0  0  0  0  0  0  0  0  0
    1.0871    1.0384    4.9268 H   0  0  0  0  0  0  0  0  0  0  0  0
    4.9922    1.7526    4.0283 N   0  0  0  0  0  0  0  0  0  0  0  0
    6.4261    1.5798    4.0188 C   0  0  0  0  0  0  0  0  0  0  0  0
    4.6105    2.5172    4.5773 H   0  0  0  0  0  0  0  0  0  0  0  0
    6.7206    0.9096    4.8398 H   0  0  0  0  0  0  0  0  0  0  0  0
    6.7361    1.1415    3.0587 H   0  0  0  0  0  0  0  0  0  0  0  0
    6.9138    2.5569    4.1503 H   0  0  0  0  0  0  0  0  0  0  0  0
  1  3  1  0  0  0  0
  1  7  1  0  0  0  0
  1  2  2  0  0  0  0
 29 30  1  0  0  0  0
 30 38  1  0  0  0  0
 30 31  2  0  0  0  0
  8  9  1  0  0  0  0
  9 17  1  0  0  0  0
  9 10  2  0  0  0  0
 18 19  1  0  0  0  0
 19 28  1  0  0  0  0
 19 20  2  0  0  0  0
 29 32  1  0  0  0  0
  8 11  1  0  0  0  0
 38 39  1  0  0  0  0
 18 21  1  0  0  0  0
 21 22  1  0  0  0  0
 28 29  1  0  0  0  0
  7  8  1  0  0  0  0
 17 18  1  0  0  0  0
  3  4  1  0  0  0  0
  3  5  1  0  0  0  0
  3  6  1  0  0  0  0
 32 35  1  0  0  0  0
 32 36  1  0  0  0  0
 32 37  1  0  0  0  0
 11 14  1  0  0  0  0
 11 15  1  0  0  0  0
 11 16  1  0  0  0  0
 39 41  1  0  0  0  0
 39 42  1  0  0  0  0
 39 43  1  0  0  0  0
 21 25  1  0  0  0  0
 21 26  1  0  0  0  0
 29 34  1  0  0  0  0
  8 13  1  0  0  0  0
 18 24  1  0  0  0  0
 38 40  1  0  0  0  0
  7 12  1  0  0  0  0
 28 33  1  0  0  0  0
 17 23  1  0  0  0  0
 22 27  1  0  0  0  0
M  END
$$$$

  -OEChem-05262214473D

 43 42  0     1  0  0  0  0  0999 V2000
   -2.8661   -4.7415    2.2943 C   0  0  0  0  0  0  0  0  0  0  0  0
   -2.0233   -5.5727    2.6109 O   0  0  0  0  0  0  0  0  0  0  0  0
   -4.3078   -5.0134    2.5698 C   0  0  0  0  0  0  0  0  0  0  0  0
   -4.8057   -5.5295    1.7332 H   0  0  0  0  0  0  0  0  0  0  0  0
   -4.4526   -5.6688    3.4436 H   0  0  0  0  0  0  0  0  0  0  0  0
   -4.9255   -4.1233    2.7700 H   0  0  0  0  0  0  0  0  0  0  0  0
   -2.6241   -3.5219    1.6838 N   0  0  0  0  0  0  0  0  0  0  0  0
   -1.3070   -3.0608    1.3315 C   0  0  2  0  0  0  0  0  0  0  0  0
   -1.3931   -1.5680    1.0422 C   0  0  0  0  0  0  0  0  0  0  0  0
   -2.4385   -1.0059    0.7226 O   0  0  0  0  0  0  0  0  0  0  0  0
   -0.7590   -3.8164    0.1309 C   0  0  0  0  0  0  0  0  0  0  0  0
   -3.4188   -2.9207    1.4735 H   0  0  0  0  0  0  0  0  0  0  0  0
   -0.6690   -3.2277    2.2062 H   0  0  0  0  0  0  0  0  0  0  0  0
   -1.3852   -3.6613   -0.7553 H   0  0  0  0  0  0  0  0  0  0  0  0
    0.2542   -3.4843   -0.1182 H   0  0  0  0  0  0  0  0  0  0  0  0
   -0.7257   -4.8930    0.3300 H   0  0  0  0  0  0  0  0  0  0  0  0
   -0.1563   -0.9420    1.1402 N   0  0  0  0  0  0  0  0  0  0  0  0
    0.0261    0.4671    0.9001 C   0  0  2  0  0  0  0  0  0  0  0  0
    0.5802    1.1169    2.1664 C   0  0  0  0  0  0  0  0  0  0  0  0
   -0.1372    1.5999    3.0401 O   0  0  0  0  0  0  0  0  0  0  0  0
   -1.2471    1.1393    0.3803 C   0  0  0  0  0  0  0  0  0  0  0  0
   -1.7726    0.5467   -1.2614 S   0  0  0  0  0  0  0  0  0  0  0  0
    0.6533   -1.4855    1.4300 H   0  0  0  0  0  0  0  0  0  0  0  0
    0.8008    0.5363    0.1264 H   0  0  0  0  0  0  0  0  0  0  0  0
   -2.0798    0.9713    1.0711 H   0  0  0  0  0  0  0  0  0  0  0  0
   -1.0936    2.2212    0.3046 H   0  0  0  0  0  0  0  0  0  0  0  0
   -2.8532    1.3329   -1.3486 H   0  0  0  0  0  0  0  0  0  0  0  0
    1.9676    1.1156    2.1931 N   0  0  0  0  0  0  0  0  0  0  0  0
    2.7264    1.6833    3.2829 C   0  0  2  0  0  0  0  0  0  0  0  0
    4.1997    1.6488    2.8984 C   0  0  0  0  0  0  0  0  0  0  0  0
    4.6556    0.8763    2.0579 O   0  0  0  0  0  0  0  0  0  0  0  0
    2.4850    0.9255    4.5791 C   0  0  0  0  0  0  0  0  0  0  0  0
    2.4817    0.6639    1.4425 H   0  0  0  0  0  0  0  0  0  0  0  0
    2.3999    2.7238    3.3873 H   0  0  0  0  0  0  0  0  0  0  0  0
    2.8060   -0.1191    4.4937 H   0  0  0  0  0  0  0  0  0  0  0  0
    3.0387    1.3745    5.4103 H   0  0  0  0  0  0  0  0  0  0  0  0
    1.4208    0.9260    4.8384 H   0  0  0  0  0  0  0  0  0  0  0  0
    4.9526    2.5523    3.6352 N   0  0  0  0  0  0  0  0  0  0  0  0
    6.3791    2.7004    3.4644 C   0  0  0  0  0  0  0  0  0  0  0  0
    4.4883    3.1667    4.2975 H   0  0  0  0  0  0  0  0  0  0  0  0
    6.9040    2.0464    4.1762 H   0  0  0  0  0  0  0  0  0  0  0  0
    6.6562    2.4211    2.4371 H   0  0  0  0  0  0  0  0  0  0  0  0
    6.6638    3.7467    3.6493 H   0  0  0  0  0  0  0  0  0  0  0  0
  1  3  1  0  0  0  0
  1  7  1  0  0  0  0
  1  2  2  0  0  0  0
 29 30  1  0  0  0  0
 30 38  1  0  0  0  0
 30 31  2  0  0  0  0
  8  9  1  0  0  0  0
  9 17  1  0  0  0  0
  9 10  2  0  0  0  0
 18 19  1  0  0  0  0
 19 28  1  0  0  0  0
 19 20  2  0  0  0  0
 29 32  1  0  0  0  0
  8 11  1  0  0  0  0
 38 39  1  0  0  0  0
 18 21  1  0  0  0  0
 21 22  1  0  0  0  0
 28 29  1  0  0  0  0
  7  8  1  0  0  0  0
 17 18  1  0  0  0  0
  3  4  1  0  0  0  0
  3  5  1  0  0  0  0
  3  6  1  0  0  0  0
 32 35  1  0  0  0  0
 32 36  1  0  0  0  0
 32 37  1  0  0  0  0
 11 14  1  0  0  0  0
 11 15  1  0  0  0  0
 11 16  1  0  0  0  0
 39 41  1  0  0  0  0
 39 42  1  0  0  0  0
 39 43  1  0  0  0  0
 21 25  1  0  0  0  0
 21 26  1  0  0  0  0
 29 34  1  0  0  0  0
  8 13  1  0  0  0  0
 18 24  1  0  0  0  0
 38 40  1  0  0  0  0
  7 12  1  0  0  0  0
 28 33  1  0  0  0  0
 17 23  1  0  0  0  0
 22 27  1  0  0  0  0
M  END
$$$$

  -OEChem-05262214473D

 43 42  0     1  0  0  0  0  0999 V2000
   -2.8661   -4.7415    2.2943 C   0  0  0  0  0  0  0  0  0  0  0  0
   -2.0233   -5.5727    2.6109 O   0  0  0  0  0  0  0  0  0  0  0  0
   -4.3078   -5.0134    2.5698 C   0  0  0  0  0  0  0  0  0  0  0  0
   -4.8057   -5.5295    1.7332 H   0  0  0  0  0  0  0  0  0  0  0  0
   -4.4526   -5.6688    3.4436 H   0  0  0  0  0  0  0  0  0  0  0  0
   -4.9255   -4.1233    2.7700 H   0  0  0  0  0  0  0  0  0  0  0  0
   -2.6241   -3.5219    1.6838 N   0  0  0  0  0  0  0  0  0  0  0  0
   -1.3070   -3.0608    1.3315 C   0  0  2  0  0  0  0  0  0  0  0  0
   -1.3931   -1.5680    1.0422 C   0  0  0  0  0  0  0  0  0  0  0  0
   -2.4385   -1.0059    0.7226 O   0  0  0  0  0  0  0  0  0  0  0  0
   -0.7590   -3.8164    0.1309 C   0  0  0  0  0  0  0  0  0  0  0  0
   -3.4188   -2.9207    1.4735 H   0  0  0  0  0  0  0  0  0  0  0  0
   -0.6690   -3.2277    2.2062 H   0  0  0  0  0  0  0  0  0  0  0  0
   -1.3852   -3.6613   -0.7553 H   0  0  0  0  0  0  0  0  0  0  0  0
    0.2542   -3.4843   -0.1182 H   0  0  0  0  0  0  0  0  0  0  0  0
   -0.7257   -4.8930    0.3300 H   0  0  0  0  0  0  0  0  0  0  0  0
   -0.1563   -0.9420    1.1402 N   0  0  0  0  0  0  0  0  0  0  0  0
    0.0261    0.4671    0.9001 C   0  0  2  0  0  0  0  0  0  0  0  0
    0.5802    1.1169    2.1664 C   0  0  0  0  0  0  0  0  0  0  0  0
   -0.1119    1.3572    3.1536 O   0  0  0  0  0  0  0  0  0  0  0  0
   -1.2471    1.1393    0.3803 C   0  0  0  0  0  0  0  0  0  0  0  0
   -1.7726    0.5467   -1.2614 S   0  0  0  0  0  0  0  0  0  0  0  0
    0.6533   -1.4855    1.4300 H   0  0  0  0  0  0  0  0  0  0  0  0
    0.8008    0.5363    0.1264 H   0  0  0  0  0  0  0  0  0  0  0  0
   -2.0798    0.9713    1.0711 H   0  0  0  0  0  0  0  0  0  0  0  0
   -1.0936    2.2212    0.3046 H   0  0  0  0  0  0  0  0  0  0  0  0
   -2.8532    1.3329   -1.3486 H   0  0  0  0  0  0  0  0  0  0  0  0
    1.9301    1.4184    2.0541 N   0  0  0  0  0  0  0  0  0  0  0  0
    2.6787    2.0479    3.1167 C   0  0  2  0  0  0  0  0  0  0  0  0
    4.0693    2.3697    2.5855 C   0  0  0  0  0  0  0  0  0  0  0  0
    4.5723    1.7878    1.6267 O   0  0  0  0  0  0  0  0  0  0  0  0
    2.7591    1.1520    4.3429 C   0  0  0  0  0  0  0  0  0  0  0  0
    2.4331    1.1538    1.2123 H   0  0  0  0  0  0  0  0  0  0  0  0
    2.1566    2.9790    3.3628 H   0  0  0  0  0  0  0  0  0  0  0  0
    3.2790    0.2142    4.1158 H   0  0  0  0  0  0  0  0  0  0  0  0
    3.3024    1.6422    5.1575 H   0  0  0  0  0  0  0  0  0  0  0  0
    1.7575    0.8973    4.7058 H   0  0  0  0  0  0  0  0  0  0  0  0
    4.6996    3.3532    3.3350 N   0  0  0  0  0  0  0  0  0  0  0  0
    6.0323    3.8248    3.0392 C   0  0  0  0  0  0  0  0  0  0  0  0
    4.2001    3.7942    4.1017 H   0  0  0  0  0  0  0  0  0  0  0  0
    6.7642    3.2462    3.6218 H   0  0  0  0  0  0  0  0  0  0  0  0
    6.2360    3.6983    1.9656 H   0  0  0  0  0  0  0  0  0  0  0  0
    6.1117    4.8893    3.3045 H   0  0  0  0  0  0  0  0  0  0  0  0
  1  3  1  0  0  0  0
  1  7  1  0  0  0  0
  1  2  2  0  0  0  0
 29 30  1  0  0  0  0
 30 38  1  0  0  0  0
 30 31  2  0  0  0  0
  8  9  1  0  0  0  0
  9 17  1  0  0  0  0
  9 10  2  0  0  0  0
 18 19  1  0  0  0  0
 19 28  1  0  0  0  0
 19 20  2  0  0  0  0
 29 32  1  0  0  0  0
  8 11  1  0  0  0  0
 38 39  1  0  0  0  0
 18 21  1  0  0  0  0
 21 22  1  0  0  0  0
 28 29  1  0  0  0  0
  7  8  1  0  0  0  0
 17 18  1  0  0  0  0
  3  4  1  0  0  0  0
  3  5  1  0  0  0  0
  3  6  1  0  0  0  0
 32 35  1  0  0  0  0
 32 36  1  0  0  0  0
 32 37  1  0  0  0  0
 11 14  1  0  0  0  0
 11 15  1  0  0  0  0
 11 16  1  0  0  0  0
 39 41  1  0  0  0  0
 39 42  1  0  0  0  0
 39 43  1  0  0  0  0
 21 25  1  0  0  0  0
 21 26  1  0  0  0  0
 29 34  1  0  0  0  0
  8 13  1  0  0  0  0
 18 24  1  0  0  0  0
 38 40  1  0  0  0  0
  7 12  1  0  0  0  0
 28 33  1  0  0  0  0
 17 23  1  0  0  0  0
 22 27  1  0  0  0  0
M  END
$$$$

  -OEChem-05262214473D

 43 42  0     1  0  0  0  0  0999 V2000
   -2.8661   -4.7415    2.2943 C   0  0  0  0  0  0  0  0  0  0  0  0
   -2.0233   -5.5727    2.6109 O   0  0  0  0  0  0  0  0  0  0  0  0
   -4.3078   -5.0134    2.5698 C   0  0  0  0  0  0  0  0  0  0  0  0
   -4.8057   -5.5295    1.7332 H   0  0  0  0  0  0  0  0  0  0  0  0
   -4.4526   -5.6688    3.4436 H   0  0  0  0  0  0  0  0  0  0  0  0
   -4.9255   -4.1233    2.7700 H   0  0  0  0  0  0  0  0  0  0  0  0
   -2.6241   -3.5219    1.6838 N   0  0  0  0  0  0  0  0  0  0  0  0
   -1.3070   -3.0608    1.3315 C   0  0  2  0  0  0  0  0  0  0  0  0
   -1.3931   -1.5680    1.0422 C   0  0  0  0  0  0  0  0  0  0  0  0
   -2.4385   -1.0059    0.7226 O   0  0  0  0  0  0  0  0  0  0  0  0
   -0.7590   -3.8164    0.1309 C   0  0  0  0  0  0  0  0  0  0  0  0
   -3.4188   -2.9207    1.4735 H   0  0  0  0  0  0  0  0  0  0  0  0
   -0.6690   -3.2277    2.2062 H   0  0  0  0  0  0  0  0  0  0  0  0
   -1.3852   -3.6613   -0.7553 H   0  0  0  0  0  0  0  0  0  0  0  0
    0.2542   -3.4843   -0.1182 H   0  0  0  0  0  0  0  0  0  0  0  0
   -0.7257   -4.8930    0.3300 H   0  0  0  0  0  0  0  0  0  0  0  0
   -0.1563   -0.9420    1.1402 N   0  0  0  0  0  0  0  0  0  0  0  0
    0.0261    0.4671    0.9001 C   0  0  2  0  0  0  0  0  0  0  0  0
    0.5802    1.1169    2.1664 C   0  0  0  0  0  0  0  0  0  0  0  0
   -0.0229    1.1175    3.2377 O   0  0  0  0  0  0  0  0  0  0  0  0
   -1.2471    1.1393    0.3803 C   0  0  0  0  0  0  0  0  0  0  0  0
   -1.7726    0.5467   -1.2614 S   0  0  0  0  0  0  0  0  0  0  0  0
    0.6533   -1.4855    1.4300 H   0  0  0  0  0  0  0  0  0  0  0  0
    0.8008    0.5363    0.1264 H   0  0  0  0  0  0  0  0  0  0  0  0
   -2.0798    0.9713    1.0711 H   0  0  0  0  0  0  0  0  0  0  0  0
   -1.0936    2.2212    0.3046 H   0  0  0  0  0  0  0  0  0  0  0  0
   -2.8532    1.3329   -1.3486 H   0  0  0  0  0  0  0  0  0  0  0  0
    1.8135    1.7160    1.9525 N   0  0  0  0  0  0  0  0  0  0  0  0
    2.5361    2.4055    2.9956 C   0  0  2  0  0  0  0  0  0  0  0  0
    3.7543    3.0675    2.3654 C   0  0  0  0  0  0  0  0  0  0  0  0
    4.2488    2.6909    1.3048 O   0  0  0  0  0  0  0  0  0  0  0  0
    2.9492    1.4518    4.1059 C   0  0  0  0  0  0  0  0  0  0  0  0
    2.2557    1.6382    1.0414 H   0  0  0  0  0  0  0  0  0  0  0  0
    1.8642    3.1757    3.3898 H   0  0  0  0  0  0  0  0  0  0  0  0
    3.6227    0.6730    3.7299 H   0  0  0  0  0  0  0  0  0  0  0  0
    3.4719    1.9811    4.9094 H   0  0  0  0  0  0  0  0  0  0  0  0
    2.0742    0.9543    4.5380 H   0  0  0  0  0  0  0  0  0  0  0  0
    4.2502    4.1007    3.1481 N   0  0  0  0  0  0  0  0  0  0  0  0
    5.4092    4.8763    2.7723 C   0  0  0  0  0  0  0  0  0  0  0  0
    3.7655    4.3568    4.0032 H   0  0  0  0  0  0  0  0  0  0  0  0
    6.3107    4.4271    3.2143 H   0  0  0  0  0  0  0  0  0  0  0  0
    5.5041    4.8861    1.6764 H   0  0  0  0  0  0  0  0  0  0  0  0
    5.2954    5.9069    3.1396 H   0  0  0  0  0  0  0  0  0  0  0  0
  1  3  1  0  0  0  0
  1  7  1  0  0  0  0
  1  2  2  0  0  0  0
 29 30  1  0  0  0  0
 30 38  1  0  0  0  0
 30 31  2  0  0  0  0
  8  9  1  0  0  0  0
  9 17  1  0  0  0  0
  9 10  2  0  0  0  0
 18 19  1  0  0  0  0
 19 28  1  0  0  0  0
 19 20  2  0  0  0  0
 29 32  1  0  0  0  0
  8 11  1  0  0  0  0
 38 39  1  0  0  0  0
 18 21  1  0  0  0  0
 21 22  1  0  0  0  0
 28 29  1  0  0  0  0
  7  8  1  0  0  0  0
 17 18  1  0  0  0  0
  3  4  1  0  0  0  0
  3  5  1  0  0  0  0
  3  6  1  0  0  0  0
 32 35  1  0  0  0  0
 32 36  1  0  0  0  0
 32 37  1  0  0  0  0
 11 14  1  0  0  0  0
 11 15  1  0  0  0  0
 11 16  1  0  0  0  0
 39 41  1  0  0  0  0
 39 42  1  0  0  0  0
 39 43  1  0  0  0  0
 21 25  1  0  0  0  0
 21 26  1  0  0  0  0
 29 34  1  0  0  0  0
  8 13  1  0  0  0  0
 18 24  1  0  0  0  0
 38 40  1  0  0  0  0
  7 12  1  0  0  0  0
 28 33  1  0  0  0  0
 17 23  1  0  0  0  0
 22 27  1  0  0  0  0
M  END
$$$$

  -OEChem-05262214473D

 43 42  0     1  0  0  0  0  0999 V2000
   -2.8661   -4.7415    2.2943 C   0  0  0  0  0  0  0  0  0  0  0  0
   -2.0233   -5.5727    2.6109 O   0  0  0  0  0  0  0  0  0  0  0  0
   -4.3078   -5.0134    2.5698 C   0  0  0  0  0  0  0  0  0  0  0  0
   -4.8057   -5.5295    1.7332 H   0  0  0  0  0  0  0  0  0  0  0  0
   -4.4526   -5.6688    3.4436 H   0  0  0  0  0  0  0  0  0  0  0  0
   -4.9255   -4.1233    2.7700 H   0  0  0  0  0  0  0  0  0  0  0  0
   -2.6241   -3.5219    1.6838 N   0  0  0  0  0  0  0  0  0  0  0  0
   -1.3070   -3.0608    1.3315 C   0  0  2  0  0  0  0  0  0  0  0  0
   -1.3931   -1.5680    1.0422 C   0  0  0  0  0  0  0  0  0  0  0  0
   -2.4385   -1.0059    0.7226 O   0  0  0  0  0  0  0  0  0  0  0  0
   -0.7590   -3.8164    0.1309 C   0  0  0  0  0  0  0  0  0  0  0  0
   -3.4188   -2.9207    1.4735 H   0  0  0  0  0  0  0  0  0  0  0  0
   -0.6690   -3.2277    2.2062 H   0  0  0  0  0  0  0  0  0  0  0  0
   -1.3852   -3.6613   -0.7553 H   0  0  0  0  0  0  0  0  0  0  0  0
    0.2542   -3.4843   -0.1182 H   0  0  0  0  0  0  0  0  0  0  0  0
   -0.7257   -4.8930    0.3300 H   0  0  0  0  0  0  0  0  0  0  0  0
   -0.1563   -0.9420    1.1402 N   0  0  0  0  0  0  0  0  0  0  0  0
    0.0261    0.4671    0.9001 C   0  0  2  0  0  0  0  0  0  0  0  0
    0.5802    1.1169    2.1664 C   0  0  0  0  0  0  0  0  0  0  0  0
    0.1238    0.8971    3.2866 O   0  0  0  0  0  0  0  0  0  0  0  0
   -1.2471    1.1393    0.3803 C   0  0  0  0  0  0  0  0  0  0  0  0
   -1.7726    0.5467   -1.2614 S   0  0  0  0  0  0  0  0  0  0  0  0
    0.6533   -1.4855    1.4300 H   0  0  0  0  0  0  0  0  0  0  0  0
    0.8008    0.5363    0.1264 H   0  0  0  0  0  0  0  0  0  0  0  0
   -2.0798    0.9713    1.0711 H   0  0  0  0  0  0  0  0  0  0  0  0
   -1.0936    2.2212    0.3046 H   0  0  0  0  0  0  0  0  0  0  0  0
   -2.8532    1.3329   -1.3486 H   0  0  0  0  0  0  0  0  0  0  0  0
    1.6259    1.9879    1.8950 N   0  0  0  0  0  0  0  0  0  0  0  0
    2.3083    2.7316    2.9280 C   0  0  2  0  0  0  0  0  0  0  0  0
    3.2760    3.6946    2.2529 C   0  0  0  0  0  0  0  0  0  0  0  0
    3.7071    3.5241    1.1144 O   0  0  0  0  0  0  0  0  0  0  0  0
    3.0424    1.8045    3.8841 C   0  0  0  0  0  0  0  0  0  0  0  0
    1.9616    2.0841    0.9413 H   0  0  0  0  0  0  0  0  0  0  0  0
    1.5425    3.3003    3.4667 H   0  0  0  0  0  0  0  0  0  0  0  0
    3.8138    1.2263    3.3624 H   0  0  0  0  0  0  0  0  0  0  0  0
    3.5356    2.3681    4.6830 H   0  0  0  0  0  0  0  0  0  0  0  0
    2.3495    1.0931    4.3463 H   0  0  0  0  0  0  0  0  0  0  0  0
    3.6351    4.7439    3.0872 N   0  0  0  0  0  0  0  0  0  0  0  0
    4.5522    5.7834    2.6818 C   0  0  0  0  0  0  0  0  0  0  0  0
    3.2141    4.8162    4.0087 H   0  0  0  0  0  0  0  0  0  0  0  0
    5.5743    5.5087    2.9816 H   0  0  0  0  0  0  0  0  0  0  0  0
    4.5105    5.9035    1.5892 H   0  0  0  0  0  0  0  0  0  0  0  0
    4.2703    6.7302    3.1658 H   0  0  0  0  0  0  0  0  0  0  0  0
  1  3  1  0  0  0  0
  1  7  1  0  0  0  0
  1  2  2  0  0  0  0
 29 30  1  0  0  0  0
 30 38  1  0  0  0  0
 30 31  2  0  0  0  0
  8  9  1  0  0  0  0
  9 17  1  0  0  0  0
  9 10  2  0  0  0  0
 18 19  1  0  0  0  0
 19 28  1  0  0  0  0
 19 20  2  0  0  0  0
 29 32  1  0  0  0  0
  8 11  1  0  0  0  0
 38 39  1  0  0  0  0
 18 21  1  0  0  0  0
 21 22  1  0  0  0  0
 28 29  1  0  0  0  0
  7  8  1  0  0  0  0
 17 18  1  0  0  0  0
  3  4  1  0  0  0  0
  3  5  1  0  0  0  0
  3  6  1  0  0  0  0
 32 35  1  0  0  0  0
 32 36  1  0  0  0  0
 32 37  1  0  0  0  0
 11 14  1  0  0  0  0
 11 15  1  0  0  0  0
 11 16  1  0  0  0  0
 39 41  1  0  0  0  0
 39 42  1  0  0  0  0
 39 43  1  0  0  0  0
 21 25  1  0  0  0  0
 21 26  1  0  0  0  0
 29 34  1  0  0  0  0
  8 13  1  0  0  0  0
 18 24  1  0  0  0  0
 38 40  1  0  0  0  0
  7 12  1  0  0  0  0
 28 33  1  0  0  0  0
 17 23  1  0  0  0  0
 22 27  1  0  0  0  0
M  END
$$$$

  -OEChem-05262214473D

 43 42  0     1  0  0  0  0  0999 V2000
   -2.8661   -4.7415    2.2943 C   0  0  0  0  0  0  0  0  0  0  0  0
   -2.0233   -5.5727    2.6109 O   0  0  0  0  0  0  0  0  0  0  0  0
   -4.3078   -5.0134    2.5698 C   0  0  0  0  0  0  0  0  0  0  0  0
   -4.8057   -5.5295    1.7332 H   0  0  0  0  0  0  0  0  0  0  0  0
   -4.4526   -5.6688    3.4436 H   0  0  0  0  0  0  0  0  0  0  0  0
   -4.9255   -4.1233    2.7700 H   0  0  0  0  0  0  0  0  0  0  0  0
   -2.6241   -3.5219    1.6838 N   0  0  0  0  0  0  0  0  0  0  0  0
   -1.3070   -3.0608    1.3315 C   0  0  2  0  0  0  0  0  0  0  0  0
   -1.3931   -1.5680    1.0422 C   0  0  0  0  0  0  0  0  0  0  0  0
   -2.4385   -1.0059    0.7226 O   0  0  0  0  0  0  0  0  0  0  0  0
   -0.7590   -3.8164    0.1309 C   0  0  0  0  0  0  0  0  0  0  0  0
   -3.4188   -2.9207    1.4735 H   0  0  0  0  0  0  0  0  0  0  0  0
   -0.6690   -3.2277    2.2062 H   0  0  0  0  0  0  0  0  0  0  0  0
   -1.3852   -3.6613   -0.7553 H   0  0  0  0  0  0  0  0  0  0  0  0
    0.2542   -3.4843   -0.1182 H   0  0  0  0  0  0  0  0  0  0  0  0
   -0.7257   -4.8930    0.3300 H   0  0  0  0  0  0  0  0  0  0  0  0
   -0.1563   -0.9420    1.1402 N   0  0  0  0  0  0  0  0  0  0  0  0
    0.0261    0.4671    0.9001 C   0  0  2  0  0  0  0  0  0  0  0  0
    0.5802    1.1169    2.1664 C   0  0  0  0  0  0  0  0  0  0  0  0
    0.3181    0.7112    3.2969 O   0  0  0  0  0  0  0  0  0  0  0  0
   -1.2471    1.1393    0.3803 C   0  0  0  0  0  0  0  0  0  0  0  0
   -1.7726    0.5467   -1.2614 S   0  0  0  0  0  0  0  0  0  0  0  0
    0.6533   -1.4855    1.4300 H   0  0  0  0  0  0  0  0  0  0  0  0
    0.8008    0.5363    0.1264 H   0  0  0  0  0  0  0  0  0  0  0  0
   -2.0798    0.9713    1.0711 H   0  0  0  0  0  0  0  0  0  0  0  0
   -1.0936    2.2212    0.3046 H   0  0  0  0  0  0  0  0  0  0  0  0
   -2.8532    1.3329   -1.3486 H   0  0  0  0  0  0  0  0  0  0  0  0
    1.3799    2.2157    1.8858 N   0  0  0  0  0  0  0  0  0  0  0  0
    2.0108    3.0041    2.9183 C   0  0  2  0  0  0  0  0  0  0  0  0
    2.6670    4.2082    2.2558 C   0  0  0  0  0  0  0  0  0  0  0  0
    2.9840    4.2305    1.0683 O   0  0  0  0  0  0  0  0  0  0  0  0
    3.0324    2.1860    3.6928 C   0  0  0  0  0  0  0  0  0  0  0  0
    1.5708    2.4612    0.9188 H   0  0  0  0  0  0  0  0  0  0  0  0
    1.2134    3.3444    3.5880 H   0  0  0  0  0  0  0  0  0  0  0  0
    3.8391    1.8362    3.0384 H   0  0  0  0  0  0  0  0  0  0  0  0
    3.4891    2.7768    4.4936 H   0  0  0  0  0  0  0  0  0  0  0  0
    2.5645    1.3043    4.1439 H   0  0  0  0  0  0  0  0  0  0  0  0
    2.8963    5.2389    3.1565 N   0  0  0  0  0  0  0  0  0  0  0  0
    3.5199    6.4842    2.7740 C   0  0  0  0  0  0  0  0  0  0  0  0
    2.5835    5.1412    4.1179 H   0  0  0  0  0  0  0  0  0  0  0  0
    4.6053    6.4174    2.9393 H   0  0  0  0  0  0  0  0  0  0  0  0
    3.3227    6.6812    1.7099 H   0  0  0  0  0  0  0  0  0  0  0  0
    3.1064    7.3029    3.3812 H   0  0  0  0  0  0  0  0  0  0  0  0
  1  3  1  0  0  0  0
  1  7  1  0  0  0  0
  1  2  2  0  0  0  0
 29 30  1  0  0  0  0
 30 38  1  0  0  0  0
 30 31  2  0  0  0  0
  8  9  1  0  0  0  0
  9 17  1  0  0  0  0
  9 10  2  0  0  0  0
 18 19  1  0  0  0  0
 19 28  1  0  0  0  0
 19 20  2  0  0  0  0
 29 32  1  0  0  0  0
  8 11  1  0  0  0  0
 38 39  1  0  0  0  0
 18 21  1  0  0  0  0
 21 22  1  0  0  0  0
 28 29  1  0  0  0  0
  7  8  1  0  0  0  0
 17 18  1  0  0  0  0
  3  4  1  0  0  0  0
  3  5  1  0  0  0  0
  3  6  1  0  0  0  0
 32 35  1  0  0  0  0
 32 36  1  0  0  0  0
 32 37  1  0  0  0  0
 11 14  1  0  0  0  0
 11 15  1  0  0  0  0
 11 16  1  0  0  0  0
 39 41  1  0  0  0  0
 39 42  1  0  0  0  0
 39 43  1  0  0  0  0
 21 25  1  0  0  0  0
 21 26  1  0  0  0  0
 29 34  1  0  0  0  0
  8 13  1  0  0  0  0
 18 24  1  0  0  0  0
 38 40  1  0  0  0  0
  7 12  1  0  0  0  0
 28 33  1  0  0  0  0
 17 23  1  0  0  0  0
 22 27  1  0  0  0  0
M  END
$$$$

  -OEChem-05262214473D

 43 42  0     1  0  0  0  0  0999 V2000
   -2.8661   -4.7415    2.2943 C   0  0  0  0  0  0  0  0  0  0  0  0
   -2.0233   -5.5727    2.6109 O   0  0  0  0  0  0  0  0  0  0  0  0
   -4.3078   -5.0134    2.5698 C   0  0  0  0  0  0  0  0  0  0  0  0
   -4.8057   -5.5295    1.7332 H   0  0  0  0  0  0  0  0  0  0  0  0
   -4.4526   -5.6688    3.4436 H   0  0  0  0  0  0  0  0  0  0  0  0
   -4.9255   -4.1233    2.7700 H   0  0  0  0  0  0  0  0  0  0  0  0
   -2.6241   -3.5219    1.6838 N   0  0  0  0  0  0  0  0  0  0  0  0
   -1.3070   -3.0608    1.3315 C   0  0  2  0  0  0  0  0  0  0  0  0
   -1.3931   -1.5680    1.0422 C   0  0  0  0  0  0  0  0  0  0  0  0
   -2.4385   -1.0059    0.7226 O   0  0  0  0  0  0  0  0  0  0  0  0
   -0.7590   -3.8164    0.1309 C   0  0  0  0  0  0  0  0  0  0  0  0
   -3.4188   -2.9207    1.4735 H   0  0  0  0  0  0  0  0  0  0  0  0
   -0.6690   -3.2277    2.2062 H   0  0  0  0  0  0  0  0  0  0  0  0
   -1.3852   -3.6613   -0.7553 H   0  0  0  0  0  0  0  0  0  0  0  0
    0.2542   -3.4843   -0.1182 H   0  0  0  0  0  0  0  0  0  0  0  0
   -0.7257   -4.8930    0.3300 H   0  0  0  0  0  0  0  0  0  0  0  0
   -0.1563   -0.9420    1.1402 N   0  0  0  0  0  0  0  0  0  0  0  0
    0.0261    0.4671    0.9001 C   0  0  2  0  0  0  0  0  0  0  0  0
    0.5802    1.1169    2.1664 C   0  0  0  0  0  0  0  0  0  0  0  0
    0.5468    0.5723    3.2681 O   0  0  0  0  0  0  0  0  0  0  0  0
   -1.2471    1.1393    0.3803 C   0  0  0  0  0  0  0  0  0  0  0  0
   -1.7726    0.5467   -1.2614 S   0  0  0  0  0  0  0  0  0  0  0  0
    0.6533   -1.4855    1.4300 H   0  0  0  0  0  0  0  0  0  0  0  0
    0.8008    0.5363    0.1264 H   0  0  0  0  0  0  0  0  0  0  0  0
   -2.0798    0.9713    1.0711 H   0  0  0  0  0  0  0  0  0  0  0  0
   -1.0936    2.2212    0.3046 H   0  0  0  0  0  0  0  0  0  0  0  0
   -2.8532    1.3329   -1.3486 H   0  0  0  0  0  0  0  0  0  0  0  0
    1.0925    2.3838    1.9253 N   0  0  0  0  0  0  0  0  0  0  0  0
    1.6639    3.2044    2.9674 C   0  0  2  0  0  0  0  0  0  0  0  0
    1.9689    4.5734    2.3739 C   0  0  0  0  0  0  0  0  0  0  0  0
    2.1290    4.7619    1.1698 O   0  0  0  0  0  0  0  0  0  0  0  0
    2.9197    2.5702    3.5449 C   0  0  0  0  0  0  0  0  0  0  0  0
    1.1100    2.7436    0.9756 H   0  0  0  0  0  0  0  0  0  0  0  0
    0.8995    3.3051    3.7455 H   0  0  0  0  0  0  0  0  0  0  0  0
    3.6971    2.4612    2.7799 H   0  0  0  0  0  0  0  0  0  0  0  0
    3.3357    3.1794    4.3542 H   0  0  0  0  0  0  0  0  0  0  0  0
    2.7045    1.5733    3.9445 H   0  0  0  0  0  0  0  0  0  0  0  0
    2.0841    5.5520    3.3512 N   0  0  0  0  0  0  0  0  0  0  0  0
    2.3825    6.9310    3.0424 C   0  0  0  0  0  0  0  0  0  0  0  0
    1.9167    5.3095    4.3233 H   0  0  0  0  0  0  0  0  0  0  0  0
    3.4697    7.0910    3.0906 H   0  0  0  0  0  0  0  0  0  0  0  0
    2.0219    7.1662    2.0302 H   0  0  0  0  0  0  0  0  0  0  0  0
    1.8829    7.5862    3.7712 H   0  0  0  0  0  0  0  0  0  0  0  0
  1  3  1  0  0  0  0
  1  7  1  0  0  0  0
  1  2  2  0  0  0  0
 29 30  1  0  0  0  0
 30 38  1  0  0  0  0
 30 31  2  0  0  0  0
  8  9  1  0  0  0  0
  9 17  1  0  0  0  0
  9 10  2  0  0  0  0
 18 19  1  0  0  0  0
 19 28  1  0  0  0  0
 19 20  2  0  0  0  0
 29 32  1  0  0  0  0
  8 11  1  0  0  0  0
 38 39  1  0  0  0  0
 18 21  1  0  0  0  0
 21 22  1  0  0  0  0
 28 29  1  0  0  0  0
  7  8  1  0  0  0  0
 17 18  1  0  0  0  0
  3  4  1  0  0  0  0
  3  5  1  0  0  0  0
  3  6  1  0  0  0  0
 32 35  1  0  0  0  0
 32 36  1  0  0  0  0
 32 37  1  0  0  0  0
 11 14  1  0  0  0  0
 11 15  1  0  0  0  0
 11 16  1  0  0  0  0
 39 41  1  0  0  0  0
 39 42  1  0  0  0  0
 39 43  1  0  0  0  0
 21 25  1  0  0  0  0
 21 26  1  0  0  0  0
 29 34  1  0  0  0  0
  8 13  1  0  0  0  0
 18 24  1  0  0  0  0
 38 40  1  0  0  0  0
  7 12  1  0  0  0  0
 28 33  1  0  0  0  0
 17 23  1  0  0  0  0
 22 27  1  0  0  0  0
M  END
$$$$

  -OEChem-05262214473D

 43 42  0     1  0  0  0  0  0999 V2000
   -2.8661   -4.7415    2.2943 C   0  0  0  0  0  0  0  0  0  0  0  0
   -2.0233   -5.5727    2.6109 O   0  0  0  0  0  0  0  0  0  0  0  0
   -4.3078   -5.0134    2.5698 C   0  0  0  0  0  0  0  0  0  0  0  0
   -4.8057   -5.5295    1.7332 H   0  0  0  0  0  0  0  0  0  0  0  0
   -4.4526   -5.6688    3.4436 H   0  0  0  0  0  0  0  0  0  0  0  0
   -4.9255   -4.1233    2.7700 H   0  0  0  0  0  0  0  0  0  0  0  0
   -2.6241   -3.5219    1.6838 N   0  0  0  0  0  0  0  0  0  0  0  0
   -1.3070   -3.0608    1.3315 C   0  0  2  0  0  0  0  0  0  0  0  0
   -1.3931   -1.5680    1.0422 C   0  0  0  0  0  0  0  0  0  0  0  0
   -2.4385   -1.0059    0.7226 O   0  0  0  0  0  0  0  0  0  0  0  0
   -0.7590   -3.8164    0.1309 C   0  0  0  0  0  0  0  0  0  0  0  0
   -3.4188   -2.9207    1.4735 H   0  0  0  0  0  0  0  0  0  0  0  0
   -0.6690   -3.2277    2.2062 H   0  0  0  0  0  0  0  0  0  0  0  0
   -1.3852   -3.6613   -0.7553 H   0  0  0  0  0  0  0  0  0  0  0  0
    0.2542   -3.4843   -0.1182 H   0  0  0  0  0  0  0  0  0  0  0  0
   -0.7257   -4.8930    0.3300 H   0  0  0  0  0  0  0  0  0  0  0  0
   -0.1563   -0.9420    1.1402 N   0  0  0  0  0  0  0  0  0  0  0  0
    0.0261    0.4671    0.9001 C   0  0  2  0  0  0  0  0  0  0  0  0
    0.9120    1.0458    2.0015 C   0  0  0  0  0  0  0  0  0  0  0  0
    1.3507    0.3718    2.9314 O   0  0  0  0  0  0  0  0  0  0  0  0
   -1.3037    1.2077    0.7390 C   0  0  0  0  0  0  0  0  0  0  0  0
   -2.2540    0.6994   -0.7311 S   0  0  0  0  0  0  0  0  0  0  0  0
    0.6533   -1.4855    1.4300 H   0  0  0  0  0  0  0  0  0  0  0  0
    0.5828    0.5357   -0.0428 H   0  0  0  0  0  0  0  0  0  0  0  0
   -1.9422    1.0460    1.6136 H   0  0  0  0  0  0  0  0  0  0  0  0
   -1.1233    2.2849    0.6563 H   0  0  0  0  0  0  0  0  0  0  0  0
   -3.2831    1.5298   -0.5197 H   0  0  0  0  0  0  0  0  0  0  0  0
    1.1334    2.4058    1.8368 N   0  0  0  0  0  0  0  0  0  0  0  0
    1.9319    3.1820    2.7563 C   0  0  2  0  0  0  0  0  0  0  0  0
    1.8212    4.6469    2.3545 C   0  0  0  0  0  0  0  0  0  0  0  0
    1.5085    5.0101    1.2225 O   0  0  0  0  0  0  0  0  0  0  0  0
    3.3824    2.7252    2.7514 C   0  0  0  0  0  0  0  0  0  0  0  0
    0.7590    2.8778    1.0190 H   0  0  0  0  0  0  0  0  0  0  0  0
    1.4951    3.0416    3.7510 H   0  0  0  0  0  0  0  0  0  0  0  0
    3.8371    2.8583    1.7629 H   0  0  0  0  0  0  0  0  0  0  0  0
    3.9805    3.2956    3.4698 H   0  0  0  0  0  0  0  0  0  0  0  0
    3.4577    1.6639    3.0116 H   0  0  0  0  0  0  0  0  0  0  0  0
    2.1547    5.5006    3.3967 N   0  0  0  0  0  0  0  0  0  0  0  0
    2.1396    6.9385    3.2618 C   0  0  0  0  0  0  0  0  0  0  0  0
    2.3835    5.1123    4.3069 H   0  0  0  0  0  0  0  0  0  0  0  0
    3.1399    7.2903    2.9692 H   0  0  0  0  0  0  0  0  0  0  0  0
    1.4097    7.2268    2.4911 H   0  0  0  0  0  0  0  0  0  0  0  0
    1.8575    7.3938    4.2226 H   0  0  0  0  0  0  0  0  0  0  0  0
  1  3  1  0  0  0  0
  1  7  1  0  0  0  0
  1  2  2  0  0  0  0
 29 30  1  0  0  0  0
 30 38  1  0  0  0  0
 30 31  2  0  0  0  0
  8  9  1  0  0  0  0
  9 17  1  0  0  0  0
  9 10  2  0  0  0  0
 18 19  1  0  0  0  0
 19 28  1  0  0  0  0
 19 20  2  0  0  0  0
 29 32  1  0  0  0  0
  8 11  1  0  0  0  0
 38 39  1  0  0  0  0
 18 21  1  0  0  0  0
 21 22  1  0  0  0  0
 28 29  1  0  0  0  0
  7  8  1  0  0  0  0
 17 18  1  0  0  0  0
  3  4  1  0  0  0  0
  3  5  1  0  0  0  0
  3  6  1  0  0  0  0
 32 35  1  0  0  0  0
 32 36  1  0  0  0  0
 32 37  1  0  0  0  0
 11 14  1  0  0  0  0
 11 15  1  0  0  0  0
 11 16  1  0  0  0  0
 39 41  1  0  0  0  0
 39 42  1  0  0  0  0
 39 43  1  0  0  0  0
 21 25  1  0  0  0  0
 21 26  1  0  0  0  0
 29 34  1  0  0  0  0
  8 13  1  0  0  0  0
 18 24  1  0  0  0  0
 38 40  1  0  0  0  0
  7 12  1  0  0  0  0
 28 33  1  0  0  0  0
 17 23  1  0  0  0  0
 22 27  1  0  0  0  0
M  END
$$$$

  -OEChem-05262214473D

 43 42  0     1  0  0  0  0  0999 V2000
   -2.8661   -4.7415    2.2943 C   0  0  0  0  0  0  0  0  0  0  0  0
   -2.0233   -5.5727    2.6109 O   0  0  0  0  0  0  0  0  0  0  0  0
   -4.3078   -5.0134    2.5698 C   0  0  0  0  0  0  0  0  0  0  0  0
   -4.8057   -5.5295    1.7332 H   0  0  0  0  0  0  0  0  0  0  0  0
   -4.4526   -5.6688    3.4436 H   0  0  0  0  0  0  0  0  0  0  0  0
   -4.9255   -4.1233    2.7700 H   0  0  0  0  0  0  0  0  0  0  0  0
   -2.6241   -3.5219    1.6838 N   0  0  0  0  0  0  0  0  0  0  0  0
   -1.3070   -3.0608    1.3315 C   0  0  2  0  0  0  0  0  0  0  0  0
   -1.3931   -1.5680    1.0422 C   0  0  0  0  0  0  0  0  0  0  0  0
   -2.4385   -1.0059    0.7226 O   0  0  0  0  0  0  0  0  0  0  0  0
   -0.7590   -3.8164    0.1309 C   0  0  0  0  0  0  0  0  0  0  0  0
   -3.4188   -2.9207    1.4735 H   0  0  0  0  0  0  0  0  0  0  0  0
   -0.6690   -3.2277    2.2062 H   0  0  0  0  0  0  0  0  0  0  0  0
   -1.3852   -3.6613   -0.7553 H   0  0  0  0  0  0  0  0  0  0  0  0
    0.2542   -3.4843   -0.1182 H   0  0  0  0  0  0  0  0  0  0  0  0
   -0.7257   -4.8930    0.3300 H   0  0  0  0  0  0  0  0  0  0  0  0
   -0.1563   -0.9420    1.1402 N   0  0  0  0  0  0  0  0  0  0  0  0
    0.0261    0.4671    0.9001 C   0  0  2  0  0  0  0  0  0  0  0  0
    0.9120    1.0458    2.0015 C   0  0  0  0  0  0  0  0  0  0  0  0
    1.5659    0.3457    2.7720 O   0  0  0  0  0  0  0  0  0  0  0  0
   -1.3037    1.2077    0.7390 C   0  0  0  0  0  0  0  0  0  0  0  0
   -2.2540    0.6994   -0.7311 S   0  0  0  0  0  0  0  0  0  0  0  0
    0.6533   -1.4855    1.4300 H   0  0  0  0  0  0  0  0  0  0  0  0
    0.5828    0.5357   -0.0428 H   0  0  0  0  0  0  0  0  0  0  0  0
   -1.9422    1.0460    1.6136 H   0  0  0  0  0  0  0  0  0  0  0  0
   -1.1233    2.2849    0.6563 H   0  0  0  0  0  0  0  0  0  0  0  0
   -3.2831    1.5298   -0.5197 H   0  0  0  0  0  0  0  0  0  0  0  0
    0.8662    2.4322    2.0377 N   0  0  0  0  0  0  0  0  0  0  0  0
    1.6109    3.2114    2.9991 C   0  0  2  0  0  0  0  0  0  0  0  0
    1.1952    4.6686    2.8466 C   0  0  0  0  0  0  0  0  0  0  0  0
    0.6973    5.1199    1.8173 O   0  0  0  0  0  0  0  0  0  0  0  0
    3.1099    3.0502    2.7998 C   0  0  0  0  0  0  0  0  0  0  0  0
    0.3239    2.9330    1.3400 H   0  0  0  0  0  0  0  0  0  0  0  0
    1.3208    2.8502    3.9917 H   0  0  0  0  0  0  0  0  0  0  0  0
    3.4194    3.4068    1.8106 H   0  0  0  0  0  0  0  0  0  0  0  0
    3.6730    3.6189    3.5472 H   0  0  0  0  0  0  0  0  0  0  0  0
    3.4028    1.9978    2.8803 H   0  0  0  0  0  0  0  0  0  0  0  0
    1.4852    5.4154    3.9799 N   0  0  0  0  0  0  0  0  0  0  0  0
    1.1977    6.8274    4.0778 C   0  0  0  0  0  0  0  0  0  0  0  0
    1.8807    4.9547    4.7942 H   0  0  0  0  0  0  0  0  0  0  0  0
    2.0795    7.4043    3.7622 H   0  0  0  0  0  0  0  0  0  0  0  0
    0.3461    7.0741    3.4268 H   0  0  0  0  0  0  0  0  0  0  0  0
    0.9483    7.0794    5.1191 H   0  0  0  0  0  0  0  0  0  0  0  0
  1  3  1  0  0  0  0
  1  7  1  0  0  0  0
  1  2  2  0  0  0  0
 29 30  1  0  0  0  0
 30 38  1  0  0  0  0
 30 31  2  0  0  0  0
  8  9  1  0  0  0  0
  9 17  1  0  0  0  0
  9 10  2  0  0  0  0
 18 19  1  0  0  0  0
 19 28  1  0  0  0  0
 19 20  2  0  0  0  0
 29 32  1  0  0  0  0
  8 11  1  0  0  0  0
 38 39  1  0  0  0  0
 18 21  1  0  0  0  0
 21 22  1  0  0  0  0
 28 29  1  0  0  0  0
  7  8  1  0  0  0  0
 17 18  1  0  0  0  0
  3  4  1  0  0  0  0
  3  5  1  0  0  0  0
  3  6  1  0  0  0  0
 32 35  1  0  0  0  0
 32 36  1  0  0  0  0
 32 37  1  0  0  0  0
 11 14  1  0  0  0  0
 11 15  1  0  0  0  0
 11 16  1  0  0  0  0
 39 41  1  0  0  0  0
 39 42  1  0  0  0  0
 39 43  1  0  0  0  0
 21 25  1  0  0  0  0
 21 26  1  0  0  0  0
 29 34  1  0  0  0  0
  8 13  1  0  0  0  0
 18 24  1  0  0  0  0
 38 40  1  0  0  0  0
  7 12  1  0  0  0  0
 28 33  1  0  0  0  0
 17 23  1  0  0  0  0
 22 27  1  0  0  0  0
M  END
$$$$

  -OEChem-05262214473D

 43 42  0     1  0  0  0  0  0999 V2000
   -2.8661   -4.7415    2.2943 C   0  0  0  0  0  0  0  0  0  0  0  0
   -2.0233   -5.5727    2.6109 O   0  0  0  0  0  0  0  0  0  0  0  0
   -4.3078   -5.0134    2.5698 C   0  0  0  0  0  0  0  0  0  0  0  0
   -4.8057   -5.5295    1.7332 H   0  0  0  0  0  0  0  0  0  0  0  0
   -4.4526   -5.6688    3.4436 H   0  0  0  0  0  0  0  0  0  0  0  0
   -4.9255   -4.1233    2.7700 H   0  0  0  0  0  0  0  0  0  0  0  0
   -2.6241   -3.5219    1.6838 N   0  0  0  0  0  0  0  0  0  0  0  0
   -1.3070   -3.0608    1.3315 C   0  0  2  0  0  0  0  0  0  0  0  0
   -1.3931   -1.5680    1.0422 C   0  0  0  0  0  0  0  0  0  0  0  0
   -2.4385   -1.0059    0.7226 O   0  0  0  0  0  0  0  0  0  0  0  0
   -0.7590   -3.8164    0.1309 C   0  0  0  0  0  0  0  0  0  0  0  0
   -3.4188   -2.9207    1.4735 H   0  0  0  0  0  0  0  0  0  0  0  0
   -0.6690   -3.2277    2.2062 H   0  0  0  0  0  0  0  0  0  0  0  0
   -1.3852   -3.6613   -0.7553 H   0  0  0  0  0  0  0  0  0  0  0  0
    0.2542   -3.4843   -0.1182 H   0  0  0  0  0  0  0  0  0  0  0  0
   -0.7257   -4.8930    0.3300 H   0  0  0  0  0  0  0  0  0  0  0  0
   -0.1563   -0.9420    1.1402 N   0  0  0  0  0  0  0  0  0  0  0  0
    0.0261    0.4671    0.9001 C   0  0  2  0  0  0  0  0  0  0  0  0
    0.9120    1.0458    2.0015 C   0  0  0  0  0  0  0  0  0  0  0  0
    1.7631    0.3846    2.5929 O   0  0  0  0  0  0  0  0  0  0  0  0
   -1.3037    1.2077    0.7390 C   0  0  0  0  0  0  0  0  0  0  0  0
   -2.2540    0.6994   -0.7311 S   0  0  0  0  0  0  0  0  0  0  0  0
    0.6533   -1.4855    1.4300 H   0  0  0  0  0  0  0  0  0  0  0  0
    0.5828    0.5357   -0.0428 H   0  0  0  0  0  0  0  0  0  0  0  0
   -1.9422    1.0460    1.6136 H   0  0  0  0  0  0  0  0  0  0  0  0
   -1.1233    2.2849    0.6563 H   0  0  0  0  0  0  0  0  0  0  0  0
   -3.2831    1.5298   -0.5197 H   0  0  0  0  0  0  0  0  0  0  0  0
    0.6230    2.3778    2.2620 N   0  0  0  0  0  0  0  0  0  0  0  0
    1.3192    3.1434    3.2694 C   0  0  2  0  0  0  0  0  0  0  0  0
    0.6346    4.4989    3.3866 C   0  0  0  0  0  0  0  0  0  0  0  0
   -0.0485    4.9853    2.4878 O   0  0  0  0  0  0  0  0  0  0  0  0
    2.7908    3.3060    2.9221 C   0  0  0  0  0  0  0  0  0  0  0  0
   -0.0752    2.8569    1.7010 H   0  0  0  0  0  0  0  0  0  0  0  0
    1.2118    2.5967    4.2126 H   0  0  0  0  0  0  0  0  0  0  0  0
    2.9183    3.8516    1.9800 H   0  0  0  0  0  0  0  0  0  0  0  0
    3.3232    3.8621    3.7008 H   0  0  0  0  0  0  0  0  0  0  0  0
    3.2747    2.3298    2.8089 H   0  0  0  0  0  0  0  0  0  0  0  0
    0.9116    5.1206    4.5961 N   0  0  0  0  0  0  0  0  0  0  0  0
    0.3887    6.4218    4.9416 C   0  0  0  0  0  0  0  0  0  0  0  0
    1.4722    4.6354    5.2905 H   0  0  0  0  0  0  0  0  0  0  0  0
    1.1117    7.1975    4.6493 H   0  0  0  0  0  0  0  0  0  0  0  0
   -0.5610    6.5876    4.4119 H   0  0  0  0  0  0  0  0  0  0  0  0
    0.2167    6.4714    6.0270 H   0  0  0  0  0  0  0  0  0  0  0  0
  1  3  1  0  0  0  0
  1  7  1  0  0  0  0
  1  2  2  0  0  0  0
 29 30  1  0  0  0  0
 30 38  1  0  0  0  0
 30 31  2  0  0  0  0
  8  9  1  0  0  0  0
  9 17  1  0  0  0  0
  9 10  2  0  0  0  0
 18 19  1  0  0  0  0
 19 28  1  0  0  0  0
 19 20  2  0  0  0  0
 29 32  1  0  0  0  0
  8 11  1  0  0  0  0
 38 39  1  0  0  0  0
 18 21  1  0  0  0  0
 21 22  1  0  0  0  0
 28 29  1  0  0  0  0
  7  8  1  0  0  0  0
 17 18  1  0  0  0  0
  3  4  1  0  0  0  0
  3  5  1  0  0  0  0
  3  6  1  0  0  0  0
 32 35  1  0  0  0  0
 32 36  1  0  0  0  0
 32 37  1  0  0  0  0
 11 14  1  0  0  0  0
 11 15  1  0  0  0  0
 11 16  1  0  0  0  0
 39 41  1  0  0  0  0
 39 42  1  0  0  0  0
 39 43  1  0  0  0  0
 21 25  1  0  0  0  0
 21 26  1  0  0  0  0
 29 34  1  0  0  0  0
  8 13  1  0  0  0  0
 18 24  1  0  0  0  0
 38 40  1  0  0  0  0
  7 12  1  0  0  0  0
 28 33  1  0  0  0  0
 17 23  1  0  0  0  0
 22 27  1  0  0  0  0
M  END
$$$$

  -OEChem-05262214473D

 43 42  0     1  0  0  0  0  0999 V2000
   -2.8661   -4.7415    2.2943 C   0  0  0  0  0  0  0  0  0  0  0  0
   -2.0233   -5.5727    2.6109 O   0  0  0  0  0  0  0  0  0  0  0  0
   -4.3078   -5.0134    2.5698 C   0  0  0  0  0  0  0  0  0  0  0  0
   -4.8057   -5.5295    1.7332 H   0  0  0  0  0  0  0  0  0  0  0  0
   -4.4526   -5.6688    3.4436 H   0  0  0  0  0  0  0  0  0  0  0  0
   -4.9255   -4.1233    2.7700 H   0  0  0  0  0  0  0  0  0  0  0  0
   -2.6241   -3.5219    1.6838 N   0  0  0  0  0  0  0  0  0  0  0  0
   -1.3070   -3.0608    1.3315 C   0  0  2  0  0  0  0  0  0  0  0  0
   -1.3931   -1.5680    1.0422 C   0  0  0  0  0  0  0  0  0  0  0  0
   -2.4385   -1.0059    0.7226 O   0  0  0  0  0  0  0  0  0  0  0  0
   -0.7590   -3.8164    0.1309 C   0  0  0  0  0  0  0  0  0  0  0  0
   -3.4188   -2.9207    1.4735 H   0  0  0  0  0  0  0  0  0  0  0  0
   -0.6690   -3.2277    2.2062 H   0  0  0  0  0  0  0  0  0  0  0  0
   -1.3852   -3.6613   -0.7553 H   0  0  0  0  0  0  0  0  0  0  0  0
    0.2542   -3.4843   -0.1182 H   0  0  0  0  0  0  0  0  0  0  0  0
   -0.7257   -4.8930    0.3300 H   0  0  0  0  0  0  0  0  0  0  0  0
   -0.1563   -0.9420    1.1402 N   0  0  0  0  0  0  0  0  0  0  0  0
    0.0261    0.4671    0.9001 C   0  0  2  0  0  0  0  0  0  0  0  0
    0.9120    1.0458    2.0015 C   0  0  0  0  0  0  0  0  0  0  0  0
    1.9287    0.4858    2.4065 O   0  0  0  0  0  0  0  0  0  0  0  0
   -1.3037    1.2077    0.7390 C   0  0  0  0  0  0  0  0  0  0  0  0
   -2.2540    0.6994   -0.7311 S   0  0  0  0  0  0  0  0  0  0  0  0
    0.6533   -1.4855    1.4300 H   0  0  0  0  0  0  0  0  0  0  0  0
    0.5828    0.5357   -0.0428 H   0  0  0  0  0  0  0  0  0  0  0  0
   -1.9422    1.0460    1.6136 H   0  0  0  0  0  0  0  0  0  0  0  0
   -1.1233    2.2849    0.6563 H   0  0  0  0  0  0  0  0  0  0  0  0
   -3.2831    1.5298   -0.5197 H   0  0  0  0  0  0  0  0  0  0  0  0
    0.4201    2.2461    2.4943 N   0  0  0  0  0  0  0  0  0  0  0  0
    1.0766    2.9827    3.5490 C   0  0  2  0  0  0  0  0  0  0  0  0
    0.1778    4.1492    3.9377 C   0  0  0  0  0  0  0  0  0  0  0  0
   -0.6779    4.6154    3.1884 O   0  0  0  0  0  0  0  0  0  0  0  0
    2.4468    3.4751    3.1099 C   0  0  0  0  0  0  0  0  0  0  0  0
   -0.4111    2.6547    2.0774 H   0  0  0  0  0  0  0  0  0  0  0  0
    1.1756    2.2983    4.3985 H   0  0  0  0  0  0  0  0  0  0  0  0
    2.3679    4.1622    2.2595 H   0  0  0  0  0  0  0  0  0  0  0  0
    2.9550    4.0087    3.9199 H   0  0  0  0  0  0  0  0  0  0  0  0
    3.0819    2.6373    2.8024 H   0  0  0  0  0  0  0  0  0  0  0  0
    0.4730    4.6362    5.2034 N   0  0  0  0  0  0  0  0  0  0  0  0
   -0.2324    5.7493    5.7945 C   0  0  0  0  0  0  0  0  0  0  0  0
    1.1858    4.1763    5.7621 H   0  0  0  0  0  0  0  0  0  0  0  0
    0.3025    6.6839    5.5700 H   0  0  0  0  0  0  0  0  0  0  0  0
   -1.2498    5.8005    5.3795 H   0  0  0  0  0  0  0  0  0  0  0  0
   -0.2875    5.6112    6.8844 H   0  0  0  0  0  0  0  0  0  0  0  0
  1  3  1  0  0  0  0
  1  7  1  0  0  0  0
  1  2  2  0  0  0  0
 29 30  1  0  0  0  0
 30 38  1  0  0  0  0
 30 31  2  0  0  0  0
  8  9  1  0  0  0  0
  9 17  1  0  0  0  0
  9 10  2  0  0  0  0
 18 19  1  0  0  0  0
 19 28  1  0  0  0  0
 19 20  2  0  0  0  0
 29 32  1  0  0  0  0
  8 11  1  0  0  0  0
 38 39  1  0  0  0  0
 18 21  1  0  0  0  0
 21 22  1  0  0  0  0
 28 29  1  0  0  0  0
  7  8  1  0  0  0  0
 17 18  1  0  0  0  0
  3  4  1  0  0  0  0
  3  5  1  0  0  0  0
  3  6  1  0  0  0  0
 32 35  1  0  0  0  0
 32 36  1  0  0  0  0
 32 37  1  0  0  0  0
 11 14  1  0  0  0  0
 11 15  1  0  0  0  0
 11 16  1  0  0  0  0
 39 41  1  0  0  0  0
 39 42  1  0  0  0  0
 39 43  1  0  0  0  0
 21 25  1  0  0  0  0
 21 26  1  0  0  0  0
 29 34  1  0  0  0  0
  8 13  1  0  0  0  0
 18 24  1  0  0  0  0
 38 40  1  0  0  0  0
  7 12  1  0  0  0  0
 28 33  1  0  0  0  0
 17 23  1  0  0  0  0
 22 27  1  0  0  0  0
M  END
$$$$

  -OEChem-05262214473D

 43 42  0     1  0  0  0  0  0999 V2000
   -2.8661   -4.7415    2.2943 C   0  0  0  0  0  0  0  0  0  0  0  0
   -2.0233   -5.5727    2.6109 O   0  0  0  0  0  0  0  0  0  0  0  0
   -4.3078   -5.0134    2.5698 C   0  0  0  0  0  0  0  0  0  0  0  0
   -4.8057   -5.5295    1.7332 H   0  0  0  0  0  0  0  0  0  0  0  0
   -4.4526   -5.6688    3.4436 H   0  0  0  0  0  0  0  0  0  0  0  0
   -4.9255   -4.1233    2.7700 H   0  0  0  0  0  0  0  0  0  0  0  0
   -2.6241   -3.5219    1.6838 N   0  0  0  0  0  0  0  0  0  0  0  0
   -1.3070   -3.0608    1.3315 C   0  0  2  0  0  0  0  0  0  0  0  0
   -1.3931   -1.5680    1.0422 C   0  0  0  0  0  0  0  0  0  0  0  0
   -2.4385   -1.0059    0.7226 O   0  0  0  0  0  0  0  0  0  0  0  0
   -0.7590   -3.8164    0.1309 C   0  0  0  0  0  0  0  0  0  0  0  0
   -3.4188   -2.9207    1.4735 H   0  0  0  0  0  0  0  0  0  0  0  0
   -0.6690   -3.2277    2.2062 H   0  0  0  0  0  0  0  0  0  0  0  0
   -1.3852   -3.6613   -0.7553 H   0  0  0  0  0  0  0  0  0  0  0  0
    0.2542   -3.4843   -0.1182 H   0  0  0  0  0  0  0  0  0  0  0  0
   -0.7257   -4.8930    0.3300 H   0  0  0  0  0  0  0  0  0  0  0  0
   -0.1563   -0.9420    1.1402 N   0  0  0  0  0  0  0  0  0  0  0  0
    0.0261    0.4671    0.9001 C   0  0  2  0  0  0  0  0  0  0  0  0
    0.9120    1.0458    2.0015 C   0  0  0  0  0  0  0  0  0  0  0  0
    2.0516    0.6425    2.2254 O   0  0  0  0  0  0  0  0  0  0  0  0
   -1.3037    1.2077    0.7390 C   0  0  0  0  0  0  0  0  0  0  0  0
   -2.2540    0.6994   -0.7311 S   0  0  0  0  0  0  0  0  0  0  0  0
    0.6533   -1.4855    1.4300 H   0  0  0  0  0  0  0  0  0  0  0  0
    0.5828    0.5357   -0.0428 H   0  0  0  0  0  0  0  0  0  0  0  0
   -1.9422    1.0460    1.6136 H   0  0  0  0  0  0  0  0  0  0  0  0
   -1.1233    2.2849    0.6563 H   0  0  0  0  0  0  0  0  0  0  0  0
   -3.2831    1.5298   -0.5197 H   0  0  0  0  0  0  0  0  0  0  0  0
    0.2716    2.0462    2.7189 N   0  0  0  0  0  0  0  0  0  0  0  0
    0.8997    2.7403    3.8187 C   0  0  2  0  0  0  0  0  0  0  0  0
   -0.1441    3.6435    4.4624 C   0  0  0  0  0  0  0  0  0  0  0  0
   -1.1481    4.0355    3.8713 O   0  0  0  0  0  0  0  0  0  0  0  0
    2.1014    3.5461    3.3505 C   0  0  0  0  0  0  0  0  0  0  0  0
   -0.6609    2.3402    2.4435 H   0  0  0  0  0  0  0  0  0  0  0  0
    1.2144    1.9754    4.5369 H   0  0  0  0  0  0  0  0  0  0  0  0
    1.8056    4.3176    2.6301 H   0  0  0  0  0  0  0  0  0  0  0  0
    2.5934    4.0488    4.1897 H   0  0  0  0  0  0  0  0  0  0  0  0
    2.8376    2.8993    2.8612 H   0  0  0  0  0  0  0  0  0  0  0  0
    0.1993    3.9954    5.7602 N   0  0  0  0  0  0  0  0  0  0  0  0
   -0.6232    4.8558    6.5782 C   0  0  0  0  0  0  0  0  0  0  0  0
    1.0411    3.6086    6.1767 H   0  0  0  0  0  0  0  0  0  0  0  0
   -0.2930    5.8986    6.4616 H   0  0  0  0  0  0  0  0  0  0  0  0
   -1.6734    4.7664    6.2635 H   0  0  0  0  0  0  0  0  0  0  0  0
   -0.5298    4.5576    7.6329 H   0  0  0  0  0  0  0  0  0  0  0  0
  1  3  1  0  0  0  0
  1  7  1  0  0  0  0
  1  2  2  0  0  0  0
 29 30  1  0  0  0  0
 30 38  1  0  0  0  0
 30 31  2  0  0  0  0
  8  9  1  0  0  0  0
  9 17  1  0  0  0  0
  9 10  2  0  0  0  0
 18 19  1  0  0  0  0
 19 28  1  0  0  0  0
 19 20  2  0  0  0  0
 29 32  1  0  0  0  0
  8 11  1  0  0  0  0
 38 39  1  0  0  0  0
 18 21  1  0  0  0  0
 21 22  1  0  0  0  0
 28 29  1  0  0  0  0
  7  8  1  0  0  0  0
 17 18  1  0  0  0  0
  3  4  1  0  0  0  0
  3  5  1  0  0  0  0
  3  6  1  0  0  0  0
 32 35  1  0  0  0  0
 32 36  1  0  0  0  0
 32 37  1  0  0  0  0
 11 14  1  0  0  0  0
 11 15  1  0  0  0  0
 11 16  1  0  0  0  0
 39 41  1  0  0  0  0
 39 42  1  0  0  0  0
 39 43  1  0  0  0  0
 21 25  1  0  0  0  0
 21 26  1  0  0  0  0
 29 34  1  0  0  0  0
  8 13  1  0  0  0  0
 18 24  1  0  0  0  0
 38 40  1  0  0  0  0
  7 12  1  0  0  0  0
 28 33  1  0  0  0  0
 17 23  1  0  0  0  0
 22 27  1  0  0  0  0
M  END
$$$$

  -OEChem-05262214473D

 43 42  0     1  0  0  0  0  0999 V2000
   -2.8661   -4.7415    2.2943 C   0  0  0  0  0  0  0  0  0  0  0  0
   -2.0233   -5.5727    2.6109 O   0  0  0  0  0  0  0  0  0  0  0  0
   -4.3078   -5.0134    2.5698 C   0  0  0  0  0  0  0  0  0  0  0  0
   -4.8057   -5.5295    1.7332 H   0  0  0  0  0  0  0  0  0  0  0  0
   -4.4526   -5.6688    3.4436 H   0  0  0  0  0  0  0  0  0  0  0  0
   -4.9255   -4.1233    2.7700 H   0  0  0  0  0  0  0  0  0  0  0  0
   -2.6241   -3.5219    1.6838 N   0  0  0  0  0  0  0  0  0  0  0  0
   -1.3070   -3.0608    1.3315 C   0  0  2  0  0  0  0  0  0  0  0  0
   -1.3931   -1.5680    1.0422 C   0  0  0  0  0  0  0  0  0  0  0  0
   -2.4385   -1.0059    0.7226 O   0  0  0  0  0  0  0  0  0  0  0  0
   -0.7590   -3.8164    0.1309 C   0  0  0  0  0  0  0  0  0  0  0  0
   -3.4188   -2.9207    1.4735 H   0  0  0  0  0  0  0  0  0  0  0  0
   -0.6690   -3.2277    2.2062 H   0  0  0  0  0  0  0  0  0  0  0  0
   -1.3852   -3.6613   -0.7553 H   0  0  0  0  0  0  0  0  0  0  0  0
    0.2542   -3.4843   -0.1182 H   0  0  0  0  0  0  0  0  0  0  0  0
   -0.7257   -4.8930    0.3300 H   0  0  0  0  0  0  0  0  0  0  0  0
   -0.1563   -0.9420    1.1402 N   0  0  0  0  0  0  0  0  0  0  0  0
    0.0261    0.4671    0.9001 C   0  0  2  0  0  0  0  0  0  0  0  0
    0.9120    1.0458    2.0015 C   0  0  0  0  0  0  0  0  0  0  0  0
    2.1232    0.8440    2.0619 O   0  0  0  0  0  0  0  0  0  0  0  0
   -1.3037    1.2077    0.7390 C   0  0  0  0  0  0  0  0  0  0  0  0
   -2.2540    0.6994   -0.7311 S   0  0  0  0  0  0  0  0  0  0  0  0
    0.6533   -1.4855    1.4300 H   0  0  0  0  0  0  0  0  0  0  0  0
    0.5828    0.5357   -0.0428 H   0  0  0  0  0  0  0  0  0  0  0  0
   -1.9422    1.0460    1.6136 H   0  0  0  0  0  0  0  0  0  0  0  0
   -1.1233    2.2849    0.6563 H   0  0  0  0  0  0  0  0  0  0  0  0
   -3.2831    1.5298   -0.5197 H   0  0  0  0  0  0  0  0  0  0  0  0
    0.1874    1.7917    2.9203 N   0  0  0  0  0  0  0  0  0  0  0  0
    0.8005    2.4326    4.0601 C   0  0  2  0  0  0  0  0  0  0  0  0
   -0.3092    3.0162    4.9248 C   0  0  0  0  0  0  0  0  0  0  0  0
   -1.4272    3.2850    4.4901 O   0  0  0  0  0  0  0  0  0  0  0  0
    1.7780    3.5141    3.6273 C   0  0  0  0  0  0  0  0  0  0  0  0
   -0.8076    1.9349    2.7745 H   0  0  0  0  0  0  0  0  0  0  0  0
    1.3258    1.6500    4.6183 H   0  0  0  0  0  0  0  0  0  0  0  0
    1.2699    4.3071    3.0666 H   0  0  0  0  0  0  0  0  0  0  0  0
    2.2632    3.9794    4.4917 H   0  0  0  0  0  0  0  0  0  0  0  0
    2.5586    3.0980    2.9812 H   0  0  0  0  0  0  0  0  0  0  0  0
    0.1092    3.2417    6.2287 N   0  0  0  0  0  0  0  0  0  0  0  0
   -0.7570    3.8022    7.2395 C   0  0  0  0  0  0  0  0  0  0  0  0
    1.0480    2.9710    6.5062 H   0  0  0  0  0  0  0  0  0  0  0  0
   -0.6343    4.8950    7.2633 H   0  0  0  0  0  0  0  0  0  0  0  0
   -1.8028    3.5558    7.0036 H   0  0  0  0  0  0  0  0  0  0  0  0
   -0.4939    3.3823    8.2215 H   0  0  0  0  0  0  0  0  0  0  0  0
  1  3  1  0  0  0  0
  1  7  1  0  0  0  0
  1  2  2  0  0  0  0
 29 30  1  0  0  0  0
 30 38  1  0  0  0  0
 30 31  2  0  0  0  0
  8  9  1  0  0  0  0
  9 17  1  0  0  0  0
  9 10  2  0  0  0  0
 18 19  1  0  0  0  0
 19 28  1  0  0  0  0
 19 20  2  0  0  0  0
 29 32  1  0  0  0  0
  8 11  1  0  0  0  0
 38 39  1  0  0  0  0
 18 21  1  0  0  0  0
 21 22  1  0  0  0  0
 28 29  1  0  0  0  0
  7  8  1  0  0  0  0
 17 18  1  0  0  0  0
  3  4  1  0  0  0  0
  3  5  1  0  0  0  0
  3  6  1  0  0  0  0
 32 35  1  0  0  0  0
 32 36  1  0  0  0  0
 32 37  1  0  0  0  0
 11 14  1  0  0  0  0
 11 15  1  0  0  0  0
 11 16  1  0  0  0  0
 39 41  1  0  0  0  0
 39 42  1  0  0  0  0
 39 43  1  0  0  0  0
 21 25  1  0  0  0  0
 21 26  1  0  0  0  0
 29 34  1  0  0  0  0
  8 13  1  0  0  0  0
 18 24  1  0  0  0  0
 38 40  1  0  0  0  0
  7 12  1  0  0  0  0
 28 33  1  0  0  0  0
 17 23  1  0  0  0  0
 22 27  1  0  0  0  0
M  END
$$$$

  -OEChem-05262214473D

 43 42  0     1  0  0  0  0  0999 V2000
   -2.8661   -4.7415    2.2943 C   0  0  0  0  0  0  0  0  0  0  0  0
   -2.0233   -5.5727    2.6109 O   0  0  0  0  0  0  0  0  0  0  0  0
   -4.3078   -5.0134    2.5698 C   0  0  0  0  0  0  0  0  0  0  0  0
   -4.8057   -5.5295    1.7332 H   0  0  0  0  0  0  0  0  0  0  0  0
   -4.4526   -5.6688    3.4436 H   0  0  0  0  0  0  0  0  0  0  0  0
   -4.9255   -4.1233    2.7700 H   0  0  0  0  0  0  0  0  0  0  0  0
   -2.6241   -3.5219    1.6838 N   0  0  0  0  0  0  0  0  0  0  0  0
   -1.3070   -3.0608    1.3315 C   0  0  2  0  0  0  0  0  0  0  0  0
   -1.3931   -1.5680    1.0422 C   0  0  0  0  0  0  0  0  0  0  0  0
   -2.4385   -1.0059    0.7226 O   0  0  0  0  0  0  0  0  0  0  0  0
   -0.7590   -3.8164    0.1309 C   0  0  0  0  0  0  0  0  0  0  0  0
   -3.4188   -2.9207    1.4735 H   0  0  0  0  0  0  0  0  0  0  0  0
   -0.6690   -3.2277    2.2062 H   0  0  0  0  0  0  0  0  0  0  0  0
   -1.3852   -3.6613   -0.7553 H   0  0  0  0  0  0  0  0  0  0  0  0
    0.2542   -3.4843   -0.1182 H   0  0  0  0  0  0  0  0  0  0  0  0
   -0.7257   -4.8930    0.3300 H   0  0  0  0  0  0  0  0  0  0  0  0
   -0.1563   -0.9420    1.1402 N   0  0  0  0  0  0  0  0  0  0  0  0
    0.0261    0.4671    0.9001 C   0  0  2  0  0  0  0  0  0  0  0  0
    0.9120    1.0458    2.0015 C   0  0  0  0  0  0  0  0  0  0  0  0
    2.1388    1.0765    1.9273 O   0  0  0  0  0  0  0  0  0  0  0  0
   -1.3037    1.2077    0.7390 C   0  0  0  0  0  0  0  0  0  0  0  0
   -2.2540    0.6994   -0.7311 S   0  0  0  0  0  0  0  0  0  0  0  0
    0.6533   -1.4855    1.4300 H   0  0  0  0  0  0  0  0  0  0  0  0
    0.5828    0.5357   -0.0428 H   0  0  0  0  0  0  0  0  0  0  0  0
   -1.9422    1.0460    1.6136 H   0  0  0  0  0  0  0  0  0  0  0  0
   -1.1233    2.2849    0.6563 H   0  0  0  0  0  0  0  0  0  0  0  0
   -3.2831    1.5298   -0.5197 H   0  0  0  0  0  0  0  0  0  0  0  0
    0.1733    1.4999    3.0849 N   0  0  0  0  0  0  0  0  0  0  0  0
    0.7858    2.0806    4.2569 C   0  0  2  0  0  0  0  0  0  0  0  0
   -0.3062    2.3100    5.2934 C   0  0  0  0  0  0  0  0  0  0  0  0
   -1.4959    2.4151    5.0024 O   0  0  0  0  0  0  0  0  0  0  0  0
    1.4989    3.3813    3.9217 C   0  0  0  0  0  0  0  0  0  0  0  0
   -0.8411    1.4663    3.0477 H   0  0  0  0  0  0  0  0  0  0  0  0
    1.5021    1.3442    4.6371 H   0  0  0  0  0  0  0  0  0  0  0  0
    0.7971    4.1314    3.5391 H   0  0  0  0  0  0  0  0  0  0  0  0
    1.9867    3.8055    4.8054 H   0  0  0  0  0  0  0  0  0  0  0  0
    2.2637    3.2199    3.1544 H   0  0  0  0  0  0  0  0  0  0  0  0
    0.2087    2.4265    6.5769 N   0  0  0  0  0  0  0  0  0  0  0  0
   -0.6248    2.6602    7.7331 C   0  0  0  0  0  0  0  0  0  0  0  0
    1.2060    2.3069    6.7280 H   0  0  0  0  0  0  0  0  0  0  0  0
   -0.6979    3.7416    7.9205 H   0  0  0  0  0  0  0  0  0  0  0  0
   -1.6293    2.2512    7.5495 H   0  0  0  0  0  0  0  0  0  0  0  0
   -0.1821    2.1653    8.6101 H   0  0  0  0  0  0  0  0  0  0  0  0
  1  3  1  0  0  0  0
  1  7  1  0  0  0  0
  1  2  2  0  0  0  0
 29 30  1  0  0  0  0
 30 38  1  0  0  0  0
 30 31  2  0  0  0  0
  8  9  1  0  0  0  0
  9 17  1  0  0  0  0
  9 10  2  0  0  0  0
 18 19  1  0  0  0  0
 19 28  1  0  0  0  0
 19 20  2  0  0  0  0
 29 32  1  0  0  0  0
  8 11  1  0  0  0  0
 38 39  1  0  0  0  0
 18 21  1  0  0  0  0
 21 22  1  0  0  0  0
 28 29  1  0  0  0  0
  7  8  1  0  0  0  0
 17 18  1  0  0  0  0
  3  4  1  0  0  0  0
  3  5  1  0  0  0  0
  3  6  1  0  0  0  0
 32 35  1  0  0  0  0
 32 36  1  0  0  0  0
 32 37  1  0  0  0  0
 11 14  1  0  0  0  0
 11 15  1  0  0  0  0
 11 16  1  0  0  0  0
 39 41  1  0  0  0  0
 39 42  1  0  0  0  0
 39 43  1  0  0  0  0
 21 25  1  0  0  0  0
 21 26  1  0  0  0  0
 29 34  1  0  0  0  0
  8 13  1  0  0  0  0
 18 24  1  0  0  0  0
 38 40  1  0  0  0  0
  7 12  1  0  0  0  0
 28 33  1  0  0  0  0
 17 23  1  0  0  0  0
 22 27  1  0  0  0  0
M  END
$$$$

  -OEChem-05262214473D

 43 42  0     1  0  0  0  0  0999 V2000
   -2.8661   -4.7415    2.2943 C   0  0  0  0  0  0  0  0  0  0  0  0
   -2.0233   -5.5727    2.6109 O   0  0  0  0  0  0  0  0  0  0  0  0
   -4.3078   -5.0134    2.5698 C   0  0  0  0  0  0  0  0  0  0  0  0
   -4.8057   -5.5295    1.7332 H   0  0  0  0  0  0  0  0  0  0  0  0
   -4.4526   -5.6688    3.4436 H   0  0  0  0  0  0  0  0  0  0  0  0
   -4.9255   -4.1233    2.7700 H   0  0  0  0  0  0  0  0  0  0  0  0
   -2.6241   -3.5219    1.6838 N   0  0  0  0  0  0  0  0  0  0  0  0
   -1.3070   -3.0608    1.3315 C   0  0  2  0  0  0  0  0  0  0  0  0
   -1.3931   -1.5680    1.0422 C   0  0  0  0  0  0  0  0  0  0  0  0
   -2.4385   -1.0059    0.7226 O   0  0  0  0  0  0  0  0  0  0  0  0
   -0.7590   -3.8164    0.1309 C   0  0  0  0  0  0  0  0  0  0  0  0
   -3.4188   -2.9207    1.4735 H   0  0  0  0  0  0  0  0  0  0  0  0
   -0.6690   -3.2277    2.2062 H   0  0  0  0  0  0  0  0  0  0  0  0
   -1.3852   -3.6613   -0.7553 H   0  0  0  0  0  0  0  0  0  0  0  0
    0.2542   -3.4843   -0.1182 H   0  0  0  0  0  0  0  0  0  0  0  0
   -0.7257   -4.8930    0.3300 H   0  0  0  0  0  0  0  0  0  0  0  0
   -0.1563   -0.9420    1.1402 N   0  0  0  0  0  0  0  0  0  0  0  0
    0.0261    0.4671    0.9001 C   0  0  2  0  0  0  0  0  0  0  0  0
    0.9120    1.0458    2.0015 C   0  0  0  0  0  0  0  0  0  0  0  0
    2.0972    1.3242    1.8306 O   0  0  0  0  0  0  0  0  0  0  0  0
   -1.3037    1.2077    0.7390 C   0  0  0  0  0  0  0  0  0  0  0  0
   -2.2540    0.6994   -0.7311 S   0  0  0  0  0  0  0  0  0  0  0  0
    0.6533   -1.4855    1.4300 H   0  0  0  0  0  0  0  0  0  0  0  0
    0.5828    0.5357   -0.0428 H   0  0  0  0  0  0  0  0  0  0  0  0
   -1.9422    1.0460    1.6136 H   0  0  0  0  0  0  0  0  0  0  0  0
   -1.1233    2.2849    0.6563 H   0  0  0  0  0  0  0  0  0  0  0  0
   -3.2831    1.5298   -0.5197 H   0  0  0  0  0  0  0  0  0  0  0  0
    0.2304    1.1907    3.2015 N   0  0  0  0  0  0  0  0  0  0  0  0
    0.8565    1.7083    4.3956 C   0  0  2  0  0  0  0  0  0  0  0  0
   -0.1354    1.5731    5.5432 C   0  0  0  0  0  0  0  0  0  0  0  0
   -1.3497    1.4852    5.3734 O   0  0  0  0  0  0  0  0  0  0  0  0
    1.2828    3.1567    4.2134 C   0  0  0  0  0  0  0  0  0  0  0  0
   -0.7593    0.9663    3.2445 H   0  0  0  0  0  0  0  0  0  0  0  0
    1.7314    1.0789    4.5921 H   0  0  0  0  0  0  0  0  0  0  0  0
    0.4196    3.8025    4.0155 H   0  0  0  0  0  0  0  0  0  0  0  0
    1.7830    3.5388    5.1095 H   0  0  0  0  0  0  0  0  0  0  0  0
    1.9732    3.2565    3.3688 H   0  0  0  0  0  0  0  0  0  0  0  0
    0.4911    1.6055    6.7812 N   0  0  0  0  0  0  0  0  0  0  0  0
   -0.2355    1.5077    8.0256 C   0  0  0  0  0  0  0  0  0  0  0  0
    1.5043    1.6616    6.8271 H   0  0  0  0  0  0  0  0  0  0  0  0
   -0.4797    2.5170    8.3884 H   0  0  0  0  0  0  0  0  0  0  0  0
   -1.1646    0.9415    7.8639 H   0  0  0  0  0  0  0  0  0  0  0  0
    0.3843    0.9897    8.7722 H   0  0  0  0  0  0  0  0  0  0  0  0
  1  3  1  0  0  0  0
  1  7  1  0  0  0  0
  1  2  2  0  0  0  0
 29 30  1  0  0  0  0
 30 38  1  0  0  0  0
 30 31  2  0  0  0  0
  8  9  1  0  0  0  0
  9 17  1  0  0  0  0
  9 10  2  0  0  0  0
 18 19  1  0  0  0  0
 19 28  1  0  0  0  0
 19 20  2  0  0  0  0
 29 32  1  0  0  0  0
  8 11  1  0  0  0  0
 38 39  1  0  0  0  0
 18 21  1  0  0  0  0
 21 22  1  0  0  0  0
 28 29  1  0  0  0  0
  7  8  1  0  0  0  0
 17 18  1  0  0  0  0
  3  4  1  0  0  0  0
  3  5  1  0  0  0  0
  3  6  1  0  0  0  0
 32 35  1  0  0  0  0
 32 36  1  0  0  0  0
 32 37  1  0  0  0  0
 11 14  1  0  0  0  0
 11 15  1  0  0  0  0
 11 16  1  0  0  0  0
 39 41  1  0  0  0  0
 39 42  1  0  0  0  0
 39 43  1  0  0  0  0
 21 25  1  0  0  0  0
 21 26  1  0  0  0  0
 29 34  1  0  0  0  0
  8 13  1  0  0  0  0
 18 24  1  0  0  0  0
 38 40  1  0  0  0  0
  7 12  1  0  0  0  0
 28 33  1  0  0  0  0
 17 23  1  0  0  0  0
 22 27  1  0  0  0  0
M  END
$$$$

  -OEChem-05262214473D

 43 42  0     1  0  0  0  0  0999 V2000
   -2.8661   -4.7415    2.2943 C   0  0  0  0  0  0  0  0  0  0  0  0
   -2.0233   -5.5727    2.6109 O   0  0  0  0  0  0  0  0  0  0  0  0
   -4.3078   -5.0134    2.5698 C   0  0  0  0  0  0  0  0  0  0  0  0
   -4.8057   -5.5295    1.7332 H   0  0  0  0  0  0  0  0  0  0  0  0
   -4.4526   -5.6688    3.4436 H   0  0  0  0  0  0  0  0  0  0  0  0
   -4.9255   -4.1233    2.7700 H   0  0  0  0  0  0  0  0  0  0  0  0
   -2.6241   -3.5219    1.6838 N   0  0  0  0  0  0  0  0  0  0  0  0
   -1.3070   -3.0608    1.3315 C   0  0  2  0  0  0  0  0  0  0  0  0
   -1.3931   -1.5680    1.0422 C   0  0  0  0  0  0  0  0  0  0  0  0
   -2.4385   -1.0059    0.7226 O   0  0  0  0  0  0  0  0  0  0  0  0
   -0.7590   -3.8164    0.1309 C   0  0  0  0  0  0  0  0  0  0  0  0
   -3.4188   -2.9207    1.4735 H   0  0  0  0  0  0  0  0  0  0  0  0
   -0.6690   -3.2277    2.2062 H   0  0  0  0  0  0  0  0  0  0  0  0
   -1.3852   -3.6613   -0.7553 H   0  0  0  0  0  0  0  0  0  0  0  0
    0.2542   -3.4843   -0.1182 H   0  0  0  0  0  0  0  0  0  0  0  0
   -0.7257   -4.8930    0.3300 H   0  0  0  0  0  0  0  0  0  0  0  0
   -0.1563   -0.9420    1.1402 N   0  0  0  0  0  0  0  0  0  0  0  0
    0.0261    0.4671    0.9001 C   0  0  2  0  0  0  0  0  0  0  0  0
    0.9120    1.0458    2.0015 C   0  0  0  0  0  0  0  0  0  0  0  0
    2.0013    1.5703    1.7784 O   0  0  0  0  0  0  0  0  0  0  0  0
   -1.3037    1.2077    0.7390 C   0  0  0  0  0  0  0  0  0  0  0  0
   -2.2540    0.6994   -0.7311 S   0  0  0  0  0  0  0  0  0  0  0  0
    0.6533   -1.4855    1.4300 H   0  0  0  0  0  0  0  0  0  0  0  0
    0.5828    0.5357   -0.0428 H   0  0  0  0  0  0  0  0  0  0  0  0
   -1.9422    1.0460    1.6136 H   0  0  0  0  0  0  0  0  0  0  0  0
   -1.1233    2.2849    0.6563 H   0  0  0  0  0  0  0  0  0  0  0  0
   -3.2831    1.5298   -0.5197 H   0  0  0  0  0  0  0  0  0  0  0  0
    0.3546    0.8852    3.2621 N   0  0  0  0  0  0  0  0  0  0  0  0
    1.0080    1.3411    4.4667 C   0  0  2  0  0  0  0  0  0  0  0  0
    0.1916    0.8556    5.6572 C   0  0  0  0  0  0  0  0  0  0  0  0
   -0.9986    0.5585    5.5779 O   0  0  0  0  0  0  0  0  0  0  0  0
    1.1447    2.8556    4.4827 C   0  0  0  0  0  0  0  0  0  0  0  0
   -0.5677    0.4692    3.3516 H   0  0  0  0  0  0  0  0  0  0  0  0
    1.9979    0.8723    4.4864 H   0  0  0  0  0  0  0  0  0  0  0  0
    0.1631    3.3429    4.4633 H   0  0  0  0  0  0  0  0  0  0  0  0
    1.6657    3.1975    5.3831 H   0  0  0  0  0  0  0  0  0  0  0  0
    1.7067    3.2055    3.6100 H   0  0  0  0  0  0  0  0  0  0  0  0
    0.9372    0.8344    6.8275 N   0  0  0  0  0  0  0  0  0  0  0  0
    0.3843    0.4232    8.0968 C   0  0  0  0  0  0  0  0  0  0  0  0
    1.9225    1.0792    6.7967 H   0  0  0  0  0  0  0  0  0  0  0  0
    0.0056    1.3046    8.6352 H   0  0  0  0  0  0  0  0  0  0  0  0
   -0.4406   -0.2841    7.9255 H   0  0  0  0  0  0  0  0  0  0  0  0
    1.1668   -0.0644    8.6968 H   0  0  0  0  0  0  0  0  0  0  0  0
  1  3  1  0  0  0  0
  1  7  1  0  0  0  0
  1  2  2  0  0  0  0
 29 30  1  0  0  0  0
 30 38  1  0  0  0  0
 30 31  2  0  0  0  0
  8  9  1  0  0  0  0
  9 17  1  0  0  0  0
  9 10  2  0  0  0  0
 18 19  1  0  0  0  0
 19 28  1  0  0  0  0
 19 20  2  0  0  0  0
 29 32  1  0  0  0  0
  8 11  1  0  0  0  0
 38 39  1  0  0  0  0
 18 21  1  0  0  0  0
 21 22  1  0  0  0  0
 28 29  1  0  0  0  0
  7  8  1  0  0  0  0
 17 18  1  0  0  0  0
  3  4  1  0  0  0  0
  3  5  1  0  0  0  0
  3  6  1  0  0  0  0
 32 35  1  0  0  0  0
 32 36  1  0  0  0  0
 32 37  1  0  0  0  0
 11 14  1  0  0  0  0
 11 15  1  0  0  0  0
 11 16  1  0  0  0  0
 39 41  1  0  0  0  0
 39 42  1  0  0  0  0
 39 43  1  0  0  0  0
 21 25  1  0  0  0  0
 21 26  1  0  0  0  0
 29 34  1  0  0  0  0
  8 13  1  0  0  0  0
 18 24  1  0  0  0  0
 38 40  1  0  0  0  0
  7 12  1  0  0  0  0
 28 33  1  0  0  0  0
 17 23  1  0  0  0  0
 22 27  1  0  0  0  0
M  END
$$$$

  -OEChem-05262214473D

 43 42  0     1  0  0  0  0  0999 V2000
   -2.8661   -4.7415    2.2943 C   0  0  0  0  0  0  0  0  0  0  0  0
   -2.0233   -5.5727    2.6109 O   0  0  0  0  0  0  0  0  0  0  0  0
   -4.3078   -5.0134    2.5698 C   0  0  0  0  0  0  0  0  0  0  0  0
   -4.8057   -5.5295    1.7332 H   0  0  0  0  0  0  0  0  0  0  0  0
   -4.4526   -5.6688    3.4436 H   0  0  0  0  0  0  0  0  0  0  0  0
   -4.9255   -4.1233    2.7700 H   0  0  0  0  0  0  0  0  0  0  0  0
   -2.6241   -3.5219    1.6838 N   0  0  0  0  0  0  0  0  0  0  0  0
   -1.3070   -3.0608    1.3315 C   0  0  2  0  0  0  0  0  0  0  0  0
   -1.3931   -1.5680    1.0422 C   0  0  0  0  0  0  0  0  0  0  0  0
   -2.4385   -1.0059    0.7226 O   0  0  0  0  0  0  0  0  0  0  0  0
   -0.7590   -3.8164    0.1309 C   0  0  0  0  0  0  0  0  0  0  0  0
   -3.4188   -2.9207    1.4735 H   0  0  0  0  0  0  0  0  0  0  0  0
   -0.6690   -3.2277    2.2062 H   0  0  0  0  0  0  0  0  0  0  0  0
   -1.3852   -3.6613   -0.7553 H   0  0  0  0  0  0  0  0  0  0  0  0
    0.2542   -3.4843   -0.1182 H   0  0  0  0  0  0  0  0  0  0  0  0
   -0.7257   -4.8930    0.3300 H   0  0  0  0  0  0  0  0  0  0  0  0
   -0.1563   -0.9420    1.1402 N   0  0  0  0  0  0  0  0  0  0  0  0
    0.0261    0.4671    0.9001 C   0  0  2  0  0  0  0  0  0  0  0  0
    0.9120    1.0458    2.0015 C   0  0  0  0  0  0  0  0  0  0  0  0
    1.8577    1.7978    1.7744 O   0  0  0  0  0  0  0  0  0  0  0  0
   -1.3037    1.2077    0.7390 C   0  0  0  0  0  0  0  0  0  0  0  0
   -2.2540    0.6994   -0.7311 S   0  0  0  0  0  0  0  0  0  0  0  0
    0.6533   -1.4855    1.4300 H   0  0  0  0  0  0  0  0  0  0  0  0
    0.5828    0.5357   -0.0428 H   0  0  0  0  0  0  0  0  0  0  0  0
   -1.9422    1.0460    1.6136 H   0  0  0  0  0  0  0  0  0  0  0  0
   -1.1233    2.2849    0.6563 H   0  0  0  0  0  0  0  0  0  0  0  0
   -3.2831    1.5298   -0.5197 H   0  0  0  0  0  0  0  0  0  0  0  0
    0.5376    0.6041    3.2626 N   0  0  0  0  0  0  0  0  0  0  0  0
    1.2298    1.0040    4.4654 C   0  0  2  0  0  0  0  0  0  0  0  0
    0.6525    0.2066    5.6274 C   0  0  0  0  0  0  0  0  0  0  0  0
   -0.4664   -0.3018    5.6018 O   0  0  0  0  0  0  0  0  0  0  0  0
    1.0939    2.4986    4.7111 C   0  0  0  0  0  0  0  0  0  0  0  0
   -0.2793    0.0087    3.3616 H   0  0  0  0  0  0  0  0  0  0  0  0
    2.2835    0.7382    4.3271 H   0  0  0  0  0  0  0  0  0  0  0  0
    0.0450    2.7839    4.8521 H   0  0  0  0  0  0  0  0  0  0  0  0
    1.6430    2.8049    5.6077 H   0  0  0  0  0  0  0  0  0  0  0  0
    1.4825    3.0702    3.8614 H   0  0  0  0  0  0  0  0  0  0  0  0
    1.5166    0.1659    6.7128 N   0  0  0  0  0  0  0  0  0  0  0  0
    1.1924   -0.5193    7.9421 C   0  0  0  0  0  0  0  0  0  0  0  0
    2.4323    0.5992    6.6389 H   0  0  0  0  0  0  0  0  0  0  0  0
    0.7248    0.1870    8.6439 H   0  0  0  0  0  0  0  0  0  0  0  0
    0.4936   -1.3420    7.7299 H   0  0  0  0  0  0  0  0  0  0  0  0
    2.1119   -0.9253    8.3889 H   0  0  0  0  0  0  0  0  0  0  0  0
  1  3  1  0  0  0  0
  1  7  1  0  0  0  0
  1  2  2  0  0  0  0
 29 30  1  0  0  0  0
 30 38  1  0  0  0  0
 30 31  2  0  0  0  0
  8  9  1  0  0  0  0
  9 17  1  0  0  0  0
  9 10  2  0  0  0  0
 18 19  1  0  0  0  0
 19 28  1  0  0  0  0
 19 20  2  0  0  0  0
 29 32  1  0  0  0  0
  8 11  1  0  0  0  0
 38 39  1  0  0  0  0
 18 21  1  0  0  0  0
 21 22  1  0  0  0  0
 28 29  1  0  0  0  0
  7  8  1  0  0  0  0
 17 18  1  0  0  0  0
  3  4  1  0  0  0  0
  3  5  1  0  0  0  0
  3  6  1  0  0  0  0
 32 35  1  0  0  0  0
 32 36  1  0  0  0  0
 32 37  1  0  0  0  0
 11 14  1  0  0  0  0
 11 15  1  0  0  0  0
 11 16  1  0  0  0  0
 39 41  1  0  0  0  0
 39 42  1  0  0  0  0
 39 43  1  0  0  0  0
 21 25  1  0  0  0  0
 21 26  1  0  0  0  0
 29 34  1  0  0  0  0
  8 13  1  0  0  0  0
 18 24  1  0  0  0  0
 38 40  1  0  0  0  0
  7 12  1  0  0  0  0
 28 33  1  0  0  0  0
 17 23  1  0  0  0  0
 22 27  1  0  0  0  0
M  END
$$$$

  -OEChem-05262214473D

 43 42  0     1  0  0  0  0  0999 V2000
   -2.8661   -4.7415    2.2943 C   0  0  0  0  0  0  0  0  0  0  0  0
   -2.0233   -5.5727    2.6109 O   0  0  0  0  0  0  0  0  0  0  0  0
   -4.3078   -5.0134    2.5698 C   0  0  0  0  0  0  0  0  0  0  0  0
   -4.8057   -5.5295    1.7332 H   0  0  0  0  0  0  0  0  0  0  0  0
   -4.4526   -5.6688    3.4436 H   0  0  0  0  0  0  0  0  0  0  0  0
   -4.9255   -4.1233    2.7700 H   0  0  0  0  0  0  0  0  0  0  0  0
   -2.6241   -3.5219    1.6838 N   0  0  0  0  0  0  0  0  0  0  0  0
   -1.3070   -3.0608    1.3315 C   0  0  2  0  0  0  0  0  0  0  0  0
   -1.3931   -1.5680    1.0422 C   0  0  0  0  0  0  0  0  0  0  0  0
   -2.4385   -1.0059    0.7226 O   0  0  0  0  0  0  0  0  0  0  0  0
   -0.7590   -3.8164    0.1309 C   0  0  0  0  0  0  0  0  0  0  0  0
   -3.4188   -2.9207    1.4735 H   0  0  0  0  0  0  0  0  0  0  0  0
   -0.6690   -3.2277    2.2062 H   0  0  0  0  0  0  0  0  0  0  0  0
   -1.3852   -3.6613   -0.7553 H   0  0  0  0  0  0  0  0  0  0  0  0
    0.2542   -3.4843   -0.1182 H   0  0  0  0  0  0  0  0  0  0  0  0
   -0.7257   -4.8930    0.3300 H   0  0  0  0  0  0  0  0  0  0  0  0
   -0.1563   -0.9420    1.1402 N   0  0  0  0  0  0  0  0  0  0  0  0
    0.0261    0.4671    0.9001 C   0  0  2  0  0  0  0  0  0  0  0  0
    0.9120    1.0458    2.0015 C   0  0  0  0  0  0  0  0  0  0  0  0
    1.6760    1.9914    1.8187 O   0  0  0  0  0  0  0  0  0  0  0  0
   -1.3037    1.2077    0.7390 C   0  0  0  0  0  0  0  0  0  0  0  0
   -2.2540    0.6994   -0.7311 S   0  0  0  0  0  0  0  0  0  0  0  0
    0.6533   -1.4855    1.4300 H   0  0  0  0  0  0  0  0  0  0  0  0
    0.5828    0.5357   -0.0428 H   0  0  0  0  0  0  0  0  0  0  0  0
   -1.9422    1.0460    1.6136 H   0  0  0  0  0  0  0  0  0  0  0  0
   -1.1233    2.2849    0.6563 H   0  0  0  0  0  0  0  0  0  0  0  0
   -3.2831    1.5298   -0.5197 H   0  0  0  0  0  0  0  0  0  0  0  0
    0.7668    0.3668    3.2029 N   0  0  0  0  0  0  0  0  0  0  0  0
    1.5068    0.7200    4.3918 C   0  0  2  0  0  0  0  0  0  0  0  0
    1.2160   -0.3299    5.4561 C   0  0  0  0  0  0  0  0  0  0  0  0
    0.2106   -1.0370    5.4436 O   0  0  0  0  0  0  0  0  0  0  0  0
    1.1338    2.1100    4.8832 C   0  0  0  0  0  0  0  0  0  0  0  0
    0.0862   -0.3839    3.2739 H   0  0  0  0  0  0  0  0  0  0  0  0
    2.5688    0.6860    4.1251 H   0  0  0  0  0  0  0  0  0  0  0  0
    0.0734    2.1634    5.1552 H   0  0  0  0  0  0  0  0  0  0  0  0
    1.7163    2.3877    5.7679 H   0  0  0  0  0  0  0  0  0  0  0  0
    1.3158    2.8600    4.1059 H   0  0  0  0  0  0  0  0  0  0  0  0
    2.1897   -0.3544    6.4448 N   0  0  0  0  0  0  0  0  0  0  0  0
    2.1337   -1.2557    7.5719 C   0  0  0  0  0  0  0  0  0  0  0  0
    2.9988    0.2544    6.3645 H   0  0  0  0  0  0  0  0  0  0  0  0
    1.6289   -0.7596    8.4140 H   0  0  0  0  0  0  0  0  0  0  0  0
    1.5743   -2.1601    7.2906 H   0  0  0  0  0  0  0  0  0  0  0  0
    3.1553   -1.5343    7.8696 H   0  0  0  0  0  0  0  0  0  0  0  0
  1  3  1  0  0  0  0
  1  7  1  0  0  0  0
  1  2  2  0  0  0  0
 29 30  1  0  0  0  0
 30 38  1  0  0  0  0
 30 31  2  0  0  0  0
  8  9  1  0  0  0  0
  9 17  1  0  0  0  0
  9 10  2  0  0  0  0
 18 19  1  0  0  0  0
 19 28  1  0  0  0  0
 19 20  2  0  0  0  0
 29 32  1  0  0  0  0
  8 11  1  0  0  0  0
 38 39  1  0  0  0  0
 18 21  1  0  0  0  0
 21 22  1  0  0  0  0
 28 29  1  0  0  0  0
  7  8  1  0  0  0  0
 17 18  1  0  0  0  0
  3  4  1  0  0  0  0
  3  5  1  0  0  0  0
  3  6  1  0  0  0  0
 32 35  1  0  0  0  0
 32 36  1  0  0  0  0
 32 37  1  0  0  0  0
 11 14  1  0  0  0  0
 11 15  1  0  0  0  0
 11 16  1  0  0  0  0
 39 41  1  0  0  0  0
 39 42  1  0  0  0  0
 39 43  1  0  0  0  0
 21 25  1  0  0  0  0
 21 26  1  0  0  0  0
 29 34  1  0  0  0  0
  8 13  1  0  0  0  0
 18 24  1  0  0  0  0
 38 40  1  0  0  0  0
  7 12  1  0  0  0  0
 28 33  1  0  0  0  0
 17 23  1  0  0  0  0
 22 27  1  0  0  0  0
M  END
$$$$

  -OEChem-05262214473D

 43 42  0     1  0  0  0  0  0999 V2000
   -2.8661   -4.7415    2.2943 C   0  0  0  0  0  0  0  0  0  0  0  0
   -2.0233   -5.5727    2.6109 O   0  0  0  0  0  0  0  0  0  0  0  0
   -4.3078   -5.0134    2.5698 C   0  0  0  0  0  0  0  0  0  0  0  0
   -4.8057   -5.5295    1.7332 H   0  0  0  0  0  0  0  0  0  0  0  0
   -4.4526   -5.6688    3.4436 H   0  0  0  0  0  0  0  0  0  0  0  0
   -4.9255   -4.1233    2.7700 H   0  0  0  0  0  0  0  0  0  0  0  0
   -2.6241   -3.5219    1.6838 N   0  0  0  0  0  0  0  0  0  0  0  0
   -1.3070   -3.0608    1.3315 C   0  0  2  0  0  0  0  0  0  0  0  0
   -1.3931   -1.5680    1.0422 C   0  0  0  0  0  0  0  0  0  0  0  0
   -2.4385   -1.0059    0.7226 O   0  0  0  0  0  0  0  0  0  0  0  0
   -0.7590   -3.8164    0.1309 C   0  0  0  0  0  0  0  0  0  0  0  0
   -3.4188   -2.9207    1.4735 H   0  0  0  0  0  0  0  0  0  0  0  0
   -0.6690   -3.2277    2.2062 H   0  0  0  0  0  0  0  0  0  0  0  0
   -1.3852   -3.6613   -0.7553 H   0  0  0  0  0  0  0  0  0  0  0  0
    0.2542   -3.4843   -0.1182 H   0  0  0  0  0  0  0  0  0  0  0  0
   -0.7257   -4.8930    0.3300 H   0  0  0  0  0  0  0  0  0  0  0  0
   -0.1563   -0.9420    1.1402 N   0  0  0  0  0  0  0  0  0  0  0  0
    0.0261    0.4671    0.9001 C   0  0  2  0  0  0  0  0  0  0  0  0
    0.9120    1.0458    2.0015 C   0  0  0  0  0  0  0  0  0  0  0  0
    1.4688    2.1379    1.9084 O   0  0  0  0  0  0  0  0  0  0  0  0
   -1.3037    1.2077    0.7390 C   0  0  0  0  0  0  0  0  0  0  0  0
   -2.2540    0.6994   -0.7311 S   0  0  0  0  0  0  0  0  0  0  0  0
    0.6533   -1.4855    1.4300 H   0  0  0  0  0  0  0  0  0  0  0  0
    0.5828    0.5357   -0.0428 H   0  0  0  0  0  0  0  0  0  0  0  0
   -1.9422    1.0460    1.6136 H   0  0  0  0  0  0  0  0  0  0  0  0
   -1.1233    2.2849    0.6563 H   0  0  0  0  0  0  0  0  0  0  0  0
   -3.2831    1.5298   -0.5197 H   0  0  0  0  0  0  0  0  0  0  0  0
    1.0267    0.1892    3.0872 N   0  0  0  0  0  0  0  0  0  0  0  0
    1.8202    0.5084    4.2509 C   0  0  2  0  0  0  0  0  0  0  0  0
    1.8436   -0.7171    5.1548 C   0  0  0  0  0  0  0  0  0  0  0  0
    0.9862   -1.5971    5.1141 O   0  0  0  0  0  0  0  0  0  0  0  0
    1.2618    1.7162    4.9871 C   0  0  0  0  0  0  0  0  0  0  0  0
    0.5039   -0.6816    3.0943 H   0  0  0  0  0  0  0  0  0  0  0  0
    2.8343    0.7191    3.8941 H   0  0  0  0  0  0  0  0  0  0  0  0
    0.2463    1.5240    5.3521 H   0  0  0  0  0  0  0  0  0  0  0  0
    1.8808    1.9743    5.8528 H   0  0  0  0  0  0  0  0  0  0  0  0
    1.2180    2.5891    4.3269 H   0  0  0  0  0  0  0  0  0  0  0  0
    2.9107   -0.6912    6.0418 N   0  0  0  0  0  0  0  0  0  0  0  0
    3.1440   -1.7357    7.0115 C   0  0  0  0  0  0  0  0  0  0  0  0
    3.5834    0.0682    5.9920 H   0  0  0  0  0  0  0  0  0  0  0  0
    2.6564   -1.4707    7.9612 H   0  0  0  0  0  0  0  0  0  0  0  0
    2.7277   -2.6827    6.6375 H   0  0  0  0  0  0  0  0  0  0  0  0
    4.2259   -1.8497    7.1743 H   0  0  0  0  0  0  0  0  0  0  0  0
  1  3  1  0  0  0  0
  1  7  1  0  0  0  0
  1  2  2  0  0  0  0
 29 30  1  0  0  0  0
 30 38  1  0  0  0  0
 30 31  2  0  0  0  0
  8  9  1  0  0  0  0
  9 17  1  0  0  0  0
  9 10  2  0  0  0  0
 18 19  1  0  0  0  0
 19 28  1  0  0  0  0
 19 20  2  0  0  0  0
 29 32  1  0  0  0  0
  8 11  1  0  0  0  0
 38 39  1  0  0  0  0
 18 21  1  0  0  0  0
 21 22  1  0  0  0  0
 28 29  1  0  0  0  0
  7  8  1  0  0  0  0
 17 18  1  0  0  0  0
  3  4  1  0  0  0  0
  3  5  1  0  0  0  0
  3  6  1  0  0  0  0
 32 35  1  0  0  0  0
 32 36  1  0  0  0  0
 32 37  1  0  0  0  0
 11 14  1  0  0  0  0
 11 15  1  0  0  0  0
 11 16  1  0  0  0  0
 39 41  1  0  0  0  0
 39 42  1  0  0  0  0
 39 43  1  0  0  0  0
 21 25  1  0  0  0  0
 21 26  1  0  0  0  0
 29 34  1  0  0  0  0
  8 13  1  0  0  0  0
 18 24  1  0  0  0  0
 38 40  1  0  0  0  0
  7 12  1  0  0  0  0
 28 33  1  0  0  0  0
 17 23  1  0  0  0  0
 22 27  1  0  0  0  0
M  END
$$$$

  -OEChem-05262214473D

 43 42  0     1  0  0  0  0  0999 V2000
   -2.8661   -4.7415    2.2943 C   0  0  0  0  0  0  0  0  0  0  0  0
   -2.0233   -5.5727    2.6109 O   0  0  0  0  0  0  0  0  0  0  0  0
   -4.3078   -5.0134    2.5698 C   0  0  0  0  0  0  0  0  0  0  0  0
   -4.8057   -5.5295    1.7332 H   0  0  0  0  0  0  0  0  0  0  0  0
   -4.4526   -5.6688    3.4436 H   0  0  0  0  0  0  0  0  0  0  0  0
   -4.9255   -4.1233    2.7700 H   0  0  0  0  0  0  0  0  0  0  0  0
   -2.6241   -3.5219    1.6838 N   0  0  0  0  0  0  0  0  0  0  0  0
   -1.3070   -3.0608    1.3315 C   0  0  2  0  0  0  0  0  0  0  0  0
   -1.3931   -1.5680    1.0422 C   0  0  0  0  0  0  0  0  0  0  0  0
   -2.4385   -1.0059    0.7226 O   0  0  0  0  0  0  0  0  0  0  0  0
   -0.7590   -3.8164    0.1309 C   0  0  0  0  0  0  0  0  0  0  0  0
   -3.4188   -2.9207    1.4735 H   0  0  0  0  0  0  0  0  0  0  0  0
   -0.6690   -3.2277    2.2062 H   0  0  0  0  0  0  0  0  0  0  0  0
   -1.3852   -3.6613   -0.7553 H   0  0  0  0  0  0  0  0  0  0  0  0
    0.2542   -3.4843   -0.1182 H   0  0  0  0  0  0  0  0  0  0  0  0
   -0.7257   -4.8930    0.3300 H   0  0  0  0  0  0  0  0  0  0  0  0
   -0.1563   -0.9420    1.1402 N   0  0  0  0  0  0  0  0  0  0  0  0
    0.0261    0.4671    0.9001 C   0  0  2  0  0  0  0  0  0  0  0  0
    0.9120    1.0458    2.0015 C   0  0  0  0  0  0  0  0  0  0  0  0
    1.2501    2.2272    2.0374 O   0  0  0  0  0  0  0  0  0  0  0  0
   -1.3037    1.2077    0.7390 C   0  0  0  0  0  0  0  0  0  0  0  0
   -2.2540    0.6994   -0.7311 S   0  0  0  0  0  0  0  0  0  0  0  0
    0.6533   -1.4855    1.4300 H   0  0  0  0  0  0  0  0  0  0  0  0
    0.5828    0.5357   -0.0428 H   0  0  0  0  0  0  0  0  0  0  0  0
   -1.9422    1.0460    1.6136 H   0  0  0  0  0  0  0  0  0  0  0  0
   -1.1233    2.2849    0.6563 H   0  0  0  0  0  0  0  0  0  0  0  0
   -3.2831    1.5298   -0.5197 H   0  0  0  0  0  0  0  0  0  0  0  0
    1.2995    0.0836    2.9233 N   0  0  0  0  0  0  0  0  0  0  0  0
    2.1486    0.3837    4.0523 C   0  0  2  0  0  0  0  0  0  0  0  0
    2.4925   -0.9288    4.7441 C   0  0  0  0  0  0  0  0  0  0  0  0
    1.8076   -1.9438    4.6356 O   0  0  0  0  0  0  0  0  0  0  0  0
    1.4691    1.3442    5.0159 C   0  0  0  0  0  0  0  0  0  0  0  0
    0.9454   -0.8643    2.8353 H   0  0  0  0  0  0  0  0  0  0  0  0
    3.0619    0.8354    3.6500 H   0  0  0  0  0  0  0  0  0  0  0  0
    0.5520    0.9090    5.4293 H   0  0  0  0  0  0  0  0  0  0  0  0
    2.1251    1.5930    5.8566 H   0  0  0  0  0  0  0  0  0  0  0  0
    1.1957    2.2761    4.5092 H   0  0  0  0  0  0  0  0  0  0  0  0
    3.6305   -0.8214    5.5313 N   0  0  0  0  0  0  0  0  0  0  0  0
    4.1546   -1.9267    6.2991 C   0  0  0  0  0  0  0  0  0  0  0  0
    4.1464    0.0535    5.5470 H   0  0  0  0  0  0  0  0  0  0  0  0
    3.7371   -1.8978    7.3164 H   0  0  0  0  0  0  0  0  0  0  0  0
    3.8753   -2.8742    5.8151 H   0  0  0  0  0  0  0  0  0  0  0  0
    5.2507   -1.8503    6.3503 H   0  0  0  0  0  0  0  0  0  0  0  0
  1  3  1  0  0  0  0
  1  7  1  0  0  0  0
  1  2  2  0  0  0  0
 29 30  1  0  0  0  0
 30 38  1  0  0  0  0
 30 31  2  0  0  0  0
  8  9  1  0  0  0  0
  9 17  1  0  0  0  0
  9 10  2  0  0  0  0
 18 19  1  0  0  0  0
 19 28  1  0  0  0  0
 19 20  2  0  0  0  0
 29 32  1  0  0  0  0
  8 11  1  0  0  0  0
 38 39  1  0  0  0  0
 18 21  1  0  0  0  0
 21 22  1  0  0  0  0
 28 29  1  0  0  0  0
  7  8  1  0  0  0  0
 17 18  1  0  0  0  0
  3  4  1  0  0  0  0
  3  5  1  0  0  0  0
  3  6  1  0  0  0  0
 32 35  1  0  0  0  0
 32 36  1  0  0  0  0
 32 37  1  0  0  0  0
 11 14  1  0  0  0  0
 11 15  1  0  0  0  0
 11 16  1  0  0  0  0
 39 41  1  0  0  0  0
 39 42  1  0  0  0  0
 39 43  1  0  0  0  0
 21 25  1  0  0  0  0
 21 26  1  0  0  0  0
 29 34  1  0  0  0  0
  8 13  1  0  0  0  0
 18 24  1  0  0  0  0
 38 40  1  0  0  0  0
  7 12  1  0  0  0  0
 28 33  1  0  0  0  0
 17 23  1  0  0  0  0
 22 27  1  0  0  0  0
M  END
$$$$

  -OEChem-05262214473D

 43 42  0     1  0  0  0  0  0999 V2000
   -2.8661   -4.7415    2.2943 C   0  0  0  0  0  0  0  0  0  0  0  0
   -2.0233   -5.5727    2.6109 O   0  0  0  0  0  0  0  0  0  0  0  0
   -4.3078   -5.0134    2.5698 C   0  0  0  0  0  0  0  0  0  0  0  0
   -4.8057   -5.5295    1.7332 H   0  0  0  0  0  0  0  0  0  0  0  0
   -4.4526   -5.6688    3.4436 H   0  0  0  0  0  0  0  0  0  0  0  0
   -4.9255   -4.1233    2.7700 H   0  0  0  0  0  0  0  0  0  0  0  0
   -2.6241   -3.5219    1.6838 N   0  0  0  0  0  0  0  0  0  0  0  0
   -1.3070   -3.0608    1.3315 C   0  0  2  0  0  0  0  0  0  0  0  0
   -1.3931   -1.5680    1.0422 C   0  0  0  0  0  0  0  0  0  0  0  0
   -2.4385   -1.0059    0.7226 O   0  0  0  0  0  0  0  0  0  0  0  0
   -0.7590   -3.8164    0.1309 C   0  0  0  0  0  0  0  0  0  0  0  0
   -3.4188   -2.9207    1.4735 H   0  0  0  0  0  0  0  0  0  0  0  0
   -0.6690   -3.2277    2.2062 H   0  0  0  0  0  0  0  0  0  0  0  0
   -1.3852   -3.6613   -0.7553 H   0  0  0  0  0  0  0  0  0  0  0  0
    0.2542   -3.4843   -0.1182 H   0  0  0  0  0  0  0  0  0  0  0  0
   -0.7257   -4.8930    0.3300 H   0  0  0  0  0  0  0  0  0  0  0  0
   -0.1563   -0.9420    1.1402 N   0  0  0  0  0  0  0  0  0  0  0  0
    0.0261    0.4671    0.9001 C   0  0  2  0  0  0  0  0  0  0  0  0
    0.9120    1.0458    2.0015 C   0  0  0  0  0  0  0  0  0  0  0  0
    1.0348    2.2534    2.1968 O   0  0  0  0  0  0  0  0  0  0  0  0
   -1.3037    1.2077    0.7390 C   0  0  0  0  0  0  0  0  0  0  0  0
   -2.2540    0.6994   -0.7311 S   0  0  0  0  0  0  0  0  0  0  0  0
    0.6533   -1.4855    1.4300 H   0  0  0  0  0  0  0  0  0  0  0  0
    0.5828    0.5357   -0.0428 H   0  0  0  0  0  0  0  0  0  0  0  0
   -1.9422    1.0460    1.6136 H   0  0  0  0  0  0  0  0  0  0  0  0
   -1.1233    2.2849    0.6563 H   0  0  0  0  0  0  0  0  0  0  0  0
   -3.2831    1.5298   -0.5197 H   0  0  0  0  0  0  0  0  0  0  0  0
    1.5666    0.0571    2.7223 N   0  0  0  0  0  0  0  0  0  0  0  0
    2.4696    0.3543    3.8096 C   0  0  2  0  0  0  0  0  0  0  0  0
    3.1186   -0.9506    4.2519 C   0  0  0  0  0  0  0  0  0  0  0  0
    2.6188   -2.0536    4.0408 O   0  0  0  0  0  0  0  0  0  0  0  0
    1.7416    1.0192    4.9674 C   0  0  0  0  0  0  0  0  0  0  0  0
    1.3805   -0.9195    2.5143 H   0  0  0  0  0  0  0  0  0  0  0  0
    3.2362    1.0267    3.4093 H   0  0  0  0  0  0  0  0  0  0  0  0
    0.9697    0.3604    5.3816 H   0  0  0  0  0  0  0  0  0  0  0  0
    2.4326    1.2697    5.7791 H   0  0  0  0  0  0  0  0  0  0  0  0
    1.2506    1.9421    4.6406 H   0  0  0  0  0  0  0  0  0  0  0  0
    4.3000   -0.7362    4.9480 N   0  0  0  0  0  0  0  0  0  0  0  0
    5.0965   -1.8156    5.4831 C   0  0  0  0  0  0  0  0  0  0  0  0
    4.6492    0.2111    5.0597 H   0  0  0  0  0  0  0  0  0  0  0  0
    4.7976   -2.0118    6.5234 H   0  0  0  0  0  0  0  0  0  0  0  0
    4.9389   -2.7215    4.8794 H   0  0  0  0  0  0  0  0  0  0  0  0
    6.1599   -1.5358    5.4539 H   0  0  0  0  0  0  0  0  0  0  0  0
  1  3  1  0  0  0  0
  1  7  1  0  0  0  0
  1  2  2  0  0  0  0
 29 30  1  0  0  0  0
 30 38  1  0  0  0  0
 30 31  2  0  0  0  0
  8  9  1  0  0  0  0
  9 17  1  0  0  0  0
  9 10  2  0  0  0  0
 18 19  1  0  0  0  0
 19 28  1  0  0  0  0
 19 20  2  0  0  0  0
 29 32  1  0  0  0  0
  8 11  1  0  0  0  0
 38 39  1  0  0  0  0
 18 21  1  0  0  0  0
 21 22  1  0  0  0  0
 28 29  1  0  0  0  0
  7  8  1  0  0  0  0
 17 18  1  0  0  0  0
  3  4  1  0  0  0  0
  3  5  1  0  0  0  0
  3  6  1  0  0  0  0
 32 35  1  0  0  0  0
 32 36  1  0  0  0  0
 32 37  1  0  0  0  0
 11 14  1  0  0  0  0
 11 15  1  0  0  0  0
 11 16  1  0  0  0  0
 39 41  1  0  0  0  0
 39 42  1  0  0  0  0
 39 43  1  0  0  0  0
 21 25  1  0  0  0  0
 21 26  1  0  0  0  0
 29 34  1  0  0  0  0
  8 13  1  0  0  0  0
 18 24  1  0  0  0  0
 38 40  1  0  0  0  0
  7 12  1  0  0  0  0
 28 33  1  0  0  0  0
 17 23  1  0  0  0  0
 22 27  1  0  0  0  0
M  END
$$$$

  -OEChem-05262214473D

 43 42  0     1  0  0  0  0  0999 V2000
   -2.8661   -4.7415    2.2943 C   0  0  0  0  0  0  0  0  0  0  0  0
   -2.0233   -5.5727    2.6109 O   0  0  0  0  0  0  0  0  0  0  0  0
   -4.3078   -5.0134    2.5698 C   0  0  0  0  0  0  0  0  0  0  0  0
   -4.8057   -5.5295    1.7332 H   0  0  0  0  0  0  0  0  0  0  0  0
   -4.4526   -5.6688    3.4436 H   0  0  0  0  0  0  0  0  0  0  0  0
   -4.9255   -4.1233    2.7700 H   0  0  0  0  0  0  0  0  0  0  0  0
   -2.6241   -3.5219    1.6838 N   0  0  0  0  0  0  0  0  0  0  0  0
   -1.3070   -3.0608    1.3315 C   0  0  2  0  0  0  0  0  0  0  0  0
   -1.3931   -1.5680    1.0422 C   0  0  0  0  0  0  0  0  0  0  0  0
   -2.4385   -1.0059    0.7226 O   0  0  0  0  0  0  0  0  0  0  0  0
   -0.7590   -3.8164    0.1309 C   0  0  0  0  0  0  0  0  0  0  0  0
   -3.4188   -2.9207    1.4735 H   0  0  0  0  0  0  0  0  0  0  0  0
   -0.6690   -3.2277    2.2062 H   0  0  0  0  0  0  0  0  0  0  0  0
   -1.3852   -3.6613   -0.7553 H   0  0  0  0  0  0  0  0  0  0  0  0
    0.2542   -3.4843   -0.1182 H   0  0  0  0  0  0  0  0  0  0  0  0
   -0.7257   -4.8930    0.3300 H   0  0  0  0  0  0  0  0  0  0  0  0
   -0.1563   -0.9420    1.1402 N   0  0  0  0  0  0  0  0  0  0  0  0
    0.0261    0.4671    0.9001 C   0  0  2  0  0  0  0  0  0  0  0  0
    0.9120    1.0458    2.0015 C   0  0  0  0  0  0  0  0  0  0  0  0
    0.8377    2.2145    2.3759 O   0  0  0  0  0  0  0  0  0  0  0  0
   -1.3037    1.2077    0.7390 C   0  0  0  0  0  0  0  0  0  0  0  0
   -2.2540    0.6994   -0.7311 S   0  0  0  0  0  0  0  0  0  0  0  0
    0.6533   -1.4855    1.4300 H   0  0  0  0  0  0  0  0  0  0  0  0
    0.5828    0.5357   -0.0428 H   0  0  0  0  0  0  0  0  0  0  0  0
   -1.9422    1.0460    1.6136 H   0  0  0  0  0  0  0  0  0  0  0  0
   -1.1233    2.2849    0.6563 H   0  0  0  0  0  0  0  0  0  0  0  0
   -3.2831    1.5298   -0.5197 H   0  0  0  0  0  0  0  0  0  0  0  0
    1.8099    0.1116    2.4980 N   0  0  0  0  0  0  0  0  0  0  0  0
    2.7614    0.4223    3.5392 C   0  0  2  0  0  0  0  0  0  0  0  0
    3.6791   -0.7808    3.7119 C   0  0  0  0  0  0  0  0  0  0  0  0
    3.3645   -1.9190    3.3703 O   0  0  0  0  0  0  0  0  0  0  0  0
    2.0608    0.7634    4.8452 C   0  0  0  0  0  0  0  0  0  0  0  0
    1.7796   -0.8434    2.1533 H   0  0  0  0  0  0  0  0  0  0  0  0
    3.3451    1.2803    3.1884 H   0  0  0  0  0  0  0  0  0  0  0  0
    1.4708   -0.0843    5.2122 H   0  0  0  0  0  0  0  0  0  0  0  0
    2.7824    1.0265    5.6256 H   0  0  0  0  0  0  0  0  0  0  0  0
    1.3787    1.6101    4.7119 H   0  0  0  0  0  0  0  0  0  0  0  0
    4.8735   -0.4413    4.3318 N   0  0  0  0  0  0  0  0  0  0  0  0
    5.9055   -1.4100    4.6193 C   0  0  0  0  0  0  0  0  0  0  0  0
    5.0578    0.5303    4.5634 H   0  0  0  0  0  0  0  0  0  0  0  0
    5.7654   -1.8050    5.6363 H   0  0  0  0  0  0  0  0  0  0  0  0
    5.8460   -2.2351    3.8942 H   0  0  0  0  0  0  0  0  0  0  0  0
    6.8915   -0.9278    4.5460 H   0  0  0  0  0  0  0  0  0  0  0  0
  1  3  1  0  0  0  0
  1  7  1  0  0  0  0
  1  2  2  0  0  0  0
 29 30  1  0  0  0  0
 30 38  1  0  0  0  0
 30 31  2  0  0  0  0
  8  9  1  0  0  0  0
  9 17  1  0  0  0  0
  9 10  2  0  0  0  0
 18 19  1  0  0  0  0
 19 28  1  0  0  0  0
 19 20  2  0  0  0  0
 29 32  1  0  0  0  0
  8 11  1  0  0  0  0
 38 39  1  0  0  0  0
 18 21  1  0  0  0  0
 21 22  1  0  0  0  0
 28 29  1  0  0  0  0
  7  8  1  0  0  0  0
 17 18  1  0  0  0  0
  3  4  1  0  0  0  0
  3  5  1  0  0  0  0
  3  6  1  0  0  0  0
 32 35  1  0  0  0  0
 32 36  1  0  0  0  0
 32 37  1  0  0  0  0
 11 14  1  0  0  0  0
 11 15  1  0  0  0  0
 11 16  1  0  0  0  0
 39 41  1  0  0  0  0
 39 42  1  0  0  0  0
 39 43  1  0  0  0  0
 21 25  1  0  0  0  0
 21 26  1  0  0  0  0
 29 34  1  0  0  0  0
  8 13  1  0  0  0  0
 18 24  1  0  0  0  0
 38 40  1  0  0  0  0
  7 12  1  0  0  0  0
 28 33  1  0  0  0  0
 17 23  1  0  0  0  0
 22 27  1  0  0  0  0
M  END
$$$$

  -OEChem-05262214473D

 43 42  0     1  0  0  0  0  0999 V2000
   -2.8661   -4.7415    2.2943 C   0  0  0  0  0  0  0  0  0  0  0  0
   -2.0233   -5.5727    2.6109 O   0  0  0  0  0  0  0  0  0  0  0  0
   -4.3078   -5.0134    2.5698 C   0  0  0  0  0  0  0  0  0  0  0  0
   -4.8057   -5.5295    1.7332 H   0  0  0  0  0  0  0  0  0  0  0  0
   -4.4526   -5.6688    3.4436 H   0  0  0  0  0  0  0  0  0  0  0  0
   -4.9255   -4.1233    2.7700 H   0  0  0  0  0  0  0  0  0  0  0  0
   -2.6241   -3.5219    1.6838 N   0  0  0  0  0  0  0  0  0  0  0  0
   -1.3070   -3.0608    1.3315 C   0  0  2  0  0  0  0  0  0  0  0  0
   -1.3931   -1.5680    1.0422 C   0  0  0  0  0  0  0  0  0  0  0  0
   -2.4385   -1.0059    0.7226 O   0  0  0  0  0  0  0  0  0  0  0  0
   -0.7590   -3.8164    0.1309 C   0  0  0  0  0  0  0  0  0  0  0  0
   -3.4188   -2.9207    1.4735 H   0  0  0  0  0  0  0  0  0  0  0  0
   -0.6690   -3.2277    2.2062 H   0  0  0  0  0  0  0  0  0  0  0  0
   -1.3852   -3.6613   -0.7553 H   0  0  0  0  0  0  0  0  0  0  0  0
    0.2542   -3.4843   -0.1182 H   0  0  0  0  0  0  0  0  0  0  0  0
   -0.7257   -4.8930    0.3300 H   0  0  0  0  0  0  0  0  0  0  0  0
   -0.1563   -0.9420    1.1402 N   0  0  0  0  0  0  0  0  0  0  0  0
    0.0261    0.4671    0.9001 C   0  0  2  0  0  0  0  0  0  0  0  0
    0.9120    1.0458    2.0015 C   0  0  0  0  0  0  0  0  0  0  0  0
    0.6720    2.1132    2.5623 O   0  0  0  0  0  0  0  0  0  0  0  0
   -1.3037    1.2077    0.7390 C   0  0  0  0  0  0  0  0  0  0  0  0
   -2.2540    0.6994   -0.7311 S   0  0  0  0  0  0  0  0  0  0  0  0
    0.6533   -1.4855    1.4300 H   0  0  0  0  0  0  0  0  0  0  0  0
    0.5828    0.5357   -0.0428 H   0  0  0  0  0  0  0  0  0  0  0  0
   -1.9422    1.0460    1.6136 H   0  0  0  0  0  0  0  0  0  0  0  0
   -1.1233    2.2849    0.6563 H   0  0  0  0  0  0  0  0  0  0  0  0
   -3.2831    1.5298   -0.5197 H   0  0  0  0  0  0  0  0  0  0  0  0
    2.0127    0.2432    2.2657 N   0  0  0  0  0  0  0  0  0  0  0  0
    3.0040    0.5830    3.2596 C   0  0  2  0  0  0  0  0  0  0  0  0
    4.1359   -0.4312    3.1608 C   0  0  0  0  0  0  0  0  0  0  0  0
    3.9939   -1.5491    2.6697 O   0  0  0  0  0  0  0  0  0  0  0  0
    2.4048    0.5943    4.6573 C   0  0  0  0  0  0  0  0  0  0  0  0
    2.1155   -0.6412    1.7770 H   0  0  0  0  0  0  0  0  0  0  0  0
    3.3814    1.5787    3.0024 H   0  0  0  0  0  0  0  0  0  0  0  0
    2.0212   -0.3949    4.9327 H   0  0  0  0  0  0  0  0  0  0  0  0
    3.1506    0.8798    5.4065 H   0  0  0  0  0  0  0  0  0  0  0  0
    1.5715    1.3026    4.7185 H   0  0  0  0  0  0  0  0  0  0  0  0
    5.3121    0.0430    3.7246 N   0  0  0  0  0  0  0  0  0  0  0  0
    6.5266   -0.7375    3.7664 C   0  0  0  0  0  0  0  0  0  0  0  0
    5.3441    0.9895    4.0919 H   0  0  0  0  0  0  0  0  0  0  0  0
    6.5746   -1.2914    4.7156 H   0  0  0  0  0  0  0  0  0  0  0  0
    6.5348   -1.4480    2.9267 H   0  0  0  0  0  0  0  0  0  0  0  0
    7.3957   -0.0677    3.6886 H   0  0  0  0  0  0  0  0  0  0  0  0
  1  3  1  0  0  0  0
  1  7  1  0  0  0  0
  1  2  2  0  0  0  0
 29 30  1  0  0  0  0
 30 38  1  0  0  0  0
 30 31  2  0  0  0  0
  8  9  1  0  0  0  0
  9 17  1  0  0  0  0
  9 10  2  0  0  0  0
 18 19  1  0  0  0  0
 19 28  1  0  0  0  0
 19 20  2  0  0  0  0
 29 32  1  0  0  0  0
  8 11  1  0  0  0  0
 38 39  1  0  0  0  0
 18 21  1  0  0  0  0
 21 22  1  0  0  0  0
 28 29  1  0  0  0  0
  7  8  1  0  0  0  0
 17 18  1  0  0  0  0
  3  4  1  0  0  0  0
  3  5  1  0  0  0  0
  3  6  1  0  0  0  0
 32 35  1  0  0  0  0
 32 36  1  0  0  0  0
 32 37  1  0  0  0  0
 11 14  1  0  0  0  0
 11 15  1  0  0  0  0
 11 16  1  0  0  0  0
 39 41  1  0  0  0  0
 39 42  1  0  0  0  0
 39 43  1  0  0  0  0
 21 25  1  0  0  0  0
 21 26  1  0  0  0  0
 29 34  1  0  0  0  0
  8 13  1  0  0  0  0
 18 24  1  0  0  0  0
 38 40  1  0  0  0  0
  7 12  1  0  0  0  0
 28 33  1  0  0  0  0
 17 23  1  0  0  0  0
 22 27  1  0  0  0  0
M  END
$$$$

  -OEChem-05262214473D

 43 42  0     1  0  0  0  0  0999 V2000
   -2.8661   -4.7415    2.2943 C   0  0  0  0  0  0  0  0  0  0  0  0
   -2.0233   -5.5727    2.6109 O   0  0  0  0  0  0  0  0  0  0  0  0
   -4.3078   -5.0134    2.5698 C   0  0  0  0  0  0  0  0  0  0  0  0
   -4.8057   -5.5295    1.7332 H   0  0  0  0  0  0  0  0  0  0  0  0
   -4.4526   -5.6688    3.4436 H   0  0  0  0  0  0  0  0  0  0  0  0
   -4.9255   -4.1233    2.7700 H   0  0  0  0  0  0  0  0  0  0  0  0
   -2.6241   -3.5219    1.6838 N   0  0  0  0  0  0  0  0  0  0  0  0
   -1.3070   -3.0608    1.3315 C   0  0  2  0  0  0  0  0  0  0  0  0
   -1.3931   -1.5680    1.0422 C   0  0  0  0  0  0  0  0  0  0  0  0
   -2.4385   -1.0059    0.7226 O   0  0  0  0  0  0  0  0  0  0  0  0
   -0.7590   -3.8164    0.1309 C   0  0  0  0  0  0  0  0  0  0  0  0
   -3.4188   -2.9207    1.4735 H   0  0  0  0  0  0  0  0  0  0  0  0
   -0.6690   -3.2277    2.2062 H   0  0  0  0  0  0  0  0  0  0  0  0
   -1.3852   -3.6613   -0.7553 H   0  0  0  0  0  0  0  0  0  0  0  0
    0.2542   -3.4843   -0.1182 H   0  0  0  0  0  0  0  0  0  0  0  0
   -0.7257   -4.8930    0.3300 H   0  0  0  0  0  0  0  0  0  0  0  0
   -0.1563   -0.9420    1.1402 N   0  0  0  0  0  0  0  0  0  0  0  0
    0.0261    0.4671    0.9001 C   0  0  2  0  0  0  0  0  0  0  0  0
    0.9120    1.0458    2.0015 C   0  0  0  0  0  0  0  0  0  0  0  0
    0.5492    1.9565    2.7434 O   0  0  0  0  0  0  0  0  0  0  0  0
   -1.3037    1.2077    0.7390 C   0  0  0  0  0  0  0  0  0  0  0  0
   -2.2540    0.6994   -0.7311 S   0  0  0  0  0  0  0  0  0  0  0  0
    0.6533   -1.4855    1.4300 H   0  0  0  0  0  0  0  0  0  0  0  0
    0.5828    0.5357   -0.0428 H   0  0  0  0  0  0  0  0  0  0  0  0
   -1.9422    1.0460    1.6136 H   0  0  0  0  0  0  0  0  0  0  0  0
   -1.1233    2.2849    0.6563 H   0  0  0  0  0  0  0  0  0  0  0  0
   -3.2831    1.5298   -0.5197 H   0  0  0  0  0  0  0  0  0  0  0  0
    2.1613    0.4431    2.0412 N   0  0  0  0  0  0  0  0  0  0  0  0
    3.1809    0.8254    2.9900 C   0  0  2  0  0  0  0  0  0  0  0  0
    4.4578    0.0746    2.6362 C   0  0  0  0  0  0  0  0  0  0  0  0
    4.4642   -0.9691    1.9868 O   0  0  0  0  0  0  0  0  0  0  0  0
    2.7502    0.5233    4.4168 C   0  0  0  0  0  0  0  0  0  0  0  0
    2.3653   -0.3267    1.4108 H   0  0  0  0  0  0  0  0  0  0  0  0
    3.3425    1.9016    2.8641 H   0  0  0  0  0  0  0  0  0  0  0  0
    2.5835   -0.5503    4.5621 H   0  0  0  0  0  0  0  0  0  0  0  0
    3.5122    0.8398    5.1367 H   0  0  0  0  0  0  0  0  0  0  0  0
    1.8158    1.0406    4.6597 H   0  0  0  0  0  0  0  0  0  0  0  0
    5.5858    0.6838    3.1677 N   0  0  0  0  0  0  0  0  0  0  0  0
    6.9174    0.1560    2.9827 C   0  0  0  0  0  0  0  0  0  0  0  0
    5.4888    1.5572    3.6772 H   0  0  0  0  0  0  0  0  0  0  0  0
    7.1701   -0.5061    3.8240 H   0  0  0  0  0  0  0  0  0  0  0  0
    6.9584   -0.4139    2.0427 H   0  0  0  0  0  0  0  0  0  0  0  0
    7.6380    0.9859    2.9400 H   0  0  0  0  0  0  0  0  0  0  0  0
  1  3  1  0  0  0  0
  1  7  1  0  0  0  0
  1  2  2  0  0  0  0
 29 30  1  0  0  0  0
 30 38  1  0  0  0  0
 30 31  2  0  0  0  0
  8  9  1  0  0  0  0
  9 17  1  0  0  0  0
  9 10  2  0  0  0  0
 18 19  1  0  0  0  0
 19 28  1  0  0  0  0
 19 20  2  0  0  0  0
 29 32  1  0  0  0  0
  8 11  1  0  0  0  0
 38 39  1  0  0  0  0
 18 21  1  0  0  0  0
 21 22  1  0  0  0  0
 28 29  1  0  0  0  0
  7  8  1  0  0  0  0
 17 18  1  0  0  0  0
  3  4  1  0  0  0  0
  3  5  1  0  0  0  0
  3  6  1  0  0  0  0
 32 35  1  0  0  0  0
 32 36  1  0  0  0  0
 32 37  1  0  0  0  0
 11 14  1  0  0  0  0
 11 15  1  0  0  0  0
 11 16  1  0  0  0  0
 39 41  1  0  0  0  0
 39 42  1  0  0  0  0
 39 43  1  0  0  0  0
 21 25  1  0  0  0  0
 21 26  1  0  0  0  0
 29 34  1  0  0  0  0
  8 13  1  0  0  0  0
 18 24  1  0  0  0  0
 38 40  1  0  0  0  0
  7 12  1  0  0  0  0
 28 33  1  0  0  0  0
 17 23  1  0  0  0  0
 22 27  1  0  0  0  0
M  END
$$$$

  -OEChem-05262214473D

 43 42  0     1  0  0  0  0  0999 V2000
   -2.8661   -4.7415    2.2943 C   0  0  0  0  0  0  0  0  0  0  0  0
   -2.0233   -5.5727    2.6109 O   0  0  0  0  0  0  0  0  0  0  0  0
   -4.3078   -5.0134    2.5698 C   0  0  0  0  0  0  0  0  0  0  0  0
   -4.8057   -5.5295    1.7332 H   0  0  0  0  0  0  0  0  0  0  0  0
   -4.4526   -5.6688    3.4436 H   0  0  0  0  0  0  0  0  0  0  0  0
   -4.9255   -4.1233    2.7700 H   0  0  0  0  0  0  0  0  0  0  0  0
   -2.6241   -3.5219    1.6838 N   0  0  0  0  0  0  0  0  0  0  0  0
   -1.3070   -3.0608    1.3315 C   0  0  2  0  0  0  0  0  0  0  0  0
   -1.3931   -1.5680    1.0422 C   0  0  0  0  0  0  0  0  0  0  0  0
   -2.4385   -1.0059    0.7226 O   0  0  0  0  0  0  0  0  0  0  0  0
   -0.7590   -3.8164    0.1309 C   0  0  0  0  0  0  0  0  0  0  0  0
   -3.4188   -2.9207    1.4735 H   0  0  0  0  0  0  0  0  0  0  0  0
   -0.6690   -3.2277    2.2062 H   0  0  0  0  0  0  0  0  0  0  0  0
   -1.3852   -3.6613   -0.7553 H   0  0  0  0  0  0  0  0  0  0  0  0
    0.2542   -3.4843   -0.1182 H   0  0  0  0  0  0  0  0  0  0  0  0
   -0.7257   -4.8930    0.3300 H   0  0  0  0  0  0  0  0  0  0  0  0
   -0.1563   -0.9420    1.1402 N   0  0  0  0  0  0  0  0  0  0  0  0
    0.0261    0.4671    0.9001 C   0  0  2  0  0  0  0  0  0  0  0  0
    0.9120    1.0458    2.0015 C   0  0  0  0  0  0  0  0  0  0  0  0
    0.4776    1.7551    2.9069 O   0  0  0  0  0  0  0  0  0  0  0  0
   -1.3037    1.2077    0.7390 C   0  0  0  0  0  0  0  0  0  0  0  0
   -2.2540    0.6994   -0.7311 S   0  0  0  0  0  0  0  0  0  0  0  0
    0.6533   -1.4855    1.4300 H   0  0  0  0  0  0  0  0  0  0  0  0
    0.5828    0.5357   -0.0428 H   0  0  0  0  0  0  0  0  0  0  0  0
   -1.9422    1.0460    1.6136 H   0  0  0  0  0  0  0  0  0  0  0  0
   -1.1233    2.2849    0.6563 H   0  0  0  0  0  0  0  0  0  0  0  0
   -3.2831    1.5298   -0.5197 H   0  0  0  0  0  0  0  0  0  0  0  0
    2.2455    0.6977    1.8398 N   0  0  0  0  0  0  0  0  0  0  0  0
    3.2801    1.1331    2.7485 C   0  0  2  0  0  0  0  0  0  0  0  0
    4.6229    0.7019    2.1738 C   0  0  0  0  0  0  0  0  0  0  0  0
    4.7432   -0.2187    1.3681 O   0  0  0  0  0  0  0  0  0  0  0  0
    3.0735    0.5553    4.1399 C   0  0  0  0  0  0  0  0  0  0  0  0
    2.5119    0.0786    1.0798 H   0  0  0  0  0  0  0  0  0  0  0  0
    3.2311    2.2270    2.7827 H   0  0  0  0  0  0  0  0  0  0  0  0
    3.1192   -0.5398    4.1257 H   0  0  0  0  0  0  0  0  0  0  0  0
    3.8424    0.9091    4.8347 H   0  0  0  0  0  0  0  0  0  0  0  0
    2.0948    0.8419    4.5396 H   0  0  0  0  0  0  0  0  0  0  0  0
    5.6760    1.4375    2.6992 N   0  0  0  0  0  0  0  0  0  0  0  0
    7.0512    1.2096    2.3214 C   0  0  0  0  0  0  0  0  0  0  0  0
    5.4819    2.1948    3.3478 H   0  0  0  0  0  0  0  0  0  0  0  0
    7.5113    0.4975    3.0223 H   0  0  0  0  0  0  0  0  0  0  0  0
    7.0878    0.7967    1.3025 H   0  0  0  0  0  0  0  0  0  0  0  0
    7.6021    2.1612    2.3514 H   0  0  0  0  0  0  0  0  0  0  0  0
  1  3  1  0  0  0  0
  1  7  1  0  0  0  0
  1  2  2  0  0  0  0
 29 30  1  0  0  0  0
 30 38  1  0  0  0  0
 30 31  2  0  0  0  0
  8  9  1  0  0  0  0
  9 17  1  0  0  0  0
  9 10  2  0  0  0  0
 18 19  1  0  0  0  0
 19 28  1  0  0  0  0
 19 20  2  0  0  0  0
 29 32  1  0  0  0  0
  8 11  1  0  0  0  0
 38 39  1  0  0  0  0
 18 21  1  0  0  0  0
 21 22  1  0  0  0  0
 28 29  1  0  0  0  0
  7  8  1  0  0  0  0
 17 18  1  0  0  0  0
  3  4  1  0  0  0  0
  3  5  1  0  0  0  0
  3  6  1  0  0  0  0
 32 35  1  0  0  0  0
 32 36  1  0  0  0  0
 32 37  1  0  0  0  0
 11 14  1  0  0  0  0
 11 15  1  0  0  0  0
 11 16  1  0  0  0  0
 39 41  1  0  0  0  0
 39 42  1  0  0  0  0
 39 43  1  0  0  0  0
 21 25  1  0  0  0  0
 21 26  1  0  0  0  0
 29 34  1  0  0  0  0
  8 13  1  0  0  0  0
 18 24  1  0  0  0  0
 38 40  1  0  0  0  0
  7 12  1  0  0  0  0
 28 33  1  0  0  0  0
 17 23  1  0  0  0  0
 22 27  1  0  0  0  0
M  END
$$$$

  -OEChem-05262214473D

 43 42  0     1  0  0  0  0  0999 V2000
   -2.8661   -4.7415    2.2943 C   0  0  0  0  0  0  0  0  0  0  0  0
   -2.0233   -5.5727    2.6109 O   0  0  0  0  0  0  0  0  0  0  0  0
   -4.3078   -5.0134    2.5698 C   0  0  0  0  0  0  0  0  0  0  0  0
   -4.8057   -5.5295    1.7332 H   0  0  0  0  0  0  0  0  0  0  0  0
   -4.4526   -5.6688    3.4436 H   0  0  0  0  0  0  0  0  0  0  0  0
   -4.9255   -4.1233    2.7700 H   0  0  0  0  0  0  0  0  0  0  0  0
   -2.6241   -3.5219    1.6838 N   0  0  0  0  0  0  0  0  0  0  0  0
   -1.3070   -3.0608    1.3315 C   0  0  2  0  0  0  0  0  0  0  0  0
   -1.3931   -1.5680    1.0422 C   0  0  0  0  0  0  0  0  0  0  0  0
   -2.4385   -1.0059    0.7226 O   0  0  0  0  0  0  0  0  0  0  0  0
   -0.7590   -3.8164    0.1309 C   0  0  0  0  0  0  0  0  0  0  0  0
   -3.4188   -2.9207    1.4735 H   0  0  0  0  0  0  0  0  0  0  0  0
   -0.6690   -3.2277    2.2062 H   0  0  0  0  0  0  0  0  0  0  0  0
   -1.3852   -3.6613   -0.7553 H   0  0  0  0  0  0  0  0  0  0  0  0
    0.2542   -3.4843   -0.1182 H   0  0  0  0  0  0  0  0  0  0  0  0
   -0.7257   -4.8930    0.3300 H   0  0  0  0  0  0  0  0  0  0  0  0
   -0.1563   -0.9420    1.1402 N   0  0  0  0  0  0  0  0  0  0  0  0
    0.0261    0.4671    0.9001 C   0  0  2  0  0  0  0  0  0  0  0  0
    0.9120    1.0458    2.0015 C   0  0  0  0  0  0  0  0  0  0  0  0
    0.4620    1.5225    3.0415 O   0  0  0  0  0  0  0  0  0  0  0  0
   -1.3037    1.2077    0.7390 C   0  0  0  0  0  0  0  0  0  0  0  0
   -2.2540    0.6994   -0.7311 S   0  0  0  0  0  0  0  0  0  0  0  0
    0.6533   -1.4855    1.4300 H   0  0  0  0  0  0  0  0  0  0  0  0
    0.5828    0.5357   -0.0428 H   0  0  0  0  0  0  0  0  0  0  0  0
   -1.9422    1.0460    1.6136 H   0  0  0  0  0  0  0  0  0  0  0  0
   -1.1233    2.2849    0.6563 H   0  0  0  0  0  0  0  0  0  0  0  0
   -3.2831    1.5298   -0.5197 H   0  0  0  0  0  0  0  0  0  0  0  0
    2.2595    0.9895    1.6751 N   0  0  0  0  0  0  0  0  0  0  0  0
    3.2948    1.4851    2.5517 C   0  0  2  0  0  0  0  0  0  0  0  0
    4.6200    1.4081    1.8051 C   0  0  0  0  0  0  0  0  0  0  0  0
    4.8120    0.6512    0.8557 O   0  0  0  0  0  0  0  0  0  0  0  0
    3.3527    0.6881    3.8456 C   0  0  0  0  0  0  0  0  0  0  0  0
    2.5455    0.5472    0.8066 H   0  0  0  0  0  0  0  0  0  0  0  0
    3.0548    2.5327    2.7638 H   0  0  0  0  0  0  0  0  0  0  0  0
    3.5920   -0.3641    3.6532 H   0  0  0  0  0  0  0  0  0  0  0  0
    4.1189    1.0831    4.5209 H   0  0  0  0  0  0  0  0  0  0  0  0
    2.3897    0.7201    4.3665 H   0  0  0  0  0  0  0  0  0  0  0  0
    5.5764    2.2527    2.3510 N   0  0  0  0  0  0  0  0  0  0  0  0
    6.9190    2.3516    1.8278 C   0  0  0  0  0  0  0  0  0  0  0  0
    5.3239    2.8589    3.1259 H   0  0  0  0  0  0  0  0  0  0  0  0
    7.5750    1.6509    2.3651 H   0  0  0  0  0  0  0  0  0  0  0  0
    6.9143    2.1013    0.7566 H   0  0  0  0  0  0  0  0  0  0  0  0
    7.2903    3.3782    1.9628 H   0  0  0  0  0  0  0  0  0  0  0  0
  1  3  1  0  0  0  0
  1  7  1  0  0  0  0
  1  2  2  0  0  0  0
 29 30  1  0  0  0  0
 30 38  1  0  0  0  0
 30 31  2  0  0  0  0
  8  9  1  0  0  0  0
  9 17  1  0  0  0  0
  9 10  2  0  0  0  0
 18 19  1  0  0  0  0
 19 28  1  0  0  0  0
 19 20  2  0  0  0  0
 29 32  1  0  0  0  0
  8 11  1  0  0  0  0
 38 39  1  0  0  0  0
 18 21  1  0  0  0  0
 21 22  1  0  0  0  0
 28 29  1  0  0  0  0
  7  8  1  0  0  0  0
 17 18  1  0  0  0  0
  3  4  1  0  0  0  0
  3  5  1  0  0  0  0
  3  6  1  0  0  0  0
 32 35  1  0  0  0  0
 32 36  1  0  0  0  0
 32 37  1  0  0  0  0
 11 14  1  0  0  0  0
 11 15  1  0  0  0  0
 11 16  1  0  0  0  0
 39 41  1  0  0  0  0
 39 42  1  0  0  0  0
 39 43  1  0  0  0  0
 21 25  1  0  0  0  0
 21 26  1  0  0  0  0
 29 34  1  0  0  0  0
  8 13  1  0  0  0  0
 18 24  1  0  0  0  0
 38 40  1  0  0  0  0
  7 12  1  0  0  0  0
 28 33  1  0  0  0  0
 17 23  1  0  0  0  0
 22 27  1  0  0  0  0
M  END
$$$$

  -OEChem-05262214473D

 43 42  0     1  0  0  0  0  0999 V2000
   -2.8661   -4.7415    2.2943 C   0  0  0  0  0  0  0  0  0  0  0  0
   -2.0233   -5.5727    2.6109 O   0  0  0  0  0  0  0  0  0  0  0  0
   -4.3078   -5.0134    2.5698 C   0  0  0  0  0  0  0  0  0  0  0  0
   -4.8057   -5.5295    1.7332 H   0  0  0  0  0  0  0  0  0  0  0  0
   -4.4526   -5.6688    3.4436 H   0  0  0  0  0  0  0  0  0  0  0  0
   -4.9255   -4.1233    2.7700 H   0  0  0  0  0  0  0  0  0  0  0  0
   -2.6241   -3.5219    1.6838 N   0  0  0  0  0  0  0  0  0  0  0  0
   -1.3070   -3.0608    1.3315 C   0  0  2  0  0  0  0  0  0  0  0  0
   -1.3931   -1.5680    1.0422 C   0  0  0  0  0  0  0  0  0  0  0  0
   -2.4385   -1.0059    0.7226 O   0  0  0  0  0  0  0  0  0  0  0  0
   -0.7590   -3.8164    0.1309 C   0  0  0  0  0  0  0  0  0  0  0  0
   -3.4188   -2.9207    1.4735 H   0  0  0  0  0  0  0  0  0  0  0  0
   -0.6690   -3.2277    2.2062 H   0  0  0  0  0  0  0  0  0  0  0  0
   -1.3852   -3.6613   -0.7553 H   0  0  0  0  0  0  0  0  0  0  0  0
    0.2542   -3.4843   -0.1182 H   0  0  0  0  0  0  0  0  0  0  0  0
   -0.7257   -4.8930    0.3300 H   0  0  0  0  0  0  0  0  0  0  0  0
   -0.1563   -0.9420    1.1402 N   0  0  0  0  0  0  0  0  0  0  0  0
    0.0261    0.4671    0.9001 C   0  0  2  0  0  0  0  0  0  0  0  0
    0.9120    1.0458    2.0015 C   0  0  0  0  0  0  0  0  0  0  0  0
    0.5036    1.2748    3.1382 O   0  0  0  0  0  0  0  0  0  0  0  0
   -1.3037    1.2077    0.7390 C   0  0  0  0  0  0  0  0  0  0  0  0
   -2.2540    0.6994   -0.7311 S   0  0  0  0  0  0  0  0  0  0  0  0
    0.6533   -1.4855    1.4300 H   0  0  0  0  0  0  0  0  0  0  0  0
    0.5828    0.5357   -0.0428 H   0  0  0  0  0  0  0  0  0  0  0  0
   -1.9422    1.0460    1.6136 H   0  0  0  0  0  0  0  0  0  0  0  0
   -1.1233    2.2849    0.6563 H   0  0  0  0  0  0  0  0  0  0  0  0
   -3.2831    1.5298   -0.5197 H   0  0  0  0  0  0  0  0  0  0  0  0
    2.2025    1.2987    1.5585 N   0  0  0  0  0  0  0  0  0  0  0  0
    3.2240    1.8574    2.4131 C   0  0  2  0  0  0  0  0  0  0  0  0
    4.4492    2.1450    1.5553 C   0  0  0  0  0  0  0  0  0  0  0  0
    4.6658    1.5811    0.4847 O   0  0  0  0  0  0  0  0  0  0  0  0
    3.5687    0.9127    3.5539 C   0  0  0  0  0  0  0  0  0  0  0  0
    2.4637    1.0472    0.6098 H   0  0  0  0  0  0  0  0  0  0  0  0
    2.8256    2.7980    2.8088 H   0  0  0  0  0  0  0  0  0  0  0  0
    3.9695   -0.0353    3.1768 H   0  0  0  0  0  0  0  0  0  0  0  0
    4.3226    1.3498    4.2169 H   0  0  0  0  0  0  0  0  0  0  0  0
    2.6802    0.6834    4.1520 H   0  0  0  0  0  0  0  0  0  0  0  0
    5.2940    3.0738    2.1467 N   0  0  0  0  0  0  0  0  0  0  0  0
    6.5297    3.5041    1.5353 C   0  0  0  0  0  0  0  0  0  0  0  0
    5.0256    3.5041    3.0268 H   0  0  0  0  0  0  0  0  0  0  0  0
    7.3568    2.8755    1.8971 H   0  0  0  0  0  0  0  0  0  0  0  0
    6.4497    3.4110    0.4422 H   0  0  0  0  0  0  0  0  0  0  0  0
    6.7239    4.5538    1.8007 H   0  0  0  0  0  0  0  0  0  0  0  0
  1  3  1  0  0  0  0
  1  7  1  0  0  0  0
  1  2  2  0  0  0  0
 29 30  1  0  0  0  0
 30 38  1  0  0  0  0
 30 31  2  0  0  0  0
  8  9  1  0  0  0  0
  9 17  1  0  0  0  0
  9 10  2  0  0  0  0
 18 19  1  0  0  0  0
 19 28  1  0  0  0  0
 19 20  2  0  0  0  0
 29 32  1  0  0  0  0
  8 11  1  0  0  0  0
 38 39  1  0  0  0  0
 18 21  1  0  0  0  0
 21 22  1  0  0  0  0
 28 29  1  0  0  0  0
  7  8  1  0  0  0  0
 17 18  1  0  0  0  0
  3  4  1  0  0  0  0
  3  5  1  0  0  0  0
  3  6  1  0  0  0  0
 32 35  1  0  0  0  0
 32 36  1  0  0  0  0
 32 37  1  0  0  0  0
 11 14  1  0  0  0  0
 11 15  1  0  0  0  0
 11 16  1  0  0  0  0
 39 41  1  0  0  0  0
 39 42  1  0  0  0  0
 39 43  1  0  0  0  0
 21 25  1  0  0  0  0
 21 26  1  0  0  0  0
 29 34  1  0  0  0  0
  8 13  1  0  0  0  0
 18 24  1  0  0  0  0
 38 40  1  0  0  0  0
  7 12  1  0  0  0  0
 28 33  1  0  0  0  0
 17 23  1  0  0  0  0
 22 27  1  0  0  0  0
M  END
$$$$

  -OEChem-05262214473D

 43 42  0     1  0  0  0  0  0999 V2000
   -2.8661   -4.7415    2.2943 C   0  0  0  0  0  0  0  0  0  0  0  0
   -2.0233   -5.5727    2.6109 O   0  0  0  0  0  0  0  0  0  0  0  0
   -4.3078   -5.0134    2.5698 C   0  0  0  0  0  0  0  0  0  0  0  0
   -4.8057   -5.5295    1.7332 H   0  0  0  0  0  0  0  0  0  0  0  0
   -4.4526   -5.6688    3.4436 H   0  0  0  0  0  0  0  0  0  0  0  0
   -4.9255   -4.1233    2.7700 H   0  0  0  0  0  0  0  0  0  0  0  0
   -2.6241   -3.5219    1.6838 N   0  0  0  0  0  0  0  0  0  0  0  0
   -1.3070   -3.0608    1.3315 C   0  0  2  0  0  0  0  0  0  0  0  0
   -1.3931   -1.5680    1.0422 C   0  0  0  0  0  0  0  0  0  0  0  0
   -2.4385   -1.0059    0.7226 O   0  0  0  0  0  0  0  0  0  0  0  0
   -0.7590   -3.8164    0.1309 C   0  0  0  0  0  0  0  0  0  0  0  0
   -3.4188   -2.9207    1.4735 H   0  0  0  0  0  0  0  0  0  0  0  0
   -0.6690   -3.2277    2.2062 H   0  0  0  0  0  0  0  0  0  0  0  0
   -1.3852   -3.6613   -0.7553 H   0  0  0  0  0  0  0  0  0  0  0  0
    0.2542   -3.4843   -0.1182 H   0  0  0  0  0  0  0  0  0  0  0  0
   -0.7257   -4.8930    0.3300 H   0  0  0  0  0  0  0  0  0  0  0  0
   -0.1563   -0.9420    1.1402 N   0  0  0  0  0  0  0  0  0  0  0  0
    0.0261    0.4671    0.9001 C   0  0  2  0  0  0  0  0  0  0  0  0
    0.9120    1.0458    2.0015 C   0  0  0  0  0  0  0  0  0  0  0  0
    0.5995    1.0288    3.1904 O   0  0  0  0  0  0  0  0  0  0  0  0
   -1.3037    1.2077    0.7390 C   0  0  0  0  0  0  0  0  0  0  0  0
   -2.2540    0.6994   -0.7311 S   0  0  0  0  0  0  0  0  0  0  0  0
    0.6533   -1.4855    1.4300 H   0  0  0  0  0  0  0  0  0  0  0  0
    0.5828    0.5357   -0.0428 H   0  0  0  0  0  0  0  0  0  0  0  0
   -1.9422    1.0460    1.6136 H   0  0  0  0  0  0  0  0  0  0  0  0
   -1.1233    2.2849    0.6563 H   0  0  0  0  0  0  0  0  0  0  0  0
   -3.2831    1.5298   -0.5197 H   0  0  0  0  0  0  0  0  0  0  0  0
    2.0783    1.6042    1.4979 N   0  0  0  0  0  0  0  0  0  0  0  0
    3.0725    2.2246    2.3419 C   0  0  2  0  0  0  0  0  0  0  0  0
    4.1222    2.8624    1.4414 C   0  0  0  0  0  0  0  0  0  0  0  0
    4.3147    2.5078    0.2802 O   0  0  0  0  0  0  0  0  0  0  0  0
    3.7069    1.2138    3.2846 C   0  0  0  0  0  0  0  0  0  0  0  0
    2.2721    1.5443    0.5027 H   0  0  0  0  0  0  0  0  0  0  0  0
    2.5591    3.0047    2.9146 H   0  0  0  0  0  0  0  0  0  0  0  0
    4.2260    0.4243    2.7289 H   0  0  0  0  0  0  0  0  0  0  0  0
    4.4399    1.6911    3.9433 H   0  0  0  0  0  0  0  0  0  0  0  0
    2.9467    0.7345    3.9109 H   0  0  0  0  0  0  0  0  0  0  0  0
    4.8479    3.8448    2.1004 N   0  0  0  0  0  0  0  0  0  0  0  0
    5.9099    4.5886    1.4640 C   0  0  0  0  0  0  0  0  0  0  0  0
    4.6074    4.0866    3.0572 H   0  0  0  0  0  0  0  0  0  0  0  0
    6.8715    4.0880    1.6504 H   0  0  0  0  0  0  0  0  0  0  0  0
    5.7256    4.6366    0.3807 H   0  0  0  0  0  0  0  0  0  0  0  0
    5.9414    5.6080    1.8762 H   0  0  0  0  0  0  0  0  0  0  0  0
  1  3  1  0  0  0  0
  1  7  1  0  0  0  0
  1  2  2  0  0  0  0
 29 30  1  0  0  0  0
 30 38  1  0  0  0  0
 30 31  2  0  0  0  0
  8  9  1  0  0  0  0
  9 17  1  0  0  0  0
  9 10  2  0  0  0  0
 18 19  1  0  0  0  0
 19 28  1  0  0  0  0
 19 20  2  0  0  0  0
 29 32  1  0  0  0  0
  8 11  1  0  0  0  0
 38 39  1  0  0  0  0
 18 21  1  0  0  0  0
 21 22  1  0  0  0  0
 28 29  1  0  0  0  0
  7  8  1  0  0  0  0
 17 18  1  0  0  0  0
  3  4  1  0  0  0  0
  3  5  1  0  0  0  0
  3  6  1  0  0  0  0
 32 35  1  0  0  0  0
 32 36  1  0  0  0  0
 32 37  1  0  0  0  0
 11 14  1  0  0  0  0
 11 15  1  0  0  0  0
 11 16  1  0  0  0  0
 39 41  1  0  0  0  0
 39 42  1  0  0  0  0
 39 43  1  0  0  0  0
 21 25  1  0  0  0  0
 21 26  1  0  0  0  0
 29 34  1  0  0  0  0
  8 13  1  0  0  0  0
 18 24  1  0  0  0  0
 38 40  1  0  0  0  0
  7 12  1  0  0  0  0
 28 33  1  0  0  0  0
 17 23  1  0  0  0  0
 22 27  1  0  0  0  0
M  END
$$$$

  -OEChem-05262214473D

 43 42  0     1  0  0  0  0  0999 V2000
   -2.8661   -4.7415    2.2943 C   0  0  0  0  0  0  0  0  0  0  0  0
   -2.0233   -5.5727    2.6109 O   0  0  0  0  0  0  0  0  0  0  0  0
   -4.3078   -5.0134    2.5698 C   0  0  0  0  0  0  0  0  0  0  0  0
   -4.8057   -5.5295    1.7332 H   0  0  0  0  0  0  0  0  0  0  0  0
   -4.4526   -5.6688    3.4436 H   0  0  0  0  0  0  0  0  0  0  0  0
   -4.9255   -4.1233    2.7700 H   0  0  0  0  0  0  0  0  0  0  0  0
   -2.6241   -3.5219    1.6838 N   0  0  0  0  0  0  0  0  0  0  0  0
   -1.3070   -3.0608    1.3315 C   0  0  2  0  0  0  0  0  0  0  0  0
   -1.3931   -1.5680    1.0422 C   0  0  0  0  0  0  0  0  0  0  0  0
   -2.4385   -1.0059    0.7226 O   0  0  0  0  0  0  0  0  0  0  0  0
   -0.7590   -3.8164    0.1309 C   0  0  0  0  0  0  0  0  0  0  0  0
   -3.4188   -2.9207    1.4735 H   0  0  0  0  0  0  0  0  0  0  0  0
   -0.6690   -3.2277    2.2062 H   0  0  0  0  0  0  0  0  0  0  0  0
   -1.3852   -3.6613   -0.7553 H   0  0  0  0  0  0  0  0  0  0  0  0
    0.2542   -3.4843   -0.1182 H   0  0  0  0  0  0  0  0  0  0  0  0
   -0.7257   -4.8930    0.3300 H   0  0  0  0  0  0  0  0  0  0  0  0
   -0.1563   -0.9420    1.1402 N   0  0  0  0  0  0  0  0  0  0  0  0
    0.0261    0.4671    0.9001 C   0  0  2  0  0  0  0  0  0  0  0  0
    0.9120    1.0458    2.0015 C   0  0  0  0  0  0  0  0  0  0  0  0
    0.7431    0.8012    3.1944 O   0  0  0  0  0  0  0  0  0  0  0  0
   -1.3037    1.2077    0.7390 C   0  0  0  0  0  0  0  0  0  0  0  0
   -2.2540    0.6994   -0.7311 S   0  0  0  0  0  0  0  0  0  0  0  0
    0.6533   -1.4855    1.4300 H   0  0  0  0  0  0  0  0  0  0  0  0
    0.5828    0.5357   -0.0428 H   0  0  0  0  0  0  0  0  0  0  0  0
   -1.9422    1.0460    1.6136 H   0  0  0  0  0  0  0  0  0  0  0  0
   -1.1233    2.2849    0.6563 H   0  0  0  0  0  0  0  0  0  0  0  0
   -3.2831    1.5298   -0.5197 H   0  0  0  0  0  0  0  0  0  0  0  0
    1.8953    1.8852    1.4975 N   0  0  0  0  0  0  0  0  0  0  0  0
    2.8507    2.5617    2.3432 C   0  0  2  0  0  0  0  0  0  0  0  0
    3.6612    3.5115    1.4711 C   0  0  0  0  0  0  0  0  0  0  0  0
    3.7825    3.3681    0.2563 O   0  0  0  0  0  0  0  0  0  0  0  0
    3.7577    1.5708    3.0561 C   0  0  0  0  0  0  0  0  0  0  0  0
    1.9837    2.0048    0.4927 H   0  0  0  0  0  0  0  0  0  0  0  0
    2.2735    3.1387    3.0739 H   0  0  0  0  0  0  0  0  0  0  0  0
    4.3441    0.9834    2.3402 H   0  0  0  0  0  0  0  0  0  0  0  0
    4.4626    2.0837    3.7187 H   0  0  0  0  0  0  0  0  0  0  0  0
    3.1709    0.8697    3.6595 H   0  0  0  0  0  0  0  0  0  0  0  0
    4.2686    4.5133    2.2152 N   0  0  0  0  0  0  0  0  0  0  0  0
    5.1018    5.5311    1.6188 C   0  0  0  0  0  0  0  0  0  0  0  0
    4.0976    4.5666    3.2150 H   0  0  0  0  0  0  0  0  0  0  0  0
    6.1523    5.2056    1.6417 H   0  0  0  0  0  0  0  0  0  0  0  0
    4.7914    5.6945    0.5762 H   0  0  0  0  0  0  0  0  0  0  0  0
    4.9963    6.4688    2.1840 H   0  0  0  0  0  0  0  0  0  0  0  0
  1  3  1  0  0  0  0
  1  7  1  0  0  0  0
  1  2  2  0  0  0  0
 29 30  1  0  0  0  0
 30 38  1  0  0  0  0
 30 31  2  0  0  0  0
  8  9  1  0  0  0  0
  9 17  1  0  0  0  0
  9 10  2  0  0  0  0
 18 19  1  0  0  0  0
 19 28  1  0  0  0  0
 19 20  2  0  0  0  0
 29 32  1  0  0  0  0
  8 11  1  0  0  0  0
 38 39  1  0  0  0  0
 18 21  1  0  0  0  0
 21 22  1  0  0  0  0
 28 29  1  0  0  0  0
  7  8  1  0  0  0  0
 17 18  1  0  0  0  0
  3  4  1  0  0  0  0
  3  5  1  0  0  0  0
  3  6  1  0  0  0  0
 32 35  1  0  0  0  0
 32 36  1  0  0  0  0
 32 37  1  0  0  0  0
 11 14  1  0  0  0  0
 11 15  1  0  0  0  0
 11 16  1  0  0  0  0
 39 41  1  0  0  0  0
 39 42  1  0  0  0  0
 39 43  1  0  0  0  0
 21 25  1  0  0  0  0
 21 26  1  0  0  0  0
 29 34  1  0  0  0  0
  8 13  1  0  0  0  0
 18 24  1  0  0  0  0
 38 40  1  0  0  0  0
  7 12  1  0  0  0  0
 28 33  1  0  0  0  0
 17 23  1  0  0  0  0
 22 27  1  0  0  0  0
M  END
$$$$

  -OEChem-05262214473D

 43 42  0     1  0  0  0  0  0999 V2000
   -2.8661   -4.7415    2.2943 C   0  0  0  0  0  0  0  0  0  0  0  0
   -2.0233   -5.5727    2.6109 O   0  0  0  0  0  0  0  0  0  0  0  0
   -4.3078   -5.0134    2.5698 C   0  0  0  0  0  0  0  0  0  0  0  0
   -4.8057   -5.5295    1.7332 H   0  0  0  0  0  0  0  0  0  0  0  0
   -4.4526   -5.6688    3.4436 H   0  0  0  0  0  0  0  0  0  0  0  0
   -4.9255   -4.1233    2.7700 H   0  0  0  0  0  0  0  0  0  0  0  0
   -2.6241   -3.5219    1.6838 N   0  0  0  0  0  0  0  0  0  0  0  0
   -1.3070   -3.0608    1.3315 C   0  0  2  0  0  0  0  0  0  0  0  0
   -1.3931   -1.5680    1.0422 C   0  0  0  0  0  0  0  0  0  0  0  0
   -2.4385   -1.0059    0.7226 O   0  0  0  0  0  0  0  0  0  0  0  0
   -0.7590   -3.8164    0.1309 C   0  0  0  0  0  0  0  0  0  0  0  0
   -3.4188   -2.9207    1.4735 H   0  0  0  0  0  0  0  0  0  0  0  0
   -0.6690   -3.2277    2.2062 H   0  0  0  0  0  0  0  0  0  0  0  0
   -1.3852   -3.6613   -0.7553 H   0  0  0  0  0  0  0  0  0  0  0  0
    0.2542   -3.4843   -0.1182 H   0  0  0  0  0  0  0  0  0  0  0  0
   -0.7257   -4.8930    0.3300 H   0  0  0  0  0  0  0  0  0  0  0  0
   -0.1563   -0.9420    1.1402 N   0  0  0  0  0  0  0  0  0  0  0  0
    0.0261    0.4671    0.9001 C   0  0  2  0  0  0  0  0  0  0  0  0
    0.9120    1.0458    2.0015 C   0  0  0  0  0  0  0  0  0  0  0  0
    0.9247    0.6076    3.1501 O   0  0  0  0  0  0  0  0  0  0  0  0
   -1.3037    1.2077    0.7390 C   0  0  0  0  0  0  0  0  0  0  0  0
   -2.2540    0.6994   -0.7311 S   0  0  0  0  0  0  0  0  0  0  0  0
    0.6533   -1.4855    1.4300 H   0  0  0  0  0  0  0  0  0  0  0  0
    0.5828    0.5357   -0.0428 H   0  0  0  0  0  0  0  0  0  0  0  0
   -1.9422    1.0460    1.6136 H   0  0  0  0  0  0  0  0  0  0  0  0
   -1.1233    2.2849    0.6563 H   0  0  0  0  0  0  0  0  0  0  0  0
   -3.2831    1.5298   -0.5197 H   0  0  0  0  0  0  0  0  0  0  0  0
    1.6661    2.1226    1.5571 N   0  0  0  0  0  0  0  0  0  0  0  0
    2.5737    2.8457    2.4168 C   0  0  2  0  0  0  0  0  0  0  0  0
    3.0977    4.0479    1.6425 C   0  0  0  0  0  0  0  0  0  0  0  0
    3.1055    4.1033    0.4145 O   0  0  0  0  0  0  0  0  0  0  0  0
    3.7177    1.9594    2.8841 C   0  0  0  0  0  0  0  0  0  0  0  0
    1.6182    2.3974    0.5804 H   0  0  0  0  0  0  0  0  0  0  0  0
    1.9882    3.1909    3.2759 H   0  0  0  0  0  0  0  0  0  0  0  0
    4.3157    1.6038    2.0371 H   0  0  0  0  0  0  0  0  0  0  0  0
    4.3892    2.5009    3.5585 H   0  0  0  0  0  0  0  0  0  0  0  0
    3.3376    1.0799    3.4150 H   0  0  0  0  0  0  0  0  0  0  0  0
    3.5955    5.0336    2.4832 N   0  0  0  0  0  0  0  0  0  0  0  0
    4.1606    6.2675    1.9889 C   0  0  0  0  0  0  0  0  0  0  0  0
    3.5311    4.9114    3.4895 H   0  0  0  0  0  0  0  0  0  0  0  0
    5.2482    6.1521    1.8715 H   0  0  0  0  0  0  0  0  0  0  0  0
    3.7108    6.5126    1.0155 H   0  0  0  0  0  0  0  0  0  0  0  0
    3.9529    7.0778    2.7033 H   0  0  0  0  0  0  0  0  0  0  0  0
  1  3  1  0  0  0  0
  1  7  1  0  0  0  0
  1  2  2  0  0  0  0
 29 30  1  0  0  0  0
 30 38  1  0  0  0  0
 30 31  2  0  0  0  0
  8  9  1  0  0  0  0
  9 17  1  0  0  0  0
  9 10  2  0  0  0  0
 18 19  1  0  0  0  0
 19 28  1  0  0  0  0
 19 20  2  0  0  0  0
 29 32  1  0  0  0  0
  8 11  1  0  0  0  0
 38 39  1  0  0  0  0
 18 21  1  0  0  0  0
 21 22  1  0  0  0  0
 28 29  1  0  0  0  0
  7  8  1  0  0  0  0
 17 18  1  0  0  0  0
  3  4  1  0  0  0  0
  3  5  1  0  0  0  0
  3  6  1  0  0  0  0
 32 35  1  0  0  0  0
 32 36  1  0  0  0  0
 32 37  1  0  0  0  0
 11 14  1  0  0  0  0
 11 15  1  0  0  0  0
 11 16  1  0  0  0  0
 39 41  1  0  0  0  0
 39 42  1  0  0  0  0
 39 43  1  0  0  0  0
 21 25  1  0  0  0  0
 21 26  1  0  0  0  0
 29 34  1  0  0  0  0
  8 13  1  0  0  0  0
 18 24  1  0  0  0  0
 38 40  1  0  0  0  0
  7 12  1  0  0  0  0
 28 33  1  0  0  0  0
 17 23  1  0  0  0  0
 22 27  1  0  0  0  0
M  END
$$$$

  -OEChem-05262214473D

 43 42  0     1  0  0  0  0  0999 V2000
   -2.8661   -4.7415    2.2943 C   0  0  0  0  0  0  0  0  0  0  0  0
   -2.0233   -5.5727    2.6109 O   0  0  0  0  0  0  0  0  0  0  0  0
   -4.3078   -5.0134    2.5698 C   0  0  0  0  0  0  0  0  0  0  0  0
   -4.8057   -5.5295    1.7332 H   0  0  0  0  0  0  0  0  0  0  0  0
   -4.4526   -5.6688    3.4436 H   0  0  0  0  0  0  0  0  0  0  0  0
   -4.9255   -4.1233    2.7700 H   0  0  0  0  0  0  0  0  0  0  0  0
   -2.6241   -3.5219    1.6838 N   0  0  0  0  0  0  0  0  0  0  0  0
   -1.3070   -3.0608    1.3315 C   0  0  2  0  0  0  0  0  0  0  0  0
   -1.3931   -1.5680    1.0422 C   0  0  0  0  0  0  0  0  0  0  0  0
   -2.4385   -1.0059    0.7226 O   0  0  0  0  0  0  0  0  0  0  0  0
   -0.7590   -3.8164    0.1309 C   0  0  0  0  0  0  0  0  0  0  0  0
   -3.4188   -2.9207    1.4735 H   0  0  0  0  0  0  0  0  0  0  0  0
   -0.6690   -3.2277    2.2062 H   0  0  0  0  0  0  0  0  0  0  0  0
   -1.3852   -3.6613   -0.7553 H   0  0  0  0  0  0  0  0  0  0  0  0
    0.2542   -3.4843   -0.1182 H   0  0  0  0  0  0  0  0  0  0  0  0
   -0.7257   -4.8930    0.3300 H   0  0  0  0  0  0  0  0  0  0  0  0
   -0.1563   -0.9420    1.1402 N   0  0  0  0  0  0  0  0  0  0  0  0
    0.0261    0.4671    0.9001 C   0  0  2  0  0  0  0  0  0  0  0  0
    0.9120    1.0458    2.0015 C   0  0  0  0  0  0  0  0  0  0  0  0
    1.1320    0.4611    3.0604 O   0  0  0  0  0  0  0  0  0  0  0  0
   -1.3037    1.2077    0.7390 C   0  0  0  0  0  0  0  0  0  0  0  0
   -2.2540    0.6994   -0.7311 S   0  0  0  0  0  0  0  0  0  0  0  0
    0.6533   -1.4855    1.4300 H   0  0  0  0  0  0  0  0  0  0  0  0
    0.5828    0.5357   -0.0428 H   0  0  0  0  0  0  0  0  0  0  0  0
   -1.9422    1.0460    1.6136 H   0  0  0  0  0  0  0  0  0  0  0  0
   -1.1233    2.2849    0.6563 H   0  0  0  0  0  0  0  0  0  0  0  0
   -3.2831    1.5298   -0.5197 H   0  0  0  0  0  0  0  0  0  0  0  0
    1.4062    2.3001    1.6729 N   0  0  0  0  0  0  0  0  0  0  0  0
    2.2603    3.0573    2.5577 C   0  0  2  0  0  0  0  0  0  0  0  0
    2.4702    4.4352    1.9438 C   0  0  0  0  0  0  0  0  0  0  0  0
    2.3299    4.6634    0.7440 O   0  0  0  0  0  0  0  0  0  0  0  0
    3.5898    2.3531    2.7801 C   0  0  0  0  0  0  0  0  0  0  0  0
    1.2004    2.6951    0.7600 H   0  0  0  0  0  0  0  0  0  0  0  0
    1.7227    3.1578    3.5069 H   0  0  0  0  0  0  0  0  0  0  0  0
    4.1428    2.2433    1.8402 H   0  0  0  0  0  0  0  0  0  0  0  0
    4.2248    2.9142    3.4736 H   0  0  0  0  0  0  0  0  0  0  0  0
    3.4354    1.3508    3.1940 H   0  0  0  0  0  0  0  0  0  0  0  0
    2.8744    5.3704    2.8861 N   0  0  0  0  0  0  0  0  0  0  0  0
    3.1502    6.7475    2.5494 C   0  0  0  0  0  0  0  0  0  0  0  0
    2.9465    5.0975    3.8619 H   0  0  0  0  0  0  0  0  0  0  0  0
    4.2207    6.8632    2.3243 H   0  0  0  0  0  0  0  0  0  0  0  0
    2.5573    7.0353    1.6686 H   0  0  0  0  0  0  0  0  0  0  0  0
    2.8823    7.3933    3.3986 H   0  0  0  0  0  0  0  0  0  0  0  0
  1  3  1  0  0  0  0
  1  7  1  0  0  0  0
  1  2  2  0  0  0  0
 29 30  1  0  0  0  0
 30 38  1  0  0  0  0
 30 31  2  0  0  0  0
  8  9  1  0  0  0  0
  9 17  1  0  0  0  0
  9 10  2  0  0  0  0
 18 19  1  0  0  0  0
 19 28  1  0  0  0  0
 19 20  2  0  0  0  0
 29 32  1  0  0  0  0
  8 11  1  0  0  0  0
 38 39  1  0  0  0  0
 18 21  1  0  0  0  0
 21 22  1  0  0  0  0
 28 29  1  0  0  0  0
  7  8  1  0  0  0  0
 17 18  1  0  0  0  0
  3  4  1  0  0  0  0
  3  5  1  0  0  0  0
  3  6  1  0  0  0  0
 32 35  1  0  0  0  0
 32 36  1  0  0  0  0
 32 37  1  0  0  0  0
 11 14  1  0  0  0  0
 11 15  1  0  0  0  0
 11 16  1  0  0  0  0
 39 41  1  0  0  0  0
 39 42  1  0  0  0  0
 39 43  1  0  0  0  0
 21 25  1  0  0  0  0
 21 26  1  0  0  0  0
 29 34  1  0  0  0  0
  8 13  1  0  0  0  0
 18 24  1  0  0  0  0
 38 40  1  0  0  0  0
  7 12  1  0  0  0  0
 28 33  1  0  0  0  0
 17 23  1  0  0  0  0
 22 27  1  0  0  0  0
M  END
$$$$

  -OEChem-05262214473D

 43 42  0     1  0  0  0  0  0999 V2000
   -2.8661   -4.7415    2.2943 C   0  0  0  0  0  0  0  0  0  0  0  0
   -2.0233   -5.5727    2.6109 O   0  0  0  0  0  0  0  0  0  0  0  0
   -4.3078   -5.0134    2.5698 C   0  0  0  0  0  0  0  0  0  0  0  0
   -4.8057   -5.5295    1.7332 H   0  0  0  0  0  0  0  0  0  0  0  0
   -4.4526   -5.6688    3.4436 H   0  0  0  0  0  0  0  0  0  0  0  0
   -4.9255   -4.1233    2.7700 H   0  0  0  0  0  0  0  0  0  0  0  0
   -2.6241   -3.5219    1.6838 N   0  0  0  0  0  0  0  0  0  0  0  0
   -1.3070   -3.0608    1.3315 C   0  0  2  0  0  0  0  0  0  0  0  0
   -1.3931   -1.5680    1.0422 C   0  0  0  0  0  0  0  0  0  0  0  0
   -2.4385   -1.0059    0.7226 O   0  0  0  0  0  0  0  0  0  0  0  0
   -0.7590   -3.8164    0.1309 C   0  0  0  0  0  0  0  0  0  0  0  0
   -3.4188   -2.9207    1.4735 H   0  0  0  0  0  0  0  0  0  0  0  0
   -0.6690   -3.2277    2.2062 H   0  0  0  0  0  0  0  0  0  0  0  0
   -1.3852   -3.6613   -0.7553 H   0  0  0  0  0  0  0  0  0  0  0  0
    0.2542   -3.4843   -0.1182 H   0  0  0  0  0  0  0  0  0  0  0  0
   -0.7257   -4.8930    0.3300 H   0  0  0  0  0  0  0  0  0  0  0  0
   -0.1563   -0.9420    1.1402 N   0  0  0  0  0  0  0  0  0  0  0  0
    0.0261    0.4671    0.9001 C   0  0  2  0  0  0  0  0  0  0  0  0
    1.1877    0.9683    1.7560 C   0  0  0  0  0  0  0  0  0  0  0  0
    1.8144    0.2426    2.5253 O   0  0  0  0  0  0  0  0  0  0  0  0
   -1.2648    1.2645    1.1020 C   0  0  0  0  0  0  0  0  0  0  0  0
   -2.5783    0.8503   -0.0920 S   0  0  0  0  0  0  0  0  0  0  0  0
    0.6533   -1.4855    1.4300 H   0  0  0  0  0  0  0  0  0  0  0  0
    0.3295    0.5501   -0.1509 H   0  0  0  0  0  0  0  0  0  0  0  0
   -1.6687    1.0943    2.1053 H   0  0  0  0  0  0  0  0  0  0  0  0
   -1.0602    2.3363    1.0056 H   0  0  0  0  0  0  0  0  0  0  0  0
   -3.4802    1.7114    0.3962 H   0  0  0  0  0  0  0  0  0  0  0  0
    1.4244    2.3239    1.5775 N   0  0  0  0  0  0  0  0  0  0  0  0
    2.4650    3.0327    2.2850 C   0  0  2  0  0  0  0  0  0  0  0  0
    2.3260    4.5151    1.9645 C   0  0  0  0  0  0  0  0  0  0  0  0
    1.7552    4.9333    0.9593 O   0  0  0  0  0  0  0  0  0  0  0  0
    3.8440    2.5203    1.8997 C   0  0  0  0  0  0  0  0  0  0  0  0
    0.8786    2.8411    0.8947 H   0  0  0  0  0  0  0  0  0  0  0  0
    2.2872    2.8713    3.3538 H   0  0  0  0  0  0  0  0  0  0  0  0
    4.0403    2.6734    0.8322 H   0  0  0  0  0  0  0  0  0  0  0  0
    4.6303    3.0390    2.4580 H   0  0  0  0  0  0  0  0  0  0  0  0
    3.9321    1.4476    2.1033 H   0  0  0  0  0  0  0  0  0  0  0  0
    2.9517    5.3146    2.9107 N   0  0  0  0  0  0  0  0  0  0  0  0
    2.9712    6.7561    2.8233 C   0  0  0  0  0  0  0  0  0  0  0  0
    3.3842    4.8830    3.7222 H   0  0  0  0  0  0  0  0  0  0  0  0
    3.8808    7.0797    2.2961 H   0  0  0  0  0  0  0  0  0  0  0  0
    2.0849    7.1019    2.2712 H   0  0  0  0  0  0  0  0  0  0  0  0
    2.9625    7.1849    3.8363 H   0  0  0  0  0  0  0  0  0  0  0  0
  1  3  1  0  0  0  0
  1  7  1  0  0  0  0
  1  2  2  0  0  0  0
 29 30  1  0  0  0  0
 30 38  1  0  0  0  0
 30 31  2  0  0  0  0
  8  9  1  0  0  0  0
  9 17  1  0  0  0  0
  9 10  2  0  0  0  0
 18 19  1  0  0  0  0
 19 28  1  0  0  0  0
 19 20  2  0  0  0  0
 29 32  1  0  0  0  0
  8 11  1  0  0  0  0
 38 39  1  0  0  0  0
 18 21  1  0  0  0  0
 21 22  1  0  0  0  0
 28 29  1  0  0  0  0
  7  8  1  0  0  0  0
 17 18  1  0  0  0  0
  3  4  1  0  0  0  0
  3  5  1  0  0  0  0
  3  6  1  0  0  0  0
 32 35  1  0  0  0  0
 32 36  1  0  0  0  0
 32 37  1  0  0  0  0
 11 14  1  0  0  0  0
 11 15  1  0  0  0  0
 11 16  1  0  0  0  0
 39 41  1  0  0  0  0
 39 42  1  0  0  0  0
 39 43  1  0  0  0  0
 21 25  1  0  0  0  0
 21 26  1  0  0  0  0
 29 34  1  0  0  0  0
  8 13  1  0  0  0  0
 18 24  1  0  0  0  0
 38 40  1  0  0  0  0
  7 12  1  0  0  0  0
 28 33  1  0  0  0  0
 17 23  1  0  0  0  0
 22 27  1  0  0  0  0
M  END
$$$$

  -OEChem-05262214473D

 43 42  0     1  0  0  0  0  0999 V2000
   -2.8661   -4.7415    2.2943 C   0  0  0  0  0  0  0  0  0  0  0  0
   -2.0233   -5.5727    2.6109 O   0  0  0  0  0  0  0  0  0  0  0  0
   -4.3078   -5.0134    2.5698 C   0  0  0  0  0  0  0  0  0  0  0  0
   -4.8057   -5.5295    1.7332 H   0  0  0  0  0  0  0  0  0  0  0  0
   -4.4526   -5.6688    3.4436 H   0  0  0  0  0  0  0  0  0  0  0  0
   -4.9255   -4.1233    2.7700 H   0  0  0  0  0  0  0  0  0  0  0  0
   -2.6241   -3.5219    1.6838 N   0  0  0  0  0  0  0  0  0  0  0  0
   -1.3070   -3.0608    1.3315 C   0  0  2  0  0  0  0  0  0  0  0  0
   -1.3931   -1.5680    1.0422 C   0  0  0  0  0  0  0  0  0  0  0  0
   -2.4385   -1.0059    0.7226 O   0  0  0  0  0  0  0  0  0  0  0  0
   -0.7590   -3.8164    0.1309 C   0  0  0  0  0  0  0  0  0  0  0  0
   -3.4188   -2.9207    1.4735 H   0  0  0  0  0  0  0  0  0  0  0  0
   -0.6690   -3.2277    2.2062 H   0  0  0  0  0  0  0  0  0  0  0  0
   -1.3852   -3.6613   -0.7553 H   0  0  0  0  0  0  0  0  0  0  0  0
    0.2542   -3.4843   -0.1182 H   0  0  0  0  0  0  0  0  0  0  0  0
   -0.7257   -4.8930    0.3300 H   0  0  0  0  0  0  0  0  0  0  0  0
   -0.1563   -0.9420    1.1402 N   0  0  0  0  0  0  0  0  0  0  0  0
    0.0261    0.4671    0.9001 C   0  0  2  0  0  0  0  0  0  0  0  0
    1.1877    0.9683    1.7560 C   0  0  0  0  0  0  0  0  0  0  0  0
    1.9809    0.2142    2.3158 O   0  0  0  0  0  0  0  0  0  0  0  0
   -1.2648    1.2645    1.1020 C   0  0  0  0  0  0  0  0  0  0  0  0
   -2.5783    0.8503   -0.0920 S   0  0  0  0  0  0  0  0  0  0  0  0
    0.6533   -1.4855    1.4300 H   0  0  0  0  0  0  0  0  0  0  0  0
    0.3295    0.5501   -0.1509 H   0  0  0  0  0  0  0  0  0  0  0  0
   -1.6687    1.0943    2.1053 H   0  0  0  0  0  0  0  0  0  0  0  0
   -1.0602    2.3363    1.0056 H   0  0  0  0  0  0  0  0  0  0  0  0
   -3.4802    1.7114    0.3962 H   0  0  0  0  0  0  0  0  0  0  0  0
    1.2182    2.3530    1.8403 N   0  0  0  0  0  0  0  0  0  0  0  0
    2.2174    3.0652    2.6020 C   0  0  2  0  0  0  0  0  0  0  0  0
    1.8461    4.5422    2.5998 C   0  0  0  0  0  0  0  0  0  0  0  0
    1.1265    5.0517    1.7432 O   0  0  0  0  0  0  0  0  0  0  0  0
    3.6083    2.8535    2.0245 C   0  0  0  0  0  0  0  0  0  0  0  0
    0.5417    2.9008    1.3170 H   0  0  0  0  0  0  0  0  0  0  0  0
    2.1705    2.6778    3.6256 H   0  0  0  0  0  0  0  0  0  0  0  0
    3.6746    3.2355    0.9993 H   0  0  0  0  0  0  0  0  0  0  0  0
    4.3680    3.3708    2.6198 H   0  0  0  0  0  0  0  0  0  0  0  0
    3.8618    1.7882    1.9993 H   0  0  0  0  0  0  0  0  0  0  0  0
    2.4478    5.2332    3.6423 N   0  0  0  0  0  0  0  0  0  0  0  0
    2.2615    6.6505    3.8483 C   0  0  0  0  0  0  0  0  0  0  0  0
    3.0137    4.7266    4.3167 H   0  0  0  0  0  0  0  0  0  0  0  0
    3.0614    7.2044    3.3351 H   0  0  0  0  0  0  0  0  0  0  0  0
    1.2858    6.9549    3.4417 H   0  0  0  0  0  0  0  0  0  0  0  0
    2.2952    6.8719    4.9253 H   0  0  0  0  0  0  0  0  0  0  0  0
  1  3  1  0  0  0  0
  1  7  1  0  0  0  0
  1  2  2  0  0  0  0
 29 30  1  0  0  0  0
 30 38  1  0  0  0  0
 30 31  2  0  0  0  0
  8  9  1  0  0  0  0
  9 17  1  0  0  0  0
  9 10  2  0  0  0  0
 18 19  1  0  0  0  0
 19 28  1  0  0  0  0
 19 20  2  0  0  0  0
 29 32  1  0  0  0  0
  8 11  1  0  0  0  0
 38 39  1  0  0  0  0
 18 21  1  0  0  0  0
 21 22  1  0  0  0  0
 28 29  1  0  0  0  0
  7  8  1  0  0  0  0
 17 18  1  0  0  0  0
  3  4  1  0  0  0  0
  3  5  1  0  0  0  0
  3  6  1  0  0  0  0
 32 35  1  0  0  0  0
 32 36  1  0  0  0  0
 32 37  1  0  0  0  0
 11 14  1  0  0  0  0
 11 15  1  0  0  0  0
 11 16  1  0  0  0  0
 39 41  1  0  0  0  0
 39 42  1  0  0  0  0
 39 43  1  0  0  0  0
 21 25  1  0  0  0  0
 21 26  1  0  0  0  0
 29 34  1  0  0  0  0
  8 13  1  0  0  0  0
 18 24  1  0  0  0  0
 38 40  1  0  0  0  0
  7 12  1  0  0  0  0
 28 33  1  0  0  0  0
 17 23  1  0  0  0  0
 22 27  1  0  0  0  0
M  END
$$$$

  -OEChem-05262214473D

 43 42  0     1  0  0  0  0  0999 V2000
   -2.8661   -4.7415    2.2943 C   0  0  0  0  0  0  0  0  0  0  0  0
   -2.0233   -5.5727    2.6109 O   0  0  0  0  0  0  0  0  0  0  0  0
   -4.3078   -5.0134    2.5698 C   0  0  0  0  0  0  0  0  0  0  0  0
   -4.8057   -5.5295    1.7332 H   0  0  0  0  0  0  0  0  0  0  0  0
   -4.4526   -5.6688    3.4436 H   0  0  0  0  0  0  0  0  0  0  0  0
   -4.9255   -4.1233    2.7700 H   0  0  0  0  0  0  0  0  0  0  0  0
   -2.6241   -3.5219    1.6838 N   0  0  0  0  0  0  0  0  0  0  0  0
   -1.3070   -3.0608    1.3315 C   0  0  2  0  0  0  0  0  0  0  0  0
   -1.3931   -1.5680    1.0422 C   0  0  0  0  0  0  0  0  0  0  0  0
   -2.4385   -1.0059    0.7226 O   0  0  0  0  0  0  0  0  0  0  0  0
   -0.7590   -3.8164    0.1309 C   0  0  0  0  0  0  0  0  0  0  0  0
   -3.4188   -2.9207    1.4735 H   0  0  0  0  0  0  0  0  0  0  0  0
   -0.6690   -3.2277    2.2062 H   0  0  0  0  0  0  0  0  0  0  0  0
   -1.3852   -3.6613   -0.7553 H   0  0  0  0  0  0  0  0  0  0  0  0
    0.2542   -3.4843   -0.1182 H   0  0  0  0  0  0  0  0  0  0  0  0
   -0.7257   -4.8930    0.3300 H   0  0  0  0  0  0  0  0  0  0  0  0
   -0.1563   -0.9420    1.1402 N   0  0  0  0  0  0  0  0  0  0  0  0
    0.0261    0.4671    0.9001 C   0  0  2  0  0  0  0  0  0  0  0  0
    1.1877    0.9683    1.7560 C   0  0  0  0  0  0  0  0  0  0  0  0
    2.1282    0.2523    2.0938 O   0  0  0  0  0  0  0  0  0  0  0  0
   -1.2648    1.2645    1.1020 C   0  0  0  0  0  0  0  0  0  0  0  0
   -2.5783    0.8503   -0.0920 S   0  0  0  0  0  0  0  0  0  0  0  0
    0.6533   -1.4855    1.4300 H   0  0  0  0  0  0  0  0  0  0  0  0
    0.3295    0.5501   -0.1509 H   0  0  0  0  0  0  0  0  0  0  0  0
   -1.6687    1.0943    2.1053 H   0  0  0  0  0  0  0  0  0  0  0  0
   -1.0602    2.3363    1.0056 H   0  0  0  0  0  0  0  0  0  0  0  0
   -3.4802    1.7114    0.3962 H   0  0  0  0  0  0  0  0  0  0  0  0
    1.0371    2.2995    2.1174 N   0  0  0  0  0  0  0  0  0  0  0  0
    2.0005    2.9983    2.9356 C   0  0  2  0  0  0  0  0  0  0  0  0
    1.4326    4.3739    3.2596 C   0  0  0  0  0  0  0  0  0  0  0  0
    0.5687    4.9206    2.5771 O   0  0  0  0  0  0  0  0  0  0  0  0
    3.3428    3.1167    2.2307 C   0  0  0  0  0  0  0  0  0  0  0  0
    0.2435    2.8266    1.7652 H   0  0  0  0  0  0  0  0  0  0  0  0
    2.1089    2.4204    3.8599 H   0  0  0  0  0  0  0  0  0  0  0  0
    3.2541    3.6926    1.3023 H   0  0  0  0  0  0  0  0  0  0  0  0
    4.0802    3.6214    2.8636 H   0  0  0  0  0  0  0  0  0  0  0  0
    3.7357    2.1275    1.9719 H   0  0  0  0  0  0  0  0  0  0  0  0
    2.0350    4.9375    4.3756 N   0  0  0  0  0  0  0  0  0  0  0  0
    1.6784    6.2439    4.8778 C   0  0  0  0  0  0  0  0  0  0  0  0
    2.7290    4.4047    4.8915 H   0  0  0  0  0  0  0  0  0  0  0  0
    2.3402    7.0015    4.4328 H   0  0  0  0  0  0  0  0  0  0  0  0
    0.6347    6.4667    4.6112 H   0  0  0  0  0  0  0  0  0  0  0  0
    1.7884    6.2585    5.9722 H   0  0  0  0  0  0  0  0  0  0  0  0
  1  3  1  0  0  0  0
  1  7  1  0  0  0  0
  1  2  2  0  0  0  0
 29 30  1  0  0  0  0
 30 38  1  0  0  0  0
 30 31  2  0  0  0  0
  8  9  1  0  0  0  0
  9 17  1  0  0  0  0
  9 10  2  0  0  0  0
 18 19  1  0  0  0  0
 19 28  1  0  0  0  0
 19 20  2  0  0  0  0
 29 32  1  0  0  0  0
  8 11  1  0  0  0  0
 38 39  1  0  0  0  0
 18 21  1  0  0  0  0
 21 22  1  0  0  0  0
 28 29  1  0  0  0  0
  7  8  1  0  0  0  0
 17 18  1  0  0  0  0
  3  4  1  0  0  0  0
  3  5  1  0  0  0  0
  3  6  1  0  0  0  0
 32 35  1  0  0  0  0
 32 36  1  0  0  0  0
 32 37  1  0  0  0  0
 11 14  1  0  0  0  0
 11 15  1  0  0  0  0
 11 16  1  0  0  0  0
 39 41  1  0  0  0  0
 39 42  1  0  0  0  0
 39 43  1  0  0  0  0
 21 25  1  0  0  0  0
 21 26  1  0  0  0  0
 29 34  1  0  0  0  0
  8 13  1  0  0  0  0
 18 24  1  0  0  0  0
 38 40  1  0  0  0  0
  7 12  1  0  0  0  0
 28 33  1  0  0  0  0
 17 23  1  0  0  0  0
 22 27  1  0  0  0  0
M  END
$$$$

  -OEChem-05262214473D

 43 42  0     1  0  0  0  0  0999 V2000
   -2.8661   -4.7415    2.2943 C   0  0  0  0  0  0  0  0  0  0  0  0
   -2.0233   -5.5727    2.6109 O   0  0  0  0  0  0  0  0  0  0  0  0
   -4.3078   -5.0134    2.5698 C   0  0  0  0  0  0  0  0  0  0  0  0
   -4.8057   -5.5295    1.7332 H   0  0  0  0  0  0  0  0  0  0  0  0
   -4.4526   -5.6688    3.4436 H   0  0  0  0  0  0  0  0  0  0  0  0
   -4.9255   -4.1233    2.7700 H   0  0  0  0  0  0  0  0  0  0  0  0
   -2.6241   -3.5219    1.6838 N   0  0  0  0  0  0  0  0  0  0  0  0
   -1.3070   -3.0608    1.3315 C   0  0  2  0  0  0  0  0  0  0  0  0
   -1.3931   -1.5680    1.0422 C   0  0  0  0  0  0  0  0  0  0  0  0
   -2.4385   -1.0059    0.7226 O   0  0  0  0  0  0  0  0  0  0  0  0
   -0.7590   -3.8164    0.1309 C   0  0  0  0  0  0  0  0  0  0  0  0
   -3.4188   -2.9207    1.4735 H   0  0  0  0  0  0  0  0  0  0  0  0
   -0.6690   -3.2277    2.2062 H   0  0  0  0  0  0  0  0  0  0  0  0
   -1.3852   -3.6613   -0.7553 H   0  0  0  0  0  0  0  0  0  0  0  0
    0.2542   -3.4843   -0.1182 H   0  0  0  0  0  0  0  0  0  0  0  0
   -0.7257   -4.8930    0.3300 H   0  0  0  0  0  0  0  0  0  0  0  0
   -0.1563   -0.9420    1.1402 N   0  0  0  0  0  0  0  0  0  0  0  0
    0.0261    0.4671    0.9001 C   0  0  2  0  0  0  0  0  0  0  0  0
    1.1877    0.9683    1.7560 C   0  0  0  0  0  0  0  0  0  0  0  0
    2.2460    0.3541    1.8742 O   0  0  0  0  0  0  0  0  0  0  0  0
   -1.2648    1.2645    1.1020 C   0  0  0  0  0  0  0  0  0  0  0  0
   -2.5783    0.8503   -0.0920 S   0  0  0  0  0  0  0  0  0  0  0  0
    0.6533   -1.4855    1.4300 H   0  0  0  0  0  0  0  0  0  0  0  0
    0.3295    0.5501   -0.1509 H   0  0  0  0  0  0  0  0  0  0  0  0
   -1.6687    1.0943    2.1053 H   0  0  0  0  0  0  0  0  0  0  0  0
   -1.0602    2.3363    1.0056 H   0  0  0  0  0  0  0  0  0  0  0  0
   -3.4802    1.7114    0.3962 H   0  0  0  0  0  0  0  0  0  0  0  0
    0.8935    2.1671    2.3900 N   0  0  0  0  0  0  0  0  0  0  0  0
    1.8290    2.8366    3.2631 C   0  0  2  0  0  0  0  0  0  0  0  0
    1.1137    4.0214    3.8988 C   0  0  0  0  0  0  0  0  0  0  0  0
    0.1196    4.5489    3.4042 O   0  0  0  0  0  0  0  0  0  0  0  0
    3.0658    3.2918    2.5042 C   0  0  0  0  0  0  0  0  0  0  0  0
    0.0043    2.6233    2.2089 H   0  0  0  0  0  0  0  0  0  0  0  0
    2.1066    2.1167    4.0408 H   0  0  0  0  0  0  0  0  0  0  0  0
    2.8074    4.0135    1.7207 H   0  0  0  0  0  0  0  0  0  0  0  0
    3.7865    3.7738    3.1729 H   0  0  0  0  0  0  0  0  0  0  0  0
    3.5623    2.4423    2.0229 H   0  0  0  0  0  0  0  0  0  0  0  0
    1.7414    4.4477    5.0609 N   0  0  0  0  0  0  0  0  0  0  0  0
    1.2615    5.5639    5.8418 C   0  0  0  0  0  0  0  0  0  0  0  0
    2.5495    3.9393    5.4076 H   0  0  0  0  0  0  0  0  0  0  0  0
    1.7661    6.4849    5.5144 H   0  0  0  0  0  0  0  0  0  0  0  0
    0.1759    5.6705    5.7001 H   0  0  0  0  0  0  0  0  0  0  0  0
    1.4768    5.3864    6.9058 H   0  0  0  0  0  0  0  0  0  0  0  0
  1  3  1  0  0  0  0
  1  7  1  0  0  0  0
  1  2  2  0  0  0  0
 29 30  1  0  0  0  0
 30 38  1  0  0  0  0
 30 31  2  0  0  0  0
  8  9  1  0  0  0  0
  9 17  1  0  0  0  0
  9 10  2  0  0  0  0
 18 19  1  0  0  0  0
 19 28  1  0  0  0  0
 19 20  2  0  0  0  0
 29 32  1  0  0  0  0
  8 11  1  0  0  0  0
 38 39  1  0  0  0  0
 18 21  1  0  0  0  0
 21 22  1  0  0  0  0
 28 29  1  0  0  0  0
  7  8  1  0  0  0  0
 17 18  1  0  0  0  0
  3  4  1  0  0  0  0
  3  5  1  0  0  0  0
  3  6  1  0  0  0  0
 32 35  1  0  0  0  0
 32 36  1  0  0  0  0
 32 37  1  0  0  0  0
 11 14  1  0  0  0  0
 11 15  1  0  0  0  0
 11 16  1  0  0  0  0
 39 41  1  0  0  0  0
 39 42  1  0  0  0  0
 39 43  1  0  0  0  0
 21 25  1  0  0  0  0
 21 26  1  0  0  0  0
 29 34  1  0  0  0  0
  8 13  1  0  0  0  0
 18 24  1  0  0  0  0
 38 40  1  0  0  0  0
  7 12  1  0  0  0  0
 28 33  1  0  0  0  0
 17 23  1  0  0  0  0
 22 27  1  0  0  0  0
M  END
$$$$

  -OEChem-05262214473D

 43 42  0     1  0  0  0  0  0999 V2000
   -2.8661   -4.7415    2.2943 C   0  0  0  0  0  0  0  0  0  0  0  0
   -2.0233   -5.5727    2.6109 O   0  0  0  0  0  0  0  0  0  0  0  0
   -4.3078   -5.0134    2.5698 C   0  0  0  0  0  0  0  0  0  0  0  0
   -4.8057   -5.5295    1.7332 H   0  0  0  0  0  0  0  0  0  0  0  0
   -4.4526   -5.6688    3.4436 H   0  0  0  0  0  0  0  0  0  0  0  0
   -4.9255   -4.1233    2.7700 H   0  0  0  0  0  0  0  0  0  0  0  0
   -2.6241   -3.5219    1.6838 N   0  0  0  0  0  0  0  0  0  0  0  0
   -1.3070   -3.0608    1.3315 C   0  0  2  0  0  0  0  0  0  0  0  0
   -1.3931   -1.5680    1.0422 C   0  0  0  0  0  0  0  0  0  0  0  0
   -2.4385   -1.0059    0.7226 O   0  0  0  0  0  0  0  0  0  0  0  0
   -0.7590   -3.8164    0.1309 C   0  0  0  0  0  0  0  0  0  0  0  0
   -3.4188   -2.9207    1.4735 H   0  0  0  0  0  0  0  0  0  0  0  0
   -0.6690   -3.2277    2.2062 H   0  0  0  0  0  0  0  0  0  0  0  0
   -1.3852   -3.6613   -0.7553 H   0  0  0  0  0  0  0  0  0  0  0  0
    0.2542   -3.4843   -0.1182 H   0  0  0  0  0  0  0  0  0  0  0  0
   -0.7257   -4.8930    0.3300 H   0  0  0  0  0  0  0  0  0  0  0  0
   -0.1563   -0.9420    1.1402 N   0  0  0  0  0  0  0  0  0  0  0  0
    0.0261    0.4671    0.9001 C   0  0  2  0  0  0  0  0  0  0  0  0
    1.1877    0.9683    1.7560 C   0  0  0  0  0  0  0  0  0  0  0  0
    2.3264    0.5127    1.6722 O   0  0  0  0  0  0  0  0  0  0  0  0
   -1.2648    1.2645    1.1020 C   0  0  0  0  0  0  0  0  0  0  0  0
   -2.5783    0.8503   -0.0920 S   0  0  0  0  0  0  0  0  0  0  0  0
    0.6533   -1.4855    1.4300 H   0  0  0  0  0  0  0  0  0  0  0  0
    0.3295    0.5501   -0.1509 H   0  0  0  0  0  0  0  0  0  0  0  0
   -1.6687    1.0943    2.1053 H   0  0  0  0  0  0  0  0  0  0  0  0
   -1.0602    2.3363    1.0056 H   0  0  0  0  0  0  0  0  0  0  0  0
   -3.4802    1.7114    0.3962 H   0  0  0  0  0  0  0  0  0  0  0  0
    0.7971    1.9646    2.6393 N   0  0  0  0  0  0  0  0  0  0  0  0
    1.7146    2.5910    3.5622 C   0  0  2  0  0  0  0  0  0  0  0  0
    0.9110    3.5088    4.4740 C   0  0  0  0  0  0  0  0  0  0  0  0
   -0.1900    3.9619    4.1681 O   0  0  0  0  0  0  0  0  0  0  0  0
    2.7960    3.3669    2.8264 C   0  0  0  0  0  0  0  0  0  0  0  0
   -0.1597    2.3050    2.6177 H   0  0  0  0  0  0  0  0  0  0  0  0
    2.1638    1.7875    4.1559 H   0  0  0  0  0  0  0  0  0  0  0  0
    2.3649    4.1763    2.2260 H   0  0  0  0  0  0  0  0  0  0  0  0
    3.5071    3.8174    3.5266 H   0  0  0  0  0  0  0  0  0  0  0  0
    3.3534    2.7112    2.1488 H   0  0  0  0  0  0  0  0  0  0  0  0
    1.5871    3.7971    5.6513 N   0  0  0  0  0  0  0  0  0  0  0  0
    1.0394    4.6569    6.6744 C   0  0  0  0  0  0  0  0  0  0  0  0
    2.4875    3.3622    5.8298 H   0  0  0  0  0  0  0  0  0  0  0  0
    1.3784    5.6898    6.5062 H   0  0  0  0  0  0  0  0  0  0  0  0
   -0.0593    4.6206    6.6342 H   0  0  0  0  0  0  0  0  0  0  0  0
    1.3816    4.3151    7.6623 H   0  0  0  0  0  0  0  0  0  0  0  0
  1  3  1  0  0  0  0
  1  7  1  0  0  0  0
  1  2  2  0  0  0  0
 29 30  1  0  0  0  0
 30 38  1  0  0  0  0
 30 31  2  0  0  0  0
  8  9  1  0  0  0  0
  9 17  1  0  0  0  0
  9 10  2  0  0  0  0
 18 19  1  0  0  0  0
 19 28  1  0  0  0  0
 19 20  2  0  0  0  0
 29 32  1  0  0  0  0
  8 11  1  0  0  0  0
 38 39  1  0  0  0  0
 18 21  1  0  0  0  0
 21 22  1  0  0  0  0
 28 29  1  0  0  0  0
  7  8  1  0  0  0  0
 17 18  1  0  0  0  0
  3  4  1  0  0  0  0
  3  5  1  0  0  0  0
  3  6  1  0  0  0  0
 32 35  1  0  0  0  0
 32 36  1  0  0  0  0
 32 37  1  0  0  0  0
 11 14  1  0  0  0  0
 11 15  1  0  0  0  0
 11 16  1  0  0  0  0
 39 41  1  0  0  0  0
 39 42  1  0  0  0  0
 39 43  1  0  0  0  0
 21 25  1  0  0  0  0
 21 26  1  0  0  0  0
 29 34  1  0  0  0  0
  8 13  1  0  0  0  0
 18 24  1  0  0  0  0
 38 40  1  0  0  0  0
  7 12  1  0  0  0  0
 28 33  1  0  0  0  0
 17 23  1  0  0  0  0
 22 27  1  0  0  0  0
M  END
$$$$

  -OEChem-05262214473D

 43 42  0     1  0  0  0  0  0999 V2000
   -2.8661   -4.7415    2.2943 C   0  0  0  0  0  0  0  0  0  0  0  0
   -2.0233   -5.5727    2.6109 O   0  0  0  0  0  0  0  0  0  0  0  0
   -4.3078   -5.0134    2.5698 C   0  0  0  0  0  0  0  0  0  0  0  0
   -4.8057   -5.5295    1.7332 H   0  0  0  0  0  0  0  0  0  0  0  0
   -4.4526   -5.6688    3.4436 H   0  0  0  0  0  0  0  0  0  0  0  0
   -4.9255   -4.1233    2.7700 H   0  0  0  0  0  0  0  0  0  0  0  0
   -2.6241   -3.5219    1.6838 N   0  0  0  0  0  0  0  0  0  0  0  0
   -1.3070   -3.0608    1.3315 C   0  0  2  0  0  0  0  0  0  0  0  0
   -1.3931   -1.5680    1.0422 C   0  0  0  0  0  0  0  0  0  0  0  0
   -2.4385   -1.0059    0.7226 O   0  0  0  0  0  0  0  0  0  0  0  0
   -0.7590   -3.8164    0.1309 C   0  0  0  0  0  0  0  0  0  0  0  0
   -3.4188   -2.9207    1.4735 H   0  0  0  0  0  0  0  0  0  0  0  0
   -0.6690   -3.2277    2.2062 H   0  0  0  0  0  0  0  0  0  0  0  0
   -1.3852   -3.6613   -0.7553 H   0  0  0  0  0  0  0  0  0  0  0  0
    0.2542   -3.4843   -0.1182 H   0  0  0  0  0  0  0  0  0  0  0  0
   -0.7257   -4.8930    0.3300 H   0  0  0  0  0  0  0  0  0  0  0  0
   -0.1563   -0.9420    1.1402 N   0  0  0  0  0  0  0  0  0  0  0  0
    0.0261    0.4671    0.9001 C   0  0  2  0  0  0  0  0  0  0  0  0
    1.1877    0.9683    1.7560 C   0  0  0  0  0  0  0  0  0  0  0  0
    2.3639    0.7173    1.5015 O   0  0  0  0  0  0  0  0  0  0  0  0
   -1.2648    1.2645    1.1020 C   0  0  0  0  0  0  0  0  0  0  0  0
   -2.5783    0.8503   -0.0920 S   0  0  0  0  0  0  0  0  0  0  0  0
    0.6533   -1.4855    1.4300 H   0  0  0  0  0  0  0  0  0  0  0  0
    0.3295    0.5501   -0.1509 H   0  0  0  0  0  0  0  0  0  0  0  0
   -1.6687    1.0943    2.1053 H   0  0  0  0  0  0  0  0  0  0  0  0
   -1.0602    2.3363    1.0056 H   0  0  0  0  0  0  0  0  0  0  0  0
   -3.4802    1.7114    0.3962 H   0  0  0  0  0  0  0  0  0  0  0  0
    0.7545    1.7060    2.8485 N   0  0  0  0  0  0  0  0  0  0  0  0
    1.6650    2.2784    3.8124 C   0  0  2  0  0  0  0  0  0  0  0  0
    0.8384    2.8712    4.9459 C   0  0  0  0  0  0  0  0  0  0  0  0
   -0.3390    3.1997    4.8167 O   0  0  0  0  0  0  0  0  0  0  0  0
    2.5518    3.3369    3.1753 C   0  0  0  0  0  0  0  0  0  0  0  0
   -0.2371    1.8933    2.9639 H   0  0  0  0  0  0  0  0  0  0  0  0
    2.2766    1.4551    4.1975 H   0  0  0  0  0  0  0  0  0  0  0  0
    1.9567    4.1699    2.7837 H   0  0  0  0  0  0  0  0  0  0  0  0
    3.2609    3.7495    3.9006 H   0  0  0  0  0  0  0  0  0  0  0  0
    3.1235    2.9158    2.3412 H   0  0  0  0  0  0  0  0  0  0  0  0
    1.5825    3.0301    6.1066 N   0  0  0  0  0  0  0  0  0  0  0  0
    1.0270    3.5847    7.3190 C   0  0  0  0  0  0  0  0  0  0  0  0
    2.5471    2.7126    6.1292 H   0  0  0  0  0  0  0  0  0  0  0  0
    1.2034    4.6702    7.3407 H   0  0  0  0  0  0  0  0  0  0  0  0
   -0.0549    3.3885    7.3497 H   0  0  0  0  0  0  0  0  0  0  0  0
    1.5093    3.1175    8.1903 H   0  0  0  0  0  0  0  0  0  0  0  0
  1  3  1  0  0  0  0
  1  7  1  0  0  0  0
  1  2  2  0  0  0  0
 29 30  1  0  0  0  0
 30 38  1  0  0  0  0
 30 31  2  0  0  0  0
  8  9  1  0  0  0  0
  9 17  1  0  0  0  0
  9 10  2  0  0  0  0
 18 19  1  0  0  0  0
 19 28  1  0  0  0  0
 19 20  2  0  0  0  0
 29 32  1  0  0  0  0
  8 11  1  0  0  0  0
 38 39  1  0  0  0  0
 18 21  1  0  0  0  0
 21 22  1  0  0  0  0
 28 29  1  0  0  0  0
  7  8  1  0  0  0  0
 17 18  1  0  0  0  0
  3  4  1  0  0  0  0
  3  5  1  0  0  0  0
  3  6  1  0  0  0  0
 32 35  1  0  0  0  0
 32 36  1  0  0  0  0
 32 37  1  0  0  0  0
 11 14  1  0  0  0  0
 11 15  1  0  0  0  0
 11 16  1  0  0  0  0
 39 41  1  0  0  0  0
 39 42  1  0  0  0  0
 39 43  1  0  0  0  0
 21 25  1  0  0  0  0
 21 26  1  0  0  0  0
 29 34  1  0  0  0  0
  8 13  1  0  0  0  0
 18 24  1  0  0  0  0
 38 40  1  0  0  0  0
  7 12  1  0  0  0  0
 28 33  1  0  0  0  0
 17 23  1  0  0  0  0
 22 27  1  0  0  0  0
M  END
$$$$

  -OEChem-05262214473D

 43 42  0     1  0  0  0  0  0999 V2000
   -2.8661   -4.7415    2.2943 C   0  0  0  0  0  0  0  0  0  0  0  0
   -2.0233   -5.5727    2.6109 O   0  0  0  0  0  0  0  0  0  0  0  0
   -4.3078   -5.0134    2.5698 C   0  0  0  0  0  0  0  0  0  0  0  0
   -4.8057   -5.5295    1.7332 H   0  0  0  0  0  0  0  0  0  0  0  0
   -4.4526   -5.6688    3.4436 H   0  0  0  0  0  0  0  0  0  0  0  0
   -4.9255   -4.1233    2.7700 H   0  0  0  0  0  0  0  0  0  0  0  0
   -2.6241   -3.5219    1.6838 N   0  0  0  0  0  0  0  0  0  0  0  0
   -1.3070   -3.0608    1.3315 C   0  0  2  0  0  0  0  0  0  0  0  0
   -1.3931   -1.5680    1.0422 C   0  0  0  0  0  0  0  0  0  0  0  0
   -2.4385   -1.0059    0.7226 O   0  0  0  0  0  0  0  0  0  0  0  0
   -0.7590   -3.8164    0.1309 C   0  0  0  0  0  0  0  0  0  0  0  0
   -3.4188   -2.9207    1.4735 H   0  0  0  0  0  0  0  0  0  0  0  0
   -0.6690   -3.2277    2.2062 H   0  0  0  0  0  0  0  0  0  0  0  0
   -1.3852   -3.6613   -0.7553 H   0  0  0  0  0  0  0  0  0  0  0  0
    0.2542   -3.4843   -0.1182 H   0  0  0  0  0  0  0  0  0  0  0  0
   -0.7257   -4.8930    0.3300 H   0  0  0  0  0  0  0  0  0  0  0  0
   -0.1563   -0.9420    1.1402 N   0  0  0  0  0  0  0  0  0  0  0  0
    0.0261    0.4671    0.9001 C   0  0  2  0  0  0  0  0  0  0  0  0
    1.1877    0.9683    1.7560 C   0  0  0  0  0  0  0  0  0  0  0  0
    2.3560    0.9540    1.3736 O   0  0  0  0  0  0  0  0  0  0  0  0
   -1.2648    1.2645    1.1020 C   0  0  0  0  0  0  0  0  0  0  0  0
   -2.5783    0.8503   -0.0920 S   0  0  0  0  0  0  0  0  0  0  0  0
    0.6533   -1.4855    1.4300 H   0  0  0  0  0  0  0  0  0  0  0  0
    0.3295    0.5501   -0.1509 H   0  0  0  0  0  0  0  0  0  0  0  0
   -1.6687    1.0943    2.1053 H   0  0  0  0  0  0  0  0  0  0  0  0
   -1.0602    2.3363    1.0056 H   0  0  0  0  0  0  0  0  0  0  0  0
   -3.4802    1.7114    0.3962 H   0  0  0  0  0  0  0  0  0  0  0  0
    0.7687    1.4089    3.0033 N   0  0  0  0  0  0  0  0  0  0  0  0
    1.6838    1.9200    3.9968 C   0  0  2  0  0  0  0  0  0  0  0  0
    0.9009    2.1518    5.2824 C   0  0  0  0  0  0  0  0  0  0  0  0
   -0.3174    2.3142    5.3058 O   0  0  0  0  0  0  0  0  0  0  0  0
    2.3500    3.2038    3.5271 C   0  0  0  0  0  0  0  0  0  0  0  0
   -0.2228    1.4162    3.2239 H   0  0  0  0  0  0  0  0  0  0  0  0
    2.4373    1.1422    4.1626 H   0  0  0  0  0  0  0  0  0  0  0  0
    1.6108    3.9948    3.3557 H   0  0  0  0  0  0  0  0  0  0  0  0
    3.0646    3.5745    4.2693 H   0  0  0  0  0  0  0  0  0  0  0  0
    2.8879    3.0423    2.5867 H   0  0  0  0  0  0  0  0  0  0  0  0
    1.7280    2.1989    6.3959 N   0  0  0  0  0  0  0  0  0  0  0  0
    1.2253    2.4204    7.7317 C   0  0  0  0  0  0  0  0  0  0  0  0
    2.7243    2.0349    6.2856 H   0  0  0  0  0  0  0  0  0  0  0  0
    1.2531    3.4959    7.9609 H   0  0  0  0  0  0  0  0  0  0  0  0
    0.1888    2.0581    7.7980 H   0  0  0  0  0  0  0  0  0  0  0  0
    1.8511    1.8754    8.4538 H   0  0  0  0  0  0  0  0  0  0  0  0
  1  3  1  0  0  0  0
  1  7  1  0  0  0  0
  1  2  2  0  0  0  0
 29 30  1  0  0  0  0
 30 38  1  0  0  0  0
 30 31  2  0  0  0  0
  8  9  1  0  0  0  0
  9 17  1  0  0  0  0
  9 10  2  0  0  0  0
 18 19  1  0  0  0  0
 19 28  1  0  0  0  0
 19 20  2  0  0  0  0
 29 32  1  0  0  0  0
  8 11  1  0  0  0  0
 38 39  1  0  0  0  0
 18 21  1  0  0  0  0
 21 22  1  0  0  0  0
 28 29  1  0  0  0  0
  7  8  1  0  0  0  0
 17 18  1  0  0  0  0
  3  4  1  0  0  0  0
  3  5  1  0  0  0  0
  3  6  1  0  0  0  0
 32 35  1  0  0  0  0
 32 36  1  0  0  0  0
 32 37  1  0  0  0  0
 11 14  1  0  0  0  0
 11 15  1  0  0  0  0
 11 16  1  0  0  0  0
 39 41  1  0  0  0  0
 39 42  1  0  0  0  0
 39 43  1  0  0  0  0
 21 25  1  0  0  0  0
 21 26  1  0  0  0  0
 29 34  1  0  0  0  0
  8 13  1  0  0  0  0
 18 24  1  0  0  0  0
 38 40  1  0  0  0  0
  7 12  1  0  0  0  0
 28 33  1  0  0  0  0
 17 23  1  0  0  0  0
 22 27  1  0  0  0  0
M  END
$$$$

  -OEChem-05262214473D

 43 42  0     1  0  0  0  0  0999 V2000
   -2.8661   -4.7415    2.2943 C   0  0  0  0  0  0  0  0  0  0  0  0
   -2.0233   -5.5727    2.6109 O   0  0  0  0  0  0  0  0  0  0  0  0
   -4.3078   -5.0134    2.5698 C   0  0  0  0  0  0  0  0  0  0  0  0
   -4.8057   -5.5295    1.7332 H   0  0  0  0  0  0  0  0  0  0  0  0
   -4.4526   -5.6688    3.4436 H   0  0  0  0  0  0  0  0  0  0  0  0
   -4.9255   -4.1233    2.7700 H   0  0  0  0  0  0  0  0  0  0  0  0
   -2.6241   -3.5219    1.6838 N   0  0  0  0  0  0  0  0  0  0  0  0
   -1.3070   -3.0608    1.3315 C   0  0  2  0  0  0  0  0  0  0  0  0
   -1.3931   -1.5680    1.0422 C   0  0  0  0  0  0  0  0  0  0  0  0
   -2.4385   -1.0059    0.7226 O   0  0  0  0  0  0  0  0  0  0  0  0
   -0.7590   -3.8164    0.1309 C   0  0  0  0  0  0  0  0  0  0  0  0
   -3.4188   -2.9207    1.4735 H   0  0  0  0  0  0  0  0  0  0  0  0
   -0.6690   -3.2277    2.2062 H   0  0  0  0  0  0  0  0  0  0  0  0
   -1.3852   -3.6613   -0.7553 H   0  0  0  0  0  0  0  0  0  0  0  0
    0.2542   -3.4843   -0.1182 H   0  0  0  0  0  0  0  0  0  0  0  0
   -0.7257   -4.8930    0.3300 H   0  0  0  0  0  0  0  0  0  0  0  0
   -0.1563   -0.9420    1.1402 N   0  0  0  0  0  0  0  0  0  0  0  0
    0.0261    0.4671    0.9001 C   0  0  2  0  0  0  0  0  0  0  0  0
    1.1877    0.9683    1.7560 C   0  0  0  0  0  0  0  0  0  0  0  0
    2.3031    1.2067    1.2974 O   0  0  0  0  0  0  0  0  0  0  0  0
   -1.2648    1.2645    1.1020 C   0  0  0  0  0  0  0  0  0  0  0  0
   -2.5783    0.8503   -0.0920 S   0  0  0  0  0  0  0  0  0  0  0  0
    0.6533   -1.4855    1.4300 H   0  0  0  0  0  0  0  0  0  0  0  0
    0.3295    0.5501   -0.1509 H   0  0  0  0  0  0  0  0  0  0  0  0
   -1.6687    1.0943    2.1053 H   0  0  0  0  0  0  0  0  0  0  0  0
   -1.0602    2.3363    1.0056 H   0  0  0  0  0  0  0  0  0  0  0  0
   -3.4802    1.7114    0.3962 H   0  0  0  0  0  0  0  0  0  0  0  0
    0.8386    1.0935    3.0931 N   0  0  0  0  0  0  0  0  0  0  0  0
    1.7696    1.5402    4.1028 C   0  0  2  0  0  0  0  0  0  0  0  0
    1.0941    1.3997    5.4605 C   0  0  0  0  0  0  0  0  0  0  0  0
   -0.1265    1.3657    5.6022 O   0  0  0  0  0  0  0  0  0  0  0  0
    2.2042    2.9768    3.8579 C   0  0  0  0  0  0  0  0  0  0  0  0
   -0.1177    0.9063    3.3798 H   0  0  0  0  0  0  0  0  0  0  0  0
    2.6349    0.8702    4.0537 H   0  0  0  0  0  0  0  0  0  0  0  0
    1.3506    3.6629    3.9032 H   0  0  0  0  0  0  0  0  0  0  0  0
    2.9318    3.3045    4.6078 H   0  0  0  0  0  0  0  0  0  0  0  0
    2.6630    3.0820    2.8688 H   0  0  0  0  0  0  0  0  0  0  0  0
    2.0136    1.3603    6.4993 N   0  0  0  0  0  0  0  0  0  0  0  0
    1.6208    1.2432    7.8842 C   0  0  0  0  0  0  0  0  0  0  0  0
    3.0071    1.3752    6.2881 H   0  0  0  0  0  0  0  0  0  0  0  0
    1.5241    2.2466    8.3246 H   0  0  0  0  0  0  0  0  0  0  0  0
    0.6552    0.7202    7.9484 H   0  0  0  0  0  0  0  0  0  0  0  0
    2.3837    0.6733    8.4348 H   0  0  0  0  0  0  0  0  0  0  0  0
  1  3  1  0  0  0  0
  1  7  1  0  0  0  0
  1  2  2  0  0  0  0
 29 30  1  0  0  0  0
 30 38  1  0  0  0  0
 30 31  2  0  0  0  0
  8  9  1  0  0  0  0
  9 17  1  0  0  0  0
  9 10  2  0  0  0  0
 18 19  1  0  0  0  0
 19 28  1  0  0  0  0
 19 20  2  0  0  0  0
 29 32  1  0  0  0  0
  8 11  1  0  0  0  0
 38 39  1  0  0  0  0
 18 21  1  0  0  0  0
 21 22  1  0  0  0  0
 28 29  1  0  0  0  0
  7  8  1  0  0  0  0
 17 18  1  0  0  0  0
  3  4  1  0  0  0  0
  3  5  1  0  0  0  0
  3  6  1  0  0  0  0
 32 35  1  0  0  0  0
 32 36  1  0  0  0  0
 32 37  1  0  0  0  0
 11 14  1  0  0  0  0
 11 15  1  0  0  0  0
 11 16  1  0  0  0  0
 39 41  1  0  0  0  0
 39 42  1  0  0  0  0
 39 43  1  0  0  0  0
 21 25  1  0  0  0  0
 21 26  1  0  0  0  0
 29 34  1  0  0  0  0
  8 13  1  0  0  0  0
 18 24  1  0  0  0  0
 38 40  1  0  0  0  0
  7 12  1  0  0  0  0
 28 33  1  0  0  0  0
 17 23  1  0  0  0  0
 22 27  1  0  0  0  0
M  END
$$$$

  -OEChem-05262214473D

 43 42  0     1  0  0  0  0  0999 V2000
   -2.8661   -4.7415    2.2943 C   0  0  0  0  0  0  0  0  0  0  0  0
   -2.0233   -5.5727    2.6109 O   0  0  0  0  0  0  0  0  0  0  0  0
   -4.3078   -5.0134    2.5698 C   0  0  0  0  0  0  0  0  0  0  0  0
   -4.8057   -5.5295    1.7332 H   0  0  0  0  0  0  0  0  0  0  0  0
   -4.4526   -5.6688    3.4436 H   0  0  0  0  0  0  0  0  0  0  0  0
   -4.9255   -4.1233    2.7700 H   0  0  0  0  0  0  0  0  0  0  0  0
   -2.6241   -3.5219    1.6838 N   0  0  0  0  0  0  0  0  0  0  0  0
   -1.3070   -3.0608    1.3315 C   0  0  2  0  0  0  0  0  0  0  0  0
   -1.3931   -1.5680    1.0422 C   0  0  0  0  0  0  0  0  0  0  0  0
   -2.4385   -1.0059    0.7226 O   0  0  0  0  0  0  0  0  0  0  0  0
   -0.7590   -3.8164    0.1309 C   0  0  0  0  0  0  0  0  0  0  0  0
   -3.4188   -2.9207    1.4735 H   0  0  0  0  0  0  0  0  0  0  0  0
   -0.6690   -3.2277    2.2062 H   0  0  0  0  0  0  0  0  0  0  0  0
   -1.3852   -3.6613   -0.7553 H   0  0  0  0  0  0  0  0  0  0  0  0
    0.2542   -3.4843   -0.1182 H   0  0  0  0  0  0  0  0  0  0  0  0
   -0.7257   -4.8930    0.3300 H   0  0  0  0  0  0  0  0  0  0  0  0
   -0.1563   -0.9420    1.1402 N   0  0  0  0  0  0  0  0  0  0  0  0
    0.0261    0.4671    0.9001 C   0  0  2  0  0  0  0  0  0  0  0  0
    1.1877    0.9683    1.7560 C   0  0  0  0  0  0  0  0  0  0  0  0
    2.2090    1.4581    1.2780 O   0  0  0  0  0  0  0  0  0  0  0  0
   -1.2648    1.2645    1.1020 C   0  0  0  0  0  0  0  0  0  0  0  0
   -2.5783    0.8503   -0.0920 S   0  0  0  0  0  0  0  0  0  0  0  0
    0.6533   -1.4855    1.4300 H   0  0  0  0  0  0  0  0  0  0  0  0
    0.3295    0.5501   -0.1509 H   0  0  0  0  0  0  0  0  0  0  0  0
   -1.6687    1.0943    2.1053 H   0  0  0  0  0  0  0  0  0  0  0  0
   -1.0602    2.3363    1.0056 H   0  0  0  0  0  0  0  0  0  0  0  0
   -3.4802    1.7114    0.3962 H   0  0  0  0  0  0  0  0  0  0  0  0
    0.9595    0.7812    3.1119 N   0  0  0  0  0  0  0  0  0  0  0  0
    1.9166    1.1649    4.1231 C   0  0  2  0  0  0  0  0  0  0  0  0
    1.4049    0.6663    5.4682 C   0  0  0  0  0  0  0  0  0  0  0  0
    0.2206    0.4189    5.6855 O   0  0  0  0  0  0  0  0  0  0  0  0
    2.1244    2.6712    4.1451 C   0  0  0  0  0  0  0  0  0  0  0  0
    0.0710    0.3983    3.4212 H   0  0  0  0  0  0  0  0  0  0  0  0
    2.8560    0.6575    3.8782 H   0  0  0  0  0  0  0  0  0  0  0  0
    1.1939    3.1967    4.3888 H   0  0  0  0  0  0  0  0  0  0  0  0
    2.8714    2.9578    4.8928 H   0  0  0  0  0  0  0  0  0  0  0  0
    2.4639    3.0321    3.1682 H   0  0  0  0  0  0  0  0  0  0  0  0
    2.4199    0.5712    6.4099 N   0  0  0  0  0  0  0  0  0  0  0  0
    2.1864    0.1335    7.7663 C   0  0  0  0  0  0  0  0  0  0  0  0
    3.3761    0.7785    6.1367 H   0  0  0  0  0  0  0  0  0  0  0  0
    1.9980    1.0076    8.4069 H   0  0  0  0  0  0  0  0  0  0  0  0
    1.3125   -0.5340    7.7907 H   0  0  0  0  0  0  0  0  0  0  0  0
    3.0710   -0.4069    8.1345 H   0  0  0  0  0  0  0  0  0  0  0  0
  1  3  1  0  0  0  0
  1  7  1  0  0  0  0
  1  2  2  0  0  0  0
 29 30  1  0  0  0  0
 30 38  1  0  0  0  0
 30 31  2  0  0  0  0
  8  9  1  0  0  0  0
  9 17  1  0  0  0  0
  9 10  2  0  0  0  0
 18 19  1  0  0  0  0
 19 28  1  0  0  0  0
 19 20  2  0  0  0  0
 29 32  1  0  0  0  0
  8 11  1  0  0  0  0
 38 39  1  0  0  0  0
 18 21  1  0  0  0  0
 21 22  1  0  0  0  0
 28 29  1  0  0  0  0
  7  8  1  0  0  0  0
 17 18  1  0  0  0  0
  3  4  1  0  0  0  0
  3  5  1  0  0  0  0
  3  6  1  0  0  0  0
 32 35  1  0  0  0  0
 32 36  1  0  0  0  0
 32 37  1  0  0  0  0
 11 14  1  0  0  0  0
 11 15  1  0  0  0  0
 11 16  1  0  0  0  0
 39 41  1  0  0  0  0
 39 42  1  0  0  0  0
 39 43  1  0  0  0  0
 21 25  1  0  0  0  0
 21 26  1  0  0  0  0
 29 34  1  0  0  0  0
  8 13  1  0  0  0  0
 18 24  1  0  0  0  0
 38 40  1  0  0  0  0
  7 12  1  0  0  0  0
 28 33  1  0  0  0  0
 17 23  1  0  0  0  0
 22 27  1  0  0  0  0
M  END
$$$$

  -OEChem-05262214473D

 43 42  0     1  0  0  0  0  0999 V2000
   -2.8661   -4.7415    2.2943 C   0  0  0  0  0  0  0  0  0  0  0  0
   -2.0233   -5.5727    2.6109 O   0  0  0  0  0  0  0  0  0  0  0  0
   -4.3078   -5.0134    2.5698 C   0  0  0  0  0  0  0  0  0  0  0  0
   -4.8057   -5.5295    1.7332 H   0  0  0  0  0  0  0  0  0  0  0  0
   -4.4526   -5.6688    3.4436 H   0  0  0  0  0  0  0  0  0  0  0  0
   -4.9255   -4.1233    2.7700 H   0  0  0  0  0  0  0  0  0  0  0  0
   -2.6241   -3.5219    1.6838 N   0  0  0  0  0  0  0  0  0  0  0  0
   -1.3070   -3.0608    1.3315 C   0  0  2  0  0  0  0  0  0  0  0  0
   -1.3931   -1.5680    1.0422 C   0  0  0  0  0  0  0  0  0  0  0  0
   -2.4385   -1.0059    0.7226 O   0  0  0  0  0  0  0  0  0  0  0  0
   -0.7590   -3.8164    0.1309 C   0  0  0  0  0  0  0  0  0  0  0  0
   -3.4188   -2.9207    1.4735 H   0  0  0  0  0  0  0  0  0  0  0  0
   -0.6690   -3.2277    2.2062 H   0  0  0  0  0  0  0  0  0  0  0  0
   -1.3852   -3.6613   -0.7553 H   0  0  0  0  0  0  0  0  0  0  0  0
    0.2542   -3.4843   -0.1182 H   0  0  0  0  0  0  0  0  0  0  0  0
   -0.7257   -4.8930    0.3300 H   0  0  0  0  0  0  0  0  0  0  0  0
   -0.1563   -0.9420    1.1402 N   0  0  0  0  0  0  0  0  0  0  0  0
    0.0261    0.4671    0.9001 C   0  0  2  0  0  0  0  0  0  0  0  0
    1.1877    0.9683    1.7560 C   0  0  0  0  0  0  0  0  0  0  0  0
    2.0799    1.6911    1.3168 O   0  0  0  0  0  0  0  0  0  0  0  0
   -1.2648    1.2645    1.1020 C   0  0  0  0  0  0  0  0  0  0  0  0
   -2.5783    0.8503   -0.0920 S   0  0  0  0  0  0  0  0  0  0  0  0
    0.6533   -1.4855    1.4300 H   0  0  0  0  0  0  0  0  0  0  0  0
    0.3295    0.5501   -0.1509 H   0  0  0  0  0  0  0  0  0  0  0  0
   -1.6687    1.0943    2.1053 H   0  0  0  0  0  0  0  0  0  0  0  0
   -1.0602    2.3363    1.0056 H   0  0  0  0  0  0  0  0  0  0  0  0
   -3.4802    1.7114    0.3962 H   0  0  0  0  0  0  0  0  0  0  0  0
    1.1231    0.4935    3.0583 N   0  0  0  0  0  0  0  0  0  0  0  0
    2.1146    0.8197    4.0564 C   0  0  2  0  0  0  0  0  0  0  0  0
    1.8122    0.0014    5.3048 C   0  0  0  0  0  0  0  0  0  0  0  0
    0.7003   -0.4617    5.5502 O   0  0  0  0  0  0  0  0  0  0  0  0
    2.1161    2.3080    4.3692 C   0  0  0  0  0  0  0  0  0  0  0  0
    0.3304   -0.0731    3.3451 H   0  0  0  0  0  0  0  0  0  0  0  0
    3.0855    0.5187    3.6480 H   0  0  0  0  0  0  0  0  0  0  0  0
    1.1514    2.6282    4.7794 H   0  0  0  0  0  0  0  0  0  0  0  0
    2.8875    2.5580    5.1050 H   0  0  0  0  0  0  0  0  0  0  0  0
    2.3042    2.8962    3.4645 H   0  0  0  0  0  0  0  0  0  0  0  0
    2.9192   -0.1144    6.1337 N   0  0  0  0  0  0  0  0  0  0  0  0
    2.8837   -0.8331    7.3860 C   0  0  0  0  0  0  0  0  0  0  0  0
    3.8062    0.2854    5.8417 H   0  0  0  0  0  0  0  0  0  0  0  0
    2.6424   -0.1366    8.2024 H   0  0  0  0  0  0  0  0  0  0  0  0
    2.1159   -1.6192    7.3358 H   0  0  0  0  0  0  0  0  0  0  0  0
    3.8660   -1.2914    7.5735 H   0  0  0  0  0  0  0  0  0  0  0  0
  1  3  1  0  0  0  0
  1  7  1  0  0  0  0
  1  2  2  0  0  0  0
 29 30  1  0  0  0  0
 30 38  1  0  0  0  0
 30 31  2  0  0  0  0
  8  9  1  0  0  0  0
  9 17  1  0  0  0  0
  9 10  2  0  0  0  0
 18 19  1  0  0  0  0
 19 28  1  0  0  0  0
 19 20  2  0  0  0  0
 29 32  1  0  0  0  0
  8 11  1  0  0  0  0
 38 39  1  0  0  0  0
 18 21  1  0  0  0  0
 21 22  1  0  0  0  0
 28 29  1  0  0  0  0
  7  8  1  0  0  0  0
 17 18  1  0  0  0  0
  3  4  1  0  0  0  0
  3  5  1  0  0  0  0
  3  6  1  0  0  0  0
 32 35  1  0  0  0  0
 32 36  1  0  0  0  0
 32 37  1  0  0  0  0
 11 14  1  0  0  0  0
 11 15  1  0  0  0  0
 11 16  1  0  0  0  0
 39 41  1  0  0  0  0
 39 42  1  0  0  0  0
 39 43  1  0  0  0  0
 21 25  1  0  0  0  0
 21 26  1  0  0  0  0
 29 34  1  0  0  0  0
  8 13  1  0  0  0  0
 18 24  1  0  0  0  0
 38 40  1  0  0  0  0
  7 12  1  0  0  0  0
 28 33  1  0  0  0  0
 17 23  1  0  0  0  0
 22 27  1  0  0  0  0
M  END
$$$$

  -OEChem-05262214473D

 43 42  0     1  0  0  0  0  0999 V2000
   -2.8661   -4.7415    2.2943 C   0  0  0  0  0  0  0  0  0  0  0  0
   -2.0233   -5.5727    2.6109 O   0  0  0  0  0  0  0  0  0  0  0  0
   -4.3078   -5.0134    2.5698 C   0  0  0  0  0  0  0  0  0  0  0  0
   -4.8057   -5.5295    1.7332 H   0  0  0  0  0  0  0  0  0  0  0  0
   -4.4526   -5.6688    3.4436 H   0  0  0  0  0  0  0  0  0  0  0  0
   -4.9255   -4.1233    2.7700 H   0  0  0  0  0  0  0  0  0  0  0  0
   -2.6241   -3.5219    1.6838 N   0  0  0  0  0  0  0  0  0  0  0  0
   -1.3070   -3.0608    1.3315 C   0  0  2  0  0  0  0  0  0  0  0  0
   -1.3931   -1.5680    1.0422 C   0  0  0  0  0  0  0  0  0  0  0  0
   -2.4385   -1.0059    0.7226 O   0  0  0  0  0  0  0  0  0  0  0  0
   -0.7590   -3.8164    0.1309 C   0  0  0  0  0  0  0  0  0  0  0  0
   -3.4188   -2.9207    1.4735 H   0  0  0  0  0  0  0  0  0  0  0  0
   -0.6690   -3.2277    2.2062 H   0  0  0  0  0  0  0  0  0  0  0  0
   -1.3852   -3.6613   -0.7553 H   0  0  0  0  0  0  0  0  0  0  0  0
    0.2542   -3.4843   -0.1182 H   0  0  0  0  0  0  0  0  0  0  0  0
   -0.7257   -4.8930    0.3300 H   0  0  0  0  0  0  0  0  0  0  0  0
   -0.1563   -0.9420    1.1402 N   0  0  0  0  0  0  0  0  0  0  0  0
    0.0261    0.4671    0.9001 C   0  0  2  0  0  0  0  0  0  0  0  0
    1.1877    0.9683    1.7560 C   0  0  0  0  0  0  0  0  0  0  0  0
    1.9247    1.8898    1.4110 O   0  0  0  0  0  0  0  0  0  0  0  0
   -1.2648    1.2645    1.1020 C   0  0  0  0  0  0  0  0  0  0  0  0
   -2.5783    0.8503   -0.0920 S   0  0  0  0  0  0  0  0  0  0  0  0
    0.6533   -1.4855    1.4300 H   0  0  0  0  0  0  0  0  0  0  0  0
    0.3295    0.5501   -0.1509 H   0  0  0  0  0  0  0  0  0  0  0  0
   -1.6687    1.0943    2.1053 H   0  0  0  0  0  0  0  0  0  0  0  0
   -1.0602    2.3363    1.0056 H   0  0  0  0  0  0  0  0  0  0  0  0
   -3.4802    1.7114    0.3962 H   0  0  0  0  0  0  0  0  0  0  0  0
    1.3184    0.2498    2.9359 N   0  0  0  0  0  0  0  0  0  0  0  0
    2.3504    0.5282    3.9072 C   0  0  2  0  0  0  0  0  0  0  0  0
    2.2881   -0.5496    4.9815 C   0  0  0  0  0  0  0  0  0  0  0  0
    1.2798   -1.2161    5.2054 O   0  0  0  0  0  0  0  0  0  0  0  0
    2.1797    1.9118    4.5148 C   0  0  0  0  0  0  0  0  0  0  0  0
    0.6430   -0.4759    3.1568 H   0  0  0  0  0  0  0  0  0  0  0  0
    3.3078    0.4632    3.3788 H   0  0  0  0  0  0  0  0  0  0  0  0
    1.2259    1.9960    5.0484 H   0  0  0  0  0  0  0  0  0  0  0  0
    2.9791    2.1325    5.2299 H   0  0  0  0  0  0  0  0  0  0  0  0
    2.1949    2.6834    3.7375 H   0  0  0  0  0  0  0  0  0  0  0  0
    3.4775   -0.6499    5.6896 N   0  0  0  0  0  0  0  0  0  0  0  0
    3.6652   -1.5908    6.7691 C   0  0  0  0  0  0  0  0  0  0  0  0
    4.2681   -0.0704    5.4232 H   0  0  0  0  0  0  0  0  0  0  0  0
    3.4134   -1.1081    7.7249 H   0  0  0  0  0  0  0  0  0  0  0  0
    3.0107   -2.4613    6.6145 H   0  0  0  0  0  0  0  0  0  0  0  0
    4.7145   -1.9201    6.7901 H   0  0  0  0  0  0  0  0  0  0  0  0
  1  3  1  0  0  0  0
  1  7  1  0  0  0  0
  1  2  2  0  0  0  0
 29 30  1  0  0  0  0
 30 38  1  0  0  0  0
 30 31  2  0  0  0  0
  8  9  1  0  0  0  0
  9 17  1  0  0  0  0
  9 10  2  0  0  0  0
 18 19  1  0  0  0  0
 19 28  1  0  0  0  0
 19 20  2  0  0  0  0
 29 32  1  0  0  0  0
  8 11  1  0  0  0  0
 38 39  1  0  0  0  0
 18 21  1  0  0  0  0
 21 22  1  0  0  0  0
 28 29  1  0  0  0  0
  7  8  1  0  0  0  0
 17 18  1  0  0  0  0
  3  4  1  0  0  0  0
  3  5  1  0  0  0  0
  3  6  1  0  0  0  0
 32 35  1  0  0  0  0
 32 36  1  0  0  0  0
 32 37  1  0  0  0  0
 11 14  1  0  0  0  0
 11 15  1  0  0  0  0
 11 16  1  0  0  0  0
 39 41  1  0  0  0  0
 39 42  1  0  0  0  0
 39 43  1  0  0  0  0
 21 25  1  0  0  0  0
 21 26  1  0  0  0  0
 29 34  1  0  0  0  0
  8 13  1  0  0  0  0
 18 24  1  0  0  0  0
 38 40  1  0  0  0  0
  7 12  1  0  0  0  0
 28 33  1  0  0  0  0
 17 23  1  0  0  0  0
 22 27  1  0  0  0  0
M  END
$$$$

  -OEChem-05262214473D

 43 42  0     1  0  0  0  0  0999 V2000
   -2.8661   -4.7415    2.2943 C   0  0  0  0  0  0  0  0  0  0  0  0
   -2.0233   -5.5727    2.6109 O   0  0  0  0  0  0  0  0  0  0  0  0
   -4.3078   -5.0134    2.5698 C   0  0  0  0  0  0  0  0  0  0  0  0
   -4.8057   -5.5295    1.7332 H   0  0  0  0  0  0  0  0  0  0  0  0
   -4.4526   -5.6688    3.4436 H   0  0  0  0  0  0  0  0  0  0  0  0
   -4.9255   -4.1233    2.7700 H   0  0  0  0  0  0  0  0  0  0  0  0
   -2.6241   -3.5219    1.6838 N   0  0  0  0  0  0  0  0  0  0  0  0
   -1.3070   -3.0608    1.3315 C   0  0  2  0  0  0  0  0  0  0  0  0
   -1.3931   -1.5680    1.0422 C   0  0  0  0  0  0  0  0  0  0  0  0
   -2.4385   -1.0059    0.7226 O   0  0  0  0  0  0  0  0  0  0  0  0
   -0.7590   -3.8164    0.1309 C   0  0  0  0  0  0  0  0  0  0  0  0
   -3.4188   -2.9207    1.4735 H   0  0  0  0  0  0  0  0  0  0  0  0
   -0.6690   -3.2277    2.2062 H   0  0  0  0  0  0  0  0  0  0  0  0
   -1.3852   -3.6613   -0.7553 H   0  0  0  0  0  0  0  0  0  0  0  0
    0.2542   -3.4843   -0.1182 H   0  0  0  0  0  0  0  0  0  0  0  0
   -0.7257   -4.8930    0.3300 H   0  0  0  0  0  0  0  0  0  0  0  0
   -0.1563   -0.9420    1.1402 N   0  0  0  0  0  0  0  0  0  0  0  0
    0.0261    0.4671    0.9001 C   0  0  2  0  0  0  0  0  0  0  0  0
    1.1877    0.9683    1.7560 C   0  0  0  0  0  0  0  0  0  0  0  0
    1.7540    2.0406    1.5544 O   0  0  0  0  0  0  0  0  0  0  0  0
   -1.2648    1.2645    1.1020 C   0  0  0  0  0  0  0  0  0  0  0  0
   -2.5783    0.8503   -0.0920 S   0  0  0  0  0  0  0  0  0  0  0  0
    0.6533   -1.4855    1.4300 H   0  0  0  0  0  0  0  0  0  0  0  0
    0.3295    0.5501   -0.1509 H   0  0  0  0  0  0  0  0  0  0  0  0
   -1.6687    1.0943    2.1053 H   0  0  0  0  0  0  0  0  0  0  0  0
   -1.0602    2.3363    1.0056 H   0  0  0  0  0  0  0  0  0  0  0  0
   -3.4802    1.7114    0.3962 H   0  0  0  0  0  0  0  0  0  0  0  0
    1.5319    0.0669    2.7532 N   0  0  0  0  0  0  0  0  0  0  0  0
    2.6077    0.3101    3.6857 C   0  0  2  0  0  0  0  0  0  0  0  0
    2.8003   -0.9491    4.5203 C   0  0  0  0  0  0  0  0  0  0  0  0
    1.9197   -1.7928    4.6746 O   0  0  0  0  0  0  0  0  0  0  0  0
    2.3110    1.5097    4.5721 C   0  0  0  0  0  0  0  0  0  0  0  0
    0.9873   -0.7826    2.8691 H   0  0  0  0  0  0  0  0  0  0  0  0
    3.5077    0.4947    3.0890 H   0  0  0  0  0  0  0  0  0  0  0  0
    1.4125    1.3432    5.1775 H   0  0  0  0  0  0  0  0  0  0  0  0
    3.1399    1.7101    5.2590 H   0  0  0  0  0  0  0  0  0  0  0  0
    2.1433    2.4083    3.9686 H   0  0  0  0  0  0  0  0  0  0  0  0
    4.0567   -0.9987    5.1078 N   0  0  0  0  0  0  0  0  0  0  0  0
    4.4775   -2.0880    5.9578 C   0  0  0  0  0  0  0  0  0  0  0  0
    4.7303   -0.2647    4.9096 H   0  0  0  0  0  0  0  0  0  0  0  0
    4.2584   -1.8408    7.0070 H   0  0  0  0  0  0  0  0  0  0  0  0
    3.9359   -3.0030    5.6760 H   0  0  0  0  0  0  0  0  0  0  0  0
    5.5588   -2.2502    5.8375 H   0  0  0  0  0  0  0  0  0  0  0  0
  1  3  1  0  0  0  0
  1  7  1  0  0  0  0
  1  2  2  0  0  0  0
 29 30  1  0  0  0  0
 30 38  1  0  0  0  0
 30 31  2  0  0  0  0
  8  9  1  0  0  0  0
  9 17  1  0  0  0  0
  9 10  2  0  0  0  0
 18 19  1  0  0  0  0
 19 28  1  0  0  0  0
 19 20  2  0  0  0  0
 29 32  1  0  0  0  0
  8 11  1  0  0  0  0
 38 39  1  0  0  0  0
 18 21  1  0  0  0  0
 21 22  1  0  0  0  0
 28 29  1  0  0  0  0
  7  8  1  0  0  0  0
 17 18  1  0  0  0  0
  3  4  1  0  0  0  0
  3  5  1  0  0  0  0
  3  6  1  0  0  0  0
 32 35  1  0  0  0  0
 32 36  1  0  0  0  0
 32 37  1  0  0  0  0
 11 14  1  0  0  0  0
 11 15  1  0  0  0  0
 11 16  1  0  0  0  0
 39 41  1  0  0  0  0
 39 42  1  0  0  0  0
 39 43  1  0  0  0  0
 21 25  1  0  0  0  0
 21 26  1  0  0  0  0
 29 34  1  0  0  0  0
  8 13  1  0  0  0  0
 18 24  1  0  0  0  0
 38 40  1  0  0  0  0
  7 12  1  0  0  0  0
 28 33  1  0  0  0  0
 17 23  1  0  0  0  0
 22 27  1  0  0  0  0
M  END
$$$$

  -OEChem-05262214473D

 43 42  0     1  0  0  0  0  0999 V2000
   -2.8661   -4.7415    2.2943 C   0  0  0  0  0  0  0  0  0  0  0  0
   -2.0233   -5.5727    2.6109 O   0  0  0  0  0  0  0  0  0  0  0  0
   -4.3078   -5.0134    2.5698 C   0  0  0  0  0  0  0  0  0  0  0  0
   -4.8057   -5.5295    1.7332 H   0  0  0  0  0  0  0  0  0  0  0  0
   -4.4526   -5.6688    3.4436 H   0  0  0  0  0  0  0  0  0  0  0  0
   -4.9255   -4.1233    2.7700 H   0  0  0  0  0  0  0  0  0  0  0  0
   -2.6241   -3.5219    1.6838 N   0  0  0  0  0  0  0  0  0  0  0  0
   -1.3070   -3.0608    1.3315 C   0  0  2  0  0  0  0  0  0  0  0  0
   -1.3931   -1.5680    1.0422 C   0  0  0  0  0  0  0  0  0  0  0  0
   -2.4385   -1.0059    0.7226 O   0  0  0  0  0  0  0  0  0  0  0  0
   -0.7590   -3.8164    0.1309 C   0  0  0  0  0  0  0  0  0  0  0  0
   -3.4188   -2.9207    1.4735 H   0  0  0  0  0  0  0  0  0  0  0  0
   -0.6690   -3.2277    2.2062 H   0  0  0  0  0  0  0  0  0  0  0  0
   -1.3852   -3.6613   -0.7553 H   0  0  0  0  0  0  0  0  0  0  0  0
    0.2542   -3.4843   -0.1182 H   0  0  0  0  0  0  0  0  0  0  0  0
   -0.7257   -4.8930    0.3300 H   0  0  0  0  0  0  0  0  0  0  0  0
   -0.1563   -0.9420    1.1402 N   0  0  0  0  0  0  0  0  0  0  0  0
    0.0261    0.4671    0.9001 C   0  0  2  0  0  0  0  0  0  0  0  0
    1.1877    0.9683    1.7560 C   0  0  0  0  0  0  0  0  0  0  0  0
    1.5794    2.1334    1.7370 O   0  0  0  0  0  0  0  0  0  0  0  0
   -1.2648    1.2645    1.1020 C   0  0  0  0  0  0  0  0  0  0  0  0
   -2.5783    0.8503   -0.0920 S   0  0  0  0  0  0  0  0  0  0  0  0
    0.6533   -1.4855    1.4300 H   0  0  0  0  0  0  0  0  0  0  0  0
    0.3295    0.5501   -0.1509 H   0  0  0  0  0  0  0  0  0  0  0  0
   -1.6687    1.0943    2.1053 H   0  0  0  0  0  0  0  0  0  0  0  0
   -1.0602    2.3363    1.0056 H   0  0  0  0  0  0  0  0  0  0  0  0
   -3.4802    1.7114    0.3962 H   0  0  0  0  0  0  0  0  0  0  0  0
    1.7492   -0.0429    2.5226 N   0  0  0  0  0  0  0  0  0  0  0  0
    2.8690    0.1804    3.4069 C   0  0  2  0  0  0  0  0  0  0  0  0
    3.3138   -1.1700    3.9528 C   0  0  0  0  0  0  0  0  0  0  0  0
    2.5764   -2.1527    3.9941 O   0  0  0  0  0  0  0  0  0  0  0  0
    2.5010    1.1290    4.5372 C   0  0  0  0  0  0  0  0  0  0  0  0
    1.3399   -0.9722    2.5016 H   0  0  0  0  0  0  0  0  0  0  0  0
    3.6715    0.6113    2.7984 H   0  0  0  0  0  0  0  0  0  0  0  0
    1.6983    0.7143    5.1578 H   0  0  0  0  0  0  0  0  0  0  0  0
    3.3589    1.3197    5.1903 H   0  0  0  0  0  0  0  0  0  0  0  0
    2.1530    2.0895    4.1421 H   0  0  0  0  0  0  0  0  0  0  0  0
    4.6174   -1.1372    4.4280 N   0  0  0  0  0  0  0  0  0  0  0  0
    5.2653   -2.2907    5.0072 C   0  0  0  0  0  0  0  0  0  0  0  0
    5.1614   -0.2843    4.3361 H   0  0  0  0  0  0  0  0  0  0  0  0
    5.1200   -2.2846    6.0976 H   0  0  0  0  0  0  0  0  0  0  0  0
    4.8284   -3.2074    4.5844 H   0  0  0  0  0  0  0  0  0  0  0  0
    6.3413   -2.2590    4.7807 H   0  0  0  0  0  0  0  0  0  0  0  0
  1  3  1  0  0  0  0
  1  7  1  0  0  0  0
  1  2  2  0  0  0  0
 29 30  1  0  0  0  0
 30 38  1  0  0  0  0
 30 31  2  0  0  0  0
  8  9  1  0  0  0  0
  9 17  1  0  0  0  0
  9 10  2  0  0  0  0
 18 19  1  0  0  0  0
 19 28  1  0  0  0  0
 19 20  2  0  0  0  0
 29 32  1  0  0  0  0
  8 11  1  0  0  0  0
 38 39  1  0  0  0  0
 18 21  1  0  0  0  0
 21 22  1  0  0  0  0
 28 29  1  0  0  0  0
  7  8  1  0  0  0  0
 17 18  1  0  0  0  0
  3  4  1  0  0  0  0
  3  5  1  0  0  0  0
  3  6  1  0  0  0  0
 32 35  1  0  0  0  0
 32 36  1  0  0  0  0
 32 37  1  0  0  0  0
 11 14  1  0  0  0  0
 11 15  1  0  0  0  0
 11 16  1  0  0  0  0
 39 41  1  0  0  0  0
 39 42  1  0  0  0  0
 39 43  1  0  0  0  0
 21 25  1  0  0  0  0
 21 26  1  0  0  0  0
 29 34  1  0  0  0  0
  8 13  1  0  0  0  0
 18 24  1  0  0  0  0
 38 40  1  0  0  0  0
  7 12  1  0  0  0  0
 28 33  1  0  0  0  0
 17 23  1  0  0  0  0
 22 27  1  0  0  0  0
M  END
$$$$

  -OEChem-05262214473D

 43 42  0     1  0  0  0  0  0999 V2000
   -2.8661   -4.7415    2.2943 C   0  0  0  0  0  0  0  0  0  0  0  0
   -2.0233   -5.5727    2.6109 O   0  0  0  0  0  0  0  0  0  0  0  0
   -4.3078   -5.0134    2.5698 C   0  0  0  0  0  0  0  0  0  0  0  0
   -4.8057   -5.5295    1.7332 H   0  0  0  0  0  0  0  0  0  0  0  0
   -4.4526   -5.6688    3.4436 H   0  0  0  0  0  0  0  0  0  0  0  0
   -4.9255   -4.1233    2.7700 H   0  0  0  0  0  0  0  0  0  0  0  0
   -2.6241   -3.5219    1.6838 N   0  0  0  0  0  0  0  0  0  0  0  0
   -1.3070   -3.0608    1.3315 C   0  0  2  0  0  0  0  0  0  0  0  0
   -1.3931   -1.5680    1.0422 C   0  0  0  0  0  0  0  0  0  0  0  0
   -2.4385   -1.0059    0.7226 O   0  0  0  0  0  0  0  0  0  0  0  0
   -0.7590   -3.8164    0.1309 C   0  0  0  0  0  0  0  0  0  0  0  0
   -3.4188   -2.9207    1.4735 H   0  0  0  0  0  0  0  0  0  0  0  0
   -0.6690   -3.2277    2.2062 H   0  0  0  0  0  0  0  0  0  0  0  0
   -1.3852   -3.6613   -0.7553 H   0  0  0  0  0  0  0  0  0  0  0  0
    0.2542   -3.4843   -0.1182 H   0  0  0  0  0  0  0  0  0  0  0  0
   -0.7257   -4.8930    0.3300 H   0  0  0  0  0  0  0  0  0  0  0  0
   -0.1563   -0.9420    1.1402 N   0  0  0  0  0  0  0  0  0  0  0  0
    0.0261    0.4671    0.9001 C   0  0  2  0  0  0  0  0  0  0  0  0
    1.1877    0.9683    1.7560 C   0  0  0  0  0  0  0  0  0  0  0  0
    1.4128    2.1617    1.9465 O   0  0  0  0  0  0  0  0  0  0  0  0
   -1.2648    1.2645    1.1020 C   0  0  0  0  0  0  0  0  0  0  0  0
   -2.5783    0.8503   -0.0920 S   0  0  0  0  0  0  0  0  0  0  0  0
    0.6533   -1.4855    1.4300 H   0  0  0  0  0  0  0  0  0  0  0  0
    0.3295    0.5501   -0.1509 H   0  0  0  0  0  0  0  0  0  0  0  0
   -1.6687    1.0943    2.1053 H   0  0  0  0  0  0  0  0  0  0  0  0
   -1.0602    2.3363    1.0056 H   0  0  0  0  0  0  0  0  0  0  0  0
   -3.4802    1.7114    0.3962 H   0  0  0  0  0  0  0  0  0  0  0  0
    1.9554   -0.0720    2.2598 N   0  0  0  0  0  0  0  0  0  0  0  0
    3.1166    0.1479    3.0899 C   0  0  2  0  0  0  0  0  0  0  0  0
    3.7937   -1.1972    3.3174 C   0  0  0  0  0  0  0  0  0  0  0  0
    3.2051   -2.2711    3.2101 O   0  0  0  0  0  0  0  0  0  0  0  0
    2.7367    0.7957    4.4123 C   0  0  0  0  0  0  0  0  0  0  0  0
    1.6768   -1.0320    2.0794 H   0  0  0  0  0  0  0  0  0  0  0  0
    3.7883    0.8049    2.5266 H   0  0  0  0  0  0  0  0  0  0  0  0
    2.0640    0.1521    4.9908 H   0  0  0  0  0  0  0  0  0  0  0  0
    3.6212    0.9879    5.0286 H   0  0  0  0  0  0  0  0  0  0  0  0
    2.2233    1.7489    4.2460 H   0  0  0  0  0  0  0  0  0  0  0  0
    5.1213   -1.0558    3.6964 N   0  0  0  0  0  0  0  0  0  0  0  0
    5.9750   -2.1851    3.9823 C   0  0  0  0  0  0  0  0  0  0  0  0
    5.5319   -0.1278    3.7416 H   0  0  0  0  0  0  0  0  0  0  0  0
    5.9394   -2.4093    5.0586 H   0  0  0  0  0  0  0  0  0  0  0  0
    5.6275   -3.0604    3.4139 H   0  0  0  0  0  0  0  0  0  0  0  0
    7.0086   -1.9460    3.6917 H   0  0  0  0  0  0  0  0  0  0  0  0
  1  3  1  0  0  0  0
  1  7  1  0  0  0  0
  1  2  2  0  0  0  0
 29 30  1  0  0  0  0
 30 38  1  0  0  0  0
 30 31  2  0  0  0  0
  8  9  1  0  0  0  0
  9 17  1  0  0  0  0
  9 10  2  0  0  0  0
 18 19  1  0  0  0  0
 19 28  1  0  0  0  0
 19 20  2  0  0  0  0
 29 32  1  0  0  0  0
  8 11  1  0  0  0  0
 38 39  1  0  0  0  0
 18 21  1  0  0  0  0
 21 22  1  0  0  0  0
 28 29  1  0  0  0  0
  7  8  1  0  0  0  0
 17 18  1  0  0  0  0
  3  4  1  0  0  0  0
  3  5  1  0  0  0  0
  3  6  1  0  0  0  0
 32 35  1  0  0  0  0
 32 36  1  0  0  0  0
 32 37  1  0  0  0  0
 11 14  1  0  0  0  0
 11 15  1  0  0  0  0
 11 16  1  0  0  0  0
 39 41  1  0  0  0  0
 39 42  1  0  0  0  0
 39 43  1  0  0  0  0
 21 25  1  0  0  0  0
 21 26  1  0  0  0  0
 29 34  1  0  0  0  0
  8 13  1  0  0  0  0
 18 24  1  0  0  0  0
 38 40  1  0  0  0  0
  7 12  1  0  0  0  0
 28 33  1  0  0  0  0
 17 23  1  0  0  0  0
 22 27  1  0  0  0  0
M  END
$$$$

  -OEChem-05262214473D

 43 42  0     1  0  0  0  0  0999 V2000
   -2.8661   -4.7415    2.2943 C   0  0  0  0  0  0  0  0  0  0  0  0
   -2.0233   -5.5727    2.6109 O   0  0  0  0  0  0  0  0  0  0  0  0
   -4.3078   -5.0134    2.5698 C   0  0  0  0  0  0  0  0  0  0  0  0
   -4.8057   -5.5295    1.7332 H   0  0  0  0  0  0  0  0  0  0  0  0
   -4.4526   -5.6688    3.4436 H   0  0  0  0  0  0  0  0  0  0  0  0
   -4.9255   -4.1233    2.7700 H   0  0  0  0  0  0  0  0  0  0  0  0
   -2.6241   -3.5219    1.6838 N   0  0  0  0  0  0  0  0  0  0  0  0
   -1.3070   -3.0608    1.3315 C   0  0  2  0  0  0  0  0  0  0  0  0
   -1.3931   -1.5680    1.0422 C   0  0  0  0  0  0  0  0  0  0  0  0
   -2.4385   -1.0059    0.7226 O   0  0  0  0  0  0  0  0  0  0  0  0
   -0.7590   -3.8164    0.1309 C   0  0  0  0  0  0  0  0  0  0  0  0
   -3.4188   -2.9207    1.4735 H   0  0  0  0  0  0  0  0  0  0  0  0
   -0.6690   -3.2277    2.2062 H   0  0  0  0  0  0  0  0  0  0  0  0
   -1.3852   -3.6613   -0.7553 H   0  0  0  0  0  0  0  0  0  0  0  0
    0.2542   -3.4843   -0.1182 H   0  0  0  0  0  0  0  0  0  0  0  0
   -0.7257   -4.8930    0.3300 H   0  0  0  0  0  0  0  0  0  0  0  0
   -0.1563   -0.9420    1.1402 N   0  0  0  0  0  0  0  0  0  0  0  0
    0.0261    0.4671    0.9001 C   0  0  2  0  0  0  0  0  0  0  0  0
    1.1877    0.9683    1.7560 C   0  0  0  0  0  0  0  0  0  0  0  0
    1.2656    2.1237    2.1686 O   0  0  0  0  0  0  0  0  0  0  0  0
   -1.2648    1.2645    1.1020 C   0  0  0  0  0  0  0  0  0  0  0  0
   -2.5783    0.8503   -0.0920 S   0  0  0  0  0  0  0  0  0  0  0  0
    0.6533   -1.4855    1.4300 H   0  0  0  0  0  0  0  0  0  0  0  0
    0.3295    0.5501   -0.1509 H   0  0  0  0  0  0  0  0  0  0  0  0
   -1.6687    1.0943    2.1053 H   0  0  0  0  0  0  0  0  0  0  0  0
   -1.0602    2.3363    1.0056 H   0  0  0  0  0  0  0  0  0  0  0  0
   -3.4802    1.7114    0.3962 H   0  0  0  0  0  0  0  0  0  0  0  0
    2.1365   -0.0185    1.9827 N   0  0  0  0  0  0  0  0  0  0  0  0
    3.3336    0.2148    2.7563 C   0  0  2  0  0  0  0  0  0  0  0  0
    4.2071   -1.0288    2.6577 C   0  0  0  0  0  0  0  0  0  0  0  0
    3.7630   -2.1400    2.3762 O   0  0  0  0  0  0  0  0  0  0  0  0
    3.0022    0.5326    4.2061 C   0  0  0  0  0  0  0  0  0  0  0  0
    1.9750   -0.9577    1.6311 H   0  0  0  0  0  0  0  0  0  0  0  0
    3.8498    1.0622    2.2923 H   0  0  0  0  0  0  0  0  0  0  0  0
    2.4845   -0.3050    4.6877 H   0  0  0  0  0  0  0  0  0  0  0  0
    3.9090    0.7373    4.7847 H   0  0  0  0  0  0  0  0  0  0  0  0
    2.3495    1.4097    4.2735 H   0  0  0  0  0  0  0  0  0  0  0  0
    5.5340   -0.7601    2.9631 N   0  0  0  0  0  0  0  0  0  0  0  0
    6.5581   -1.7785    2.9527 C   0  0  0  0  0  0  0  0  0  0  0  0
    5.8166    0.1941    3.1667 H   0  0  0  0  0  0  0  0  0  0  0  0
    6.6606   -2.2064    3.9609 H   0  0  0  0  0  0  0  0  0  0  0  0
    6.2786   -2.5722    2.2443 H   0  0  0  0  0  0  0  0  0  0  0  0
    7.5154   -1.3326    2.6447 H   0  0  0  0  0  0  0  0  0  0  0  0
  1  3  1  0  0  0  0
  1  7  1  0  0  0  0
  1  2  2  0  0  0  0
 29 30  1  0  0  0  0
 30 38  1  0  0  0  0
 30 31  2  0  0  0  0
  8  9  1  0  0  0  0
  9 17  1  0  0  0  0
  9 10  2  0  0  0  0
 18 19  1  0  0  0  0
 19 28  1  0  0  0  0
 19 20  2  0  0  0  0
 29 32  1  0  0  0  0
  8 11  1  0  0  0  0
 38 39  1  0  0  0  0
 18 21  1  0  0  0  0
 21 22  1  0  0  0  0
 28 29  1  0  0  0  0
  7  8  1  0  0  0  0
 17 18  1  0  0  0  0
  3  4  1  0  0  0  0
  3  5  1  0  0  0  0
  3  6  1  0  0  0  0
 32 35  1  0  0  0  0
 32 36  1  0  0  0  0
 32 37  1  0  0  0  0
 11 14  1  0  0  0  0
 11 15  1  0  0  0  0
 11 16  1  0  0  0  0
 39 41  1  0  0  0  0
 39 42  1  0  0  0  0
 39 43  1  0  0  0  0
 21 25  1  0  0  0  0
 21 26  1  0  0  0  0
 29 34  1  0  0  0  0
  8 13  1  0  0  0  0
 18 24  1  0  0  0  0
 38 40  1  0  0  0  0
  7 12  1  0  0  0  0
 28 33  1  0  0  0  0
 17 23  1  0  0  0  0
 22 27  1  0  0  0  0
M  END
$$$$

  -OEChem-05262214473D

 43 42  0     1  0  0  0  0  0999 V2000
   -2.8661   -4.7415    2.2943 C   0  0  0  0  0  0  0  0  0  0  0  0
   -2.0233   -5.5727    2.6109 O   0  0  0  0  0  0  0  0  0  0  0  0
   -4.3078   -5.0134    2.5698 C   0  0  0  0  0  0  0  0  0  0  0  0
   -4.8057   -5.5295    1.7332 H   0  0  0  0  0  0  0  0  0  0  0  0
   -4.4526   -5.6688    3.4436 H   0  0  0  0  0  0  0  0  0  0  0  0
   -4.9255   -4.1233    2.7700 H   0  0  0  0  0  0  0  0  0  0  0  0
   -2.6241   -3.5219    1.6838 N   0  0  0  0  0  0  0  0  0  0  0  0
   -1.3070   -3.0608    1.3315 C   0  0  2  0  0  0  0  0  0  0  0  0
   -1.3931   -1.5680    1.0422 C   0  0  0  0  0  0  0  0  0  0  0  0
   -2.4385   -1.0059    0.7226 O   0  0  0  0  0  0  0  0  0  0  0  0
   -0.7590   -3.8164    0.1309 C   0  0  0  0  0  0  0  0  0  0  0  0
   -3.4188   -2.9207    1.4735 H   0  0  0  0  0  0  0  0  0  0  0  0
   -0.6690   -3.2277    2.2062 H   0  0  0  0  0  0  0  0  0  0  0  0
   -1.3852   -3.6613   -0.7553 H   0  0  0  0  0  0  0  0  0  0  0  0
    0.2542   -3.4843   -0.1182 H   0  0  0  0  0  0  0  0  0  0  0  0
   -0.7257   -4.8930    0.3300 H   0  0  0  0  0  0  0  0  0  0  0  0
   -0.1563   -0.9420    1.1402 N   0  0  0  0  0  0  0  0  0  0  0  0
    0.0261    0.4671    0.9001 C   0  0  2  0  0  0  0  0  0  0  0  0
    1.1877    0.9683    1.7560 C   0  0  0  0  0  0  0  0  0  0  0  0
    1.1478    2.0219    2.3881 O   0  0  0  0  0  0  0  0  0  0  0  0
   -1.2648    1.2645    1.1020 C   0  0  0  0  0  0  0  0  0  0  0  0
   -2.5783    0.8503   -0.0920 S   0  0  0  0  0  0  0  0  0  0  0  0
    0.6533   -1.4855    1.4300 H   0  0  0  0  0  0  0  0  0  0  0  0
    0.3295    0.5501   -0.1509 H   0  0  0  0  0  0  0  0  0  0  0  0
   -1.6687    1.0943    2.1053 H   0  0  0  0  0  0  0  0  0  0  0  0
   -1.0602    2.3363    1.0056 H   0  0  0  0  0  0  0  0  0  0  0  0
   -3.4802    1.7114    0.3962 H   0  0  0  0  0  0  0  0  0  0  0  0
    2.2802    0.1139    1.7102 N   0  0  0  0  0  0  0  0  0  0  0  0
    3.5051    0.3765    2.4288 C   0  0  2  0  0  0  0  0  0  0  0  0
    4.5261   -0.6764    2.0184 C   0  0  0  0  0  0  0  0  0  0  0  0
    4.2120   -1.7683    1.5491 O   0  0  0  0  0  0  0  0  0  0  0  0
    3.2793    0.3575    3.9326 C   0  0  0  0  0  0  0  0  0  0  0  0
    2.2142   -0.7544    1.1875 H   0  0  0  0  0  0  0  0  0  0  0  0
    3.8521    1.3659    2.1115 H   0  0  0  0  0  0  0  0  0  0  0  0
    2.9312   -0.6258    4.2693 H   0  0  0  0  0  0  0  0  0  0  0  0
    4.2027    0.5849    4.4754 H   0  0  0  0  0  0  0  0  0  0  0  0
    2.5229    1.0949    4.2225 H   0  0  0  0  0  0  0  0  0  0  0  0
    5.8276   -0.2703    2.2778 N   0  0  0  0  0  0  0  0  0  0  0  0
    6.9750   -1.0985    1.9888 C   0  0  0  0  0  0  0  0  0  0  0  0
    5.9960    0.6594    2.6506 H   0  0  0  0  0  0  0  0  0  0  0  0
    7.2347   -1.6898    2.8793 H   0  0  0  0  0  0  0  0  0  0  0  0
    6.7374   -1.7760    1.1554 H   0  0  0  0  0  0  0  0  0  0  0  0
    7.8270   -0.4605    1.7112 H   0  0  0  0  0  0  0  0  0  0  0  0
  1  3  1  0  0  0  0
  1  7  1  0  0  0  0
  1  2  2  0  0  0  0
 29 30  1  0  0  0  0
 30 38  1  0  0  0  0
 30 31  2  0  0  0  0
  8  9  1  0  0  0  0
  9 17  1  0  0  0  0
  9 10  2  0  0  0  0
 18 19  1  0  0  0  0
 19 28  1  0  0  0  0
 19 20  2  0  0  0  0
 29 32  1  0  0  0  0
  8 11  1  0  0  0  0
 38 39  1  0  0  0  0
 18 21  1  0  0  0  0
 21 22  1  0  0  0  0
 28 29  1  0  0  0  0
  7  8  1  0  0  0  0
 17 18  1  0  0  0  0
  3  4  1  0  0  0  0
  3  5  1  0  0  0  0
  3  6  1  0  0  0  0
 32 35  1  0  0  0  0
 32 36  1  0  0  0  0
 32 37  1  0  0  0  0
 11 14  1  0  0  0  0
 11 15  1  0  0  0  0
 11 16  1  0  0  0  0
 39 41  1  0  0  0  0
 39 42  1  0  0  0  0
 39 43  1  0  0  0  0
 21 25  1  0  0  0  0
 21 26  1  0  0  0  0
 29 34  1  0  0  0  0
  8 13  1  0  0  0  0
 18 24  1  0  0  0  0
 38 40  1  0  0  0  0
  7 12  1  0  0  0  0
 28 33  1  0  0  0  0
 17 23  1  0  0  0  0
 22 27  1  0  0  0  0
M  END
$$$$

  -OEChem-05262214473D

 43 42  0     1  0  0  0  0  0999 V2000
   -2.8661   -4.7415    2.2943 C   0  0  0  0  0  0  0  0  0  0  0  0
   -2.0233   -5.5727    2.6109 O   0  0  0  0  0  0  0  0  0  0  0  0
   -4.3078   -5.0134    2.5698 C   0  0  0  0  0  0  0  0  0  0  0  0
   -4.8057   -5.5295    1.7332 H   0  0  0  0  0  0  0  0  0  0  0  0
   -4.4526   -5.6688    3.4436 H   0  0  0  0  0  0  0  0  0  0  0  0
   -4.9255   -4.1233    2.7700 H   0  0  0  0  0  0  0  0  0  0  0  0
   -2.6241   -3.5219    1.6838 N   0  0  0  0  0  0  0  0  0  0  0  0
   -1.3070   -3.0608    1.3315 C   0  0  2  0  0  0  0  0  0  0  0  0
   -1.3931   -1.5680    1.0422 C   0  0  0  0  0  0  0  0  0  0  0  0
   -2.4385   -1.0059    0.7226 O   0  0  0  0  0  0  0  0  0  0  0  0
   -0.7590   -3.8164    0.1309 C   0  0  0  0  0  0  0  0  0  0  0  0
   -3.4188   -2.9207    1.4735 H   0  0  0  0  0  0  0  0  0  0  0  0
   -0.6690   -3.2277    2.2062 H   0  0  0  0  0  0  0  0  0  0  0  0
   -1.3852   -3.6613   -0.7553 H   0  0  0  0  0  0  0  0  0  0  0  0
    0.2542   -3.4843   -0.1182 H   0  0  0  0  0  0  0  0  0  0  0  0
   -0.7257   -4.8930    0.3300 H   0  0  0  0  0  0  0  0  0  0  0  0
   -0.1563   -0.9420    1.1402 N   0  0  0  0  0  0  0  0  0  0  0  0
    0.0261    0.4671    0.9001 C   0  0  2  0  0  0  0  0  0  0  0  0
    1.1877    0.9683    1.7560 C   0  0  0  0  0  0  0  0  0  0  0  0
    1.0674    1.8633    2.5901 O   0  0  0  0  0  0  0  0  0  0  0  0
   -1.2648    1.2645    1.1020 C   0  0  0  0  0  0  0  0  0  0  0  0
   -2.5783    0.8503   -0.0920 S   0  0  0  0  0  0  0  0  0  0  0  0
    0.6533   -1.4855    1.4300 H   0  0  0  0  0  0  0  0  0  0  0  0
    0.3295    0.5501   -0.1509 H   0  0  0  0  0  0  0  0  0  0  0  0
   -1.6687    1.0943    2.1053 H   0  0  0  0  0  0  0  0  0  0  0  0
   -1.0602    2.3363    1.0056 H   0  0  0  0  0  0  0  0  0  0  0  0
   -3.4802    1.7114    0.3962 H   0  0  0  0  0  0  0  0  0  0  0  0
    2.3766    0.3164    1.4608 N   0  0  0  0  0  0  0  0  0  0  0  0
    3.6195    0.6221    2.1298 C   0  0  2  0  0  0  0  0  0  0  0  0
    4.7288   -0.1638    1.4432 C   0  0  0  0  0  0  0  0  0  0  0  0
    4.5216   -1.1813    0.7853 O   0  0  0  0  0  0  0  0  0  0  0  0
    3.5490    0.2824    3.6105 C   0  0  0  0  0  0  0  0  0  0  0  0
    2.3781   -0.4361    0.7786 H   0  0  0  0  0  0  0  0  0  0  0  0
    3.7949    1.6951    1.9963 H   0  0  0  0  0  0  0  0  0  0  0  0
    3.3737   -0.7886    3.7640 H   0  0  0  0  0  0  0  0  0  0  0  0
    4.4821    0.5412    4.1217 H   0  0  0  0  0  0  0  0  0  0  0  0
    2.7317    0.8260    4.0965 H   0  0  0  0  0  0  0  0  0  0  0  0
    5.9819    0.3803    1.6874 N   0  0  0  0  0  0  0  0  0  0  0  0
    7.1972   -0.1915    1.1562 C   0  0  0  0  0  0  0  0  0  0  0  0
    6.0581    1.2366    2.2285 H   0  0  0  0  0  0  0  0  0  0  0  0
    7.6224   -0.8946    1.8875 H   0  0  0  0  0  0  0  0  0  0  0  0
    6.9726   -0.7261    0.2214 H   0  0  0  0  0  0  0  0  0  0  0  0
    7.9222    0.6108    0.9546 H   0  0  0  0  0  0  0  0  0  0  0  0
  1  3  1  0  0  0  0
  1  7  1  0  0  0  0
  1  2  2  0  0  0  0
 29 30  1  0  0  0  0
 30 38  1  0  0  0  0
 30 31  2  0  0  0  0
  8  9  1  0  0  0  0
  9 17  1  0  0  0  0
  9 10  2  0  0  0  0
 18 19  1  0  0  0  0
 19 28  1  0  0  0  0
 19 20  2  0  0  0  0
 29 32  1  0  0  0  0
  8 11  1  0  0  0  0
 38 39  1  0  0  0  0
 18 21  1  0  0  0  0
 21 22  1  0  0  0  0
 28 29  1  0  0  0  0
  7  8  1  0  0  0  0
 17 18  1  0  0  0  0
  3  4  1  0  0  0  0
  3  5  1  0  0  0  0
  3  6  1  0  0  0  0
 32 35  1  0  0  0  0
 32 36  1  0  0  0  0
 32 37  1  0  0  0  0
 11 14  1  0  0  0  0
 11 15  1  0  0  0  0
 11 16  1  0  0  0  0
 39 41  1  0  0  0  0
 39 42  1  0  0  0  0
 39 43  1  0  0  0  0
 21 25  1  0  0  0  0
 21 26  1  0  0  0  0
 29 34  1  0  0  0  0
  8 13  1  0  0  0  0
 18 24  1  0  0  0  0
 38 40  1  0  0  0  0
  7 12  1  0  0  0  0
 28 33  1  0  0  0  0
 17 23  1  0  0  0  0
 22 27  1  0  0  0  0
M  END
$$$$

  -OEChem-05262214473D

 43 42  0     1  0  0  0  0  0999 V2000
   -2.8661   -4.7415    2.2943 C   0  0  0  0  0  0  0  0  0  0  0  0
   -2.0233   -5.5727    2.6109 O   0  0  0  0  0  0  0  0  0  0  0  0
   -4.3078   -5.0134    2.5698 C   0  0  0  0  0  0  0  0  0  0  0  0
   -4.8057   -5.5295    1.7332 H   0  0  0  0  0  0  0  0  0  0  0  0
   -4.4526   -5.6688    3.4436 H   0  0  0  0  0  0  0  0  0  0  0  0
   -4.9255   -4.1233    2.7700 H   0  0  0  0  0  0  0  0  0  0  0  0
   -2.6241   -3.5219    1.6838 N   0  0  0  0  0  0  0  0  0  0  0  0
   -1.3070   -3.0608    1.3315 C   0  0  2  0  0  0  0  0  0  0  0  0
   -1.3931   -1.5680    1.0422 C   0  0  0  0  0  0  0  0  0  0  0  0
   -2.4385   -1.0059    0.7226 O   0  0  0  0  0  0  0  0  0  0  0  0
   -0.7590   -3.8164    0.1309 C   0  0  0  0  0  0  0  0  0  0  0  0
   -3.4188   -2.9207    1.4735 H   0  0  0  0  0  0  0  0  0  0  0  0
   -0.6690   -3.2277    2.2062 H   0  0  0  0  0  0  0  0  0  0  0  0
   -1.3852   -3.6613   -0.7553 H   0  0  0  0  0  0  0  0  0  0  0  0
    0.2542   -3.4843   -0.1182 H   0  0  0  0  0  0  0  0  0  0  0  0
   -0.7257   -4.8930    0.3300 H   0  0  0  0  0  0  0  0  0  0  0  0
   -0.1563   -0.9420    1.1402 N   0  0  0  0  0  0  0  0  0  0  0  0
    0.0261    0.4671    0.9001 C   0  0  2  0  0  0  0  0  0  0  0  0
    1.1877    0.9683    1.7560 C   0  0  0  0  0  0  0  0  0  0  0  0
    1.0299    1.6587    2.7609 O   0  0  0  0  0  0  0  0  0  0  0  0
   -1.2648    1.2645    1.1020 C   0  0  0  0  0  0  0  0  0  0  0  0
   -2.5783    0.8503   -0.0920 S   0  0  0  0  0  0  0  0  0  0  0  0
    0.6533   -1.4855    1.4300 H   0  0  0  0  0  0  0  0  0  0  0  0
    0.3295    0.5501   -0.1509 H   0  0  0  0  0  0  0  0  0  0  0  0
   -1.6687    1.0943    2.1053 H   0  0  0  0  0  0  0  0  0  0  0  0
   -1.0602    2.3363    1.0056 H   0  0  0  0  0  0  0  0  0  0  0  0
   -3.4802    1.7114    0.3962 H   0  0  0  0  0  0  0  0  0  0  0  0
    2.4191    0.5750    1.2516 N   0  0  0  0  0  0  0  0  0  0  0  0
    3.6690    0.9347    1.8795 C   0  0  2  0  0  0  0  0  0  0  0  0
    4.8013    0.4739    0.9713 C   0  0  0  0  0  0  0  0  0  0  0  0
    4.6707   -0.4191    0.1367 O   0  0  0  0  0  0  0  0  0  0  0  0
    3.7932    0.3124    3.2616 C   0  0  0  0  0  0  0  0  0  0  0  0
    2.4556   -0.0244    0.4324 H   0  0  0  0  0  0  0  0  0  0  0  0
    3.6821    2.0275    1.9548 H   0  0  0  0  0  0  0  0  0  0  0  0
    3.7819   -0.7823    3.2064 H   0  0  0  0  0  0  0  0  0  0  0  0
    4.7283    0.6092    3.7478 H   0  0  0  0  0  0  0  0  0  0  0  0
    2.9617    0.6214    3.9042 H   0  0  0  0  0  0  0  0  0  0  0  0
    5.9865    1.1473    1.2321 N   0  0  0  0  0  0  0  0  0  0  0  0
    7.2095    0.8807    0.5116 C   0  0  0  0  0  0  0  0  0  0  0  0
    5.9985    1.8861    1.9290 H   0  0  0  0  0  0  0  0  0  0  0  0
    7.7974    0.1249    1.0530 H   0  0  0  0  0  0  0  0  0  0  0  0
    6.9682    0.5060   -0.4941 H   0  0  0  0  0  0  0  0  0  0  0  0
    7.7946    1.8083    0.4266 H   0  0  0  0  0  0  0  0  0  0  0  0
  1  3  1  0  0  0  0
  1  7  1  0  0  0  0
  1  2  2  0  0  0  0
 29 30  1  0  0  0  0
 30 38  1  0  0  0  0
 30 31  2  0  0  0  0
  8  9  1  0  0  0  0
  9 17  1  0  0  0  0
  9 10  2  0  0  0  0
 18 19  1  0  0  0  0
 19 28  1  0  0  0  0
 19 20  2  0  0  0  0
 29 32  1  0  0  0  0
  8 11  1  0  0  0  0
 38 39  1  0  0  0  0
 18 21  1  0  0  0  0
 21 22  1  0  0  0  0
 28 29  1  0  0  0  0
  7  8  1  0  0  0  0
 17 18  1  0  0  0  0
  3  4  1  0  0  0  0
  3  5  1  0  0  0  0
  3  6  1  0  0  0  0
 32 35  1  0  0  0  0
 32 36  1  0  0  0  0
 32 37  1  0  0  0  0
 11 14  1  0  0  0  0
 11 15  1  0  0  0  0
 11 16  1  0  0  0  0
 39 41  1  0  0  0  0
 39 42  1  0  0  0  0
 39 43  1  0  0  0  0
 21 25  1  0  0  0  0
 21 26  1  0  0  0  0
 29 34  1  0  0  0  0
  8 13  1  0  0  0  0
 18 24  1  0  0  0  0
 38 40  1  0  0  0  0
  7 12  1  0  0  0  0
 28 33  1  0  0  0  0
 17 23  1  0  0  0  0
 22 27  1  0  0  0  0
M  END
$$$$

  -OEChem-05262214473D

 43 42  0     1  0  0  0  0  0999 V2000
   -2.8661   -4.7415    2.2943 C   0  0  0  0  0  0  0  0  0  0  0  0
   -2.0233   -5.5727    2.6109 O   0  0  0  0  0  0  0  0  0  0  0  0
   -4.3078   -5.0134    2.5698 C   0  0  0  0  0  0  0  0  0  0  0  0
   -4.8057   -5.5295    1.7332 H   0  0  0  0  0  0  0  0  0  0  0  0
   -4.4526   -5.6688    3.4436 H   0  0  0  0  0  0  0  0  0  0  0  0
   -4.9255   -4.1233    2.7700 H   0  0  0  0  0  0  0  0  0  0  0  0
   -2.6241   -3.5219    1.6838 N   0  0  0  0  0  0  0  0  0  0  0  0
   -1.3070   -3.0608    1.3315 C   0  0  2  0  0  0  0  0  0  0  0  0
   -1.3931   -1.5680    1.0422 C   0  0  0  0  0  0  0  0  0  0  0  0
   -2.4385   -1.0059    0.7226 O   0  0  0  0  0  0  0  0  0  0  0  0
   -0.7590   -3.8164    0.1309 C   0  0  0  0  0  0  0  0  0  0  0  0
   -3.4188   -2.9207    1.4735 H   0  0  0  0  0  0  0  0  0  0  0  0
   -0.6690   -3.2277    2.2062 H   0  0  0  0  0  0  0  0  0  0  0  0
   -1.3852   -3.6613   -0.7553 H   0  0  0  0  0  0  0  0  0  0  0  0
    0.2542   -3.4843   -0.1182 H   0  0  0  0  0  0  0  0  0  0  0  0
   -0.7257   -4.8930    0.3300 H   0  0  0  0  0  0  0  0  0  0  0  0
   -0.1563   -0.9420    1.1402 N   0  0  0  0  0  0  0  0  0  0  0  0
    0.0261    0.4671    0.9001 C   0  0  2  0  0  0  0  0  0  0  0  0
    1.1877    0.9683    1.7560 C   0  0  0  0  0  0  0  0  0  0  0  0
    1.0378    1.4219    2.8887 O   0  0  0  0  0  0  0  0  0  0  0  0
   -1.2648    1.2645    1.1020 C   0  0  0  0  0  0  0  0  0  0  0  0
   -2.5783    0.8503   -0.0920 S   0  0  0  0  0  0  0  0  0  0  0  0
    0.6533   -1.4855    1.4300 H   0  0  0  0  0  0  0  0  0  0  0  0
    0.3295    0.5501   -0.1509 H   0  0  0  0  0  0  0  0  0  0  0  0
   -1.6687    1.0943    2.1053 H   0  0  0  0  0  0  0  0  0  0  0  0
   -1.0602    2.3363    1.0056 H   0  0  0  0  0  0  0  0  0  0  0  0
   -3.4802    1.7114    0.3962 H   0  0  0  0  0  0  0  0  0  0  0  0
    2.4050    0.8721    1.0968 N   0  0  0  0  0  0  0  0  0  0  0  0
    3.6502    1.2931    1.6951 C   0  0  2  0  0  0  0  0  0  0  0  0
    4.7389    1.1932    0.6348 C   0  0  0  0  0  0  0  0  0  0  0  0
    4.6490    0.4664   -0.3525 O   0  0  0  0  0  0  0  0  0  0  0  0
    3.9950    0.4455    2.9097 C   0  0  0  0  0  0  0  0  0  0  0  0
    2.4413    0.4527    0.1725 H   0  0  0  0  0  0  0  0  0  0  0  0
    3.5214    2.3404    1.9896 H   0  0  0  0  0  0  0  0  0  0  0  0
    4.1278   -0.6071    2.6343 H   0  0  0  0  0  0  0  0  0  0  0  0
    4.9246    0.7841    3.3790 H   0  0  0  0  0  0  0  0  0  0  0  0
    3.1972    0.4949    3.6587 H   0  0  0  0  0  0  0  0  0  0  0  0
    5.8410    1.9785    0.9428 N   0  0  0  0  0  0  0  0  0  0  0  0
    7.0112    2.0450    0.0989 C   0  0  0  0  0  0  0  0  0  0  0  0
    5.8213    2.5638    1.7727 H   0  0  0  0  0  0  0  0  0  0  0  0
    7.7477    1.2993    0.4328 H   0  0  0  0  0  0  0  0  0  0  0  0
    6.7245    1.8363   -0.9424 H   0  0  0  0  0  0  0  0  0  0  0  0
    7.4528    3.0505    0.1632 H   0  0  0  0  0  0  0  0  0  0  0  0
  1  3  1  0  0  0  0
  1  7  1  0  0  0  0
  1  2  2  0  0  0  0
 29 30  1  0  0  0  0
 30 38  1  0  0  0  0
 30 31  2  0  0  0  0
  8  9  1  0  0  0  0
  9 17  1  0  0  0  0
  9 10  2  0  0  0  0
 18 19  1  0  0  0  0
 19 28  1  0  0  0  0
 19 20  2  0  0  0  0
 29 32  1  0  0  0  0
  8 11  1  0  0  0  0
 38 39  1  0  0  0  0
 18 21  1  0  0  0  0
 21 22  1  0  0  0  0
 28 29  1  0  0  0  0
  7  8  1  0  0  0  0
 17 18  1  0  0  0  0
  3  4  1  0  0  0  0
  3  5  1  0  0  0  0
  3  6  1  0  0  0  0
 32 35  1  0  0  0  0
 32 36  1  0  0  0  0
 32 37  1  0  0  0  0
 11 14  1  0  0  0  0
 11 15  1  0  0  0  0
 11 16  1  0  0  0  0
 39 41  1  0  0  0  0
 39 42  1  0  0  0  0
 39 43  1  0  0  0  0
 21 25  1  0  0  0  0
 21 26  1  0  0  0  0
 29 34  1  0  0  0  0
  8 13  1  0  0  0  0
 18 24  1  0  0  0  0
 38 40  1  0  0  0  0
  7 12  1  0  0  0  0
 28 33  1  0  0  0  0
 17 23  1  0  0  0  0
 22 27  1  0  0  0  0
M  END
$$$$

  -OEChem-05262214473D

 43 42  0     1  0  0  0  0  0999 V2000
   -2.8661   -4.7415    2.2943 C   0  0  0  0  0  0  0  0  0  0  0  0
   -2.0233   -5.5727    2.6109 O   0  0  0  0  0  0  0  0  0  0  0  0
   -4.3078   -5.0134    2.5698 C   0  0  0  0  0  0  0  0  0  0  0  0
   -4.8057   -5.5295    1.7332 H   0  0  0  0  0  0  0  0  0  0  0  0
   -4.4526   -5.6688    3.4436 H   0  0  0  0  0  0  0  0  0  0  0  0
   -4.9255   -4.1233    2.7700 H   0  0  0  0  0  0  0  0  0  0  0  0
   -2.6241   -3.5219    1.6838 N   0  0  0  0  0  0  0  0  0  0  0  0
   -1.3070   -3.0608    1.3315 C   0  0  2  0  0  0  0  0  0  0  0  0
   -1.3931   -1.5680    1.0422 C   0  0  0  0  0  0  0  0  0  0  0  0
   -2.4385   -1.0059    0.7226 O   0  0  0  0  0  0  0  0  0  0  0  0
   -0.7590   -3.8164    0.1309 C   0  0  0  0  0  0  0  0  0  0  0  0
   -3.4188   -2.9207    1.4735 H   0  0  0  0  0  0  0  0  0  0  0  0
   -0.6690   -3.2277    2.2062 H   0  0  0  0  0  0  0  0  0  0  0  0
   -1.3852   -3.6613   -0.7553 H   0  0  0  0  0  0  0  0  0  0  0  0
    0.2542   -3.4843   -0.1182 H   0  0  0  0  0  0  0  0  0  0  0  0
   -0.7257   -4.8930    0.3300 H   0  0  0  0  0  0  0  0  0  0  0  0
   -0.1563   -0.9420    1.1402 N   0  0  0  0  0  0  0  0  0  0  0  0
    0.0261    0.4671    0.9001 C   0  0  2  0  0  0  0  0  0  0  0  0
    1.1877    0.9683    1.7560 C   0  0  0  0  0  0  0  0  0  0  0  0
    1.0907    1.1693    2.9649 O   0  0  0  0  0  0  0  0  0  0  0  0
   -1.2648    1.2645    1.1020 C   0  0  0  0  0  0  0  0  0  0  0  0
   -2.5783    0.8503   -0.0920 S   0  0  0  0  0  0  0  0  0  0  0  0
    0.6533   -1.4855    1.4300 H   0  0  0  0  0  0  0  0  0  0  0  0
    0.3295    0.5501   -0.1509 H   0  0  0  0  0  0  0  0  0  0  0  0
   -1.6687    1.0943    2.1053 H   0  0  0  0  0  0  0  0  0  0  0  0
   -1.0602    2.3363    1.0056 H   0  0  0  0  0  0  0  0  0  0  0  0
   -3.4802    1.7114    0.3962 H   0  0  0  0  0  0  0  0  0  0  0  0
    2.3351    1.1875    1.0070 N   0  0  0  0  0  0  0  0  0  0  0  0
    3.5644    1.6729    1.5891 C   0  0  2  0  0  0  0  0  0  0  0  0
    4.5457    1.9453    0.4567 C   0  0  0  0  0  0  0  0  0  0  0  0
    4.4581    1.4149   -0.6488 O   0  0  0  0  0  0  0  0  0  0  0  0
    4.1408    0.6725    2.5789 C   0  0  0  0  0  0  0  0  0  0  0  0
    2.3362    0.9626    0.0165 H   0  0  0  0  0  0  0  0  0  0  0  0
    3.3238    2.6124    2.0985 H   0  0  0  0  0  0  0  0  0  0  0  0
    4.3880   -0.2752    2.0868 H   0  0  0  0  0  0  0  0  0  0  0  0
    5.0574    1.0542    3.0406 H   0  0  0  0  0  0  0  0  0  0  0  0
    3.4222    0.4552    3.3766 H   0  0  0  0  0  0  0  0  0  0  0  0
    5.5554    2.8171    0.8394 N   0  0  0  0  0  0  0  0  0  0  0  0
    6.6158    3.2222   -0.0537 C   0  0  0  0  0  0  0  0  0  0  0  0
    5.5385    3.2235    1.7701 H   0  0  0  0  0  0  0  0  0  0  0  0
    7.4766    2.5485    0.0691 H   0  0  0  0  0  0  0  0  0  0  0  0
    6.2581    3.1742   -1.0928 H   0  0  0  0  0  0  0  0  0  0  0  0
    6.9201    4.2526    0.1822 H   0  0  0  0  0  0  0  0  0  0  0  0
  1  3  1  0  0  0  0
  1  7  1  0  0  0  0
  1  2  2  0  0  0  0
 29 30  1  0  0  0  0
 30 38  1  0  0  0  0
 30 31  2  0  0  0  0
  8  9  1  0  0  0  0
  9 17  1  0  0  0  0
  9 10  2  0  0  0  0
 18 19  1  0  0  0  0
 19 28  1  0  0  0  0
 19 20  2  0  0  0  0
 29 32  1  0  0  0  0
  8 11  1  0  0  0  0
 38 39  1  0  0  0  0
 18 21  1  0  0  0  0
 21 22  1  0  0  0  0
 28 29  1  0  0  0  0
  7  8  1  0  0  0  0
 17 18  1  0  0  0  0
  3  4  1  0  0  0  0
  3  5  1  0  0  0  0
  3  6  1  0  0  0  0
 32 35  1  0  0  0  0
 32 36  1  0  0  0  0
 32 37  1  0  0  0  0
 11 14  1  0  0  0  0
 11 15  1  0  0  0  0
 11 16  1  0  0  0  0
 39 41  1  0  0  0  0
 39 42  1  0  0  0  0
 39 43  1  0  0  0  0
 21 25  1  0  0  0  0
 21 26  1  0  0  0  0
 29 34  1  0  0  0  0
  8 13  1  0  0  0  0
 18 24  1  0  0  0  0
 38 40  1  0  0  0  0
  7 12  1  0  0  0  0
 28 33  1  0  0  0  0
 17 23  1  0  0  0  0
 22 27  1  0  0  0  0
M  END
$$$$

  -OEChem-05262214473D

 43 42  0     1  0  0  0  0  0999 V2000
   -2.8661   -4.7415    2.2943 C   0  0  0  0  0  0  0  0  0  0  0  0
   -2.0233   -5.5727    2.6109 O   0  0  0  0  0  0  0  0  0  0  0  0
   -4.3078   -5.0134    2.5698 C   0  0  0  0  0  0  0  0  0  0  0  0
   -4.8057   -5.5295    1.7332 H   0  0  0  0  0  0  0  0  0  0  0  0
   -4.4526   -5.6688    3.4436 H   0  0  0  0  0  0  0  0  0  0  0  0
   -4.9255   -4.1233    2.7700 H   0  0  0  0  0  0  0  0  0  0  0  0
   -2.6241   -3.5219    1.6838 N   0  0  0  0  0  0  0  0  0  0  0  0
   -1.3070   -3.0608    1.3315 C   0  0  2  0  0  0  0  0  0  0  0  0
   -1.3931   -1.5680    1.0422 C   0  0  0  0  0  0  0  0  0  0  0  0
   -2.4385   -1.0059    0.7226 O   0  0  0  0  0  0  0  0  0  0  0  0
   -0.7590   -3.8164    0.1309 C   0  0  0  0  0  0  0  0  0  0  0  0
   -3.4188   -2.9207    1.4735 H   0  0  0  0  0  0  0  0  0  0  0  0
   -0.6690   -3.2277    2.2062 H   0  0  0  0  0  0  0  0  0  0  0  0
   -1.3852   -3.6613   -0.7553 H   0  0  0  0  0  0  0  0  0  0  0  0
    0.2542   -3.4843   -0.1182 H   0  0  0  0  0  0  0  0  0  0  0  0
   -0.7257   -4.8930    0.3300 H   0  0  0  0  0  0  0  0  0  0  0  0
   -0.1563   -0.9420    1.1402 N   0  0  0  0  0  0  0  0  0  0  0  0
    0.0261    0.4671    0.9001 C   0  0  2  0  0  0  0  0  0  0  0  0
    1.1877    0.9683    1.7560 C   0  0  0  0  0  0  0  0  0  0  0  0
    1.1848    0.9179    2.9843 O   0  0  0  0  0  0  0  0  0  0  0  0
   -1.2648    1.2645    1.1020 C   0  0  0  0  0  0  0  0  0  0  0  0
   -2.5783    0.8503   -0.0920 S   0  0  0  0  0  0  0  0  0  0  0  0
    0.6533   -1.4855    1.4300 H   0  0  0  0  0  0  0  0  0  0  0  0
    0.3295    0.5501   -0.1509 H   0  0  0  0  0  0  0  0  0  0  0  0
   -1.6687    1.0943    2.1053 H   0  0  0  0  0  0  0  0  0  0  0  0
   -1.0602    2.3363    1.0056 H   0  0  0  0  0  0  0  0  0  0  0  0
   -3.4802    1.7114    0.3962 H   0  0  0  0  0  0  0  0  0  0  0  0
    2.2142    1.4998    0.9883 N   0  0  0  0  0  0  0  0  0  0  0  0
    3.4175    2.0482    1.5688 C   0  0  2  0  0  0  0  0  0  0  0  0
    4.2348    2.6787    0.4491 C   0  0  0  0  0  0  0  0  0  0  0  0
    4.1110    2.3617   -0.7321 O   0  0  0  0  0  0  0  0  0  0  0  0
    4.2206    0.9781    2.2917 C   0  0  0  0  0  0  0  0  0  0  0  0
    2.1475    1.4706   -0.0248 H   0  0  0  0  0  0  0  0  0  0  0  0
    3.1027    2.8251    2.2740 H   0  0  0  0  0  0  0  0  0  0  0  0
    4.5447    0.1909    1.6012 H   0  0  0  0  0  0  0  0  0  0  0  0
    5.1178    1.4009    2.7555 H   0  0  0  0  0  0  0  0  0  0  0  0
    3.6213    0.5051    3.0772 H   0  0  0  0  0  0  0  0  0  0  0  0
    5.1491    3.6062    0.9288 N   0  0  0  0  0  0  0  0  0  0  0  0
    6.0501    4.3319    0.0642 C   0  0  0  0  0  0  0  0  0  0  0  0
    5.1695    3.8203    1.9215 H   0  0  0  0  0  0  0  0  0  0  0  0
    7.0028    3.7875   -0.0133 H   0  0  0  0  0  0  0  0  0  0  0  0
    5.6008    4.4285   -0.9352 H   0  0  0  0  0  0  0  0  0  0  0  0
    6.2328    5.3327    0.4824 H   0  0  0  0  0  0  0  0  0  0  0  0
  1  3  1  0  0  0  0
  1  7  1  0  0  0  0
  1  2  2  0  0  0  0
 29 30  1  0  0  0  0
 30 38  1  0  0  0  0
 30 31  2  0  0  0  0
  8  9  1  0  0  0  0
  9 17  1  0  0  0  0
  9 10  2  0  0  0  0
 18 19  1  0  0  0  0
 19 28  1  0  0  0  0
 19 20  2  0  0  0  0
 29 32  1  0  0  0  0
  8 11  1  0  0  0  0
 38 39  1  0  0  0  0
 18 21  1  0  0  0  0
 21 22  1  0  0  0  0
 28 29  1  0  0  0  0
  7  8  1  0  0  0  0
 17 18  1  0  0  0  0
  3  4  1  0  0  0  0
  3  5  1  0  0  0  0
  3  6  1  0  0  0  0
 32 35  1  0  0  0  0
 32 36  1  0  0  0  0
 32 37  1  0  0  0  0
 11 14  1  0  0  0  0
 11 15  1  0  0  0  0
 11 16  1  0  0  0  0
 39 41  1  0  0  0  0
 39 42  1  0  0  0  0
 39 43  1  0  0  0  0
 21 25  1  0  0  0  0
 21 26  1  0  0  0  0
 29 34  1  0  0  0  0
  8 13  1  0  0  0  0
 18 24  1  0  0  0  0
 38 40  1  0  0  0  0
  7 12  1  0  0  0  0
 28 33  1  0  0  0  0
 17 23  1  0  0  0  0
 22 27  1  0  0  0  0
M  END
$$$$

  -OEChem-05262214473D

 43 42  0     1  0  0  0  0  0999 V2000
   -2.8661   -4.7415    2.2943 C   0  0  0  0  0  0  0  0  0  0  0  0
   -2.0233   -5.5727    2.6109 O   0  0  0  0  0  0  0  0  0  0  0  0
   -4.3078   -5.0134    2.5698 C   0  0  0  0  0  0  0  0  0  0  0  0
   -4.8057   -5.5295    1.7332 H   0  0  0  0  0  0  0  0  0  0  0  0
   -4.4526   -5.6688    3.4436 H   0  0  0  0  0  0  0  0  0  0  0  0
   -4.9255   -4.1233    2.7700 H   0  0  0  0  0  0  0  0  0  0  0  0
   -2.6241   -3.5219    1.6838 N   0  0  0  0  0  0  0  0  0  0  0  0
   -1.3070   -3.0608    1.3315 C   0  0  2  0  0  0  0  0  0  0  0  0
   -1.3931   -1.5680    1.0422 C   0  0  0  0  0  0  0  0  0  0  0  0
   -2.4385   -1.0059    0.7226 O   0  0  0  0  0  0  0  0  0  0  0  0
   -0.7590   -3.8164    0.1309 C   0  0  0  0  0  0  0  0  0  0  0  0
   -3.4188   -2.9207    1.4735 H   0  0  0  0  0  0  0  0  0  0  0  0
   -0.6690   -3.2277    2.2062 H   0  0  0  0  0  0  0  0  0  0  0  0
   -1.3852   -3.6613   -0.7553 H   0  0  0  0  0  0  0  0  0  0  0  0
    0.2542   -3.4843   -0.1182 H   0  0  0  0  0  0  0  0  0  0  0  0
   -0.7257   -4.8930    0.3300 H   0  0  0  0  0  0  0  0  0  0  0  0
   -0.1563   -0.9420    1.1402 N   0  0  0  0  0  0  0  0  0  0  0  0
    0.0261    0.4671    0.9001 C   0  0  2  0  0  0  0  0  0  0  0  0
    1.1877    0.9683    1.7560 C   0  0  0  0  0  0  0  0  0  0  0  0
    1.3139    0.6849    2.9455 O   0  0  0  0  0  0  0  0  0  0  0  0
   -1.2648    1.2645    1.1020 C   0  0  0  0  0  0  0  0  0  0  0  0
   -2.5783    0.8503   -0.0920 S   0  0  0  0  0  0  0  0  0  0  0  0
    0.6533   -1.4855    1.4300 H   0  0  0  0  0  0  0  0  0  0  0  0
    0.3295    0.5501   -0.1509 H   0  0  0  0  0  0  0  0  0  0  0  0
   -1.6687    1.0943    2.1053 H   0  0  0  0  0  0  0  0  0  0  0  0
   -1.0602    2.3363    1.0056 H   0  0  0  0  0  0  0  0  0  0  0  0
   -3.4802    1.7114    0.3962 H   0  0  0  0  0  0  0  0  0  0  0  0
    2.0505    1.7875    1.0419 N   0  0  0  0  0  0  0  0  0  0  0  0
    3.2194    2.3934    1.6355 C   0  0  2  0  0  0  0  0  0  0  0  0
    3.8276    3.3436    0.6125 C   0  0  0  0  0  0  0  0  0  0  0  0
    3.6314    3.2423   -0.5968 O   0  0  0  0  0  0  0  0  0  0  0  0
    4.2289    1.3413    2.0677 C   0  0  0  0  0  0  0  0  0  0  0  0
    1.8880    1.9420    0.0512 H   0  0  0  0  0  0  0  0  0  0  0  0
    2.8732    2.9640    2.5042 H   0  0  0  0  0  0  0  0  0  0  0  0
    4.5872    0.7594    1.2106 H   0  0  0  0  0  0  0  0  0  0  0  0
    5.1017    1.8007    2.5434 H   0  0  0  0  0  0  0  0  0  0  0  0
    3.7809    0.6410    2.7809 H   0  0  0  0  0  0  0  0  0  0  0  0
    4.6498    4.2918    1.2050 N   0  0  0  0  0  0  0  0  0  0  0  0
    5.3528    5.2985    0.4446 C   0  0  0  0  0  0  0  0  0  0  0  0
    4.7394    4.3133    2.2166 H   0  0  0  0  0  0  0  0  0  0  0  0
    6.3584    4.9317    0.1912 H   0  0  0  0  0  0  0  0  0  0  0  0
    4.7974    5.5137   -0.4802 H   0  0  0  0  0  0  0  0  0  0  0  0
    5.4378    6.2173    1.0434 H   0  0  0  0  0  0  0  0  0  0  0  0
  1  3  1  0  0  0  0
  1  7  1  0  0  0  0
  1  2  2  0  0  0  0
 29 30  1  0  0  0  0
 30 38  1  0  0  0  0
 30 31  2  0  0  0  0
  8  9  1  0  0  0  0
  9 17  1  0  0  0  0
  9 10  2  0  0  0  0
 18 19  1  0  0  0  0
 19 28  1  0  0  0  0
 19 20  2  0  0  0  0
 29 32  1  0  0  0  0
  8 11  1  0  0  0  0
 38 39  1  0  0  0  0
 18 21  1  0  0  0  0
 21 22  1  0  0  0  0
 28 29  1  0  0  0  0
  7  8  1  0  0  0  0
 17 18  1  0  0  0  0
  3  4  1  0  0  0  0
  3  5  1  0  0  0  0
  3  6  1  0  0  0  0
 32 35  1  0  0  0  0
 32 36  1  0  0  0  0
 32 37  1  0  0  0  0
 11 14  1  0  0  0  0
 11 15  1  0  0  0  0
 11 16  1  0  0  0  0
 39 41  1  0  0  0  0
 39 42  1  0  0  0  0
 39 43  1  0  0  0  0
 21 25  1  0  0  0  0
 21 26  1  0  0  0  0
 29 34  1  0  0  0  0
  8 13  1  0  0  0  0
 18 24  1  0  0  0  0
 38 40  1  0  0  0  0
  7 12  1  0  0  0  0
 28 33  1  0  0  0  0
 17 23  1  0  0  0  0
 22 27  1  0  0  0  0
M  END
$$$$

  -OEChem-05262214473D

 43 42  0     1  0  0  0  0  0999 V2000
   -2.8661   -4.7415    2.2943 C   0  0  0  0  0  0  0  0  0  0  0  0
   -2.0233   -5.5727    2.6109 O   0  0  0  0  0  0  0  0  0  0  0  0
   -4.3078   -5.0134    2.5698 C   0  0  0  0  0  0  0  0  0  0  0  0
   -4.8057   -5.5295    1.7332 H   0  0  0  0  0  0  0  0  0  0  0  0
   -4.4526   -5.6688    3.4436 H   0  0  0  0  0  0  0  0  0  0  0  0
   -4.9255   -4.1233    2.7700 H   0  0  0  0  0  0  0  0  0  0  0  0
   -2.6241   -3.5219    1.6838 N   0  0  0  0  0  0  0  0  0  0  0  0
   -1.3070   -3.0608    1.3315 C   0  0  2  0  0  0  0  0  0  0  0  0
   -1.3931   -1.5680    1.0422 C   0  0  0  0  0  0  0  0  0  0  0  0
   -2.4385   -1.0059    0.7226 O   0  0  0  0  0  0  0  0  0  0  0  0
   -0.7590   -3.8164    0.1309 C   0  0  0  0  0  0  0  0  0  0  0  0
   -3.4188   -2.9207    1.4735 H   0  0  0  0  0  0  0  0  0  0  0  0
   -0.6690   -3.2277    2.2062 H   0  0  0  0  0  0  0  0  0  0  0  0
   -1.3852   -3.6613   -0.7553 H   0  0  0  0  0  0  0  0  0  0  0  0
    0.2542   -3.4843   -0.1182 H   0  0  0  0  0  0  0  0  0  0  0  0
   -0.7257   -4.8930    0.3300 H   0  0  0  0  0  0  0  0  0  0  0  0
   -0.1563   -0.9420    1.1402 N   0  0  0  0  0  0  0  0  0  0  0  0
    0.0261    0.4671    0.9001 C   0  0  2  0  0  0  0  0  0  0  0  0
    1.1877    0.9683    1.7560 C   0  0  0  0  0  0  0  0  0  0  0  0
    1.4691    0.4862    2.8513 O   0  0  0  0  0  0  0  0  0  0  0  0
   -1.2648    1.2645    1.1020 C   0  0  0  0  0  0  0  0  0  0  0  0
   -2.5783    0.8503   -0.0920 S   0  0  0  0  0  0  0  0  0  0  0  0
    0.6533   -1.4855    1.4300 H   0  0  0  0  0  0  0  0  0  0  0  0
    0.3295    0.5501   -0.1509 H   0  0  0  0  0  0  0  0  0  0  0  0
   -1.6687    1.0943    2.1053 H   0  0  0  0  0  0  0  0  0  0  0  0
   -1.0602    2.3363    1.0056 H   0  0  0  0  0  0  0  0  0  0  0  0
   -3.4802    1.7114    0.3962 H   0  0  0  0  0  0  0  0  0  0  0  0
    1.8553    2.0311    1.1642 N   0  0  0  0  0  0  0  0  0  0  0  0
    2.9837    2.6849    1.7848 C   0  0  2  0  0  0  0  0  0  0  0  0
    3.3516    3.8946    0.9358 C   0  0  0  0  0  0  0  0  0  0  0  0
    3.0518    3.9967   -0.2520 O   0  0  0  0  0  0  0  0  0  0  0  0
    4.1653    1.7375    1.9220 C   0  0  0  0  0  0  0  0  0  0  0  0
    1.5755    2.3448    0.2395 H   0  0  0  0  0  0  0  0  0  0  0  0
    2.6509    3.0195    2.7734 H   0  0  0  0  0  0  0  0  0  0  0  0
    4.5127    1.3917    0.9416 H   0  0  0  0  0  0  0  0  0  0  0  0
    5.0101    2.2262    2.4184 H   0  0  0  0  0  0  0  0  0  0  0  0
    3.8903    0.8538    2.5079 H   0  0  0  0  0  0  0  0  0  0  0  0
    4.0915    4.8273    1.6491 N   0  0  0  0  0  0  0  0  0  0  0  0
    4.5714    6.0562    1.0614 C   0  0  0  0  0  0  0  0  0  0  0  0
    4.2775    4.6691    2.6351 H   0  0  0  0  0  0  0  0  0  0  0  0
    5.5874    5.9033    0.6687 H   0  0  0  0  0  0  0  0  0  0  0  0
    3.9026    6.3558    0.2411 H   0  0  0  0  0  0  0  0  0  0  0  0
    4.5893    6.8460    1.8269 H   0  0  0  0  0  0  0  0  0  0  0  0
  1  3  1  0  0  0  0
  1  7  1  0  0  0  0
  1  2  2  0  0  0  0
 29 30  1  0  0  0  0
 30 38  1  0  0  0  0
 30 31  2  0  0  0  0
  8  9  1  0  0  0  0
  9 17  1  0  0  0  0
  9 10  2  0  0  0  0
 18 19  1  0  0  0  0
 19 28  1  0  0  0  0
 19 20  2  0  0  0  0
 29 32  1  0  0  0  0
  8 11  1  0  0  0  0
 38 39  1  0  0  0  0
 18 21  1  0  0  0  0
 21 22  1  0  0  0  0
 28 29  1  0  0  0  0
  7  8  1  0  0  0  0
 17 18  1  0  0  0  0
  3  4  1  0  0  0  0
  3  5  1  0  0  0  0
  3  6  1  0  0  0  0
 32 35  1  0  0  0  0
 32 36  1  0  0  0  0
 32 37  1  0  0  0  0
 11 14  1  0  0  0  0
 11 15  1  0  0  0  0
 11 16  1  0  0  0  0
 39 41  1  0  0  0  0
 39 42  1  0  0  0  0
 39 43  1  0  0  0  0
 21 25  1  0  0  0  0
 21 26  1  0  0  0  0
 29 34  1  0  0  0  0
  8 13  1  0  0  0  0
 18 24  1  0  0  0  0
 38 40  1  0  0  0  0
  7 12  1  0  0  0  0
 28 33  1  0  0  0  0
 17 23  1  0  0  0  0
 22 27  1  0  0  0  0
M  END
$$$$

  -OEChem-05262214473D

 43 42  0     1  0  0  0  0  0999 V2000
   -2.8661   -4.7415    2.2943 C   0  0  0  0  0  0  0  0  0  0  0  0
   -2.0233   -5.5727    2.6109 O   0  0  0  0  0  0  0  0  0  0  0  0
   -4.3078   -5.0134    2.5698 C   0  0  0  0  0  0  0  0  0  0  0  0
   -4.8057   -5.5295    1.7332 H   0  0  0  0  0  0  0  0  0  0  0  0
   -4.4526   -5.6688    3.4436 H   0  0  0  0  0  0  0  0  0  0  0  0
   -4.9255   -4.1233    2.7700 H   0  0  0  0  0  0  0  0  0  0  0  0
   -2.6241   -3.5219    1.6838 N   0  0  0  0  0  0  0  0  0  0  0  0
   -1.3070   -3.0608    1.3315 C   0  0  2  0  0  0  0  0  0  0  0  0
   -1.3931   -1.5680    1.0422 C   0  0  0  0  0  0  0  0  0  0  0  0
   -2.4385   -1.0059    0.7226 O   0  0  0  0  0  0  0  0  0  0  0  0
   -0.7590   -3.8164    0.1309 C   0  0  0  0  0  0  0  0  0  0  0  0
   -3.4188   -2.9207    1.4735 H   0  0  0  0  0  0  0  0  0  0  0  0
   -0.6690   -3.2277    2.2062 H   0  0  0  0  0  0  0  0  0  0  0  0
   -1.3852   -3.6613   -0.7553 H   0  0  0  0  0  0  0  0  0  0  0  0
    0.2542   -3.4843   -0.1182 H   0  0  0  0  0  0  0  0  0  0  0  0
   -0.7257   -4.8930    0.3300 H   0  0  0  0  0  0  0  0  0  0  0  0
   -0.1563   -0.9420    1.1402 N   0  0  0  0  0  0  0  0  0  0  0  0
    0.0261    0.4671    0.9001 C   0  0  2  0  0  0  0  0  0  0  0  0
    1.1877    0.9683    1.7560 C   0  0  0  0  0  0  0  0  0  0  0  0
    1.6398    0.3353    2.7080 O   0  0  0  0  0  0  0  0  0  0  0  0
   -1.2648    1.2645    1.1020 C   0  0  0  0  0  0  0  0  0  0  0  0
   -2.5783    0.8503   -0.0920 S   0  0  0  0  0  0  0  0  0  0  0  0
    0.6533   -1.4855    1.4300 H   0  0  0  0  0  0  0  0  0  0  0  0
    0.3295    0.5501   -0.1509 H   0  0  0  0  0  0  0  0  0  0  0  0
   -1.6687    1.0943    2.1053 H   0  0  0  0  0  0  0  0  0  0  0  0
   -1.0602    2.3363    1.0056 H   0  0  0  0  0  0  0  0  0  0  0  0
   -3.4802    1.7114    0.3962 H   0  0  0  0  0  0  0  0  0  0  0  0
    1.6417    2.2141    1.3469 N   0  0  0  0  0  0  0  0  0  0  0  0
    2.7264    2.9030    2.0063 C   0  0  2  0  0  0  0  0  0  0  0  0
    2.8395    4.2942    1.3969 C   0  0  0  0  0  0  0  0  0  0  0  0
    2.4119    4.5735    0.2787 O   0  0  0  0  0  0  0  0  0  0  0  0
    4.0340    2.1396    1.8647 C   0  0  0  0  0  0  0  0  0  0  0  0
    1.2312    2.6515    0.5272 H   0  0  0  0  0  0  0  0  0  0  0  0
    2.4511    2.9879    3.0632 H   0  0  0  0  0  0  0  0  0  0  0  0
    4.3261    2.0445    0.8125 H   0  0  0  0  0  0  0  0  0  0  0  0
    4.8494    2.6486    2.3893 H   0  0  0  0  0  0  0  0  0  0  0  0
    3.9419    1.1289    2.2768 H   0  0  0  0  0  0  0  0  0  0  0  0
    3.5123    5.1761    2.2309 N   0  0  0  0  0  0  0  0  0  0  0  0
    3.7590    6.5534    1.8728 C   0  0  0  0  0  0  0  0  0  0  0  0
    3.8153    4.8635    3.1486 H   0  0  0  0  0  0  0  0  0  0  0  0
    4.7423    6.6359    1.3867 H   0  0  0  0  0  0  0  0  0  0  0  0
    2.9774    6.8975    1.1795 H   0  0  0  0  0  0  0  0  0  0  0  0
    3.7450    7.1760    2.7795 H   0  0  0  0  0  0  0  0  0  0  0  0
  1  3  1  0  0  0  0
  1  7  1  0  0  0  0
  1  2  2  0  0  0  0
 29 30  1  0  0  0  0
 30 38  1  0  0  0  0
 30 31  2  0  0  0  0
  8  9  1  0  0  0  0
  9 17  1  0  0  0  0
  9 10  2  0  0  0  0
 18 19  1  0  0  0  0
 19 28  1  0  0  0  0
 19 20  2  0  0  0  0
 29 32  1  0  0  0  0
  8 11  1  0  0  0  0
 38 39  1  0  0  0  0
 18 21  1  0  0  0  0
 21 22  1  0  0  0  0
 28 29  1  0  0  0  0
  7  8  1  0  0  0  0
 17 18  1  0  0  0  0
  3  4  1  0  0  0  0
  3  5  1  0  0  0  0
  3  6  1  0  0  0  0
 32 35  1  0  0  0  0
 32 36  1  0  0  0  0
 32 37  1  0  0  0  0
 11 14  1  0  0  0  0
 11 15  1  0  0  0  0
 11 16  1  0  0  0  0
 39 41  1  0  0  0  0
 39 42  1  0  0  0  0
 39 43  1  0  0  0  0
 21 25  1  0  0  0  0
 21 26  1  0  0  0  0
 29 34  1  0  0  0  0
  8 13  1  0  0  0  0
 18 24  1  0  0  0  0
 38 40  1  0  0  0  0
  7 12  1  0  0  0  0
 28 33  1  0  0  0  0
 17 23  1  0  0  0  0
 22 27  1  0  0  0  0
M  END
$$$$

  -OEChem-05262214473D

 43 42  0     1  0  0  0  0  0999 V2000
   -2.8661   -4.7415    2.2943 C   0  0  0  0  0  0  0  0  0  0  0  0
   -2.0233   -5.5727    2.6109 O   0  0  0  0  0  0  0  0  0  0  0  0
   -4.3078   -5.0134    2.5698 C   0  0  0  0  0  0  0  0  0  0  0  0
   -4.8057   -5.5295    1.7332 H   0  0  0  0  0  0  0  0  0  0  0  0
   -4.4526   -5.6688    3.4436 H   0  0  0  0  0  0  0  0  0  0  0  0
   -4.9255   -4.1233    2.7700 H   0  0  0  0  0  0  0  0  0  0  0  0
   -2.6241   -3.5219    1.6838 N   0  0  0  0  0  0  0  0  0  0  0  0
   -1.3070   -3.0608    1.3315 C   0  0  2  0  0  0  0  0  0  0  0  0
   -1.3931   -1.5680    1.0422 C   0  0  0  0  0  0  0  0  0  0  0  0
   -2.4385   -1.0059    0.7226 O   0  0  0  0  0  0  0  0  0  0  0  0
   -0.7590   -3.8164    0.1309 C   0  0  0  0  0  0  0  0  0  0  0  0
   -3.4188   -2.9207    1.4735 H   0  0  0  0  0  0  0  0  0  0  0  0
   -0.6690   -3.2277    2.2062 H   0  0  0  0  0  0  0  0  0  0  0  0
   -1.3852   -3.6613   -0.7553 H   0  0  0  0  0  0  0  0  0  0  0  0
    0.2542   -3.4843   -0.1182 H   0  0  0  0  0  0  0  0  0  0  0  0
   -0.7257   -4.8930    0.3300 H   0  0  0  0  0  0  0  0  0  0  0  0
   -0.1563   -0.9420    1.1402 N   0  0  0  0  0  0  0  0  0  0  0  0
    0.0261    0.4671    0.9001 C   0  0  2  0  0  0  0  0  0  0  0  0
    1.3884    0.8895    1.4464 C   0  0  0  0  0  0  0  0  0  0  0  0
    2.1539    0.1110    2.0115 O   0  0  0  0  0  0  0  0  0  0  0  0
   -1.1328    1.3058    1.4447 C   0  0  0  0  0  0  0  0  0  0  0  0
   -2.7232    0.9891    0.6123 S   0  0  0  0  0  0  0  0  0  0  0  0
    0.6533   -1.4855    1.4300 H   0  0  0  0  0  0  0  0  0  0  0  0
    0.0580    0.5784   -0.1909 H   0  0  0  0  0  0  0  0  0  0  0  0
   -1.2780    1.1131    2.5126 H   0  0  0  0  0  0  0  0  0  0  0  0
   -0.9087    2.3717    1.3287 H   0  0  0  0  0  0  0  0  0  0  0  0
   -3.4309    1.8653    1.3366 H   0  0  0  0  0  0  0  0  0  0  0  0
    1.6364    2.2407    1.2507 N   0  0  0  0  0  0  0  0  0  0  0  0
    2.8542    2.8809    1.6900 C   0  0  2  0  0  0  0  0  0  0  0  0
    2.7091    4.3787    1.4557 C   0  0  0  0  0  0  0  0  0  0  0  0
    1.9237    4.8571    0.6400 O   0  0  0  0  0  0  0  0  0  0  0  0
    4.0655    2.3304    0.9535 C   0  0  0  0  0  0  0  0  0  0  0  0
    0.9610    2.8046    0.7432 H   0  0  0  0  0  0  0  0  0  0  0  0
    2.9444    2.6857    2.7641 H   0  0  0  0  0  0  0  0  0  0  0  0
    3.9930    2.5165   -0.1243 H   0  0  0  0  0  0  0  0  0  0  0  0
    4.9909    2.7963    1.3078 H   0  0  0  0  0  0  0  0  0  0  0  0
    4.1513    1.2481    1.0988 H   0  0  0  0  0  0  0  0  0  0  0  0
    3.5905    5.1164    2.2336 N   0  0  0  0  0  0  0  0  0  0  0  0
    3.6556    6.5584    2.1834 C   0  0  0  0  0  0  0  0  0  0  0  0
    4.1929    4.6376    2.8966 H   0  0  0  0  0  0  0  0  0  0  0  0
    4.4169    6.8663    1.4515 H   0  0  0  0  0  0  0  0  0  0  0  0
    2.6760    6.9593    1.8839 H   0  0  0  0  0  0  0  0  0  0  0  0
    3.9231    6.9481    3.1766 H   0  0  0  0  0  0  0  0  0  0  0  0
  1  3  1  0  0  0  0
  1  7  1  0  0  0  0
  1  2  2  0  0  0  0
 29 30  1  0  0  0  0
 30 38  1  0  0  0  0
 30 31  2  0  0  0  0
  8  9  1  0  0  0  0
  9 17  1  0  0  0  0
  9 10  2  0  0  0  0
 18 19  1  0  0  0  0
 19 28  1  0  0  0  0
 19 20  2  0  0  0  0
 29 32  1  0  0  0  0
  8 11  1  0  0  0  0
 38 39  1  0  0  0  0
 18 21  1  0  0  0  0
 21 22  1  0  0  0  0
 28 29  1  0  0  0  0
  7  8  1  0  0  0  0
 17 18  1  0  0  0  0
  3  4  1  0  0  0  0
  3  5  1  0  0  0  0
  3  6  1  0  0  0  0
 32 35  1  0  0  0  0
 32 36  1  0  0  0  0
 32 37  1  0  0  0  0
 11 14  1  0  0  0  0
 11 15  1  0  0  0  0
 11 16  1  0  0  0  0
 39 41  1  0  0  0  0
 39 42  1  0  0  0  0
 39 43  1  0  0  0  0
 21 25  1  0  0  0  0
 21 26  1  0  0  0  0
 29 34  1  0  0  0  0
  8 13  1  0  0  0  0
 18 24  1  0  0  0  0
 38 40  1  0  0  0  0
  7 12  1  0  0  0  0
 28 33  1  0  0  0  0
 17 23  1  0  0  0  0
 22 27  1  0  0  0  0
M  END
$$$$

  -OEChem-05262214473D

 43 42  0     1  0  0  0  0  0999 V2000
   -2.8661   -4.7415    2.2943 C   0  0  0  0  0  0  0  0  0  0  0  0
   -2.0233   -5.5727    2.6109 O   0  0  0  0  0  0  0  0  0  0  0  0
   -4.3078   -5.0134    2.5698 C   0  0  0  0  0  0  0  0  0  0  0  0
   -4.8057   -5.5295    1.7332 H   0  0  0  0  0  0  0  0  0  0  0  0
   -4.4526   -5.6688    3.4436 H   0  0  0  0  0  0  0  0  0  0  0  0
   -4.9255   -4.1233    2.7700 H   0  0  0  0  0  0  0  0  0  0  0  0
   -2.6241   -3.5219    1.6838 N   0  0  0  0  0  0  0  0  0  0  0  0
   -1.3070   -3.0608    1.3315 C   0  0  2  0  0  0  0  0  0  0  0  0
   -1.3931   -1.5680    1.0422 C   0  0  0  0  0  0  0  0  0  0  0  0
   -2.4385   -1.0059    0.7226 O   0  0  0  0  0  0  0  0  0  0  0  0
   -0.7590   -3.8164    0.1309 C   0  0  0  0  0  0  0  0  0  0  0  0
   -3.4188   -2.9207    1.4735 H   0  0  0  0  0  0  0  0  0  0  0  0
   -0.6690   -3.2277    2.2062 H   0  0  0  0  0  0  0  0  0  0  0  0
   -1.3852   -3.6613   -0.7553 H   0  0  0  0  0  0  0  0  0  0  0  0
    0.2542   -3.4843   -0.1182 H   0  0  0  0  0  0  0  0  0  0  0  0
   -0.7257   -4.8930    0.3300 H   0  0  0  0  0  0  0  0  0  0  0  0
   -0.1563   -0.9420    1.1402 N   0  0  0  0  0  0  0  0  0  0  0  0
    0.0261    0.4671    0.9001 C   0  0  2  0  0  0  0  0  0  0  0  0
    1.3884    0.8895    1.4464 C   0  0  0  0  0  0  0  0  0  0  0  0
    2.2607    0.0843    1.7659 O   0  0  0  0  0  0  0  0  0  0  0  0
   -1.1328    1.3058    1.4447 C   0  0  0  0  0  0  0  0  0  0  0  0
   -2.7232    0.9891    0.6123 S   0  0  0  0  0  0  0  0  0  0  0  0
    0.6533   -1.4855    1.4300 H   0  0  0  0  0  0  0  0  0  0  0  0
    0.0580    0.5784   -0.1909 H   0  0  0  0  0  0  0  0  0  0  0  0
   -1.2780    1.1131    2.5126 H   0  0  0  0  0  0  0  0  0  0  0  0
   -0.9087    2.3717    1.3287 H   0  0  0  0  0  0  0  0  0  0  0  0
   -3.4309    1.8653    1.3366 H   0  0  0  0  0  0  0  0  0  0  0  0
    1.5048    2.2678    1.5580 N   0  0  0  0  0  0  0  0  0  0  0  0
    2.6965    2.9109    2.0602 C   0  0  2  0  0  0  0  0  0  0  0  0
    2.4070    4.4002    2.1925 C   0  0  0  0  0  0  0  0  0  0  0  0
    1.5195    4.9697    1.5608 O   0  0  0  0  0  0  0  0  0  0  0  0
    3.8849    2.6675    1.1431 C   0  0  0  0  0  0  0  0  0  0  0  0
    0.7448    2.8612    1.2386 H   0  0  0  0  0  0  0  0  0  0  0  0
    2.8911    2.4866    3.0512 H   0  0  0  0  0  0  0  0  0  0  0  0
    3.7084    3.0856    0.1453 H   0  0  0  0  0  0  0  0  0  0  0  0
    4.7939    3.1316    1.5398 H   0  0  0  0  0  0  0  0  0  0  0  0
    4.0732    1.5949    1.0254 H   0  0  0  0  0  0  0  0  0  0  0  0
    3.2843    5.0267    3.0666 N   0  0  0  0  0  0  0  0  0  0  0  0
    3.2234    6.4413    3.3516 C   0  0  0  0  0  0  0  0  0  0  0  0
    3.9774    4.4730    3.5612 H   0  0  0  0  0  0  0  0  0  0  0  0
    3.8932    6.9829    2.6674 H   0  0  0  0  0  0  0  0  0  0  0  0
    2.1922    6.7988    3.2144 H   0  0  0  0  0  0  0  0  0  0  0  0
    3.5382    6.6198    4.3904 H   0  0  0  0  0  0  0  0  0  0  0  0
  1  3  1  0  0  0  0
  1  7  1  0  0  0  0
  1  2  2  0  0  0  0
 29 30  1  0  0  0  0
 30 38  1  0  0  0  0
 30 31  2  0  0  0  0
  8  9  1  0  0  0  0
  9 17  1  0  0  0  0
  9 10  2  0  0  0  0
 18 19  1  0  0  0  0
 19 28  1  0  0  0  0
 19 20  2  0  0  0  0
 29 32  1  0  0  0  0
  8 11  1  0  0  0  0
 38 39  1  0  0  0  0
 18 21  1  0  0  0  0
 21 22  1  0  0  0  0
 28 29  1  0  0  0  0
  7  8  1  0  0  0  0
 17 18  1  0  0  0  0
  3  4  1  0  0  0  0
  3  5  1  0  0  0  0
  3  6  1  0  0  0  0
 32 35  1  0  0  0  0
 32 36  1  0  0  0  0
 32 37  1  0  0  0  0
 11 14  1  0  0  0  0
 11 15  1  0  0  0  0
 11 16  1  0  0  0  0
 39 41  1  0  0  0  0
 39 42  1  0  0  0  0
 39 43  1  0  0  0  0
 21 25  1  0  0  0  0
 21 26  1  0  0  0  0
 29 34  1  0  0  0  0
  8 13  1  0  0  0  0
 18 24  1  0  0  0  0
 38 40  1  0  0  0  0
  7 12  1  0  0  0  0
 28 33  1  0  0  0  0
 17 23  1  0  0  0  0
 22 27  1  0  0  0  0
M  END
$$$$

  -OEChem-05262214473D

 43 42  0     1  0  0  0  0  0999 V2000
   -2.8661   -4.7415    2.2943 C   0  0  0  0  0  0  0  0  0  0  0  0
   -2.0233   -5.5727    2.6109 O   0  0  0  0  0  0  0  0  0  0  0  0
   -4.3078   -5.0134    2.5698 C   0  0  0  0  0  0  0  0  0  0  0  0
   -4.8057   -5.5295    1.7332 H   0  0  0  0  0  0  0  0  0  0  0  0
   -4.4526   -5.6688    3.4436 H   0  0  0  0  0  0  0  0  0  0  0  0
   -4.9255   -4.1233    2.7700 H   0  0  0  0  0  0  0  0  0  0  0  0
   -2.6241   -3.5219    1.6838 N   0  0  0  0  0  0  0  0  0  0  0  0
   -1.3070   -3.0608    1.3315 C   0  0  2  0  0  0  0  0  0  0  0  0
   -1.3931   -1.5680    1.0422 C   0  0  0  0  0  0  0  0  0  0  0  0
   -2.4385   -1.0059    0.7226 O   0  0  0  0  0  0  0  0  0  0  0  0
   -0.7590   -3.8164    0.1309 C   0  0  0  0  0  0  0  0  0  0  0  0
   -3.4188   -2.9207    1.4735 H   0  0  0  0  0  0  0  0  0  0  0  0
   -0.6690   -3.2277    2.2062 H   0  0  0  0  0  0  0  0  0  0  0  0
   -1.3852   -3.6613   -0.7553 H   0  0  0  0  0  0  0  0  0  0  0  0
    0.2542   -3.4843   -0.1182 H   0  0  0  0  0  0  0  0  0  0  0  0
   -0.7257   -4.8930    0.3300 H   0  0  0  0  0  0  0  0  0  0  0  0
   -0.1563   -0.9420    1.1402 N   0  0  0  0  0  0  0  0  0  0  0  0
    0.0261    0.4671    0.9001 C   0  0  2  0  0  0  0  0  0  0  0  0
    1.3884    0.8895    1.4464 C   0  0  0  0  0  0  0  0  0  0  0  0
    2.3488    0.1250    1.5149 O   0  0  0  0  0  0  0  0  0  0  0  0
   -1.1328    1.3058    1.4447 C   0  0  0  0  0  0  0  0  0  0  0  0
   -2.7232    0.9891    0.6123 S   0  0  0  0  0  0  0  0  0  0  0  0
    0.6533   -1.4855    1.4300 H   0  0  0  0  0  0  0  0  0  0  0  0
    0.0580    0.5784   -0.1909 H   0  0  0  0  0  0  0  0  0  0  0  0
   -1.2780    1.1131    2.5126 H   0  0  0  0  0  0  0  0  0  0  0  0
   -0.9087    2.3717    1.3287 H   0  0  0  0  0  0  0  0  0  0  0  0
   -3.4309    1.8653    1.3366 H   0  0  0  0  0  0  0  0  0  0  0  0
    1.3972    2.2108    1.8704 N   0  0  0  0  0  0  0  0  0  0  0  0
    2.5678    2.8397    2.4360 C   0  0  2  0  0  0  0  0  0  0  0  0
    2.1659    4.2229    2.9308 C   0  0  0  0  0  0  0  0  0  0  0  0
    1.1845    4.8286    2.5051 O   0  0  0  0  0  0  0  0  0  0  0  0
    3.6929    2.9327    1.4170 C   0  0  0  0  0  0  0  0  0  0  0  0
    0.5662    2.7814    1.7456 H   0  0  0  0  0  0  0  0  0  0  0  0
    2.8785    2.2230    3.2864 H   0  0  0  0  0  0  0  0  0  0  0  0
    3.4001    3.5468    0.5575 H   0  0  0  0  0  0  0  0  0  0  0  0
    4.5891    3.3837    1.8555 H   0  0  0  0  0  0  0  0  0  0  0  0
    3.9604    1.9396    1.0401 H   0  0  0  0  0  0  0  0  0  0  0  0
    3.0564    4.7195    3.8724 N   0  0  0  0  0  0  0  0  0  0  0  0
    2.9004    6.0185    4.4840 C   0  0  0  0  0  0  0  0  0  0  0  0
    3.8321    4.1406    4.1805 H   0  0  0  0  0  0  0  0  0  0  0  0
    3.4635    6.7664    3.9063 H   0  0  0  0  0  0  0  0  0  0  0  0
    1.8349    6.2918    4.4972 H   0  0  0  0  0  0  0  0  0  0  0  0
    3.2836    5.9869    5.5146 H   0  0  0  0  0  0  0  0  0  0  0  0
  1  3  1  0  0  0  0
  1  7  1  0  0  0  0
  1  2  2  0  0  0  0
 29 30  1  0  0  0  0
 30 38  1  0  0  0  0
 30 31  2  0  0  0  0
  8  9  1  0  0  0  0
  9 17  1  0  0  0  0
  9 10  2  0  0  0  0
 18 19  1  0  0  0  0
 19 28  1  0  0  0  0
 19 20  2  0  0  0  0
 29 32  1  0  0  0  0
  8 11  1  0  0  0  0
 38 39  1  0  0  0  0
 18 21  1  0  0  0  0
 21 22  1  0  0  0  0
 28 29  1  0  0  0  0
  7  8  1  0  0  0  0
 17 18  1  0  0  0  0
  3  4  1  0  0  0  0
  3  5  1  0  0  0  0
  3  6  1  0  0  0  0
 32 35  1  0  0  0  0
 32 36  1  0  0  0  0
 32 37  1  0  0  0  0
 11 14  1  0  0  0  0
 11 15  1  0  0  0  0
 11 16  1  0  0  0  0
 39 41  1  0  0  0  0
 39 42  1  0  0  0  0
 39 43  1  0  0  0  0
 21 25  1  0  0  0  0
 21 26  1  0  0  0  0
 29 34  1  0  0  0  0
  8 13  1  0  0  0  0
 18 24  1  0  0  0  0
 38 40  1  0  0  0  0
  7 12  1  0  0  0  0
 28 33  1  0  0  0  0
 17 23  1  0  0  0  0
 22 27  1  0  0  0  0
M  END
$$$$

  -OEChem-05262214473D

 43 42  0     1  0  0  0  0  0999 V2000
   -2.8661   -4.7415    2.2943 C   0  0  0  0  0  0  0  0  0  0  0  0
   -2.0233   -5.5727    2.6109 O   0  0  0  0  0  0  0  0  0  0  0  0
   -4.3078   -5.0134    2.5698 C   0  0  0  0  0  0  0  0  0  0  0  0
   -4.8057   -5.5295    1.7332 H   0  0  0  0  0  0  0  0  0  0  0  0
   -4.4526   -5.6688    3.4436 H   0  0  0  0  0  0  0  0  0  0  0  0
   -4.9255   -4.1233    2.7700 H   0  0  0  0  0  0  0  0  0  0  0  0
   -2.6241   -3.5219    1.6838 N   0  0  0  0  0  0  0  0  0  0  0  0
   -1.3070   -3.0608    1.3315 C   0  0  2  0  0  0  0  0  0  0  0  0
   -1.3931   -1.5680    1.0422 C   0  0  0  0  0  0  0  0  0  0  0  0
   -2.4385   -1.0059    0.7226 O   0  0  0  0  0  0  0  0  0  0  0  0
   -0.7590   -3.8164    0.1309 C   0  0  0  0  0  0  0  0  0  0  0  0
   -3.4188   -2.9207    1.4735 H   0  0  0  0  0  0  0  0  0  0  0  0
   -0.6690   -3.2277    2.2062 H   0  0  0  0  0  0  0  0  0  0  0  0
   -1.3852   -3.6613   -0.7553 H   0  0  0  0  0  0  0  0  0  0  0  0
    0.2542   -3.4843   -0.1182 H   0  0  0  0  0  0  0  0  0  0  0  0
   -0.7257   -4.8930    0.3300 H   0  0  0  0  0  0  0  0  0  0  0  0
   -0.1563   -0.9420    1.1402 N   0  0  0  0  0  0  0  0  0  0  0  0
    0.0261    0.4671    0.9001 C   0  0  2  0  0  0  0  0  0  0  0  0
    1.3884    0.8895    1.4464 C   0  0  0  0  0  0  0  0  0  0  0  0
    2.4121    0.2305    1.2755 O   0  0  0  0  0  0  0  0  0  0  0  0
   -1.1328    1.3058    1.4447 C   0  0  0  0  0  0  0  0  0  0  0  0
   -2.7232    0.9891    0.6123 S   0  0  0  0  0  0  0  0  0  0  0  0
    0.6533   -1.4855    1.4300 H   0  0  0  0  0  0  0  0  0  0  0  0
    0.0580    0.5784   -0.1909 H   0  0  0  0  0  0  0  0  0  0  0  0
   -1.2780    1.1131    2.5126 H   0  0  0  0  0  0  0  0  0  0  0  0
   -0.9087    2.3717    1.3287 H   0  0  0  0  0  0  0  0  0  0  0  0
   -3.4309    1.8653    1.3366 H   0  0  0  0  0  0  0  0  0  0  0  0
    1.3209    2.0737    2.1667 N   0  0  0  0  0  0  0  0  0  0  0  0
    2.4770    2.6724    2.7918 C   0  0  2  0  0  0  0  0  0  0  0  0
    2.0023    3.8588    3.6202 C   0  0  0  0  0  0  0  0  0  0  0  0
    0.9417    4.4432    3.4087 O   0  0  0  0  0  0  0  0  0  0  0  0
    3.5024    3.1078    1.7565 C   0  0  0  0  0  0  0  0  0  0  0  0
    0.4374    2.5708    2.2298 H   0  0  0  0  0  0  0  0  0  0  0  0
    2.9076    1.9130    3.4536 H   0  0  0  0  0  0  0  0  0  0  0  0
    3.0891    3.8685    1.0842 H   0  0  0  0  0  0  0  0  0  0  0  0
    4.3906    3.5354    2.2332 H   0  0  0  0  0  0  0  0  0  0  0  0
    3.8206    2.2587    1.1420 H   0  0  0  0  0  0  0  0  0  0  0  0
    2.9224    4.2155    4.5961 N   0  0  0  0  0  0  0  0  0  0  0  0
    2.7086    5.3188    5.5032 C   0  0  0  0  0  0  0  0  0  0  0  0
    3.7669    3.6632    4.7124 H   0  0  0  0  0  0  0  0  0  0  0  0
    3.1572    6.2314    5.0837 H   0  0  0  0  0  0  0  0  0  0  0  0
    1.6286    5.4729    5.6448 H   0  0  0  0  0  0  0  0  0  0  0  0
    3.1768    5.0924    6.4725 H   0  0  0  0  0  0  0  0  0  0  0  0
  1  3  1  0  0  0  0
  1  7  1  0  0  0  0
  1  2  2  0  0  0  0
 29 30  1  0  0  0  0
 30 38  1  0  0  0  0
 30 31  2  0  0  0  0
  8  9  1  0  0  0  0
  9 17  1  0  0  0  0
  9 10  2  0  0  0  0
 18 19  1  0  0  0  0
 19 28  1  0  0  0  0
 19 20  2  0  0  0  0
 29 32  1  0  0  0  0
  8 11  1  0  0  0  0
 38 39  1  0  0  0  0
 18 21  1  0  0  0  0
 21 22  1  0  0  0  0
 28 29  1  0  0  0  0
  7  8  1  0  0  0  0
 17 18  1  0  0  0  0
  3  4  1  0  0  0  0
  3  5  1  0  0  0  0
  3  6  1  0  0  0  0
 32 35  1  0  0  0  0
 32 36  1  0  0  0  0
 32 37  1  0  0  0  0
 11 14  1  0  0  0  0
 11 15  1  0  0  0  0
 11 16  1  0  0  0  0
 39 41  1  0  0  0  0
 39 42  1  0  0  0  0
 39 43  1  0  0  0  0
 21 25  1  0  0  0  0
 21 26  1  0  0  0  0
 29 34  1  0  0  0  0
  8 13  1  0  0  0  0
 18 24  1  0  0  0  0
 38 40  1  0  0  0  0
  7 12  1  0  0  0  0
 28 33  1  0  0  0  0
 17 23  1  0  0  0  0
 22 27  1  0  0  0  0
M  END
$$$$

  -OEChem-05262214473D

 43 42  0     1  0  0  0  0  0999 V2000
   -2.8661   -4.7415    2.2943 C   0  0  0  0  0  0  0  0  0  0  0  0
   -2.0233   -5.5727    2.6109 O   0  0  0  0  0  0  0  0  0  0  0  0
   -4.3078   -5.0134    2.5698 C   0  0  0  0  0  0  0  0  0  0  0  0
   -4.8057   -5.5295    1.7332 H   0  0  0  0  0  0  0  0  0  0  0  0
   -4.4526   -5.6688    3.4436 H   0  0  0  0  0  0  0  0  0  0  0  0
   -4.9255   -4.1233    2.7700 H   0  0  0  0  0  0  0  0  0  0  0  0
   -2.6241   -3.5219    1.6838 N   0  0  0  0  0  0  0  0  0  0  0  0
   -1.3070   -3.0608    1.3315 C   0  0  2  0  0  0  0  0  0  0  0  0
   -1.3931   -1.5680    1.0422 C   0  0  0  0  0  0  0  0  0  0  0  0
   -2.4385   -1.0059    0.7226 O   0  0  0  0  0  0  0  0  0  0  0  0
   -0.7590   -3.8164    0.1309 C   0  0  0  0  0  0  0  0  0  0  0  0
   -3.4188   -2.9207    1.4735 H   0  0  0  0  0  0  0  0  0  0  0  0
   -0.6690   -3.2277    2.2062 H   0  0  0  0  0  0  0  0  0  0  0  0
   -1.3852   -3.6613   -0.7553 H   0  0  0  0  0  0  0  0  0  0  0  0
    0.2542   -3.4843   -0.1182 H   0  0  0  0  0  0  0  0  0  0  0  0
   -0.7257   -4.8930    0.3300 H   0  0  0  0  0  0  0  0  0  0  0  0
   -0.1563   -0.9420    1.1402 N   0  0  0  0  0  0  0  0  0  0  0  0
    0.0261    0.4671    0.9001 C   0  0  2  0  0  0  0  0  0  0  0  0
    1.3884    0.8895    1.4464 C   0  0  0  0  0  0  0  0  0  0  0  0
    2.4463    0.3935    1.0641 O   0  0  0  0  0  0  0  0  0  0  0  0
   -1.1328    1.3058    1.4447 C   0  0  0  0  0  0  0  0  0  0  0  0
   -2.7232    0.9891    0.6123 S   0  0  0  0  0  0  0  0  0  0  0  0
    0.6533   -1.4855    1.4300 H   0  0  0  0  0  0  0  0  0  0  0  0
    0.0580    0.5784   -0.1909 H   0  0  0  0  0  0  0  0  0  0  0  0
   -1.2780    1.1131    2.5126 H   0  0  0  0  0  0  0  0  0  0  0  0
   -0.9087    2.3717    1.3287 H   0  0  0  0  0  0  0  0  0  0  0  0
   -3.4309    1.8653    1.3366 H   0  0  0  0  0  0  0  0  0  0  0  0
    1.2811    1.8657    2.4268 N   0  0  0  0  0  0  0  0  0  0  0  0
    2.4303    2.4202    3.1033 C   0  0  2  0  0  0  0  0  0  0  0  0
    1.9273    3.3329    4.2138 C   0  0  0  0  0  0  0  0  0  0  0  0
    0.8075    3.8399    4.2098 O   0  0  0  0  0  0  0  0  0  0  0  0
    3.3265    3.1809    2.1385 C   0  0  0  0  0  0  0  0  0  0  0  0
    0.3671    2.2437    2.6580 H   0  0  0  0  0  0  0  0  0  0  0  0
    2.9763    1.5776    3.5414 H   0  0  0  0  0  0  0  0  0  0  0  0
    2.7967    4.0289    1.6895 H   0  0  0  0  0  0  0  0  0  0  0  0
    4.2119    3.5763    2.6473 H   0  0  0  0  0  0  0  0  0  0  0  0
    3.6633    2.5305    1.3241 H   0  0  0  0  0  0  0  0  0  0  0  0
    2.8915    3.5493    5.1884 N   0  0  0  0  0  0  0  0  0  0  0  0
    2.6610    4.3899    6.3400 C   0  0  0  0  0  0  0  0  0  0  0  0
    3.7861    3.0731    5.1206 H   0  0  0  0  0  0  0  0  0  0  0  0
    2.9951    5.4145    6.1195 H   0  0  0  0  0  0  0  0  0  0  0  0
    1.5873    4.3979    6.5790 H   0  0  0  0  0  0  0  0  0  0  0  0
    3.2249    3.9974    7.1990 H   0  0  0  0  0  0  0  0  0  0  0  0
  1  3  1  0  0  0  0
  1  7  1  0  0  0  0
  1  2  2  0  0  0  0
 29 30  1  0  0  0  0
 30 38  1  0  0  0  0
 30 31  2  0  0  0  0
  8  9  1  0  0  0  0
  9 17  1  0  0  0  0
  9 10  2  0  0  0  0
 18 19  1  0  0  0  0
 19 28  1  0  0  0  0
 19 20  2  0  0  0  0
 29 32  1  0  0  0  0
  8 11  1  0  0  0  0
 38 39  1  0  0  0  0
 18 21  1  0  0  0  0
 21 22  1  0  0  0  0
 28 29  1  0  0  0  0
  7  8  1  0  0  0  0
 17 18  1  0  0  0  0
  3  4  1  0  0  0  0
  3  5  1  0  0  0  0
  3  6  1  0  0  0  0
 32 35  1  0  0  0  0
 32 36  1  0  0  0  0
 32 37  1  0  0  0  0
 11 14  1  0  0  0  0
 11 15  1  0  0  0  0
 11 16  1  0  0  0  0
 39 41  1  0  0  0  0
 39 42  1  0  0  0  0
 39 43  1  0  0  0  0
 21 25  1  0  0  0  0
 21 26  1  0  0  0  0
 29 34  1  0  0  0  0
  8 13  1  0  0  0  0
 18 24  1  0  0  0  0
 38 40  1  0  0  0  0
  7 12  1  0  0  0  0
 28 33  1  0  0  0  0
 17 23  1  0  0  0  0
 22 27  1  0  0  0  0
M  END
$$$$

  -OEChem-05262214473D

 43 42  0     1  0  0  0  0  0999 V2000
   -2.8661   -4.7415    2.2943 C   0  0  0  0  0  0  0  0  0  0  0  0
   -2.0233   -5.5727    2.6109 O   0  0  0  0  0  0  0  0  0  0  0  0
   -4.3078   -5.0134    2.5698 C   0  0  0  0  0  0  0  0  0  0  0  0
   -4.8057   -5.5295    1.7332 H   0  0  0  0  0  0  0  0  0  0  0  0
   -4.4526   -5.6688    3.4436 H   0  0  0  0  0  0  0  0  0  0  0  0
   -4.9255   -4.1233    2.7700 H   0  0  0  0  0  0  0  0  0  0  0  0
   -2.6241   -3.5219    1.6838 N   0  0  0  0  0  0  0  0  0  0  0  0
   -1.3070   -3.0608    1.3315 C   0  0  2  0  0  0  0  0  0  0  0  0
   -1.3931   -1.5680    1.0422 C   0  0  0  0  0  0  0  0  0  0  0  0
   -2.4385   -1.0059    0.7226 O   0  0  0  0  0  0  0  0  0  0  0  0
   -0.7590   -3.8164    0.1309 C   0  0  0  0  0  0  0  0  0  0  0  0
   -3.4188   -2.9207    1.4735 H   0  0  0  0  0  0  0  0  0  0  0  0
   -0.6690   -3.2277    2.2062 H   0  0  0  0  0  0  0  0  0  0  0  0
   -1.3852   -3.6613   -0.7553 H   0  0  0  0  0  0  0  0  0  0  0  0
    0.2542   -3.4843   -0.1182 H   0  0  0  0  0  0  0  0  0  0  0  0
   -0.7257   -4.8930    0.3300 H   0  0  0  0  0  0  0  0  0  0  0  0
   -0.1563   -0.9420    1.1402 N   0  0  0  0  0  0  0  0  0  0  0  0
    0.0261    0.4671    0.9001 C   0  0  2  0  0  0  0  0  0  0  0  0
    1.3884    0.8895    1.4464 C   0  0  0  0  0  0  0  0  0  0  0  0
    2.4492    0.6029    0.8950 O   0  0  0  0  0  0  0  0  0  0  0  0
   -1.1328    1.3058    1.4447 C   0  0  0  0  0  0  0  0  0  0  0  0
   -2.7232    0.9891    0.6123 S   0  0  0  0  0  0  0  0  0  0  0  0
    0.6533   -1.4855    1.4300 H   0  0  0  0  0  0  0  0  0  0  0  0
    0.0580    0.5784   -0.1909 H   0  0  0  0  0  0  0  0  0  0  0  0
   -1.2780    1.1131    2.5126 H   0  0  0  0  0  0  0  0  0  0  0  0
   -0.9087    2.3717    1.3287 H   0  0  0  0  0  0  0  0  0  0  0  0
   -3.4309    1.8653    1.3366 H   0  0  0  0  0  0  0  0  0  0  0  0
    1.2805    1.6012    2.6328 N   0  0  0  0  0  0  0  0  0  0  0  0
    2.4308    2.1003    3.3493 C   0  0  2  0  0  0  0  0  0  0  0  0
    1.9461    2.6809    4.6712 C   0  0  0  0  0  0  0  0  0  0  0  0
    0.7910    3.0597    4.8540 O   0  0  0  0  0  0  0  0  0  0  0  0
    3.1772    3.1471    2.5370 C   0  0  0  0  0  0  0  0  0  0  0  0
    0.3601    1.8223    3.0012 H   0  0  0  0  0  0  0  0  0  0  0  0
    3.0801    1.2397    3.5439 H   0  0  0  0  0  0  0  0  0  0  0  0
    2.5426    4.0171    2.3321 H   0  0  0  0  0  0  0  0  0  0  0  0
    4.0650    3.5037    3.0695 H   0  0  0  0  0  0  0  0  0  0  0  0
    3.4992    2.7364    1.5740 H   0  0  0  0  0  0  0  0  0  0  0  0
    2.9656    2.7662    5.6089 N   0  0  0  0  0  0  0  0  0  0  0  0
    2.7610    3.2951    6.9372 C   0  0  0  0  0  0  0  0  0  0  0  0
    3.8886    2.4107    5.3773 H   0  0  0  0  0  0  0  0  0  0  0  0
    2.9883    4.3713    6.9429 H   0  0  0  0  0  0  0  0  0  0  0  0
    1.7138    3.1401    7.2361 H   0  0  0  0  0  0  0  0  0  0  0  0
    3.4248    2.7765    7.6446 H   0  0  0  0  0  0  0  0  0  0  0  0
  1  3  1  0  0  0  0
  1  7  1  0  0  0  0
  1  2  2  0  0  0  0
 29 30  1  0  0  0  0
 30 38  1  0  0  0  0
 30 31  2  0  0  0  0
  8  9  1  0  0  0  0
  9 17  1  0  0  0  0
  9 10  2  0  0  0  0
 18 19  1  0  0  0  0
 19 28  1  0  0  0  0
 19 20  2  0  0  0  0
 29 32  1  0  0  0  0
  8 11  1  0  0  0  0
 38 39  1  0  0  0  0
 18 21  1  0  0  0  0
 21 22  1  0  0  0  0
 28 29  1  0  0  0  0
  7  8  1  0  0  0  0
 17 18  1  0  0  0  0
  3  4  1  0  0  0  0
  3  5  1  0  0  0  0
  3  6  1  0  0  0  0
 32 35  1  0  0  0  0
 32 36  1  0  0  0  0
 32 37  1  0  0  0  0
 11 14  1  0  0  0  0
 11 15  1  0  0  0  0
 11 16  1  0  0  0  0
 39 41  1  0  0  0  0
 39 42  1  0  0  0  0
 39 43  1  0  0  0  0
 21 25  1  0  0  0  0
 21 26  1  0  0  0  0
 29 34  1  0  0  0  0
  8 13  1  0  0  0  0
 18 24  1  0  0  0  0
 38 40  1  0  0  0  0
  7 12  1  0  0  0  0
 28 33  1  0  0  0  0
 17 23  1  0  0  0  0
 22 27  1  0  0  0  0
M  END
$$$$

  -OEChem-05262214473D

 43 42  0     1  0  0  0  0  0999 V2000
   -2.8661   -4.7415    2.2943 C   0  0  0  0  0  0  0  0  0  0  0  0
   -2.0233   -5.5727    2.6109 O   0  0  0  0  0  0  0  0  0  0  0  0
   -4.3078   -5.0134    2.5698 C   0  0  0  0  0  0  0  0  0  0  0  0
   -4.8057   -5.5295    1.7332 H   0  0  0  0  0  0  0  0  0  0  0  0
   -4.4526   -5.6688    3.4436 H   0  0  0  0  0  0  0  0  0  0  0  0
   -4.9255   -4.1233    2.7700 H   0  0  0  0  0  0  0  0  0  0  0  0
   -2.6241   -3.5219    1.6838 N   0  0  0  0  0  0  0  0  0  0  0  0
   -1.3070   -3.0608    1.3315 C   0  0  2  0  0  0  0  0  0  0  0  0
   -1.3931   -1.5680    1.0422 C   0  0  0  0  0  0  0  0  0  0  0  0
   -2.4385   -1.0059    0.7226 O   0  0  0  0  0  0  0  0  0  0  0  0
   -0.7590   -3.8164    0.1309 C   0  0  0  0  0  0  0  0  0  0  0  0
   -3.4188   -2.9207    1.4735 H   0  0  0  0  0  0  0  0  0  0  0  0
   -0.6690   -3.2277    2.2062 H   0  0  0  0  0  0  0  0  0  0  0  0
   -1.3852   -3.6613   -0.7553 H   0  0  0  0  0  0  0  0  0  0  0  0
    0.2542   -3.4843   -0.1182 H   0  0  0  0  0  0  0  0  0  0  0  0
   -0.7257   -4.8930    0.3300 H   0  0  0  0  0  0  0  0  0  0  0  0
   -0.1563   -0.9420    1.1402 N   0  0  0  0  0  0  0  0  0  0  0  0
    0.0261    0.4671    0.9001 C   0  0  2  0  0  0  0  0  0  0  0  0
    1.3884    0.8895    1.4464 C   0  0  0  0  0  0  0  0  0  0  0  0
    2.4204    0.8445    0.7799 O   0  0  0  0  0  0  0  0  0  0  0  0
   -1.1328    1.3058    1.4447 C   0  0  0  0  0  0  0  0  0  0  0  0
   -2.7232    0.9891    0.6123 S   0  0  0  0  0  0  0  0  0  0  0  0
    0.6533   -1.4855    1.4300 H   0  0  0  0  0  0  0  0  0  0  0  0
    0.0580    0.5784   -0.1909 H   0  0  0  0  0  0  0  0  0  0  0  0
   -1.2780    1.1131    2.5126 H   0  0  0  0  0  0  0  0  0  0  0  0
   -0.9087    2.3717    1.3287 H   0  0  0  0  0  0  0  0  0  0  0  0
   -3.4309    1.8653    1.3366 H   0  0  0  0  0  0  0  0  0  0  0  0
    1.3191    1.2980    2.7708 N   0  0  0  0  0  0  0  0  0  0  0  0
    2.4785    1.7346    3.5131 C   0  0  2  0  0  0  0  0  0  0  0  0
    2.0573    1.9473    4.9611 C   0  0  0  0  0  0  0  0  0  0  0  0
    0.8935    2.1560    5.2973 O   0  0  0  0  0  0  0  0  0  0  0  0
    3.0646    3.0086    2.9248 C   0  0  0  0  0  0  0  0  0  0  0  0
    0.4169    1.3354    3.2359 H   0  0  0  0  0  0  0  0  0  0  0  0
    3.2118    0.9224    3.4609 H   0  0  0  0  0  0  0  0  0  0  0  0
    2.3444    3.8337    2.9682 H   0  0  0  0  0  0  0  0  0  0  0  0
    3.9602    3.3225    3.4711 H   0  0  0  0  0  0  0  0  0  0  0  0
    3.3396    2.8624    1.8746 H   0  0  0  0  0  0  0  0  0  0  0  0
    3.1399    1.9195    5.8290 N   0  0  0  0  0  0  0  0  0  0  0  0
    3.0017    2.1089    7.2542 C   0  0  0  0  0  0  0  0  0  0  0  0
    4.0672    1.7211    5.4650 H   0  0  0  0  0  0  0  0  0  0  0  0
    3.1373    3.1730    7.4980 H   0  0  0  0  0  0  0  0  0  0  0  0
    1.9995    1.7851    7.5715 H   0  0  0  0  0  0  0  0  0  0  0  0
    3.7629    1.5128    7.7787 H   0  0  0  0  0  0  0  0  0  0  0  0
  1  3  1  0  0  0  0
  1  7  1  0  0  0  0
  1  2  2  0  0  0  0
 29 30  1  0  0  0  0
 30 38  1  0  0  0  0
 30 31  2  0  0  0  0
  8  9  1  0  0  0  0
  9 17  1  0  0  0  0
  9 10  2  0  0  0  0
 18 19  1  0  0  0  0
 19 28  1  0  0  0  0
 19 20  2  0  0  0  0
 29 32  1  0  0  0  0
  8 11  1  0  0  0  0
 38 39  1  0  0  0  0
 18 21  1  0  0  0  0
 21 22  1  0  0  0  0
 28 29  1  0  0  0  0
  7  8  1  0  0  0  0
 17 18  1  0  0  0  0
  3  4  1  0  0  0  0
  3  5  1  0  0  0  0
  3  6  1  0  0  0  0
 32 35  1  0  0  0  0
 32 36  1  0  0  0  0
 32 37  1  0  0  0  0
 11 14  1  0  0  0  0
 11 15  1  0  0  0  0
 11 16  1  0  0  0  0
 39 41  1  0  0  0  0
 39 42  1  0  0  0  0
 39 43  1  0  0  0  0
 21 25  1  0  0  0  0
 21 26  1  0  0  0  0
 29 34  1  0  0  0  0
  8 13  1  0  0  0  0
 18 24  1  0  0  0  0
 38 40  1  0  0  0  0
  7 12  1  0  0  0  0
 28 33  1  0  0  0  0
 17 23  1  0  0  0  0
 22 27  1  0  0  0  0
M  END
$$$$

  -OEChem-05262214473D

 43 42  0     1  0  0  0  0  0999 V2000
   -2.8661   -4.7415    2.2943 C   0  0  0  0  0  0  0  0  0  0  0  0
   -2.0233   -5.5727    2.6109 O   0  0  0  0  0  0  0  0  0  0  0  0
   -4.3078   -5.0134    2.5698 C   0  0  0  0  0  0  0  0  0  0  0  0
   -4.8057   -5.5295    1.7332 H   0  0  0  0  0  0  0  0  0  0  0  0
   -4.4526   -5.6688    3.4436 H   0  0  0  0  0  0  0  0  0  0  0  0
   -4.9255   -4.1233    2.7700 H   0  0  0  0  0  0  0  0  0  0  0  0
   -2.6241   -3.5219    1.6838 N   0  0  0  0  0  0  0  0  0  0  0  0
   -1.3070   -3.0608    1.3315 C   0  0  2  0  0  0  0  0  0  0  0  0
   -1.3931   -1.5680    1.0422 C   0  0  0  0  0  0  0  0  0  0  0  0
   -2.4385   -1.0059    0.7226 O   0  0  0  0  0  0  0  0  0  0  0  0
   -0.7590   -3.8164    0.1309 C   0  0  0  0  0  0  0  0  0  0  0  0
   -3.4188   -2.9207    1.4735 H   0  0  0  0  0  0  0  0  0  0  0  0
   -0.6690   -3.2277    2.2062 H   0  0  0  0  0  0  0  0  0  0  0  0
   -1.3852   -3.6613   -0.7553 H   0  0  0  0  0  0  0  0  0  0  0  0
    0.2542   -3.4843   -0.1182 H   0  0  0  0  0  0  0  0  0  0  0  0
   -0.7257   -4.8930    0.3300 H   0  0  0  0  0  0  0  0  0  0  0  0
   -0.1563   -0.9420    1.1402 N   0  0  0  0  0  0  0  0  0  0  0  0
    0.0261    0.4671    0.9001 C   0  0  2  0  0  0  0  0  0  0  0  0
    1.3884    0.8895    1.4464 C   0  0  0  0  0  0  0  0  0  0  0  0
    2.3621    1.1018    0.7265 O   0  0  0  0  0  0  0  0  0  0  0  0
   -1.1328    1.3058    1.4447 C   0  0  0  0  0  0  0  0  0  0  0  0
   -2.7232    0.9891    0.6123 S   0  0  0  0  0  0  0  0  0  0  0  0
    0.6533   -1.4855    1.4300 H   0  0  0  0  0  0  0  0  0  0  0  0
    0.0580    0.5784   -0.1909 H   0  0  0  0  0  0  0  0  0  0  0  0
   -1.2780    1.1131    2.5126 H   0  0  0  0  0  0  0  0  0  0  0  0
   -0.9087    2.3717    1.3287 H   0  0  0  0  0  0  0  0  0  0  0  0
   -3.4309    1.8653    1.3366 H   0  0  0  0  0  0  0  0  0  0  0  0
    1.3944    0.9769    2.8313 N   0  0  0  0  0  0  0  0  0  0  0  0
    2.5702    1.3480    3.5834 C   0  0  2  0  0  0  0  0  0  0  0  0
    2.2534    1.1820    5.0638 C   0  0  0  0  0  0  0  0  0  0  0  0
    1.1078    1.1901    5.5096 O   0  0  0  0  0  0  0  0  0  0  0  0
    2.9965    2.7749    3.2754 C   0  0  0  0  0  0  0  0  0  0  0  0
    0.5337    0.8162    3.3461 H   0  0  0  0  0  0  0  0  0  0  0  0
    3.3624    0.6472    3.2981 H   0  0  0  0  0  0  0  0  0  0  0  0
    2.2154    3.4915    3.5546 H   0  0  0  0  0  0  0  0  0  0  0  0
    3.9044    3.0451    3.8247 H   0  0  0  0  0  0  0  0  0  0  0  0
    3.1952    2.9000    2.2055 H   0  0  0  0  0  0  0  0  0  0  0  0
    3.4023    1.0670    5.8337 N   0  0  0  0  0  0  0  0  0  0  0  0
    3.3666    0.9123    7.2693 C   0  0  0  0  0  0  0  0  0  0  0  0
    4.3099    1.0513    5.3778 H   0  0  0  0  0  0  0  0  0  0  0  0
    3.4319    1.9011    7.7468 H   0  0  0  0  0  0  0  0  0  0  0  0
    2.4248    0.4252    7.5621 H   0  0  0  0  0  0  0  0  0  0  0  0
    4.2160    0.2925    7.5924 H   0  0  0  0  0  0  0  0  0  0  0  0
  1  3  1  0  0  0  0
  1  7  1  0  0  0  0
  1  2  2  0  0  0  0
 29 30  1  0  0  0  0
 30 38  1  0  0  0  0
 30 31  2  0  0  0  0
  8  9  1  0  0  0  0
  9 17  1  0  0  0  0
  9 10  2  0  0  0  0
 18 19  1  0  0  0  0
 19 28  1  0  0  0  0
 19 20  2  0  0  0  0
 29 32  1  0  0  0  0
  8 11  1  0  0  0  0
 38 39  1  0  0  0  0
 18 21  1  0  0  0  0
 21 22  1  0  0  0  0
 28 29  1  0  0  0  0
  7  8  1  0  0  0  0
 17 18  1  0  0  0  0
  3  4  1  0  0  0  0
  3  5  1  0  0  0  0
  3  6  1  0  0  0  0
 32 35  1  0  0  0  0
 32 36  1  0  0  0  0
 32 37  1  0  0  0  0
 11 14  1  0  0  0  0
 11 15  1  0  0  0  0
 11 16  1  0  0  0  0
 39 41  1  0  0  0  0
 39 42  1  0  0  0  0
 39 43  1  0  0  0  0
 21 25  1  0  0  0  0
 21 26  1  0  0  0  0
 29 34  1  0  0  0  0
  8 13  1  0  0  0  0
 18 24  1  0  0  0  0
 38 40  1  0  0  0  0
  7 12  1  0  0  0  0
 28 33  1  0  0  0  0
 17 23  1  0  0  0  0
 22 27  1  0  0  0  0
M  END
$$$$

  -OEChem-05262214473D

 43 42  0     1  0  0  0  0  0999 V2000
   -2.8661   -4.7415    2.2943 C   0  0  0  0  0  0  0  0  0  0  0  0
   -2.0233   -5.5727    2.6109 O   0  0  0  0  0  0  0  0  0  0  0  0
   -4.3078   -5.0134    2.5698 C   0  0  0  0  0  0  0  0  0  0  0  0
   -4.8057   -5.5295    1.7332 H   0  0  0  0  0  0  0  0  0  0  0  0
   -4.4526   -5.6688    3.4436 H   0  0  0  0  0  0  0  0  0  0  0  0
   -4.9255   -4.1233    2.7700 H   0  0  0  0  0  0  0  0  0  0  0  0
   -2.6241   -3.5219    1.6838 N   0  0  0  0  0  0  0  0  0  0  0  0
   -1.3070   -3.0608    1.3315 C   0  0  2  0  0  0  0  0  0  0  0  0
   -1.3931   -1.5680    1.0422 C   0  0  0  0  0  0  0  0  0  0  0  0
   -2.4385   -1.0059    0.7226 O   0  0  0  0  0  0  0  0  0  0  0  0
   -0.7590   -3.8164    0.1309 C   0  0  0  0  0  0  0  0  0  0  0  0
   -3.4188   -2.9207    1.4735 H   0  0  0  0  0  0  0  0  0  0  0  0
   -0.6690   -3.2277    2.2062 H   0  0  0  0  0  0  0  0  0  0  0  0
   -1.3852   -3.6613   -0.7553 H   0  0  0  0  0  0  0  0  0  0  0  0
    0.2542   -3.4843   -0.1182 H   0  0  0  0  0  0  0  0  0  0  0  0
   -0.7257   -4.8930    0.3300 H   0  0  0  0  0  0  0  0  0  0  0  0
   -0.1563   -0.9420    1.1402 N   0  0  0  0  0  0  0  0  0  0  0  0
    0.0261    0.4671    0.9001 C   0  0  2  0  0  0  0  0  0  0  0  0
    1.3884    0.8895    1.4464 C   0  0  0  0  0  0  0  0  0  0  0  0
    2.2781    1.3572    0.7385 O   0  0  0  0  0  0  0  0  0  0  0  0
   -1.1328    1.3058    1.4447 C   0  0  0  0  0  0  0  0  0  0  0  0
   -2.7232    0.9891    0.6123 S   0  0  0  0  0  0  0  0  0  0  0  0
    0.6533   -1.4855    1.4300 H   0  0  0  0  0  0  0  0  0  0  0  0
    0.0580    0.5784   -0.1909 H   0  0  0  0  0  0  0  0  0  0  0  0
   -1.2780    1.1131    2.5126 H   0  0  0  0  0  0  0  0  0  0  0  0
   -0.9087    2.3717    1.3287 H   0  0  0  0  0  0  0  0  0  0  0  0
   -3.4309    1.8653    1.3366 H   0  0  0  0  0  0  0  0  0  0  0  0
    1.5012    0.6597    2.8103 N   0  0  0  0  0  0  0  0  0  0  0  0
    2.6996    0.9668    3.5555 C   0  0  2  0  0  0  0  0  0  0  0  0
    2.5210    0.4373    4.9723 C   0  0  0  0  0  0  0  0  0  0  0  0
    1.4195    0.2280    5.4763 O   0  0  0  0  0  0  0  0  0  0  0  0
    2.9774    2.4619    3.5651 C   0  0  0  0  0  0  0  0  0  0  0  0
    0.7025    0.3001    3.3244 H   0  0  0  0  0  0  0  0  0  0  0  0
    3.5217    0.4330    3.0665 H   0  0  0  0  0  0  0  0  0  0  0  0
    2.1644    3.0135    4.0512 H   0  0  0  0  0  0  0  0  0  0  0  0
    3.9015    2.6903    4.1062 H   0  0  0  0  0  0  0  0  0  0  0  0
    3.0760    2.8465    2.5442 H   0  0  0  0  0  0  0  0  0  0  0  0
    3.7351    0.2668    5.6227 N   0  0  0  0  0  0  0  0  0  0  0  0
    3.8310   -0.2132    6.9815 C   0  0  0  0  0  0  0  0  0  0  0  0
    4.6000    0.4470    5.1215 H   0  0  0  0  0  0  0  0  0  0  0  0
    3.8520    0.6424    7.6725 H   0  0  0  0  0  0  0  0  0  0  0  0
    2.9609   -0.8467    7.2087 H   0  0  0  0  0  0  0  0  0  0  0  0
    4.7533   -0.8013    7.0983 H   0  0  0  0  0  0  0  0  0  0  0  0
  1  3  1  0  0  0  0
  1  7  1  0  0  0  0
  1  2  2  0  0  0  0
 29 30  1  0  0  0  0
 30 38  1  0  0  0  0
 30 31  2  0  0  0  0
  8  9  1  0  0  0  0
  9 17  1  0  0  0  0
  9 10  2  0  0  0  0
 18 19  1  0  0  0  0
 19 28  1  0  0  0  0
 19 20  2  0  0  0  0
 29 32  1  0  0  0  0
  8 11  1  0  0  0  0
 38 39  1  0  0  0  0
 18 21  1  0  0  0  0
 21 22  1  0  0  0  0
 28 29  1  0  0  0  0
  7  8  1  0  0  0  0
 17 18  1  0  0  0  0
  3  4  1  0  0  0  0
  3  5  1  0  0  0  0
  3  6  1  0  0  0  0
 32 35  1  0  0  0  0
 32 36  1  0  0  0  0
 32 37  1  0  0  0  0
 11 14  1  0  0  0  0
 11 15  1  0  0  0  0
 11 16  1  0  0  0  0
 39 41  1  0  0  0  0
 39 42  1  0  0  0  0
 39 43  1  0  0  0  0
 21 25  1  0  0  0  0
 21 26  1  0  0  0  0
 29 34  1  0  0  0  0
  8 13  1  0  0  0  0
 18 24  1  0  0  0  0
 38 40  1  0  0  0  0
  7 12  1  0  0  0  0
 28 33  1  0  0  0  0
 17 23  1  0  0  0  0
 22 27  1  0  0  0  0
M  END
$$$$

  -OEChem-05262214473D

 43 42  0     1  0  0  0  0  0999 V2000
   -2.8661   -4.7415    2.2943 C   0  0  0  0  0  0  0  0  0  0  0  0
   -2.0233   -5.5727    2.6109 O   0  0  0  0  0  0  0  0  0  0  0  0
   -4.3078   -5.0134    2.5698 C   0  0  0  0  0  0  0  0  0  0  0  0
   -4.8057   -5.5295    1.7332 H   0  0  0  0  0  0  0  0  0  0  0  0
   -4.4526   -5.6688    3.4436 H   0  0  0  0  0  0  0  0  0  0  0  0
   -4.9255   -4.1233    2.7700 H   0  0  0  0  0  0  0  0  0  0  0  0
   -2.6241   -3.5219    1.6838 N   0  0  0  0  0  0  0  0  0  0  0  0
   -1.3070   -3.0608    1.3315 C   0  0  2  0  0  0  0  0  0  0  0  0
   -1.3931   -1.5680    1.0422 C   0  0  0  0  0  0  0  0  0  0  0  0
   -2.4385   -1.0059    0.7226 O   0  0  0  0  0  0  0  0  0  0  0  0
   -0.7590   -3.8164    0.1309 C   0  0  0  0  0  0  0  0  0  0  0  0
   -3.4188   -2.9207    1.4735 H   0  0  0  0  0  0  0  0  0  0  0  0
   -0.6690   -3.2277    2.2062 H   0  0  0  0  0  0  0  0  0  0  0  0
   -1.3852   -3.6613   -0.7553 H   0  0  0  0  0  0  0  0  0  0  0  0
    0.2542   -3.4843   -0.1182 H   0  0  0  0  0  0  0  0  0  0  0  0
   -0.7257   -4.8930    0.3300 H   0  0  0  0  0  0  0  0  0  0  0  0
   -0.1563   -0.9420    1.1402 N   0  0  0  0  0  0  0  0  0  0  0  0
    0.0261    0.4671    0.9001 C   0  0  2  0  0  0  0  0  0  0  0  0
    1.3884    0.8895    1.4464 C   0  0  0  0  0  0  0  0  0  0  0  0
    2.1741    1.5934    0.8151 O   0  0  0  0  0  0  0  0  0  0  0  0
   -1.1328    1.3058    1.4447 C   0  0  0  0  0  0  0  0  0  0  0  0
   -2.7232    0.9891    0.6123 S   0  0  0  0  0  0  0  0  0  0  0  0
    0.6533   -1.4855    1.4300 H   0  0  0  0  0  0  0  0  0  0  0  0
    0.0580    0.5784   -0.1909 H   0  0  0  0  0  0  0  0  0  0  0  0
   -1.2780    1.1131    2.5126 H   0  0  0  0  0  0  0  0  0  0  0  0
   -0.9087    2.3717    1.3287 H   0  0  0  0  0  0  0  0  0  0  0  0
   -3.4309    1.8653    1.3366 H   0  0  0  0  0  0  0  0  0  0  0  0
    1.6322    0.3681    2.7091 N   0  0  0  0  0  0  0  0  0  0  0  0
    2.8578    0.6170    3.4314 C   0  0  2  0  0  0  0  0  0  0  0  0
    2.8419   -0.2362    4.6928 C   0  0  0  0  0  0  0  0  0  0  0  0
    1.8072   -0.6647    5.1997 O   0  0  0  0  0  0  0  0  0  0  0  0
    3.0086    2.0910    3.7739 C   0  0  0  0  0  0  0  0  0  0  0  0
    0.9117   -0.1779    3.1722 H   0  0  0  0  0  0  0  0  0  0  0  0
    3.6788    0.2942    2.7819 H   0  0  0  0  0  0  0  0  0  0  0  0
    2.1950    2.4325    4.4242 H   0  0  0  0  0  0  0  0  0  0  0  0
    3.9517    2.2824    4.2964 H   0  0  0  0  0  0  0  0  0  0  0  0
    2.9900    2.7056    2.8675 H   0  0  0  0  0  0  0  0  0  0  0  0
    4.1155   -0.4267    5.2102 N   0  0  0  0  0  0  0  0  0  0  0  0
    4.3632   -1.1910    6.4104 C   0  0  0  0  0  0  0  0  0  0  0  0
    4.9179   -0.0508    4.7137 H   0  0  0  0  0  0  0  0  0  0  0  0
    4.3689   -0.5174    7.2801 H   0  0  0  0  0  0  0  0  0  0  0  0
    3.5712   -1.9441    6.5354 H   0  0  0  0  0  0  0  0  0  0  0  0
    5.3381   -1.6940    6.3300 H   0  0  0  0  0  0  0  0  0  0  0  0
  1  3  1  0  0  0  0
  1  7  1  0  0  0  0
  1  2  2  0  0  0  0
 29 30  1  0  0  0  0
 30 38  1  0  0  0  0
 30 31  2  0  0  0  0
  8  9  1  0  0  0  0
  9 17  1  0  0  0  0
  9 10  2  0  0  0  0
 18 19  1  0  0  0  0
 19 28  1  0  0  0  0
 19 20  2  0  0  0  0
 29 32  1  0  0  0  0
  8 11  1  0  0  0  0
 38 39  1  0  0  0  0
 18 21  1  0  0  0  0
 21 22  1  0  0  0  0
 28 29  1  0  0  0  0
  7  8  1  0  0  0  0
 17 18  1  0  0  0  0
  3  4  1  0  0  0  0
  3  5  1  0  0  0  0
  3  6  1  0  0  0  0
 32 35  1  0  0  0  0
 32 36  1  0  0  0  0
 32 37  1  0  0  0  0
 11 14  1  0  0  0  0
 11 15  1  0  0  0  0
 11 16  1  0  0  0  0
 39 41  1  0  0  0  0
 39 42  1  0  0  0  0
 39 43  1  0  0  0  0
 21 25  1  0  0  0  0
 21 26  1  0  0  0  0
 29 34  1  0  0  0  0
  8 13  1  0  0  0  0
 18 24  1  0  0  0  0
 38 40  1  0  0  0  0
  7 12  1  0  0  0  0
 28 33  1  0  0  0  0
 17 23  1  0  0  0  0
 22 27  1  0  0  0  0
M  END
$$$$

  -OEChem-05262214473D

 43 42  0     1  0  0  0  0  0999 V2000
   -2.8661   -4.7415    2.2943 C   0  0  0  0  0  0  0  0  0  0  0  0
   -2.0233   -5.5727    2.6109 O   0  0  0  0  0  0  0  0  0  0  0  0
   -4.3078   -5.0134    2.5698 C   0  0  0  0  0  0  0  0  0  0  0  0
   -4.8057   -5.5295    1.7332 H   0  0  0  0  0  0  0  0  0  0  0  0
   -4.4526   -5.6688    3.4436 H   0  0  0  0  0  0  0  0  0  0  0  0
   -4.9255   -4.1233    2.7700 H   0  0  0  0  0  0  0  0  0  0  0  0
   -2.6241   -3.5219    1.6838 N   0  0  0  0  0  0  0  0  0  0  0  0
   -1.3070   -3.0608    1.3315 C   0  0  2  0  0  0  0  0  0  0  0  0
   -1.3931   -1.5680    1.0422 C   0  0  0  0  0  0  0  0  0  0  0  0
   -2.4385   -1.0059    0.7226 O   0  0  0  0  0  0  0  0  0  0  0  0
   -0.7590   -3.8164    0.1309 C   0  0  0  0  0  0  0  0  0  0  0  0
   -3.4188   -2.9207    1.4735 H   0  0  0  0  0  0  0  0  0  0  0  0
   -0.6690   -3.2277    2.2062 H   0  0  0  0  0  0  0  0  0  0  0  0
   -1.3852   -3.6613   -0.7553 H   0  0  0  0  0  0  0  0  0  0  0  0
    0.2542   -3.4843   -0.1182 H   0  0  0  0  0  0  0  0  0  0  0  0
   -0.7257   -4.8930    0.3300 H   0  0  0  0  0  0  0  0  0  0  0  0
   -0.1563   -0.9420    1.1402 N   0  0  0  0  0  0  0  0  0  0  0  0
    0.0261    0.4671    0.9001 C   0  0  2  0  0  0  0  0  0  0  0  0
    1.3884    0.8895    1.4464 C   0  0  0  0  0  0  0  0  0  0  0  0
    2.0574    1.7942    0.9510 O   0  0  0  0  0  0  0  0  0  0  0  0
   -1.1328    1.3058    1.4447 C   0  0  0  0  0  0  0  0  0  0  0  0
   -2.7232    0.9891    0.6123 S   0  0  0  0  0  0  0  0  0  0  0  0
    0.6533   -1.4855    1.4300 H   0  0  0  0  0  0  0  0  0  0  0  0
    0.0580    0.5784   -0.1909 H   0  0  0  0  0  0  0  0  0  0  0  0
   -1.2780    1.1131    2.5126 H   0  0  0  0  0  0  0  0  0  0  0  0
   -0.9087    2.3717    1.3287 H   0  0  0  0  0  0  0  0  0  0  0  0
   -3.4309    1.8653    1.3366 H   0  0  0  0  0  0  0  0  0  0  0  0
    1.7785    0.1219    2.5346 N   0  0  0  0  0  0  0  0  0  0  0  0
    3.0342    0.3224    3.2193 C   0  0  2  0  0  0  0  0  0  0  0  0
    3.1942   -0.7925    4.2445 C   0  0  0  0  0  0  0  0  0  0  0  0
    2.2446   -1.4273    4.6987 O   0  0  0  0  0  0  0  0  0  0  0  0
    3.0881    1.6873    3.8878 C   0  0  0  0  0  0  0  0  0  0  0  0
    1.1472   -0.5850    2.8998 H   0  0  0  0  0  0  0  0  0  0  0  0
    3.8231    0.2405    2.4637 H   0  0  0  0  0  0  0  0  0  0  0  0
    2.3050    1.7880    4.6481 H   0  0  0  0  0  0  0  0  0  0  0  0
    4.0516    1.8491    4.3823 H   0  0  0  0  0  0  0  0  0  0  0  0
    2.9432    2.4869    3.1534 H   0  0  0  0  0  0  0  0  0  0  0  0
    4.5176   -0.9661    4.6245 N   0  0  0  0  0  0  0  0  0  0  0  0
    4.9269   -1.9543    5.5950 C   0  0  0  0  0  0  0  0  0  0  0  0
    5.2419   -0.4080    4.1821 H   0  0  0  0  0  0  0  0  0  0  0  0
    4.9476   -1.4991    6.5963 H   0  0  0  0  0  0  0  0  0  0  0  0
    4.2141   -2.7921    5.5880 H   0  0  0  0  0  0  0  0  0  0  0  0
    5.9307   -2.3247    5.3400 H   0  0  0  0  0  0  0  0  0  0  0  0
  1  3  1  0  0  0  0
  1  7  1  0  0  0  0
  1  2  2  0  0  0  0
 29 30  1  0  0  0  0
 30 38  1  0  0  0  0
 30 31  2  0  0  0  0
  8  9  1  0  0  0  0
  9 17  1  0  0  0  0
  9 10  2  0  0  0  0
 18 19  1  0  0  0  0
 19 28  1  0  0  0  0
 19 20  2  0  0  0  0
 29 32  1  0  0  0  0
  8 11  1  0  0  0  0
 38 39  1  0  0  0  0
 18 21  1  0  0  0  0
 21 22  1  0  0  0  0
 28 29  1  0  0  0  0
  7  8  1  0  0  0  0
 17 18  1  0  0  0  0
  3  4  1  0  0  0  0
  3  5  1  0  0  0  0
  3  6  1  0  0  0  0
 32 35  1  0  0  0  0
 32 36  1  0  0  0  0
 32 37  1  0  0  0  0
 11 14  1  0  0  0  0
 11 15  1  0  0  0  0
 11 16  1  0  0  0  0
 39 41  1  0  0  0  0
 39 42  1  0  0  0  0
 39 43  1  0  0  0  0
 21 25  1  0  0  0  0
 21 26  1  0  0  0  0
 29 34  1  0  0  0  0
  8 13  1  0  0  0  0
 18 24  1  0  0  0  0
 38 40  1  0  0  0  0
  7 12  1  0  0  0  0
 28 33  1  0  0  0  0
 17 23  1  0  0  0  0
 22 27  1  0  0  0  0
M  END
$$$$

  -OEChem-05262214473D

 43 42  0     1  0  0  0  0  0999 V2000
   -2.8661   -4.7415    2.2943 C   0  0  0  0  0  0  0  0  0  0  0  0
   -2.0233   -5.5727    2.6109 O   0  0  0  0  0  0  0  0  0  0  0  0
   -4.3078   -5.0134    2.5698 C   0  0  0  0  0  0  0  0  0  0  0  0
   -4.8057   -5.5295    1.7332 H   0  0  0  0  0  0  0  0  0  0  0  0
   -4.4526   -5.6688    3.4436 H   0  0  0  0  0  0  0  0  0  0  0  0
   -4.9255   -4.1233    2.7700 H   0  0  0  0  0  0  0  0  0  0  0  0
   -2.6241   -3.5219    1.6838 N   0  0  0  0  0  0  0  0  0  0  0  0
   -1.3070   -3.0608    1.3315 C   0  0  2  0  0  0  0  0  0  0  0  0
   -1.3931   -1.5680    1.0422 C   0  0  0  0  0  0  0  0  0  0  0  0
   -2.4385   -1.0059    0.7226 O   0  0  0  0  0  0  0  0  0  0  0  0
   -0.7590   -3.8164    0.1309 C   0  0  0  0  0  0  0  0  0  0  0  0
   -3.4188   -2.9207    1.4735 H   0  0  0  0  0  0  0  0  0  0  0  0
   -0.6690   -3.2277    2.2062 H   0  0  0  0  0  0  0  0  0  0  0  0
   -1.3852   -3.6613   -0.7553 H   0  0  0  0  0  0  0  0  0  0  0  0
    0.2542   -3.4843   -0.1182 H   0  0  0  0  0  0  0  0  0  0  0  0
   -0.7257   -4.8930    0.3300 H   0  0  0  0  0  0  0  0  0  0  0  0
   -0.1563   -0.9420    1.1402 N   0  0  0  0  0  0  0  0  0  0  0  0
    0.0261    0.4671    0.9001 C   0  0  2  0  0  0  0  0  0  0  0  0
    1.3884    0.8895    1.4464 C   0  0  0  0  0  0  0  0  0  0  0  0
    1.9357    1.9460    1.1370 O   0  0  0  0  0  0  0  0  0  0  0  0
   -1.1328    1.3058    1.4447 C   0  0  0  0  0  0  0  0  0  0  0  0
   -2.7232    0.9891    0.6123 S   0  0  0  0  0  0  0  0  0  0  0  0
    0.6533   -1.4855    1.4300 H   0  0  0  0  0  0  0  0  0  0  0  0
    0.0580    0.5784   -0.1909 H   0  0  0  0  0  0  0  0  0  0  0  0
   -1.2780    1.1131    2.5126 H   0  0  0  0  0  0  0  0  0  0  0  0
   -0.9087    2.3717    1.3287 H   0  0  0  0  0  0  0  0  0  0  0  0
   -3.4309    1.8653    1.3366 H   0  0  0  0  0  0  0  0  0  0  0  0
    1.9301   -0.0621    2.2988 N   0  0  0  0  0  0  0  0  0  0  0  0
    3.2167    0.1031    2.9339 C   0  0  2  0  0  0  0  0  0  0  0  0
    3.5539   -1.1937    3.6577 C   0  0  0  0  0  0  0  0  0  0  0  0
    2.7018   -2.0078    4.0075 O   0  0  0  0  0  0  0  0  0  0  0  0
    3.2104    1.2785    3.8989 C   0  0  0  0  0  0  0  0  0  0  0  0
    1.3928   -0.8936    2.5259 H   0  0  0  0  0  0  0  0  0  0  0  0
    3.9447    0.2754    2.1337 H   0  0  0  0  0  0  0  0  0  0  0  0
    2.4870    1.1240    4.7078 H   0  0  0  0  0  0  0  0  0  0  0  0
    4.1943    1.4200    4.3582 H   0  0  0  0  0  0  0  0  0  0  0  0
    2.9386    2.2054    3.3825 H   0  0  0  0  0  0  0  0  0  0  0  0
    4.9141   -1.3146    3.9055 N   0  0  0  0  0  0  0  0  0  0  0  0
    5.4837   -2.4512    4.5909 C   0  0  0  0  0  0  0  0  0  0  0  0
    5.5498   -0.6003    3.5629 H   0  0  0  0  0  0  0  0  0  0  0  0
    5.5485   -2.2360    5.6677 H   0  0  0  0  0  0  0  0  0  0  0  0
    4.8458   -3.3330    4.4310 H   0  0  0  0  0  0  0  0  0  0  0  0
    6.4907   -2.6506    4.1957 H   0  0  0  0  0  0  0  0  0  0  0  0
  1  3  1  0  0  0  0
  1  7  1  0  0  0  0
  1  2  2  0  0  0  0
 29 30  1  0  0  0  0
 30 38  1  0  0  0  0
 30 31  2  0  0  0  0
  8  9  1  0  0  0  0
  9 17  1  0  0  0  0
  9 10  2  0  0  0  0
 18 19  1  0  0  0  0
 19 28  1  0  0  0  0
 19 20  2  0  0  0  0
 29 32  1  0  0  0  0
  8 11  1  0  0  0  0
 38 39  1  0  0  0  0
 18 21  1  0  0  0  0
 21 22  1  0  0  0  0
 28 29  1  0  0  0  0
  7  8  1  0  0  0  0
 17 18  1  0  0  0  0
  3  4  1  0  0  0  0
  3  5  1  0  0  0  0
  3  6  1  0  0  0  0
 32 35  1  0  0  0  0
 32 36  1  0  0  0  0
 32 37  1  0  0  0  0
 11 14  1  0  0  0  0
 11 15  1  0  0  0  0
 11 16  1  0  0  0  0
 39 41  1  0  0  0  0
 39 42  1  0  0  0  0
 39 43  1  0  0  0  0
 21 25  1  0  0  0  0
 21 26  1  0  0  0  0
 29 34  1  0  0  0  0
  8 13  1  0  0  0  0
 18 24  1  0  0  0  0
 38 40  1  0  0  0  0
  7 12  1  0  0  0  0
 28 33  1  0  0  0  0
 17 23  1  0  0  0  0
 22 27  1  0  0  0  0
M  END
$$$$

  -OEChem-05262214473D

 43 42  0     1  0  0  0  0  0999 V2000
   -2.8661   -4.7415    2.2943 C   0  0  0  0  0  0  0  0  0  0  0  0
   -2.0233   -5.5727    2.6109 O   0  0  0  0  0  0  0  0  0  0  0  0
   -4.3078   -5.0134    2.5698 C   0  0  0  0  0  0  0  0  0  0  0  0
   -4.8057   -5.5295    1.7332 H   0  0  0  0  0  0  0  0  0  0  0  0
   -4.4526   -5.6688    3.4436 H   0  0  0  0  0  0  0  0  0  0  0  0
   -4.9255   -4.1233    2.7700 H   0  0  0  0  0  0  0  0  0  0  0  0
   -2.6241   -3.5219    1.6838 N   0  0  0  0  0  0  0  0  0  0  0  0
   -1.3070   -3.0608    1.3315 C   0  0  2  0  0  0  0  0  0  0  0  0
   -1.3931   -1.5680    1.0422 C   0  0  0  0  0  0  0  0  0  0  0  0
   -2.4385   -1.0059    0.7226 O   0  0  0  0  0  0  0  0  0  0  0  0
   -0.7590   -3.8164    0.1309 C   0  0  0  0  0  0  0  0  0  0  0  0
   -3.4188   -2.9207    1.4735 H   0  0  0  0  0  0  0  0  0  0  0  0
   -0.6690   -3.2277    2.2062 H   0  0  0  0  0  0  0  0  0  0  0  0
   -1.3852   -3.6613   -0.7553 H   0  0  0  0  0  0  0  0  0  0  0  0
    0.2542   -3.4843   -0.1182 H   0  0  0  0  0  0  0  0  0  0  0  0
   -0.7257   -4.8930    0.3300 H   0  0  0  0  0  0  0  0  0  0  0  0
   -0.1563   -0.9420    1.1402 N   0  0  0  0  0  0  0  0  0  0  0  0
    0.0261    0.4671    0.9001 C   0  0  2  0  0  0  0  0  0  0  0  0
    1.3884    0.8895    1.4464 C   0  0  0  0  0  0  0  0  0  0  0  0
    1.8174    2.0384    1.3604 O   0  0  0  0  0  0  0  0  0  0  0  0
   -1.1328    1.3058    1.4447 C   0  0  0  0  0  0  0  0  0  0  0  0
   -2.7232    0.9891    0.6123 S   0  0  0  0  0  0  0  0  0  0  0  0
    0.6533   -1.4855    1.4300 H   0  0  0  0  0  0  0  0  0  0  0  0
    0.0580    0.5784   -0.1909 H   0  0  0  0  0  0  0  0  0  0  0  0
   -1.2780    1.1131    2.5126 H   0  0  0  0  0  0  0  0  0  0  0  0
   -0.9087    2.3717    1.3287 H   0  0  0  0  0  0  0  0  0  0  0  0
   -3.4309    1.8653    1.3366 H   0  0  0  0  0  0  0  0  0  0  0  0
    2.0768   -0.1714    2.0177 N   0  0  0  0  0  0  0  0  0  0  0  0
    3.3928   -0.0259    2.5945 C   0  0  2  0  0  0  0  0  0  0  0  0
    3.8965   -1.4125    2.9726 C   0  0  0  0  0  0  0  0  0  0  0  0
    3.1477   -2.3666    3.1730 O   0  0  0  0  0  0  0  0  0  0  0  0
    3.3672    0.8923    3.8066 C   0  0  0  0  0  0  0  0  0  0  0  0
    1.6319   -1.0826    2.0759 H   0  0  0  0  0  0  0  0  0  0  0  0
    4.0352    0.3965    1.8142 H   0  0  0  0  0  0  0  0  0  0  0  0
    2.7285    0.4857    4.5991 H   0  0  0  0  0  0  0  0  0  0  0  0
    4.3702    1.0243    4.2256 H   0  0  0  0  0  0  0  0  0  0  0  0
    2.9767    1.8801    3.5390 H   0  0  0  0  0  0  0  0  0  0  0  0
    5.2778   -1.4486    3.1021 N   0  0  0  0  0  0  0  0  0  0  0  0
    5.9956   -2.6478    3.4663 C   0  0  0  0  0  0  0  0  0  0  0  0
    5.8207   -0.6147    2.8984 H   0  0  0  0  0  0  0  0  0  0  0  0
    6.1306   -2.6778    4.5576 H   0  0  0  0  0  0  0  0  0  0  0  0
    5.4232   -3.5300    3.1434 H   0  0  0  0  0  0  0  0  0  0  0  0
    6.9798   -2.6494    2.9751 H   0  0  0  0  0  0  0  0  0  0  0  0
  1  3  1  0  0  0  0
  1  7  1  0  0  0  0
  1  2  2  0  0  0  0
 29 30  1  0  0  0  0
 30 38  1  0  0  0  0
 30 31  2  0  0  0  0
  8  9  1  0  0  0  0
  9 17  1  0  0  0  0
  9 10  2  0  0  0  0
 18 19  1  0  0  0  0
 19 28  1  0  0  0  0
 19 20  2  0  0  0  0
 29 32  1  0  0  0  0
  8 11  1  0  0  0  0
 38 39  1  0  0  0  0
 18 21  1  0  0  0  0
 21 22  1  0  0  0  0
 28 29  1  0  0  0  0
  7  8  1  0  0  0  0
 17 18  1  0  0  0  0
  3  4  1  0  0  0  0
  3  5  1  0  0  0  0
  3  6  1  0  0  0  0
 32 35  1  0  0  0  0
 32 36  1  0  0  0  0
 32 37  1  0  0  0  0
 11 14  1  0  0  0  0
 11 15  1  0  0  0  0
 11 16  1  0  0  0  0
 39 41  1  0  0  0  0
 39 42  1  0  0  0  0
 39 43  1  0  0  0  0
 21 25  1  0  0  0  0
 21 26  1  0  0  0  0
 29 34  1  0  0  0  0
  8 13  1  0  0  0  0
 18 24  1  0  0  0  0
 38 40  1  0  0  0  0
  7 12  1  0  0  0  0
 28 33  1  0  0  0  0
 17 23  1  0  0  0  0
 22 27  1  0  0  0  0
M  END
$$$$

  -OEChem-05262214473D

 43 42  0     1  0  0  0  0  0999 V2000
   -2.8661   -4.7415    2.2943 C   0  0  0  0  0  0  0  0  0  0  0  0
   -2.0233   -5.5727    2.6109 O   0  0  0  0  0  0  0  0  0  0  0  0
   -4.3078   -5.0134    2.5698 C   0  0  0  0  0  0  0  0  0  0  0  0
   -4.8057   -5.5295    1.7332 H   0  0  0  0  0  0  0  0  0  0  0  0
   -4.4526   -5.6688    3.4436 H   0  0  0  0  0  0  0  0  0  0  0  0
   -4.9255   -4.1233    2.7700 H   0  0  0  0  0  0  0  0  0  0  0  0
   -2.6241   -3.5219    1.6838 N   0  0  0  0  0  0  0  0  0  0  0  0
   -1.3070   -3.0608    1.3315 C   0  0  2  0  0  0  0  0  0  0  0  0
   -1.3931   -1.5680    1.0422 C   0  0  0  0  0  0  0  0  0  0  0  0
   -2.4385   -1.0059    0.7226 O   0  0  0  0  0  0  0  0  0  0  0  0
   -0.7590   -3.8164    0.1309 C   0  0  0  0  0  0  0  0  0  0  0  0
   -3.4188   -2.9207    1.4735 H   0  0  0  0  0  0  0  0  0  0  0  0
   -0.6690   -3.2277    2.2062 H   0  0  0  0  0  0  0  0  0  0  0  0
   -1.3852   -3.6613   -0.7553 H   0  0  0  0  0  0  0  0  0  0  0  0
    0.2542   -3.4843   -0.1182 H   0  0  0  0  0  0  0  0  0  0  0  0
   -0.7257   -4.8930    0.3300 H   0  0  0  0  0  0  0  0  0  0  0  0
   -0.1563   -0.9420    1.1402 N   0  0  0  0  0  0  0  0  0  0  0  0
    0.0261    0.4671    0.9001 C   0  0  2  0  0  0  0  0  0  0  0  0
    1.3884    0.8895    1.4464 C   0  0  0  0  0  0  0  0  0  0  0  0
    1.7107    2.0652    1.6060 O   0  0  0  0  0  0  0  0  0  0  0  0
   -1.1328    1.3058    1.4447 C   0  0  0  0  0  0  0  0  0  0  0  0
   -2.7232    0.9891    0.6123 S   0  0  0  0  0  0  0  0  0  0  0  0
    0.6533   -1.4855    1.4300 H   0  0  0  0  0  0  0  0  0  0  0  0
    0.0580    0.5784   -0.1909 H   0  0  0  0  0  0  0  0  0  0  0  0
   -1.2780    1.1131    2.5126 H   0  0  0  0  0  0  0  0  0  0  0  0
   -0.9087    2.3717    1.3287 H   0  0  0  0  0  0  0  0  0  0  0  0
   -3.4309    1.8653    1.3366 H   0  0  0  0  0  0  0  0  0  0  0  0
    2.2084   -0.1984    1.7104 N   0  0  0  0  0  0  0  0  0  0  0  0
    3.5505   -0.0558    2.2243 C   0  0  2  0  0  0  0  0  0  0  0  0
    4.1986   -1.4340    2.2358 C   0  0  0  0  0  0  0  0  0  0  0  0
    3.5519   -2.4792    2.2522 O   0  0  0  0  0  0  0  0  0  0  0  0
    3.5478    0.5552    3.6170 C   0  0  0  0  0  0  0  0  0  0  0  0
    1.8481   -1.1391    1.5805 H   0  0  0  0  0  0  0  0  0  0  0  0
    4.0886    0.5956    1.5271 H   0  0  0  0  0  0  0  0  0  0  0  0
    3.0131   -0.0835    4.3295 H   0  0  0  0  0  0  0  0  0  0  0  0
    4.5672    0.6890    3.9935 H   0  0  0  0  0  0  0  0  0  0  0  0
    3.0548    1.5333    3.6124 H   0  0  0  0  0  0  0  0  0  0  0  0
    5.5840   -1.3589    2.2692 N   0  0  0  0  0  0  0  0  0  0  0  0
    6.4278   -2.5308    2.2981 C   0  0  0  0  0  0  0  0  0  0  0  0
    6.0362   -0.4501    2.2339 H   0  0  0  0  0  0  0  0  0  0  0  0
    6.6544   -2.7944    3.3417 H   0  0  0  0  0  0  0  0  0  0  0  0
    5.9071   -3.3695    1.8129 H   0  0  0  0  0  0  0  0  0  0  0  0
    7.3648   -2.3211    1.7613 H   0  0  0  0  0  0  0  0  0  0  0  0
  1  3  1  0  0  0  0
  1  7  1  0  0  0  0
  1  2  2  0  0  0  0
 29 30  1  0  0  0  0
 30 38  1  0  0  0  0
 30 31  2  0  0  0  0
  8  9  1  0  0  0  0
  9 17  1  0  0  0  0
  9 10  2  0  0  0  0
 18 19  1  0  0  0  0
 19 28  1  0  0  0  0
 19 20  2  0  0  0  0
 29 32  1  0  0  0  0
  8 11  1  0  0  0  0
 38 39  1  0  0  0  0
 18 21  1  0  0  0  0
 21 22  1  0  0  0  0
 28 29  1  0  0  0  0
  7  8  1  0  0  0  0
 17 18  1  0  0  0  0
  3  4  1  0  0  0  0
  3  5  1  0  0  0  0
  3  6  1  0  0  0  0
 32 35  1  0  0  0  0
 32 36  1  0  0  0  0
 32 37  1  0  0  0  0
 11 14  1  0  0  0  0
 11 15  1  0  0  0  0
 11 16  1  0  0  0  0
 39 41  1  0  0  0  0
 39 42  1  0  0  0  0
 39 43  1  0  0  0  0
 21 25  1  0  0  0  0
 21 26  1  0  0  0  0
 29 34  1  0  0  0  0
  8 13  1  0  0  0  0
 18 24  1  0  0  0  0
 38 40  1  0  0  0  0
  7 12  1  0  0  0  0
 28 33  1  0  0  0  0
 17 23  1  0  0  0  0
 22 27  1  0  0  0  0
M  END
$$$$

  -OEChem-05262214473D

 43 42  0     1  0  0  0  0  0999 V2000
   -2.8661   -4.7415    2.2943 C   0  0  0  0  0  0  0  0  0  0  0  0
   -2.0233   -5.5727    2.6109 O   0  0  0  0  0  0  0  0  0  0  0  0
   -4.3078   -5.0134    2.5698 C   0  0  0  0  0  0  0  0  0  0  0  0
   -4.8057   -5.5295    1.7332 H   0  0  0  0  0  0  0  0  0  0  0  0
   -4.4526   -5.6688    3.4436 H   0  0  0  0  0  0  0  0  0  0  0  0
   -4.9255   -4.1233    2.7700 H   0  0  0  0  0  0  0  0  0  0  0  0
   -2.6241   -3.5219    1.6838 N   0  0  0  0  0  0  0  0  0  0  0  0
   -1.3070   -3.0608    1.3315 C   0  0  2  0  0  0  0  0  0  0  0  0
   -1.3931   -1.5680    1.0422 C   0  0  0  0  0  0  0  0  0  0  0  0
   -2.4385   -1.0059    0.7226 O   0  0  0  0  0  0  0  0  0  0  0  0
   -0.7590   -3.8164    0.1309 C   0  0  0  0  0  0  0  0  0  0  0  0
   -3.4188   -2.9207    1.4735 H   0  0  0  0  0  0  0  0  0  0  0  0
   -0.6690   -3.2277    2.2062 H   0  0  0  0  0  0  0  0  0  0  0  0
   -1.3852   -3.6613   -0.7553 H   0  0  0  0  0  0  0  0  0  0  0  0
    0.2542   -3.4843   -0.1182 H   0  0  0  0  0  0  0  0  0  0  0  0
   -0.7257   -4.8930    0.3300 H   0  0  0  0  0  0  0  0  0  0  0  0
   -0.1563   -0.9420    1.1402 N   0  0  0  0  0  0  0  0  0  0  0  0
    0.0261    0.4671    0.9001 C   0  0  2  0  0  0  0  0  0  0  0  0
    1.3884    0.8895    1.4464 C   0  0  0  0  0  0  0  0  0  0  0  0
    1.6226    2.0244    1.8571 O   0  0  0  0  0  0  0  0  0  0  0  0
   -1.1328    1.3058    1.4447 C   0  0  0  0  0  0  0  0  0  0  0  0
   -2.7232    0.9891    0.6123 S   0  0  0  0  0  0  0  0  0  0  0  0
    0.6533   -1.4855    1.4300 H   0  0  0  0  0  0  0  0  0  0  0  0
    0.0580    0.5784   -0.1909 H   0  0  0  0  0  0  0  0  0  0  0  0
   -1.2780    1.1131    2.5126 H   0  0  0  0  0  0  0  0  0  0  0  0
   -0.9087    2.3717    1.3287 H   0  0  0  0  0  0  0  0  0  0  0  0
   -3.4309    1.8653    1.3366 H   0  0  0  0  0  0  0  0  0  0  0  0
    2.3160   -0.1414    1.3980 N   0  0  0  0  0  0  0  0  0  0  0  0
    3.6792    0.0153    1.8485 C   0  0  2  0  0  0  0  0  0  0  0  0
    4.4397   -1.2567    1.4975 C   0  0  0  0  0  0  0  0  0  0  0  0
    3.8868   -2.3381    1.3079 O   0  0  0  0  0  0  0  0  0  0  0  0
    3.7398    0.2900    3.3431 C   0  0  0  0  0  0  0  0  0  0  0  0
    2.0267   -1.0594    1.0735 H   0  0  0  0  0  0  0  0  0  0  0  0
    4.1012    0.8592    1.2919 H   0  0  0  0  0  0  0  0  0  0  0  0
    3.3214   -0.5446    3.9173 H   0  0  0  0  0  0  0  0  0  0  0  0
    4.7720    0.4369    3.6779 H   0  0  0  0  0  0  0  0  0  0  0  0
    3.1676    1.1886    3.5977 H   0  0  0  0  0  0  0  0  0  0  0  0
    5.8119   -1.0516    1.4634 N   0  0  0  0  0  0  0  0  0  0  0  0
    6.7508   -2.1080    1.1657 C   0  0  0  0  0  0  0  0  0  0  0  0
    6.1815   -0.1177    1.6146 H   0  0  0  0  0  0  0  0  0  0  0  0
    7.0841   -2.5779    2.1028 H   0  0  0  0  0  0  0  0  0  0  0  0
    6.2643   -2.8625    0.5301 H   0  0  0  0  0  0  0  0  0  0  0  0
    7.6194   -1.6882    0.6371 H   0  0  0  0  0  0  0  0  0  0  0  0
  1  3  1  0  0  0  0
  1  7  1  0  0  0  0
  1  2  2  0  0  0  0
 29 30  1  0  0  0  0
 30 38  1  0  0  0  0
 30 31  2  0  0  0  0
  8  9  1  0  0  0  0
  9 17  1  0  0  0  0
  9 10  2  0  0  0  0
 18 19  1  0  0  0  0
 19 28  1  0  0  0  0
 19 20  2  0  0  0  0
 29 32  1  0  0  0  0
  8 11  1  0  0  0  0
 38 39  1  0  0  0  0
 18 21  1  0  0  0  0
 21 22  1  0  0  0  0
 28 29  1  0  0  0  0
  7  8  1  0  0  0  0
 17 18  1  0  0  0  0
  3  4  1  0  0  0  0
  3  5  1  0  0  0  0
  3  6  1  0  0  0  0
 32 35  1  0  0  0  0
 32 36  1  0  0  0  0
 32 37  1  0  0  0  0
 11 14  1  0  0  0  0
 11 15  1  0  0  0  0
 11 16  1  0  0  0  0
 39 41  1  0  0  0  0
 39 42  1  0  0  0  0
 39 43  1  0  0  0  0
 21 25  1  0  0  0  0
 21 26  1  0  0  0  0
 29 34  1  0  0  0  0
  8 13  1  0  0  0  0
 18 24  1  0  0  0  0
 38 40  1  0  0  0  0
  7 12  1  0  0  0  0
 28 33  1  0  0  0  0
 17 23  1  0  0  0  0
 22 27  1  0  0  0  0
M  END
$$$$

  -OEChem-05262214473D

 43 42  0     1  0  0  0  0  0999 V2000
   -2.8661   -4.7415    2.2943 C   0  0  0  0  0  0  0  0  0  0  0  0
   -2.0233   -5.5727    2.6109 O   0  0  0  0  0  0  0  0  0  0  0  0
   -4.3078   -5.0134    2.5698 C   0  0  0  0  0  0  0  0  0  0  0  0
   -4.8057   -5.5295    1.7332 H   0  0  0  0  0  0  0  0  0  0  0  0
   -4.4526   -5.6688    3.4436 H   0  0  0  0  0  0  0  0  0  0  0  0
   -4.9255   -4.1233    2.7700 H   0  0  0  0  0  0  0  0  0  0  0  0
   -2.6241   -3.5219    1.6838 N   0  0  0  0  0  0  0  0  0  0  0  0
   -1.3070   -3.0608    1.3315 C   0  0  2  0  0  0  0  0  0  0  0  0
   -1.3931   -1.5680    1.0422 C   0  0  0  0  0  0  0  0  0  0  0  0
   -2.4385   -1.0059    0.7226 O   0  0  0  0  0  0  0  0  0  0  0  0
   -0.7590   -3.8164    0.1309 C   0  0  0  0  0  0  0  0  0  0  0  0
   -3.4188   -2.9207    1.4735 H   0  0  0  0  0  0  0  0  0  0  0  0
   -0.6690   -3.2277    2.2062 H   0  0  0  0  0  0  0  0  0  0  0  0
   -1.3852   -3.6613   -0.7553 H   0  0  0  0  0  0  0  0  0  0  0  0
    0.2542   -3.4843   -0.1182 H   0  0  0  0  0  0  0  0  0  0  0  0
   -0.7257   -4.8930    0.3300 H   0  0  0  0  0  0  0  0  0  0  0  0
   -0.1563   -0.9420    1.1402 N   0  0  0  0  0  0  0  0  0  0  0  0
    0.0261    0.4671    0.9001 C   0  0  2  0  0  0  0  0  0  0  0  0
    1.3884    0.8895    1.4464 C   0  0  0  0  0  0  0  0  0  0  0  0
    1.5593    1.9189    2.0964 O   0  0  0  0  0  0  0  0  0  0  0  0
   -1.1328    1.3058    1.4447 C   0  0  0  0  0  0  0  0  0  0  0  0
   -2.7232    0.9891    0.6123 S   0  0  0  0  0  0  0  0  0  0  0  0
    0.6533   -1.4855    1.4300 H   0  0  0  0  0  0  0  0  0  0  0  0
    0.0580    0.5784   -0.1909 H   0  0  0  0  0  0  0  0  0  0  0  0
   -1.2780    1.1131    2.5126 H   0  0  0  0  0  0  0  0  0  0  0  0
   -0.9087    2.3717    1.3287 H   0  0  0  0  0  0  0  0  0  0  0  0
   -3.4309    1.8653    1.3366 H   0  0  0  0  0  0  0  0  0  0  0  0
    2.3923   -0.0043    1.1016 N   0  0  0  0  0  0  0  0  0  0  0  0
    3.7699    0.1827    1.4928 C   0  0  2  0  0  0  0  0  0  0  0  0
    4.6033   -0.8926    0.8081 C   0  0  0  0  0  0  0  0  0  0  0  0
    4.1296   -1.9527    0.4044 O   0  0  0  0  0  0  0  0  0  0  0  0
    3.9303    0.1149    3.0035 C   0  0  0  0  0  0  0  0  0  0  0  0
    2.1555   -0.8488    0.5893 H   0  0  0  0  0  0  0  0  0  0  0  0
    4.0721    1.1692    1.1247 H   0  0  0  0  0  0  0  0  0  0  0  0
    3.6323   -0.8664    3.3906 H   0  0  0  0  0  0  0  0  0  0  0  0
    4.9705    0.2852    3.3001 H   0  0  0  0  0  0  0  0  0  0  0  0
    3.3074    0.8695    3.4958 H   0  0  0  0  0  0  0  0  0  0  0  0
    5.9459   -0.5477    0.7397 N   0  0  0  0  0  0  0  0  0  0  0  0
    6.9426   -1.4083    0.1465 C   0  0  0  0  0  0  0  0  0  0  0  0
    6.2468    0.3598    1.0827 H   0  0  0  0  0  0  0  0  0  0  0  0
    7.3904   -2.0429    0.9254 H   0  0  0  0  0  0  0  0  0  0  0  0
    6.4706   -2.0436   -0.6174 H   0  0  0  0  0  0  0  0  0  0  0  0
    7.7262   -0.7937   -0.3208 H   0  0  0  0  0  0  0  0  0  0  0  0
  1  3  1  0  0  0  0
  1  7  1  0  0  0  0
  1  2  2  0  0  0  0
 29 30  1  0  0  0  0
 30 38  1  0  0  0  0
 30 31  2  0  0  0  0
  8  9  1  0  0  0  0
  9 17  1  0  0  0  0
  9 10  2  0  0  0  0
 18 19  1  0  0  0  0
 19 28  1  0  0  0  0
 19 20  2  0  0  0  0
 29 32  1  0  0  0  0
  8 11  1  0  0  0  0
 38 39  1  0  0  0  0
 18 21  1  0  0  0  0
 21 22  1  0  0  0  0
 28 29  1  0  0  0  0
  7  8  1  0  0  0  0
 17 18  1  0  0  0  0
  3  4  1  0  0  0  0
  3  5  1  0  0  0  0
  3  6  1  0  0  0  0
 32 35  1  0  0  0  0
 32 36  1  0  0  0  0
 32 37  1  0  0  0  0
 11 14  1  0  0  0  0
 11 15  1  0  0  0  0
 11 16  1  0  0  0  0
 39 41  1  0  0  0  0
 39 42  1  0  0  0  0
 39 43  1  0  0  0  0
 21 25  1  0  0  0  0
 21 26  1  0  0  0  0
 29 34  1  0  0  0  0
  8 13  1  0  0  0  0
 18 24  1  0  0  0  0
 38 40  1  0  0  0  0
  7 12  1  0  0  0  0
 28 33  1  0  0  0  0
 17 23  1  0  0  0  0
 22 27  1  0  0  0  0
M  END
$$$$

  -OEChem-05262214473D

 43 42  0     1  0  0  0  0  0999 V2000
   -2.8661   -4.7415    2.2943 C   0  0  0  0  0  0  0  0  0  0  0  0
   -2.0233   -5.5727    2.6109 O   0  0  0  0  0  0  0  0  0  0  0  0
   -4.3078   -5.0134    2.5698 C   0  0  0  0  0  0  0  0  0  0  0  0
   -4.8057   -5.5295    1.7332 H   0  0  0  0  0  0  0  0  0  0  0  0
   -4.4526   -5.6688    3.4436 H   0  0  0  0  0  0  0  0  0  0  0  0
   -4.9255   -4.1233    2.7700 H   0  0  0  0  0  0  0  0  0  0  0  0
   -2.6241   -3.5219    1.6838 N   0  0  0  0  0  0  0  0  0  0  0  0
   -1.3070   -3.0608    1.3315 C   0  0  2  0  0  0  0  0  0  0  0  0
   -1.3931   -1.5680    1.0422 C   0  0  0  0  0  0  0  0  0  0  0  0
   -2.4385   -1.0059    0.7226 O   0  0  0  0  0  0  0  0  0  0  0  0
   -0.7590   -3.8164    0.1309 C   0  0  0  0  0  0  0  0  0  0  0  0
   -3.4188   -2.9207    1.4735 H   0  0  0  0  0  0  0  0  0  0  0  0
   -0.6690   -3.2277    2.2062 H   0  0  0  0  0  0  0  0  0  0  0  0
   -1.3852   -3.6613   -0.7553 H   0  0  0  0  0  0  0  0  0  0  0  0
    0.2542   -3.4843   -0.1182 H   0  0  0  0  0  0  0  0  0  0  0  0
   -0.7257   -4.8930    0.3300 H   0  0  0  0  0  0  0  0  0  0  0  0
   -0.1563   -0.9420    1.1402 N   0  0  0  0  0  0  0  0  0  0  0  0
    0.0261    0.4671    0.9001 C   0  0  2  0  0  0  0  0  0  0  0  0
    1.3884    0.8895    1.4464 C   0  0  0  0  0  0  0  0  0  0  0  0
    1.5251    1.7559    2.3079 O   0  0  0  0  0  0  0  0  0  0  0  0
   -1.1328    1.3058    1.4447 C   0  0  0  0  0  0  0  0  0  0  0  0
   -2.7232    0.9891    0.6123 S   0  0  0  0  0  0  0  0  0  0  0  0
    0.6533   -1.4855    1.4300 H   0  0  0  0  0  0  0  0  0  0  0  0
    0.0580    0.5784   -0.1909 H   0  0  0  0  0  0  0  0  0  0  0  0
   -1.2780    1.1131    2.5126 H   0  0  0  0  0  0  0  0  0  0  0  0
   -0.9087    2.3717    1.3287 H   0  0  0  0  0  0  0  0  0  0  0  0
   -3.4309    1.8653    1.3366 H   0  0  0  0  0  0  0  0  0  0  0  0
    2.4321    0.2037    0.8416 N   0  0  0  0  0  0  0  0  0  0  0  0
    3.8167    0.4349    1.1812 C   0  0  2  0  0  0  0  0  0  0  0  0
    4.6783   -0.3667    0.2145 C   0  0  0  0  0  0  0  0  0  0  0  0
    4.2639   -1.3494   -0.3968 O   0  0  0  0  0  0  0  0  0  0  0  0
    4.1062    0.0417    2.6215 C   0  0  0  0  0  0  0  0  0  0  0  0
    2.2258   -0.5216    0.1611 H   0  0  0  0  0  0  0  0  0  0  0  0
    4.0033    1.5046    1.0369 H   0  0  0  0  0  0  0  0  0  0  0  0
    3.9248   -1.0268    2.7853 H   0  0  0  0  0  0  0  0  0  0  0  0
    5.1493    0.2443    2.8861 H   0  0  0  0  0  0  0  0  0  0  0  0
    3.4647    0.5977    3.3137 H   0  0  0  0  0  0  0  0  0  0  0  0
    5.9768    0.1185    0.1474 N   0  0  0  0  0  0  0  0  0  0  0  0
    6.9902   -0.4794   -0.6903 C   0  0  0  0  0  0  0  0  0  0  0  0
    6.2275    0.9498    0.6745 H   0  0  0  0  0  0  0  0  0  0  0  0
    7.5524   -1.2260   -0.1103 H   0  0  0  0  0  0  0  0  0  0  0  0
    6.5119   -0.9686   -1.5517 H   0  0  0  0  0  0  0  0  0  0  0  0
    7.6780    0.3013   -1.0473 H   0  0  0  0  0  0  0  0  0  0  0  0
  1  3  1  0  0  0  0
  1  7  1  0  0  0  0
  1  2  2  0  0  0  0
 29 30  1  0  0  0  0
 30 38  1  0  0  0  0
 30 31  2  0  0  0  0
  8  9  1  0  0  0  0
  9 17  1  0  0  0  0
  9 10  2  0  0  0  0
 18 19  1  0  0  0  0
 19 28  1  0  0  0  0
 19 20  2  0  0  0  0
 29 32  1  0  0  0  0
  8 11  1  0  0  0  0
 38 39  1  0  0  0  0
 18 21  1  0  0  0  0
 21 22  1  0  0  0  0
 28 29  1  0  0  0  0
  7  8  1  0  0  0  0
 17 18  1  0  0  0  0
  3  4  1  0  0  0  0
  3  5  1  0  0  0  0
  3  6  1  0  0  0  0
 32 35  1  0  0  0  0
 32 36  1  0  0  0  0
 32 37  1  0  0  0  0
 11 14  1  0  0  0  0
 11 15  1  0  0  0  0
 11 16  1  0  0  0  0
 39 41  1  0  0  0  0
 39 42  1  0  0  0  0
 39 43  1  0  0  0  0
 21 25  1  0  0  0  0
 21 26  1  0  0  0  0
 29 34  1  0  0  0  0
  8 13  1  0  0  0  0
 18 24  1  0  0  0  0
 38 40  1  0  0  0  0
  7 12  1  0  0  0  0
 28 33  1  0  0  0  0
 17 23  1  0  0  0  0
 22 27  1  0  0  0  0
M  END
$$$$

  -OEChem-05262214473D

 43 42  0     1  0  0  0  0  0999 V2000
   -2.8661   -4.7415    2.2943 C   0  0  0  0  0  0  0  0  0  0  0  0
   -2.0233   -5.5727    2.6109 O   0  0  0  0  0  0  0  0  0  0  0  0
   -4.3078   -5.0134    2.5698 C   0  0  0  0  0  0  0  0  0  0  0  0
   -4.8057   -5.5295    1.7332 H   0  0  0  0  0  0  0  0  0  0  0  0
   -4.4526   -5.6688    3.4436 H   0  0  0  0  0  0  0  0  0  0  0  0
   -4.9255   -4.1233    2.7700 H   0  0  0  0  0  0  0  0  0  0  0  0
   -2.6241   -3.5219    1.6838 N   0  0  0  0  0  0  0  0  0  0  0  0
   -1.3070   -3.0608    1.3315 C   0  0  2  0  0  0  0  0  0  0  0  0
   -1.3931   -1.5680    1.0422 C   0  0  0  0  0  0  0  0  0  0  0  0
   -2.4385   -1.0059    0.7226 O   0  0  0  0  0  0  0  0  0  0  0  0
   -0.7590   -3.8164    0.1309 C   0  0  0  0  0  0  0  0  0  0  0  0
   -3.4188   -2.9207    1.4735 H   0  0  0  0  0  0  0  0  0  0  0  0
   -0.6690   -3.2277    2.2062 H   0  0  0  0  0  0  0  0  0  0  0  0
   -1.3852   -3.6613   -0.7553 H   0  0  0  0  0  0  0  0  0  0  0  0
    0.2542   -3.4843   -0.1182 H   0  0  0  0  0  0  0  0  0  0  0  0
   -0.7257   -4.8930    0.3300 H   0  0  0  0  0  0  0  0  0  0  0  0
   -0.1563   -0.9420    1.1402 N   0  0  0  0  0  0  0  0  0  0  0  0
    0.0261    0.4671    0.9001 C   0  0  2  0  0  0  0  0  0  0  0  0
    1.3884    0.8895    1.4464 C   0  0  0  0  0  0  0  0  0  0  0  0
    1.5222    1.5465    2.4769 O   0  0  0  0  0  0  0  0  0  0  0  0
   -1.1328    1.3058    1.4447 C   0  0  0  0  0  0  0  0  0  0  0  0
   -2.7232    0.9891    0.6123 S   0  0  0  0  0  0  0  0  0  0  0  0
    0.6533   -1.4855    1.4300 H   0  0  0  0  0  0  0  0  0  0  0  0
    0.0580    0.5784   -0.1909 H   0  0  0  0  0  0  0  0  0  0  0  0
   -1.2780    1.1131    2.5126 H   0  0  0  0  0  0  0  0  0  0  0  0
   -0.9087    2.3717    1.3287 H   0  0  0  0  0  0  0  0  0  0  0  0
   -3.4309    1.8653    1.3366 H   0  0  0  0  0  0  0  0  0  0  0  0
    2.4327    0.4682    0.6355 N   0  0  0  0  0  0  0  0  0  0  0  0
    3.8162    0.7547    0.9352 C   0  0  2  0  0  0  0  0  0  0  0  0
    4.6595    0.2853   -0.2429 C   0  0  0  0  0  0  0  0  0  0  0  0
    4.2803   -0.5692   -1.0410 O   0  0  0  0  0  0  0  0  0  0  0  0
    4.2555    0.0756    2.2230 C   0  0  0  0  0  0  0  0  0  0  0  0
    2.2328   -0.1003   -0.1821 H   0  0  0  0  0  0  0  0  0  0  0  0
    3.8996    1.8425    1.0344 H   0  0  0  0  0  0  0  0  0  0  0  0
    4.1788   -1.0149    2.1427 H   0  0  0  0  0  0  0  0  0  0  0  0
    5.2961    0.3169    2.4638 H   0  0  0  0  0  0  0  0  0  0  0  0
    3.6287    0.3918    3.0638 H   0  0  0  0  0  0  0  0  0  0  0  0
    5.9027    0.9017   -0.2732 N   0  0  0  0  0  0  0  0  0  0  0  0
    6.8902    0.6155   -1.2875 C   0  0  0  0  0  0  0  0  0  0  0  0
    6.1251    1.6122    0.4178 H   0  0  0  0  0  0  0  0  0  0  0  0
    7.5592   -0.1828   -0.9338 H   0  0  0  0  0  0  0  0  0  0  0  0
    6.3854    0.2893   -2.2088 H   0  0  0  0  0  0  0  0  0  0  0  0
    7.4781    1.5222   -1.4929 H   0  0  0  0  0  0  0  0  0  0  0  0
  1  3  1  0  0  0  0
  1  7  1  0  0  0  0
  1  2  2  0  0  0  0
 29 30  1  0  0  0  0
 30 38  1  0  0  0  0
 30 31  2  0  0  0  0
  8  9  1  0  0  0  0
  9 17  1  0  0  0  0
  9 10  2  0  0  0  0
 18 19  1  0  0  0  0
 19 28  1  0  0  0  0
 19 20  2  0  0  0  0
 29 32  1  0  0  0  0
  8 11  1  0  0  0  0
 38 39  1  0  0  0  0
 18 21  1  0  0  0  0
 21 22  1  0  0  0  0
 28 29  1  0  0  0  0
  7  8  1  0  0  0  0
 17 18  1  0  0  0  0
  3  4  1  0  0  0  0
  3  5  1  0  0  0  0
  3  6  1  0  0  0  0
 32 35  1  0  0  0  0
 32 36  1  0  0  0  0
 32 37  1  0  0  0  0
 11 14  1  0  0  0  0
 11 15  1  0  0  0  0
 11 16  1  0  0  0  0
 39 41  1  0  0  0  0
 39 42  1  0  0  0  0
 39 43  1  0  0  0  0
 21 25  1  0  0  0  0
 21 26  1  0  0  0  0
 29 34  1  0  0  0  0
  8 13  1  0  0  0  0
 18 24  1  0  0  0  0
 38 40  1  0  0  0  0
  7 12  1  0  0  0  0
 28 33  1  0  0  0  0
 17 23  1  0  0  0  0
 22 27  1  0  0  0  0
M  END
$$$$

  -OEChem-05262214473D

 43 42  0     1  0  0  0  0  0999 V2000
   -2.8661   -4.7415    2.2943 C   0  0  0  0  0  0  0  0  0  0  0  0
   -2.0233   -5.5727    2.6109 O   0  0  0  0  0  0  0  0  0  0  0  0
   -4.3078   -5.0134    2.5698 C   0  0  0  0  0  0  0  0  0  0  0  0
   -4.8057   -5.5295    1.7332 H   0  0  0  0  0  0  0  0  0  0  0  0
   -4.4526   -5.6688    3.4436 H   0  0  0  0  0  0  0  0  0  0  0  0
   -4.9255   -4.1233    2.7700 H   0  0  0  0  0  0  0  0  0  0  0  0
   -2.6241   -3.5219    1.6838 N   0  0  0  0  0  0  0  0  0  0  0  0
   -1.3070   -3.0608    1.3315 C   0  0  2  0  0  0  0  0  0  0  0  0
   -1.3931   -1.5680    1.0422 C   0  0  0  0  0  0  0  0  0  0  0  0
   -2.4385   -1.0059    0.7226 O   0  0  0  0  0  0  0  0  0  0  0  0
   -0.7590   -3.8164    0.1309 C   0  0  0  0  0  0  0  0  0  0  0  0
   -3.4188   -2.9207    1.4735 H   0  0  0  0  0  0  0  0  0  0  0  0
   -0.6690   -3.2277    2.2062 H   0  0  0  0  0  0  0  0  0  0  0  0
   -1.3852   -3.6613   -0.7553 H   0  0  0  0  0  0  0  0  0  0  0  0
    0.2542   -3.4843   -0.1182 H   0  0  0  0  0  0  0  0  0  0  0  0
   -0.7257   -4.8930    0.3300 H   0  0  0  0  0  0  0  0  0  0  0  0
   -0.1563   -0.9420    1.1402 N   0  0  0  0  0  0  0  0  0  0  0  0
    0.0261    0.4671    0.9001 C   0  0  2  0  0  0  0  0  0  0  0  0
    1.3884    0.8895    1.4464 C   0  0  0  0  0  0  0  0  0  0  0  0
    1.5509    1.3049    2.5920 O   0  0  0  0  0  0  0  0  0  0  0  0
   -1.1328    1.3058    1.4447 C   0  0  0  0  0  0  0  0  0  0  0  0
   -2.7232    0.9891    0.6123 S   0  0  0  0  0  0  0  0  0  0  0  0
    0.6533   -1.4855    1.4300 H   0  0  0  0  0  0  0  0  0  0  0  0
    0.0580    0.5784   -0.1909 H   0  0  0  0  0  0  0  0  0  0  0  0
   -1.2780    1.1131    2.5126 H   0  0  0  0  0  0  0  0  0  0  0  0
   -0.9087    2.3717    1.3287 H   0  0  0  0  0  0  0  0  0  0  0  0
   -3.4309    1.8653    1.3366 H   0  0  0  0  0  0  0  0  0  0  0  0
    2.3940    0.7714    0.4976 N   0  0  0  0  0  0  0  0  0  0  0  0
    3.7684    1.1204    0.7715 C   0  0  2  0  0  0  0  0  0  0  0  0
    4.5483    1.0190   -0.5328 C   0  0  0  0  0  0  0  0  0  0  0  0
    4.1779    0.3345   -1.4843 O   0  0  0  0  0  0  0  0  0  0  0  0
    4.3681    0.2141    1.8352 C   0  0  0  0  0  0  0  0  0  0  0  0
    2.1760    0.3866   -0.4168 H   0  0  0  0  0  0  0  0  0  0  0  0
    3.7679    2.1598    1.1174 H   0  0  0  0  0  0  0  0  0  0  0  0
    4.3771   -0.8316    1.5066 H   0  0  0  0  0  0  0  0  0  0  0  0
    5.4009    0.4981    2.0623 H   0  0  0  0  0  0  0  0  0  0  0  0
    3.7884    0.2657    2.7632 H   0  0  0  0  0  0  0  0  0  0  0  0
    5.7284    1.7483   -0.4933 N   0  0  0  0  0  0  0  0  0  0  0  0
    6.6495    1.8016   -1.6045 C   0  0  0  0  0  0  0  0  0  0  0  0
    5.9464    2.3018    0.3300 H   0  0  0  0  0  0  0  0  0  0  0  0
    7.4102    1.0155   -1.4888 H   0  0  0  0  0  0  0  0  0  0  0  0
    6.0998    1.6443   -2.5442 H   0  0  0  0  0  0  0  0  0  0  0  0
    7.1401    2.7859   -1.6270 H   0  0  0  0  0  0  0  0  0  0  0  0
  1  3  1  0  0  0  0
  1  7  1  0  0  0  0
  1  2  2  0  0  0  0
 29 30  1  0  0  0  0
 30 38  1  0  0  0  0
 30 31  2  0  0  0  0
  8  9  1  0  0  0  0
  9 17  1  0  0  0  0
  9 10  2  0  0  0  0
 18 19  1  0  0  0  0
 19 28  1  0  0  0  0
 19 20  2  0  0  0  0
 29 32  1  0  0  0  0
  8 11  1  0  0  0  0
 38 39  1  0  0  0  0
 18 21  1  0  0  0  0
 21 22  1  0  0  0  0
 28 29  1  0  0  0  0
  7  8  1  0  0  0  0
 17 18  1  0  0  0  0
  3  4  1  0  0  0  0
  3  5  1  0  0  0  0
  3  6  1  0  0  0  0
 32 35  1  0  0  0  0
 32 36  1  0  0  0  0
 32 37  1  0  0  0  0
 11 14  1  0  0  0  0
 11 15  1  0  0  0  0
 11 16  1  0  0  0  0
 39 41  1  0  0  0  0
 39 42  1  0  0  0  0
 39 43  1  0  0  0  0
 21 25  1  0  0  0  0
 21 26  1  0  0  0  0
 29 34  1  0  0  0  0
  8 13  1  0  0  0  0
 18 24  1  0  0  0  0
 38 40  1  0  0  0  0
  7 12  1  0  0  0  0
 28 33  1  0  0  0  0
 17 23  1  0  0  0  0
 22 27  1  0  0  0  0
M  END
$$$$

  -OEChem-05262214473D

 43 42  0     1  0  0  0  0  0999 V2000
   -2.8661   -4.7415    2.2943 C   0  0  0  0  0  0  0  0  0  0  0  0
   -2.0233   -5.5727    2.6109 O   0  0  0  0  0  0  0  0  0  0  0  0
   -4.3078   -5.0134    2.5698 C   0  0  0  0  0  0  0  0  0  0  0  0
   -4.8057   -5.5295    1.7332 H   0  0  0  0  0  0  0  0  0  0  0  0
   -4.4526   -5.6688    3.4436 H   0  0  0  0  0  0  0  0  0  0  0  0
   -4.9255   -4.1233    2.7700 H   0  0  0  0  0  0  0  0  0  0  0  0
   -2.6241   -3.5219    1.6838 N   0  0  0  0  0  0  0  0  0  0  0  0
   -1.3070   -3.0608    1.3315 C   0  0  2  0  0  0  0  0  0  0  0  0
   -1.3931   -1.5680    1.0422 C   0  0  0  0  0  0  0  0  0  0  0  0
   -2.4385   -1.0059    0.7226 O   0  0  0  0  0  0  0  0  0  0  0  0
   -0.7590   -3.8164    0.1309 C   0  0  0  0  0  0  0  0  0  0  0  0
   -3.4188   -2.9207    1.4735 H   0  0  0  0  0  0  0  0  0  0  0  0
   -0.6690   -3.2277    2.2062 H   0  0  0  0  0  0  0  0  0  0  0  0
   -1.3852   -3.6613   -0.7553 H   0  0  0  0  0  0  0  0  0  0  0  0
    0.2542   -3.4843   -0.1182 H   0  0  0  0  0  0  0  0  0  0  0  0
   -0.7257   -4.8930    0.3300 H   0  0  0  0  0  0  0  0  0  0  0  0
   -0.1563   -0.9420    1.1402 N   0  0  0  0  0  0  0  0  0  0  0  0
    0.0261    0.4671    0.9001 C   0  0  2  0  0  0  0  0  0  0  0  0
    1.3884    0.8895    1.4464 C   0  0  0  0  0  0  0  0  0  0  0  0
    1.6093    1.0477    2.6454 O   0  0  0  0  0  0  0  0  0  0  0  0
   -1.1328    1.3058    1.4447 C   0  0  0  0  0  0  0  0  0  0  0  0
   -2.7232    0.9891    0.6123 S   0  0  0  0  0  0  0  0  0  0  0  0
    0.6533   -1.4855    1.4300 H   0  0  0  0  0  0  0  0  0  0  0  0
    0.0580    0.5784   -0.1909 H   0  0  0  0  0  0  0  0  0  0  0  0
   -1.2780    1.1131    2.5126 H   0  0  0  0  0  0  0  0  0  0  0  0
   -0.9087    2.3717    1.3287 H   0  0  0  0  0  0  0  0  0  0  0  0
   -3.4309    1.8653    1.3366 H   0  0  0  0  0  0  0  0  0  0  0  0
    2.3187    1.0925    0.4370 N   0  0  0  0  0  0  0  0  0  0  0  0
    3.6768    1.5071    0.7011 C   0  0  2  0  0  0  0  0  0  0  0  0
    4.3522    1.7842   -0.6355 C   0  0  0  0  0  0  0  0  0  0  0  0
    3.9635    1.3004   -1.6966 O   0  0  0  0  0  0  0  0  0  0  0  0
    4.4362    0.4478    1.4846 C   0  0  0  0  0  0  0  0  0  0  0  0
    2.0592    0.9058   -0.5270 H   0  0  0  0  0  0  0  0  0  0  0  0
    3.6173    2.4350    1.2803 H   0  0  0  0  0  0  0  0  0  0  0  0
    4.5061   -0.4893    0.9202 H   0  0  0  0  0  0  0  0  0  0  0  0
    5.4567    0.7755    1.7087 H   0  0  0  0  0  0  0  0  0  0  0  0
    3.9327    0.2282    2.4323 H   0  0  0  0  0  0  0  0  0  0  0  0
    5.4660    2.6008   -0.4980 N   0  0  0  0  0  0  0  0  0  0  0  0
    6.2846    2.9982   -1.6196 C   0  0  0  0  0  0  0  0  0  0  0  0
    5.7038    2.9716    0.4173 H   0  0  0  0  0  0  0  0  0  0  0  0
    7.1157    2.2874   -1.7377 H   0  0  0  0  0  0  0  0  0  0  0  0
    5.6744    3.0041   -2.5348 H   0  0  0  0  0  0  0  0  0  0  0  0
    6.6870    4.0062   -1.4407 H   0  0  0  0  0  0  0  0  0  0  0  0
  1  3  1  0  0  0  0
  1  7  1  0  0  0  0
  1  2  2  0  0  0  0
 29 30  1  0  0  0  0
 30 38  1  0  0  0  0
 30 31  2  0  0  0  0
  8  9  1  0  0  0  0
  9 17  1  0  0  0  0
  9 10  2  0  0  0  0
 18 19  1  0  0  0  0
 19 28  1  0  0  0  0
 19 20  2  0  0  0  0
 29 32  1  0  0  0  0
  8 11  1  0  0  0  0
 38 39  1  0  0  0  0
 18 21  1  0  0  0  0
 21 22  1  0  0  0  0
 28 29  1  0  0  0  0
  7  8  1  0  0  0  0
 17 18  1  0  0  0  0
  3  4  1  0  0  0  0
  3  5  1  0  0  0  0
  3  6  1  0  0  0  0
 32 35  1  0  0  0  0
 32 36  1  0  0  0  0
 32 37  1  0  0  0  0
 11 14  1  0  0  0  0
 11 15  1  0  0  0  0
 11 16  1  0  0  0  0
 39 41  1  0  0  0  0
 39 42  1  0  0  0  0
 39 43  1  0  0  0  0
 21 25  1  0  0  0  0
 21 26  1  0  0  0  0
 29 34  1  0  0  0  0
  8 13  1  0  0  0  0
 18 24  1  0  0  0  0
 38 40  1  0  0  0  0
  7 12  1  0  0  0  0
 28 33  1  0  0  0  0
 17 23  1  0  0  0  0
 22 27  1  0  0  0  0
M  END
$$$$

  -OEChem-05262214473D

 43 42  0     1  0  0  0  0  0999 V2000
   -2.8661   -4.7415    2.2943 C   0  0  0  0  0  0  0  0  0  0  0  0
   -2.0233   -5.5727    2.6109 O   0  0  0  0  0  0  0  0  0  0  0  0
   -4.3078   -5.0134    2.5698 C   0  0  0  0  0  0  0  0  0  0  0  0
   -4.8057   -5.5295    1.7332 H   0  0  0  0  0  0  0  0  0  0  0  0
   -4.4526   -5.6688    3.4436 H   0  0  0  0  0  0  0  0  0  0  0  0
   -4.9255   -4.1233    2.7700 H   0  0  0  0  0  0  0  0  0  0  0  0
   -2.6241   -3.5219    1.6838 N   0  0  0  0  0  0  0  0  0  0  0  0
   -1.3070   -3.0608    1.3315 C   0  0  2  0  0  0  0  0  0  0  0  0
   -1.3931   -1.5680    1.0422 C   0  0  0  0  0  0  0  0  0  0  0  0
   -2.4385   -1.0059    0.7226 O   0  0  0  0  0  0  0  0  0  0  0  0
   -0.7590   -3.8164    0.1309 C   0  0  0  0  0  0  0  0  0  0  0  0
   -3.4188   -2.9207    1.4735 H   0  0  0  0  0  0  0  0  0  0  0  0
   -0.6690   -3.2277    2.2062 H   0  0  0  0  0  0  0  0  0  0  0  0
   -1.3852   -3.6613   -0.7553 H   0  0  0  0  0  0  0  0  0  0  0  0
    0.2542   -3.4843   -0.1182 H   0  0  0  0  0  0  0  0  0  0  0  0
   -0.7257   -4.8930    0.3300 H   0  0  0  0  0  0  0  0  0  0  0  0
   -0.1563   -0.9420    1.1402 N   0  0  0  0  0  0  0  0  0  0  0  0
    0.0261    0.4671    0.9001 C   0  0  2  0  0  0  0  0  0  0  0  0
    1.3884    0.8895    1.4464 C   0  0  0  0  0  0  0  0  0  0  0  0
    1.6933    0.7922    2.6334 O   0  0  0  0  0  0  0  0  0  0  0  0
   -1.1328    1.3058    1.4447 C   0  0  0  0  0  0  0  0  0  0  0  0
   -2.7232    0.9891    0.6123 S   0  0  0  0  0  0  0  0  0  0  0  0
    0.6533   -1.4855    1.4300 H   0  0  0  0  0  0  0  0  0  0  0  0
    0.0580    0.5784   -0.1909 H   0  0  0  0  0  0  0  0  0  0  0  0
   -1.2780    1.1131    2.5126 H   0  0  0  0  0  0  0  0  0  0  0  0
   -0.9087    2.3717    1.3287 H   0  0  0  0  0  0  0  0  0  0  0  0
   -3.4309    1.8653    1.3366 H   0  0  0  0  0  0  0  0  0  0  0  0
    2.2120    1.4097    0.4581 N   0  0  0  0  0  0  0  0  0  0  0  0
    3.5474    1.8883    0.7290 C   0  0  2  0  0  0  0  0  0  0  0  0
    4.0846    2.5290   -0.5440 C   0  0  0  0  0  0  0  0  0  0  0  0
    3.6519    2.2625   -1.6633 O   0  0  0  0  0  0  0  0  0  0  0  0
    4.4553    0.7608    1.1950 C   0  0  0  0  0  0  0  0  0  0  0  0
    1.8904    1.4220   -0.5053 H   0  0  0  0  0  0  0  0  0  0  0  0
    3.4579    2.6492    1.5119 H   0  0  0  0  0  0  0  0  0  0  0  0
    4.5571   -0.0114    0.4236 H   0  0  0  0  0  0  0  0  0  0  0  0
    5.4596    1.1303    1.4272 H   0  0  0  0  0  0  0  0  0  0  0  0
    4.0519    0.2817    2.0936 H   0  0  0  0  0  0  0  0  0  0  0  0
    5.1332    3.4011   -0.2869 N   0  0  0  0  0  0  0  0  0  0  0  0
    5.8202    4.1238   -1.3318 C   0  0  0  0  0  0  0  0  0  0  0  0
    5.4136    3.5760    0.6736 H   0  0  0  0  0  0  0  0  0  0  0  0
    6.6956    3.5461   -1.6633 H   0  0  0  0  0  0  0  0  0  0  0  0
    5.1383    4.2760   -2.1814 H   0  0  0  0  0  0  0  0  0  0  0  0
    6.1497    5.1000   -0.9466 H   0  0  0  0  0  0  0  0  0  0  0  0
  1  3  1  0  0  0  0
  1  7  1  0  0  0  0
  1  2  2  0  0  0  0
 29 30  1  0  0  0  0
 30 38  1  0  0  0  0
 30 31  2  0  0  0  0
  8  9  1  0  0  0  0
  9 17  1  0  0  0  0
  9 10  2  0  0  0  0
 18 19  1  0  0  0  0
 19 28  1  0  0  0  0
 19 20  2  0  0  0  0
 29 32  1  0  0  0  0
  8 11  1  0  0  0  0
 38 39  1  0  0  0  0
 18 21  1  0  0  0  0
 21 22  1  0  0  0  0
 28 29  1  0  0  0  0
  7  8  1  0  0  0  0
 17 18  1  0  0  0  0
  3  4  1  0  0  0  0
  3  5  1  0  0  0  0
  3  6  1  0  0  0  0
 32 35  1  0  0  0  0
 32 36  1  0  0  0  0
 32 37  1  0  0  0  0
 11 14  1  0  0  0  0
 11 15  1  0  0  0  0
 11 16  1  0  0  0  0
 39 41  1  0  0  0  0
 39 42  1  0  0  0  0
 39 43  1  0  0  0  0
 21 25  1  0  0  0  0
 21 26  1  0  0  0  0
 29 34  1  0  0  0  0
  8 13  1  0  0  0  0
 18 24  1  0  0  0  0
 38 40  1  0  0  0  0
  7 12  1  0  0  0  0
 28 33  1  0  0  0  0
 17 23  1  0  0  0  0
 22 27  1  0  0  0  0
M  END
$$$$

  -OEChem-05262214473D

 43 42  0     1  0  0  0  0  0999 V2000
   -2.8661   -4.7415    2.2943 C   0  0  0  0  0  0  0  0  0  0  0  0
   -2.0233   -5.5727    2.6109 O   0  0  0  0  0  0  0  0  0  0  0  0
   -4.3078   -5.0134    2.5698 C   0  0  0  0  0  0  0  0  0  0  0  0
   -4.8057   -5.5295    1.7332 H   0  0  0  0  0  0  0  0  0  0  0  0
   -4.4526   -5.6688    3.4436 H   0  0  0  0  0  0  0  0  0  0  0  0
   -4.9255   -4.1233    2.7700 H   0  0  0  0  0  0  0  0  0  0  0  0
   -2.6241   -3.5219    1.6838 N   0  0  0  0  0  0  0  0  0  0  0  0
   -1.3070   -3.0608    1.3315 C   0  0  2  0  0  0  0  0  0  0  0  0
   -1.3931   -1.5680    1.0422 C   0  0  0  0  0  0  0  0  0  0  0  0
   -2.4385   -1.0059    0.7226 O   0  0  0  0  0  0  0  0  0  0  0  0
   -0.7590   -3.8164    0.1309 C   0  0  0  0  0  0  0  0  0  0  0  0
   -3.4188   -2.9207    1.4735 H   0  0  0  0  0  0  0  0  0  0  0  0
   -0.6690   -3.2277    2.2062 H   0  0  0  0  0  0  0  0  0  0  0  0
   -1.3852   -3.6613   -0.7553 H   0  0  0  0  0  0  0  0  0  0  0  0
    0.2542   -3.4843   -0.1182 H   0  0  0  0  0  0  0  0  0  0  0  0
   -0.7257   -4.8930    0.3300 H   0  0  0  0  0  0  0  0  0  0  0  0
   -0.1563   -0.9420    1.1402 N   0  0  0  0  0  0  0  0  0  0  0  0
    0.0261    0.4671    0.9001 C   0  0  2  0  0  0  0  0  0  0  0  0
    1.3884    0.8895    1.4464 C   0  0  0  0  0  0  0  0  0  0  0  0
    1.7972    0.5561    2.5569 O   0  0  0  0  0  0  0  0  0  0  0  0
   -1.1328    1.3058    1.4447 C   0  0  0  0  0  0  0  0  0  0  0  0
   -2.7232    0.9891    0.6123 S   0  0  0  0  0  0  0  0  0  0  0  0
    0.6533   -1.4855    1.4300 H   0  0  0  0  0  0  0  0  0  0  0  0
    0.0580    0.5784   -0.1909 H   0  0  0  0  0  0  0  0  0  0  0  0
   -1.2780    1.1131    2.5126 H   0  0  0  0  0  0  0  0  0  0  0  0
   -0.9087    2.3717    1.3287 H   0  0  0  0  0  0  0  0  0  0  0  0
   -3.4309    1.8653    1.3366 H   0  0  0  0  0  0  0  0  0  0  0  0
    2.0809    1.7013    0.5593 N   0  0  0  0  0  0  0  0  0  0  0  0
    3.3891    2.2381    0.8532 C   0  0  2  0  0  0  0  0  0  0  0  0
    3.7637    3.2024   -0.2645 C   0  0  0  0  0  0  0  0  0  0  0  0
    3.2641    3.1552   -1.3867 O   0  0  0  0  0  0  0  0  0  0  0  0
    4.4241    1.1317    0.9861 C   0  0  0  0  0  0  0  0  0  0  0  0
    1.6812    1.8999   -0.3531 H   0  0  0  0  0  0  0  0  0  0  0  0
    3.3008    2.7880    1.7965 H   0  0  0  0  0  0  0  0  0  0  0  0
    4.5265    0.5696    0.0506 H   0  0  0  0  0  0  0  0  0  0  0  0
    5.4094    1.5382    1.2370 H   0  0  0  0  0  0  0  0  0  0  0  0
    4.1379    0.4226    1.7703 H   0  0  0  0  0  0  0  0  0  0  0  0
    4.7528    4.0945    0.1255 N   0  0  0  0  0  0  0  0  0  0  0  0
    5.2880    5.1015   -0.7607 C   0  0  0  0  0  0  0  0  0  0  0  0
    5.0957    4.0737    1.0814 H   0  0  0  0  0  0  0  0  0  0  0  0
    6.1786    4.7058   -1.2709 H   0  0  0  0  0  0  0  0  0  0  0  0
    4.5280    5.3734   -1.5081 H   0  0  0  0  0  0  0  0  0  0  0  0
    5.5648    5.9927   -0.1783 H   0  0  0  0  0  0  0  0  0  0  0  0
  1  3  1  0  0  0  0
  1  7  1  0  0  0  0
  1  2  2  0  0  0  0
 29 30  1  0  0  0  0
 30 38  1  0  0  0  0
 30 31  2  0  0  0  0
  8  9  1  0  0  0  0
  9 17  1  0  0  0  0
  9 10  2  0  0  0  0
 18 19  1  0  0  0  0
 19 28  1  0  0  0  0
 19 20  2  0  0  0  0
 29 32  1  0  0  0  0
  8 11  1  0  0  0  0
 38 39  1  0  0  0  0
 18 21  1  0  0  0  0
 21 22  1  0  0  0  0
 28 29  1  0  0  0  0
  7  8  1  0  0  0  0
 17 18  1  0  0  0  0
  3  4  1  0  0  0  0
  3  5  1  0  0  0  0
  3  6  1  0  0  0  0
 32 35  1  0  0  0  0
 32 36  1  0  0  0  0
 32 37  1  0  0  0  0
 11 14  1  0  0  0  0
 11 15  1  0  0  0  0
 11 16  1  0  0  0  0
 39 41  1  0  0  0  0
 39 42  1  0  0  0  0
 39 43  1  0  0  0  0
 21 25  1  0  0  0  0
 21 26  1  0  0  0  0
 29 34  1  0  0  0  0
  8 13  1  0  0  0  0
 18 24  1  0  0  0  0
 38 40  1  0  0  0  0
  7 12  1  0  0  0  0
 28 33  1  0  0  0  0
 17 23  1  0  0  0  0
 22 27  1  0  0  0  0
M  END
$$$$

  -OEChem-05262214473D

 43 42  0     1  0  0  0  0  0999 V2000
   -2.8661   -4.7415    2.2943 C   0  0  0  0  0  0  0  0  0  0  0  0
   -2.0233   -5.5727    2.6109 O   0  0  0  0  0  0  0  0  0  0  0  0
   -4.3078   -5.0134    2.5698 C   0  0  0  0  0  0  0  0  0  0  0  0
   -4.8057   -5.5295    1.7332 H   0  0  0  0  0  0  0  0  0  0  0  0
   -4.4526   -5.6688    3.4436 H   0  0  0  0  0  0  0  0  0  0  0  0
   -4.9255   -4.1233    2.7700 H   0  0  0  0  0  0  0  0  0  0  0  0
   -2.6241   -3.5219    1.6838 N   0  0  0  0  0  0  0  0  0  0  0  0
   -1.3070   -3.0608    1.3315 C   0  0  2  0  0  0  0  0  0  0  0  0
   -1.3931   -1.5680    1.0422 C   0  0  0  0  0  0  0  0  0  0  0  0
   -2.4385   -1.0059    0.7226 O   0  0  0  0  0  0  0  0  0  0  0  0
   -0.7590   -3.8164    0.1309 C   0  0  0  0  0  0  0  0  0  0  0  0
   -3.4188   -2.9207    1.4735 H   0  0  0  0  0  0  0  0  0  0  0  0
   -0.6690   -3.2277    2.2062 H   0  0  0  0  0  0  0  0  0  0  0  0
   -1.3852   -3.6613   -0.7553 H   0  0  0  0  0  0  0  0  0  0  0  0
    0.2542   -3.4843   -0.1182 H   0  0  0  0  0  0  0  0  0  0  0  0
   -0.7257   -4.8930    0.3300 H   0  0  0  0  0  0  0  0  0  0  0  0
   -0.1563   -0.9420    1.1402 N   0  0  0  0  0  0  0  0  0  0  0  0
    0.0261    0.4671    0.9001 C   0  0  2  0  0  0  0  0  0  0  0  0
    1.3884    0.8895    1.4464 C   0  0  0  0  0  0  0  0  0  0  0  0
    1.9140    0.3553    2.4210 O   0  0  0  0  0  0  0  0  0  0  0  0
   -1.1328    1.3058    1.4447 C   0  0  0  0  0  0  0  0  0  0  0  0
   -2.7232    0.9891    0.6123 S   0  0  0  0  0  0  0  0  0  0  0  0
    0.6533   -1.4855    1.4300 H   0  0  0  0  0  0  0  0  0  0  0  0
    0.0580    0.5784   -0.1909 H   0  0  0  0  0  0  0  0  0  0  0  0
   -1.2780    1.1131    2.5126 H   0  0  0  0  0  0  0  0  0  0  0  0
   -0.9087    2.3717    1.3287 H   0  0  0  0  0  0  0  0  0  0  0  0
   -3.4309    1.8653    1.3366 H   0  0  0  0  0  0  0  0  0  0  0  0
    1.9346    1.9475    0.7338 N   0  0  0  0  0  0  0  0  0  0  0  0
    3.2128    2.5326    1.0652 C   0  0  2  0  0  0  0  0  0  0  0  0
    3.4114    3.7587    0.1838 C   0  0  0  0  0  0  0  0  0  0  0  0
    2.8268    3.9178   -0.8857 O   0  0  0  0  0  0  0  0  0  0  0  0
    4.3446    1.5354    0.8722 C   0  0  0  0  0  0  0  0  0  0  0  0
    1.4457    2.3070   -0.0807 H   0  0  0  0  0  0  0  0  0  0  0  0
    3.1565    2.8417    2.1146 H   0  0  0  0  0  0  0  0  0  0  0  0
    4.4165    1.2141   -0.1733 H   0  0  0  0  0  0  0  0  0  0  0  0
    5.3095    1.9715    1.1511 H   0  0  0  0  0  0  0  0  0  0  0  0
    4.1848    0.6412    1.4844 H   0  0  0  0  0  0  0  0  0  0  0  0
    4.3507    4.6339    0.7112 N   0  0  0  0  0  0  0  0  0  0  0  0
    4.7243    5.8649    0.0546 C   0  0  0  0  0  0  0  0  0  0  0  0
    4.7718    4.4310    1.6130 H   0  0  0  0  0  0  0  0  0  0  0  0
    5.6000    5.6876   -0.5871 H   0  0  0  0  0  0  0  0  0  0  0  0
    3.8851    6.2215   -0.5606 H   0  0  0  0  0  0  0  0  0  0  0  0
    4.9722    6.6234    0.8117 H   0  0  0  0  0  0  0  0  0  0  0  0
  1  3  1  0  0  0  0
  1  7  1  0  0  0  0
  1  2  2  0  0  0  0
 29 30  1  0  0  0  0
 30 38  1  0  0  0  0
 30 31  2  0  0  0  0
  8  9  1  0  0  0  0
  9 17  1  0  0  0  0
  9 10  2  0  0  0  0
 18 19  1  0  0  0  0
 19 28  1  0  0  0  0
 19 20  2  0  0  0  0
 29 32  1  0  0  0  0
  8 11  1  0  0  0  0
 38 39  1  0  0  0  0
 18 21  1  0  0  0  0
 21 22  1  0  0  0  0
 28 29  1  0  0  0  0
  7  8  1  0  0  0  0
 17 18  1  0  0  0  0
  3  4  1  0  0  0  0
  3  5  1  0  0  0  0
  3  6  1  0  0  0  0
 32 35  1  0  0  0  0
 32 36  1  0  0  0  0
 32 37  1  0  0  0  0
 11 14  1  0  0  0  0
 11 15  1  0  0  0  0
 11 16  1  0  0  0  0
 39 41  1  0  0  0  0
 39 42  1  0  0  0  0
 39 43  1  0  0  0  0
 21 25  1  0  0  0  0
 21 26  1  0  0  0  0
 29 34  1  0  0  0  0
  8 13  1  0  0  0  0
 18 24  1  0  0  0  0
 38 40  1  0  0  0  0
  7 12  1  0  0  0  0
 28 33  1  0  0  0  0
 17 23  1  0  0  0  0
 22 27  1  0  0  0  0
M  END
$$$$

  -OEChem-05262214473D

 43 42  0     1  0  0  0  0  0999 V2000
   -2.8661   -4.7415    2.2943 C   0  0  0  0  0  0  0  0  0  0  0  0
   -2.0233   -5.5727    2.6109 O   0  0  0  0  0  0  0  0  0  0  0  0
   -4.3078   -5.0134    2.5698 C   0  0  0  0  0  0  0  0  0  0  0  0
   -4.8057   -5.5295    1.7332 H   0  0  0  0  0  0  0  0  0  0  0  0
   -4.4526   -5.6688    3.4436 H   0  0  0  0  0  0  0  0  0  0  0  0
   -4.9255   -4.1233    2.7700 H   0  0  0  0  0  0  0  0  0  0  0  0
   -2.6241   -3.5219    1.6838 N   0  0  0  0  0  0  0  0  0  0  0  0
   -1.3070   -3.0608    1.3315 C   0  0  2  0  0  0  0  0  0  0  0  0
   -1.3931   -1.5680    1.0422 C   0  0  0  0  0  0  0  0  0  0  0  0
   -2.4385   -1.0059    0.7226 O   0  0  0  0  0  0  0  0  0  0  0  0
   -0.7590   -3.8164    0.1309 C   0  0  0  0  0  0  0  0  0  0  0  0
   -3.4188   -2.9207    1.4735 H   0  0  0  0  0  0  0  0  0  0  0  0
   -0.6690   -3.2277    2.2062 H   0  0  0  0  0  0  0  0  0  0  0  0
   -1.3852   -3.6613   -0.7553 H   0  0  0  0  0  0  0  0  0  0  0  0
    0.2542   -3.4843   -0.1182 H   0  0  0  0  0  0  0  0  0  0  0  0
   -0.7257   -4.8930    0.3300 H   0  0  0  0  0  0  0  0  0  0  0  0
   -0.1563   -0.9420    1.1402 N   0  0  0  0  0  0  0  0  0  0  0  0
    0.0261    0.4671    0.9001 C   0  0  2  0  0  0  0  0  0  0  0  0
    1.3884    0.8895    1.4464 C   0  0  0  0  0  0  0  0  0  0  0  0
    2.0357    0.2035    2.2349 O   0  0  0  0  0  0  0  0  0  0  0  0
   -1.1328    1.3058    1.4447 C   0  0  0  0  0  0  0  0  0  0  0  0
   -2.7232    0.9891    0.6123 S   0  0  0  0  0  0  0  0  0  0  0  0
    0.6533   -1.4855    1.4300 H   0  0  0  0  0  0  0  0  0  0  0  0
    0.0580    0.5784   -0.1909 H   0  0  0  0  0  0  0  0  0  0  0  0
   -1.2780    1.1131    2.5126 H   0  0  0  0  0  0  0  0  0  0  0  0
   -0.9087    2.3717    1.3287 H   0  0  0  0  0  0  0  0  0  0  0  0
   -3.4309    1.8653    1.3366 H   0  0  0  0  0  0  0  0  0  0  0  0
    1.7830    2.1315    0.9696 N   0  0  0  0  0  0  0  0  0  0  0  0
    3.0303    2.7519    1.3506 C   0  0  2  0  0  0  0  0  0  0  0  0
    3.0517    4.1599    0.7706 C   0  0  0  0  0  0  0  0  0  0  0  0
    2.3695    4.4983   -0.1944 O   0  0  0  0  0  0  0  0  0  0  0  0
    4.2223    1.9442    0.8611 C   0  0  0  0  0  0  0  0  0  0  0  0
    1.2001    2.6156    0.2932 H   0  0  0  0  0  0  0  0  0  0  0  0
    3.0350    2.8069    2.4447 H   0  0  0  0  0  0  0  0  0  0  0  0
    4.2345    1.8782   -0.2330 H   0  0  0  0  0  0  0  0  0  0  0  0
    5.1668    2.4006    1.1752 H   0  0  0  0  0  0  0  0  0  0  0  0
    4.1893    0.9228    1.2553 H   0  0  0  0  0  0  0  0  0  0  0  0
    3.9542    4.9824    1.4302 N   0  0  0  0  0  0  0  0  0  0  0  0
    4.1675    6.3618    1.0588 C   0  0  0  0  0  0  0  0  0  0  0  0
    4.4638    4.6233    2.2321 H   0  0  0  0  0  0  0  0  0  0  0  0
    4.9991    6.4245    0.3415 H   0  0  0  0  0  0  0  0  0  0  0  0
    3.2534    6.7624    0.5963 H   0  0  0  0  0  0  0  0  0  0  0  0
    4.4123    6.9493    1.9560 H   0  0  0  0  0  0  0  0  0  0  0  0
  1  3  1  0  0  0  0
  1  7  1  0  0  0  0
  1  2  2  0  0  0  0
 29 30  1  0  0  0  0
 30 38  1  0  0  0  0
 30 31  2  0  0  0  0
  8  9  1  0  0  0  0
  9 17  1  0  0  0  0
  9 10  2  0  0  0  0
 18 19  1  0  0  0  0
 19 28  1  0  0  0  0
 19 20  2  0  0  0  0
 29 32  1  0  0  0  0
  8 11  1  0  0  0  0
 38 39  1  0  0  0  0
 18 21  1  0  0  0  0
 21 22  1  0  0  0  0
 28 29  1  0  0  0  0
  7  8  1  0  0  0  0
 17 18  1  0  0  0  0
  3  4  1  0  0  0  0
  3  5  1  0  0  0  0
  3  6  1  0  0  0  0
 32 35  1  0  0  0  0
 32 36  1  0  0  0  0
 32 37  1  0  0  0  0
 11 14  1  0  0  0  0
 11 15  1  0  0  0  0
 11 16  1  0  0  0  0
 39 41  1  0  0  0  0
 39 42  1  0  0  0  0
 39 43  1  0  0  0  0
 21 25  1  0  0  0  0
 21 26  1  0  0  0  0
 29 34  1  0  0  0  0
  8 13  1  0  0  0  0
 18 24  1  0  0  0  0
 38 40  1  0  0  0  0
  7 12  1  0  0  0  0
 28 33  1  0  0  0  0
 17 23  1  0  0  0  0
 22 27  1  0  0  0  0
M  END
$$$$
