@<TRIPOS>MOLECULE
default_name
   23    22     1     0     0
SMALL
No Charge or Current Charge


@<TRIPOS>ATOM
      1 H1          25.9730    25.1740    24.5440 H          1 ACE       0.112300
      2 CH3         25.9970    26.1950    24.1650 C.3        1 ACE      -0.366200
      3 H2          25.3930    26.8370    24.8050 H          1 ACE       0.112300
      4 H3          25.6110    26.2170    23.1480 H          1 ACE       0.112300
      5 C           27.4250    26.6860    24.1690 C.2        1 ACE       0.597200
      6 O           28.3260    25.9560    24.5590 O.2        1 ACE      -0.567900
      7 N           27.6310    27.9260    23.7320 N.am       2 CYS      -0.415700
      8 H           26.8350    28.4820    23.4540 H          2 CYS       0.271900
      9 CA          28.9300    28.6010    23.7160 C.3        2 CYS       0.021300
     10 HA          29.4920    28.3020    24.6030 H          2 CYS       0.112400
     11 CB          29.7050    28.1390    22.4710 C.3        2 CYS      -0.123100
     12 HB2         29.7190    27.0470    22.4490 H          2 CYS       0.111200
     13 HB3         29.2010    28.5020    21.5730 H          2 CYS       0.111200
     14 SG          31.4190    28.7410    22.5030 S.3        2 CYS      -0.311900
     15 HG          31.8400    28.1000    21.4060 H          2 CYS       0.193300
     16 C           28.7340    30.1300    23.7680 C.2        2 CYS       0.597300
     17 O           27.6580    30.6230    23.4280 O.2        2 CYS      -0.567900
     18 N           29.7590    30.8760    24.1960 N.am       3 NME      -0.415700
     19 H           30.6270    30.4000    24.3950 H          3 NME       0.271900
     20 CH3         29.7280    32.3330    24.3100 C.3        3 NME      -0.149000
     21 HH31        28.8350    32.6420    24.8580 H          3 NME       0.097600
     22 HH32        30.6140    32.6890    24.8370 H          3 NME       0.097600
     23 HH33        29.6970    32.7780    23.3140 H          3 NME       0.097600
@<TRIPOS>BOND
     1     5     6 2   
     2     5     7 am  
     3     2     3 1   
     4     2     4 1   
     5     2     5 1   
     6     1     2 1   
     7    16    17 2   
     8    16    18 am  
     9    14    15 1   
    10    11    12 1   
    11    11    13 1   
    12    11    14 1   
    13     9    10 1   
    14     9    11 1   
    15     9    16 1   
    16     7     8 1   
    17     7     9 1   
    18    20    21 1   
    19    20    22 1   
    20    20    23 1   
    21    18    19 1   
    22    18    20 1   
@<TRIPOS>SUBSTRUCTURE
     1 ACE         1 TEMP              0 ****  ****    0 ROOT
