@<TRIPOS>MOLECULE
default_name
   22    21     1     0     0
SMALL
No Charge or Current Charge


@<TRIPOS>ATOM
      1 N           27.4470    25.4320    24.1400 N.4        1 NTH       0.000000
      2 H1          27.9080    24.8460    23.4550 H          1 NTH       0.000000
      3 H2          26.4470    25.4320    24.0020 H          1 NTH       0.000000
      4 H3          27.6580    25.0600    25.0590 H          1 NTH       0.000000
      5 CA          27.9980    26.8080    24.0740 C.3        1 NTH       0.000000
      6 HA          27.7010    27.2850    23.1420 H          1 NTH       0.000000
      7 CB          27.4900    27.6420    25.2510 C.3        1 NTH       0.000000
      8 HB          28.0760    28.5550    25.3450 H          1 NTH       0.000000
      9 CG2         26.0190    28.0120    25.0900 C.3        1 NTH       0.000000
     10 HG21        25.3880    27.1230    25.0890 H          1 NTH       0.000000
     11 HG22        25.7150    28.6540    25.9180 H          1 NTH       0.000000
     12 HG23        25.8740    28.5640    24.1600 H          1 NTH       0.000000
     13 OG1         27.6170    26.8720    26.4140 O.3        1 NTH       0.000000
     14 HG1         27.4820    27.4440    27.1810 H          1 NTH       0.000000
     15 C           29.5170    26.7250    24.0880 C.2        1 NTH       0.000000
     16 O           30.0310    25.6160    24.1730 O.2        1 NTH       0.000000
     17 N           30.2330    27.8480    23.9470 N.am       2 NME      -0.415700
     18 H           29.7640    28.7380    23.8600 H          2 NME       0.271900
     19 CH3         31.6960    27.8700    23.9290 C.3        2 NME      -0.149000
     20 HH31        32.0760    27.1450    23.2040 H          2 NME       0.097600
     21 HH32        32.0580    28.8640    23.6570 H          2 NME       0.097600
     22 HH33        32.0860    27.6080    24.9150 H          2 NME       0.097600
@<TRIPOS>BOND
     1    15    16 2   
     2    15    17 am  
     3    13    14 1   
     4     9    10 1   
     5     9    11 1   
     6     9    12 1   
     7     7     8 1   
     8     7     9 1   
     9     7    13 1   
    10     5     6 1   
    11     5     7 1   
    12     5    15 1   
    13     1     2 1   
    14     1     3 1   
    15     1     4 1   
    16     1     5 1   
    17    19    20 1   
    18    19    21 1   
    19    19    22 1   
    20    17    18 1   
    21    17    19 1   
@<TRIPOS>SUBSTRUCTURE
     1 NTH         1 TEMP              0 ****  ****    0 ROOT
