
  -OEChem-04042215593D

 29 29  0     1  0  0  0  0  0999 V2000
   -3.5472   -3.6242    1.3939 H   0  0  0  0  0  0  0  0  0  0  0  0
   -3.4600   -2.7024    0.8118 C   0  0  0  0  0  0  0  0  0  0  0  0
   -4.1170   -1.9466    1.2488 H   0  0  0  0  0  0  0  0  0  0  0  0
   -3.7775   -2.9024   -0.2144 H   0  0  0  0  0  0  0  0  0  0  0  0
   -2.0248   -2.2111    0.8231 C   0  0  0  0  0  0  0  0  0  0  0  0
   -1.1667   -2.8446    1.4160 O   0  0  0  0  0  0  0  0  0  0  0  0
   -1.6913   -1.0489    0.1605 N   0  0  0  0  0  0  0  0  0  0  0  0
   -2.4548   -0.4938   -0.2250 H   0  0  0  0  0  0  0  0  0  0  0  0
   -0.3738   -0.3985    0.2330 C   0  0  1  0  0  0  0  0  0  0  0  0
    0.2159   -0.7813    1.0724 H   0  0  0  0  0  0  0  0  0  0  0  0
    0.3461   -0.7015   -1.0952 C   0  0  0  0  0  0  0  0  0  0  0  0
    0.4111   -1.7887   -1.2092 H   0  0  0  0  0  0  0  0  0  0  0  0
   -0.2697   -0.3208   -1.9170 H   0  0  0  0  0  0  0  0  0  0  0  0
    1.7392   -0.1309   -1.2502 C   0  0  0  0  0  0  0  0  0  0  0  0
    2.5284   -0.2979   -2.3678 N   0  0  0  0  0  0  0  0  0  0  0  0
    2.2595   -0.7728   -3.2271 H   0  0  0  0  0  0  0  0  0  0  0  0
    3.7549    0.2968   -2.1421 C   0  0  0  0  0  0  0  0  0  0  0  0
    4.5729    0.3342   -2.8560 H   0  0  0  0  0  0  0  0  0  0  0  0
    3.7898    0.8086   -0.9367 N   0  0  0  0  0  0  0  0  0  0  0  0
    2.5522    0.5359   -0.3671 C   0  0  0  0  0  0  0  0  0  0  0  0
    2.2929    0.7939    0.6526 H   0  0  0  0  0  0  0  0  0  0  0  0
   -0.6073    1.1157    0.4323 C   0  0  0  0  0  0  0  0  0  0  0  0
   -1.4878    1.6782   -0.2108 O   0  0  0  0  0  0  0  0  0  0  0  0
    0.1146    1.8427    1.3615 N   0  0  0  0  0  0  0  0  0  0  0  0
    0.8059    1.3471    1.9174 H   0  0  0  0  0  0  0  0  0  0  0  0
   -0.0675    3.2727    1.5797 C   0  0  0  0  0  0  0  0  0  0  0  0
   -1.0971    3.4867    1.8851 H   0  0  0  0  0  0  0  0  0  0  0  0
    0.6067    3.6233    2.3672 H   0  0  0  0  0  0  0  0  0  0  0  0
    0.1525    3.8308    0.6634 H   0  0  0  0  0  0  0  0  0  0  0  0
  1  2  1  0  0  0  0
  2  3  1  0  0  0  0
  2  4  1  0  0  0  0
  2  5  1  0  0  0  0
  5  6  2  0  0  0  0
  5  7  1  0  0  0  0
  7  8  1  0  0  0  0
  7  9  1  0  0  0  0
  9 10  1  0  0  0  0
  9 11  1  0  0  0  0
  9 22  1  0  0  0  0
 11 12  1  0  0  0  0
 11 13  1  0  0  0  0
 11 14  1  0  0  0  0
 14 15  1  0  0  0  0
 14 20  2  0  0  0  0
 15 16  1  0  0  0  0
 15 17  1  0  0  0  0
 17 18  1  0  0  0  0
 17 19  2  0  0  0  0
 19 20  1  0  0  0  0
 20 21  1  0  0  0  0
 22 23  2  0  0  0  0
 22 24  1  0  0  0  0
 24 25  1  0  0  0  0
 24 26  1  0  0  0  0
 26 27  1  0  0  0  0
 26 28  1  0  0  0  0
 26 29  1  0  0  0  0
M  END
$$$$

  -OEChem-04042215593D

 29 29  0     1  0  0  0  0  0999 V2000
   -3.5690   -3.6189    1.4314 H   0  0  0  0  0  0  0  0  0  0  0  0
   -3.4827   -2.7022    0.8414 C   0  0  0  0  0  0  0  0  0  0  0  0
   -4.1274   -1.9381    1.2822 H   0  0  0  0  0  0  0  0  0  0  0  0
   -3.8164   -2.9072   -0.1786 H   0  0  0  0  0  0  0  0  0  0  0  0
   -2.0438   -2.2221    0.8284 C   0  0  0  0  0  0  0  0  0  0  0  0
   -1.1813   -2.8608    1.4092 O   0  0  0  0  0  0  0  0  0  0  0  0
   -1.7125   -1.0642    0.1571 N   0  0  0  0  0  0  0  0  0  0  0  0
   -2.4785   -0.5055   -0.2176 H   0  0  0  0  0  0  0  0  0  0  0  0
   -0.3914   -0.4204    0.2114 C   0  0  1  0  0  0  0  0  0  0  0  0
    0.1968   -0.8057    1.0505 H   0  0  0  0  0  0  0  0  0  0  0  0
    0.3311   -0.7240   -1.1135 C   0  0  0  0  0  0  0  0  0  0  0  0
    0.4018   -1.8094   -1.2393 H   0  0  0  0  0  0  0  0  0  0  0  0
   -0.2785   -0.3350   -1.9360 H   0  0  0  0  0  0  0  0  0  0  0  0
    1.7194   -0.1364   -1.2312 C   0  0  0  0  0  0  0  0  0  0  0  0
    2.4392   -0.0144   -2.3995 N   0  0  0  0  0  0  0  0  0  0  0  0
    2.1204   -0.2696   -3.3319 H   0  0  0  0  0  0  0  0  0  0  0  0
    3.6739    0.5321   -2.1043 C   0  0  0  0  0  0  0  0  0  0  0  0
    4.4492    0.7542   -2.8320 H   0  0  0  0  0  0  0  0  0  0  0  0
    3.7753    0.7444   -0.8149 N   0  0  0  0  0  0  0  0  0  0  0  0
    2.5740    0.3219   -0.2599 C   0  0  0  0  0  0  0  0  0  0  0  0
    2.3569    0.3398    0.8030 H   0  0  0  0  0  0  0  0  0  0  0  0
   -0.5928    1.0983    0.4072 C   0  0  0  0  0  0  0  0  0  0  0  0
   -1.4810    1.6724   -0.2150 O   0  0  0  0  0  0  0  0  0  0  0  0
    0.1587    1.8116    1.3238 N   0  0  0  0  0  0  0  0  0  0  0  0
    0.8724    1.3098    1.8446 H   0  0  0  0  0  0  0  0  0  0  0  0
    0.0094    3.2455    1.5403 C   0  0  0  0  0  0  0  0  0  0  0  0
   -1.0117    3.4819    1.8572 H   0  0  0  0  0  0  0  0  0  0  0  0
    0.6994    3.5838    2.3193 H   0  0  0  0  0  0  0  0  0  0  0  0
    0.2297    3.7964    0.6198 H   0  0  0  0  0  0  0  0  0  0  0  0
  1  2  1  0  0  0  0
  2  3  1  0  0  0  0
  2  4  1  0  0  0  0
  2  5  1  0  0  0  0
  5  6  2  0  0  0  0
  5  7  1  0  0  0  0
  7  8  1  0  0  0  0
  7  9  1  0  0  0  0
  9 10  1  0  0  0  0
  9 11  1  0  0  0  0
  9 22  1  0  0  0  0
 11 12  1  0  0  0  0
 11 13  1  0  0  0  0
 11 14  1  0  0  0  0
 14 15  1  0  0  0  0
 14 20  2  0  0  0  0
 15 16  1  0  0  0  0
 15 17  1  0  0  0  0
 17 18  1  0  0  0  0
 17 19  2  0  0  0  0
 19 20  1  0  0  0  0
 20 21  1  0  0  0  0
 22 23  2  0  0  0  0
 22 24  1  0  0  0  0
 24 25  1  0  0  0  0
 24 26  1  0  0  0  0
 26 27  1  0  0  0  0
 26 28  1  0  0  0  0
 26 29  1  0  0  0  0
M  END
$$$$

  -OEChem-04042215593D

 29 29  0     1  0  0  0  0  0999 V2000
   -3.5791   -3.6260    1.4569 H   0  0  0  0  0  0  0  0  0  0  0  0
   -3.4969   -2.7127    0.8609 C   0  0  0  0  0  0  0  0  0  0  0  0
   -4.1360   -1.9450    1.3037 H   0  0  0  0  0  0  0  0  0  0  0  0
   -3.8407   -2.9226   -0.1547 H   0  0  0  0  0  0  0  0  0  0  0  0
   -2.0572   -2.2356    0.8319 C   0  0  0  0  0  0  0  0  0  0  0  0
   -1.1896   -2.8769    1.4023 O   0  0  0  0  0  0  0  0  0  0  0  0
   -1.7306   -1.0789    0.1560 N   0  0  0  0  0  0  0  0  0  0  0  0
   -2.4997   -0.5188   -0.2098 H   0  0  0  0  0  0  0  0  0  0  0  0
   -0.4079   -0.4378    0.1951 C   0  0  1  0  0  0  0  0  0  0  0  0
    0.1794   -0.8256    1.0335 H   0  0  0  0  0  0  0  0  0  0  0  0
    0.3165   -0.7434   -1.1265 C   0  0  0  0  0  0  0  0  0  0  0  0
    0.3965   -1.8280   -1.2545 H   0  0  0  0  0  0  0  0  0  0  0  0
   -0.2893   -0.3564   -1.9527 H   0  0  0  0  0  0  0  0  0  0  0  0
    1.6986   -0.1392   -1.2137 C   0  0  0  0  0  0  0  0  0  0  0  0
    2.3367    0.2703   -2.3635 N   0  0  0  0  0  0  0  0  0  0  0  0
    1.9571    0.2368   -3.3075 H   0  0  0  0  0  0  0  0  0  0  0  0
    3.5824    0.7640   -2.0238 C   0  0  0  0  0  0  0  0  0  0  0  0
    4.3068    1.1676   -2.7254 H   0  0  0  0  0  0  0  0  0  0  0  0
    3.7640    0.6765   -0.7282 N   0  0  0  0  0  0  0  0  0  0  0  0
    2.6059    0.1069   -0.2143 C   0  0  0  0  0  0  0  0  0  0  0  0
    2.4473   -0.1122    0.8370 H   0  0  0  0  0  0  0  0  0  0  0  0
   -0.5835    1.0831    0.3911 C   0  0  0  0  0  0  0  0  0  0  0  0
   -1.4754    1.6684   -0.2151 O   0  0  0  0  0  0  0  0  0  0  0  0
    0.1928    1.7826    1.2975 N   0  0  0  0  0  0  0  0  0  0  0  0
    0.9358    1.2774    1.7723 H   0  0  0  0  0  0  0  0  0  0  0  0
    0.0857    3.2224    1.4985 C   0  0  0  0  0  0  0  0  0  0  0  0
   -0.9234    3.4901    1.8288 H   0  0  0  0  0  0  0  0  0  0  0  0
    0.7971    3.5513    2.2622 H   0  0  0  0  0  0  0  0  0  0  0  0
    0.3058    3.7564    0.5681 H   0  0  0  0  0  0  0  0  0  0  0  0
  1  2  1  0  0  0  0
  2  3  1  0  0  0  0
  2  4  1  0  0  0  0
  2  5  1  0  0  0  0
  5  6  2  0  0  0  0
  5  7  1  0  0  0  0
  7  8  1  0  0  0  0
  7  9  1  0  0  0  0
  9 10  1  0  0  0  0
  9 11  1  0  0  0  0
  9 22  1  0  0  0  0
 11 12  1  0  0  0  0
 11 13  1  0  0  0  0
 11 14  1  0  0  0  0
 14 15  1  0  0  0  0
 14 20  2  0  0  0  0
 15 16  1  0  0  0  0
 15 17  1  0  0  0  0
 17 18  1  0  0  0  0
 17 19  2  0  0  0  0
 19 20  1  0  0  0  0
 20 21  1  0  0  0  0
 22 23  2  0  0  0  0
 22 24  1  0  0  0  0
 24 25  1  0  0  0  0
 24 26  1  0  0  0  0
 26 27  1  0  0  0  0
 26 28  1  0  0  0  0
 26 29  1  0  0  0  0
M  END
$$$$

  -OEChem-04042215593D

 29 29  0     1  0  0  0  0  0999 V2000
   -3.5778   -3.6329    1.4763 H   0  0  0  0  0  0  0  0  0  0  0  0
   -3.5007   -2.7211    0.8773 C   0  0  0  0  0  0  0  0  0  0  0  0
   -4.1356   -1.9520    1.3236 H   0  0  0  0  0  0  0  0  0  0  0  0
   -3.8530   -2.9338   -0.1349 H   0  0  0  0  0  0  0  0  0  0  0  0
   -2.0615   -2.2437    0.8346 C   0  0  0  0  0  0  0  0  0  0  0  0
   -1.1886   -2.8838    1.3982 O   0  0  0  0  0  0  0  0  0  0  0  0
   -1.7414   -1.0883    0.1530 N   0  0  0  0  0  0  0  0  0  0  0  0
   -2.5139   -0.5301   -0.2081 H   0  0  0  0  0  0  0  0  0  0  0  0
   -0.4181   -0.4478    0.1779 C   0  0  1  0  0  0  0  0  0  0  0  0
    0.1714   -0.8348    1.0152 H   0  0  0  0  0  0  0  0  0  0  0  0
    0.3055   -0.7579   -1.1412 C   0  0  0  0  0  0  0  0  0  0  0  0
    0.3961   -1.8425   -1.2623 H   0  0  0  0  0  0  0  0  0  0  0  0
   -0.2963   -0.3798   -1.9742 H   0  0  0  0  0  0  0  0  0  0  0  0
    1.6798   -0.1379   -1.2023 C   0  0  0  0  0  0  0  0  0  0  0  0
    2.2310    0.5432   -2.2645 N   0  0  0  0  0  0  0  0  0  0  0  0
    1.7810    0.7339   -3.1578 H   0  0  0  0  0  0  0  0  0  0  0  0
    3.4972    0.9642   -1.9044 C   0  0  0  0  0  0  0  0  0  0  0  0
    4.1687    1.5361   -2.5384 H   0  0  0  0  0  0  0  0  0  0  0  0
    3.7708    0.5765   -0.6817 N   0  0  0  0  0  0  0  0  0  0  0  0
    2.6540   -0.1204   -0.2371 C   0  0  0  0  0  0  0  0  0  0  0  0
    2.5656   -0.5774    0.7439 H   0  0  0  0  0  0  0  0  0  0  0  0
   -0.5747    1.0748    0.3720 C   0  0  0  0  0  0  0  0  0  0  0  0
   -1.4681    1.6688   -0.2237 O   0  0  0  0  0  0  0  0  0  0  0  0
    0.2215    1.7643    1.2686 N   0  0  0  0  0  0  0  0  0  0  0  0
    0.9833    1.2555    1.7090 H   0  0  0  0  0  0  0  0  0  0  0  0
    0.1373    3.2056    1.4667 C   0  0  0  0  0  0  0  0  0  0  0  0
   -0.8643    3.4877    1.8074 H   0  0  0  0  0  0  0  0  0  0  0  0
    0.8613    3.5264    2.2219 H   0  0  0  0  0  0  0  0  0  0  0  0
    0.3547    3.7336    0.5325 H   0  0  0  0  0  0  0  0  0  0  0  0
  1  2  1  0  0  0  0
  2  3  1  0  0  0  0
  2  4  1  0  0  0  0
  2  5  1  0  0  0  0
  5  6  2  0  0  0  0
  5  7  1  0  0  0  0
  7  8  1  0  0  0  0
  7  9  1  0  0  0  0
  9 10  1  0  0  0  0
  9 11  1  0  0  0  0
  9 22  1  0  0  0  0
 11 12  1  0  0  0  0
 11 13  1  0  0  0  0
 11 14  1  0  0  0  0
 14 15  1  0  0  0  0
 14 20  2  0  0  0  0
 15 16  1  0  0  0  0
 15 17  1  0  0  0  0
 17 18  1  0  0  0  0
 17 19  2  0  0  0  0
 19 20  1  0  0  0  0
 20 21  1  0  0  0  0
 22 23  2  0  0  0  0
 22 24  1  0  0  0  0
 24 25  1  0  0  0  0
 24 26  1  0  0  0  0
 26 27  1  0  0  0  0
 26 28  1  0  0  0  0
 26 29  1  0  0  0  0
M  END
$$$$

  -OEChem-04042215593D

 29 29  0     1  0  0  0  0  0999 V2000
   -3.5735   -3.6328    1.4930 H   0  0  0  0  0  0  0  0  0  0  0  0
   -3.4994   -2.7245    0.8888 C   0  0  0  0  0  0  0  0  0  0  0  0
   -4.1313   -1.9527    1.3348 H   0  0  0  0  0  0  0  0  0  0  0  0
   -3.8575   -2.9423   -0.1203 H   0  0  0  0  0  0  0  0  0  0  0  0
   -2.0600   -2.2490    0.8357 C   0  0  0  0  0  0  0  0  0  0  0  0
   -1.1838   -2.8886    1.3949 O   0  0  0  0  0  0  0  0  0  0  0  0
   -1.7443   -1.0955    0.1494 N   0  0  0  0  0  0  0  0  0  0  0  0
   -2.5189   -0.5394   -0.2099 H   0  0  0  0  0  0  0  0  0  0  0  0
   -0.4221   -0.4534    0.1659 C   0  0  1  0  0  0  0  0  0  0  0  0
    0.1718   -0.8364    1.0022 H   0  0  0  0  0  0  0  0  0  0  0  0
    0.3007   -0.7639   -1.1517 C   0  0  0  0  0  0  0  0  0  0  0  0
    0.4050   -1.8485   -1.2612 H   0  0  0  0  0  0  0  0  0  0  0  0
   -0.2968   -0.4003   -1.9943 H   0  0  0  0  0  0  0  0  0  0  0  0
    1.6665   -0.1279   -1.1858 C   0  0  0  0  0  0  0  0  0  0  0  0
    2.1304    0.7976   -2.0930 N   0  0  0  0  0  0  0  0  0  0  0  0
    1.6023    1.2058   -2.8621 H   0  0  0  0  0  0  0  0  0  0  0  0
    3.4310    1.1219   -1.7569 C   0  0  0  0  0  0  0  0  0  0  0  0
    4.0534    1.8377   -2.2863 H   0  0  0  0  0  0  0  0  0  0  0  0
    3.8061    0.4424   -0.6994 N   0  0  0  0  0  0  0  0  0  0  0  0
    2.7232   -0.3526   -0.3425 C   0  0  0  0  0  0  0  0  0  0  0  0
    2.7137   -1.0452    0.4941 H   0  0  0  0  0  0  0  0  0  0  0  0
   -0.5721    1.0698    0.3558 C   0  0  0  0  0  0  0  0  0  0  0  0
   -1.4599    1.6684   -0.2435 O   0  0  0  0  0  0  0  0  0  0  0  0
    0.2332    1.7560    1.2465 N   0  0  0  0  0  0  0  0  0  0  0  0
    1.0010    1.2440    1.6730 H   0  0  0  0  0  0  0  0  0  0  0  0
    0.1599    3.1980    1.4433 C   0  0  0  0  0  0  0  0  0  0  0  0
   -0.8375    3.4881    1.7902 H   0  0  0  0  0  0  0  0  0  0  0  0
    0.8909    3.5134    2.1939 H   0  0  0  0  0  0  0  0  0  0  0  0
    0.3751    3.7237    0.5072 H   0  0  0  0  0  0  0  0  0  0  0  0
  1  2  1  0  0  0  0
  2  3  1  0  0  0  0
  2  4  1  0  0  0  0
  2  5  1  0  0  0  0
  5  6  2  0  0  0  0
  5  7  1  0  0  0  0
  7  8  1  0  0  0  0
  7  9  1  0  0  0  0
  9 10  1  0  0  0  0
  9 11  1  0  0  0  0
  9 22  1  0  0  0  0
 11 12  1  0  0  0  0
 11 13  1  0  0  0  0
 11 14  1  0  0  0  0
 14 15  1  0  0  0  0
 14 20  2  0  0  0  0
 15 16  1  0  0  0  0
 15 17  1  0  0  0  0
 17 18  1  0  0  0  0
 17 19  2  0  0  0  0
 19 20  1  0  0  0  0
 20 21  1  0  0  0  0
 22 23  2  0  0  0  0
 22 24  1  0  0  0  0
 24 25  1  0  0  0  0
 24 26  1  0  0  0  0
 26 27  1  0  0  0  0
 26 28  1  0  0  0  0
 26 29  1  0  0  0  0
M  END
$$$$

  -OEChem-04042215593D

 29 29  0     1  0  0  0  0  0999 V2000
   -3.5776   -3.6378    1.4820 H   0  0  0  0  0  0  0  0  0  0  0  0
   -3.5024   -2.7287    0.8789 C   0  0  0  0  0  0  0  0  0  0  0  0
   -4.1401   -1.9594    1.3209 H   0  0  0  0  0  0  0  0  0  0  0  0
   -3.8531   -2.9469   -0.1326 H   0  0  0  0  0  0  0  0  0  0  0  0
   -2.0641   -2.2482    0.8361 C   0  0  0  0  0  0  0  0  0  0  0  0
   -1.1909   -2.8823    1.4061 O   0  0  0  0  0  0  0  0  0  0  0  0
   -1.7462   -1.0959    0.1483 N   0  0  0  0  0  0  0  0  0  0  0  0
   -2.5193   -0.5474   -0.2253 H   0  0  0  0  0  0  0  0  0  0  0  0
   -0.4248   -0.4518    0.1679 C   0  0  1  0  0  0  0  0  0  0  0  0
    0.1669   -0.8316    1.0074 H   0  0  0  0  0  0  0  0  0  0  0  0
    0.3053   -0.7710   -1.1426 C   0  0  0  0  0  0  0  0  0  0  0  0
    0.4162   -1.8566   -1.2337 H   0  0  0  0  0  0  0  0  0  0  0  0
   -0.2831   -0.4234   -1.9981 H   0  0  0  0  0  0  0  0  0  0  0  0
    1.6670   -0.1288   -1.1627 C   0  0  0  0  0  0  0  0  0  0  0  0
    2.0462    0.9865   -1.8750 N   0  0  0  0  0  0  0  0  0  0  0  0
    1.4443    1.5589   -2.4651 H   0  0  0  0  0  0  0  0  0  0  0  0
    3.3820    1.2314   -1.6193 C   0  0  0  0  0  0  0  0  0  0  0  0
    3.9567    2.0553   -2.0331 H   0  0  0  0  0  0  0  0  0  0  0  0
    3.8567    0.3253   -0.7978 N   0  0  0  0  0  0  0  0  0  0  0  0
    2.8040   -0.5399   -0.5188 C   0  0  0  0  0  0  0  0  0  0  0  0
    2.8720   -1.4112    0.1258 H   0  0  0  0  0  0  0  0  0  0  0  0
   -0.5695    1.0721    0.3530 C   0  0  0  0  0  0  0  0  0  0  0  0
   -1.4376    1.6785   -0.2668 O   0  0  0  0  0  0  0  0  0  0  0  0
    0.2366    1.7559    1.2449 N   0  0  0  0  0  0  0  0  0  0  0  0
    0.9897    1.2349    1.6872 H   0  0  0  0  0  0  0  0  0  0  0  0
    0.1701    3.1979    1.4440 C   0  0  0  0  0  0  0  0  0  0  0  0
   -0.8261    3.4920    1.7907 H   0  0  0  0  0  0  0  0  0  0  0  0
    0.9020    3.5087    2.1957 H   0  0  0  0  0  0  0  0  0  0  0  0
    0.3885    3.7244    0.5091 H   0  0  0  0  0  0  0  0  0  0  0  0
  1  2  1  0  0  0  0
  2  3  1  0  0  0  0
  2  4  1  0  0  0  0
  2  5  1  0  0  0  0
  5  6  2  0  0  0  0
  5  7  1  0  0  0  0
  7  8  1  0  0  0  0
  7  9  1  0  0  0  0
  9 10  1  0  0  0  0
  9 11  1  0  0  0  0
  9 22  1  0  0  0  0
 11 12  1  0  0  0  0
 11 13  1  0  0  0  0
 11 14  1  0  0  0  0
 14 15  1  0  0  0  0
 14 20  2  0  0  0  0
 15 16  1  0  0  0  0
 15 17  1  0  0  0  0
 17 18  1  0  0  0  0
 17 19  2  0  0  0  0
 19 20  1  0  0  0  0
 20 21  1  0  0  0  0
 22 23  2  0  0  0  0
 22 24  1  0  0  0  0
 24 25  1  0  0  0  0
 24 26  1  0  0  0  0
 26 27  1  0  0  0  0
 26 28  1  0  0  0  0
 26 29  1  0  0  0  0
M  END
$$$$

  -OEChem-04042215593D

 29 29  0     1  0  0  0  0  0999 V2000
   -3.5845   -3.6420    1.4571 H   0  0  0  0  0  0  0  0  0  0  0  0
   -3.5048   -2.7308    0.8576 C   0  0  0  0  0  0  0  0  0  0  0  0
   -4.1545   -1.9662    1.2903 H   0  0  0  0  0  0  0  0  0  0  0  0
   -3.8369   -2.9485   -0.1603 H   0  0  0  0  0  0  0  0  0  0  0  0
   -2.0693   -2.2409    0.8407 C   0  0  0  0  0  0  0  0  0  0  0  0
   -1.2040   -2.8652    1.4328 O   0  0  0  0  0  0  0  0  0  0  0  0
   -1.7455   -1.0901    0.1531 N   0  0  0  0  0  0  0  0  0  0  0  0
   -2.5133   -0.5515   -0.2448 H   0  0  0  0  0  0  0  0  0  0  0  0
   -0.4242   -0.4459    0.1810 C   0  0  1  0  0  0  0  0  0  0  0  0
    0.1631   -0.8241    1.0245 H   0  0  0  0  0  0  0  0  0  0  0  0
    0.3117   -0.7794   -1.1233 C   0  0  0  0  0  0  0  0  0  0  0  0
    0.4186   -1.8667   -1.2005 H   0  0  0  0  0  0  0  0  0  0  0  0
   -0.2707   -0.4404   -1.9866 H   0  0  0  0  0  0  0  0  0  0  0  0
    1.6756   -0.1426   -1.1484 C   0  0  0  0  0  0  0  0  0  0  0  0
    1.9937    1.1067   -1.6330 N   0  0  0  0  0  0  0  0  0  0  0  0
    1.3400    1.7909   -2.0123 H   0  0  0  0  0  0  0  0  0  0  0  0
    3.3547    1.2944   -1.4883 C   0  0  0  0  0  0  0  0  0  0  0  0
    3.8950    2.1927   -1.7729 H   0  0  0  0  0  0  0  0  0  0  0  0
    3.9011    0.2295   -0.9512 N   0  0  0  0  0  0  0  0  0  0  0  0
    2.8695   -0.6820   -0.7493 C   0  0  0  0  0  0  0  0  0  0  0  0
    2.9933   -1.6759   -0.3293 H   0  0  0  0  0  0  0  0  0  0  0  0
   -0.5653    1.0780    0.3615 C   0  0  0  0  0  0  0  0  0  0  0  0
   -1.4026    1.6931   -0.2907 O   0  0  0  0  0  0  0  0  0  0  0  0
    0.2366    1.7603    1.2581 N   0  0  0  0  0  0  0  0  0  0  0  0
    0.9572    1.2277    1.7393 H   0  0  0  0  0  0  0  0  0  0  0  0
    0.1715    3.2016    1.4616 C   0  0  0  0  0  0  0  0  0  0  0  0
   -0.8247    3.4942    1.8096 H   0  0  0  0  0  0  0  0  0  0  0  0
    0.9043    3.5099    2.2135 H   0  0  0  0  0  0  0  0  0  0  0  0
    0.3893    3.7317    0.5288 H   0  0  0  0  0  0  0  0  0  0  0  0
  1  2  1  0  0  0  0
  2  3  1  0  0  0  0
  2  4  1  0  0  0  0
  2  5  1  0  0  0  0
  5  6  2  0  0  0  0
  5  7  1  0  0  0  0
  7  8  1  0  0  0  0
  7  9  1  0  0  0  0
  9 10  1  0  0  0  0
  9 11  1  0  0  0  0
  9 22  1  0  0  0  0
 11 12  1  0  0  0  0
 11 13  1  0  0  0  0
 11 14  1  0  0  0  0
 14 15  1  0  0  0  0
 14 20  2  0  0  0  0
 15 16  1  0  0  0  0
 15 17  1  0  0  0  0
 17 18  1  0  0  0  0
 17 19  2  0  0  0  0
 19 20  1  0  0  0  0
 20 21  1  0  0  0  0
 22 23  2  0  0  0  0
 22 24  1  0  0  0  0
 24 25  1  0  0  0  0
 24 26  1  0  0  0  0
 26 27  1  0  0  0  0
 26 28  1  0  0  0  0
 26 29  1  0  0  0  0
M  END
$$$$

  -OEChem-04042215593D

 29 29  0     1  0  0  0  0  0999 V2000
   -3.5842   -3.6457    1.4322 H   0  0  0  0  0  0  0  0  0  0  0  0
   -3.5022   -2.7308    0.8388 C   0  0  0  0  0  0  0  0  0  0  0  0
   -4.1638   -1.9733    1.2658 H   0  0  0  0  0  0  0  0  0  0  0  0
   -3.8180   -2.9456   -0.1848 H   0  0  0  0  0  0  0  0  0  0  0  0
   -2.0699   -2.2312    0.8449 C   0  0  0  0  0  0  0  0  0  0  0  0
   -1.2099   -2.8492    1.4511 O   0  0  0  0  0  0  0  0  0  0  0  0
   -1.7427   -1.0792    0.1609 N   0  0  0  0  0  0  0  0  0  0  0  0
   -2.5061   -0.5502   -0.2575 H   0  0  0  0  0  0  0  0  0  0  0  0
   -0.4218   -0.4341    0.1953 C   0  0  1  0  0  0  0  0  0  0  0  0
    0.1617   -0.8106    1.0419 H   0  0  0  0  0  0  0  0  0  0  0  0
    0.3188   -0.7838   -1.1045 C   0  0  0  0  0  0  0  0  0  0  0  0
    0.4136   -1.8727   -1.1745 H   0  0  0  0  0  0  0  0  0  0  0  0
   -0.2641   -0.4463   -1.9681 H   0  0  0  0  0  0  0  0  0  0  0  0
    1.6904   -0.1608   -1.1562 C   0  0  0  0  0  0  0  0  0  0  0  0
    1.9967    1.1615   -1.3945 N   0  0  0  0  0  0  0  0  0  0  0  0
    1.3284    1.9135   -1.5621 H   0  0  0  0  0  0  0  0  0  0  0  0
    3.3709    1.3020   -1.3719 C   0  0  0  0  0  0  0  0  0  0  0  0
    3.9069    2.2341   -1.5264 H   0  0  0  0  0  0  0  0  0  0  0  0
    3.9370    0.1433   -1.1336 N   0  0  0  0  0  0  0  0  0  0  0  0
    2.9034   -0.7800   -1.0090 C   0  0  0  0  0  0  0  0  0  0  0  0
    3.0403   -1.8402   -0.8175 H   0  0  0  0  0  0  0  0  0  0  0  0
   -0.5682    1.0885    0.3777 C   0  0  0  0  0  0  0  0  0  0  0  0
   -1.3855    1.7098   -0.2929 O   0  0  0  0  0  0  0  0  0  0  0  0
    0.2283    1.7700    1.2797 N   0  0  0  0  0  0  0  0  0  0  0  0
    0.9193    1.2293    1.7946 H   0  0  0  0  0  0  0  0  0  0  0  0
    0.1499    3.2086    1.5000 C   0  0  0  0  0  0  0  0  0  0  0  0
   -0.8488    3.4887    1.8511 H   0  0  0  0  0  0  0  0  0  0  0  0
    0.8797    3.5150    2.2557 H   0  0  0  0  0  0  0  0  0  0  0  0
    0.3636    3.7512    0.5734 H   0  0  0  0  0  0  0  0  0  0  0  0
  1  2  1  0  0  0  0
  2  3  1  0  0  0  0
  2  4  1  0  0  0  0
  2  5  1  0  0  0  0
  5  6  2  0  0  0  0
  5  7  1  0  0  0  0
  7  8  1  0  0  0  0
  7  9  1  0  0  0  0
  9 10  1  0  0  0  0
  9 11  1  0  0  0  0
  9 22  1  0  0  0  0
 11 12  1  0  0  0  0
 11 13  1  0  0  0  0
 11 14  1  0  0  0  0
 14 15  1  0  0  0  0
 14 20  2  0  0  0  0
 15 16  1  0  0  0  0
 15 17  1  0  0  0  0
 17 18  1  0  0  0  0
 17 19  2  0  0  0  0
 19 20  1  0  0  0  0
 20 21  1  0  0  0  0
 22 23  2  0  0  0  0
 22 24  1  0  0  0  0
 24 25  1  0  0  0  0
 24 26  1  0  0  0  0
 26 27  1  0  0  0  0
 26 28  1  0  0  0  0
 26 29  1  0  0  0  0
M  END
$$$$

  -OEChem-04042215593D

 29 29  0     1  0  0  0  0  0999 V2000
   -3.5747   -3.6467    1.4105 H   0  0  0  0  0  0  0  0  0  0  0  0
   -3.4923   -2.7282    0.8227 C   0  0  0  0  0  0  0  0  0  0  0  0
   -4.1648   -1.9779    1.2452 H   0  0  0  0  0  0  0  0  0  0  0  0
   -3.7935   -2.9406   -0.2060 H   0  0  0  0  0  0  0  0  0  0  0  0
   -2.0641   -2.2180    0.8499 C   0  0  0  0  0  0  0  0  0  0  0  0
   -1.2092   -2.8281    1.4711 O   0  0  0  0  0  0  0  0  0  0  0  0
   -1.7344   -1.0650    0.1685 N   0  0  0  0  0  0  0  0  0  0  0  0
   -2.4942   -0.5428   -0.2648 H   0  0  0  0  0  0  0  0  0  0  0  0
   -0.4143   -0.4183    0.2084 C   0  0  1  0  0  0  0  0  0  0  0  0
    0.1668   -0.7926    1.0575 H   0  0  0  0  0  0  0  0  0  0  0  0
    0.3280   -0.7817   -1.0892 C   0  0  0  0  0  0  0  0  0  0  0  0
    0.4083   -1.8720   -1.1568 H   0  0  0  0  0  0  0  0  0  0  0  0
   -0.2592   -0.4407   -1.9484 H   0  0  0  0  0  0  0  0  0  0  0  0
    1.7084   -0.1765   -1.1768 C   0  0  0  0  0  0  0  0  0  0  0  0
    2.0581    1.1573   -1.1627 N   0  0  0  0  0  0  0  0  0  0  0  0
    1.4146    1.9474   -1.1145 H   0  0  0  0  0  0  0  0  0  0  0  0
    3.4321    1.2526   -1.2679 C   0  0  0  0  0  0  0  0  0  0  0  0
    3.9947    2.1815   -1.2899 H   0  0  0  0  0  0  0  0  0  0  0  0
    3.9607    0.0550   -1.3371 N   0  0  0  0  0  0  0  0  0  0  0  0
    2.9000   -0.8442   -1.2877 C   0  0  0  0  0  0  0  0  0  0  0  0
    3.0037   -1.9244   -1.3284 H   0  0  0  0  0  0  0  0  0  0  0  0
   -0.5712    1.1027    0.3917 C   0  0  0  0  0  0  0  0  0  0  0  0
   -1.3848    1.7220   -0.2841 O   0  0  0  0  0  0  0  0  0  0  0  0
    0.2168    1.7888    1.2983 N   0  0  0  0  0  0  0  0  0  0  0  0
    0.8718    1.2432    1.8537 H   0  0  0  0  0  0  0  0  0  0  0  0
    0.0979    3.2194    1.5513 C   0  0  0  0  0  0  0  0  0  0  0  0
   -0.9055    3.4617    1.9172 H   0  0  0  0  0  0  0  0  0  0  0  0
    0.8257    3.5308    2.3069 H   0  0  0  0  0  0  0  0  0  0  0  0
    0.2861    3.7886    0.6350 H   0  0  0  0  0  0  0  0  0  0  0  0
  1  2  1  0  0  0  0
  2  3  1  0  0  0  0
  2  4  1  0  0  0  0
  2  5  1  0  0  0  0
  5  6  2  0  0  0  0
  5  7  1  0  0  0  0
  7  8  1  0  0  0  0
  7  9  1  0  0  0  0
  9 10  1  0  0  0  0
  9 11  1  0  0  0  0
  9 22  1  0  0  0  0
 11 12  1  0  0  0  0
 11 13  1  0  0  0  0
 11 14  1  0  0  0  0
 14 15  1  0  0  0  0
 14 20  2  0  0  0  0
 15 16  1  0  0  0  0
 15 17  1  0  0  0  0
 17 18  1  0  0  0  0
 17 19  2  0  0  0  0
 19 20  1  0  0  0  0
 20 21  1  0  0  0  0
 22 23  2  0  0  0  0
 22 24  1  0  0  0  0
 24 25  1  0  0  0  0
 24 26  1  0  0  0  0
 26 27  1  0  0  0  0
 26 28  1  0  0  0  0
 26 29  1  0  0  0  0
M  END
$$$$

  -OEChem-04042215593D

 29 29  0     1  0  0  0  0  0999 V2000
   -3.5682   -3.6376    1.3970 H   0  0  0  0  0  0  0  0  0  0  0  0
   -3.4820   -2.7177    0.8118 C   0  0  0  0  0  0  0  0  0  0  0  0
   -4.1603   -1.9697    1.2293 H   0  0  0  0  0  0  0  0  0  0  0  0
   -3.7728   -2.9281   -0.2202 H   0  0  0  0  0  0  0  0  0  0  0  0
   -2.0552   -2.2042    0.8523 C   0  0  0  0  0  0  0  0  0  0  0  0
   -1.2052   -2.8100    1.4842 O   0  0  0  0  0  0  0  0  0  0  0  0
   -1.7213   -1.0520    0.1719 N   0  0  0  0  0  0  0  0  0  0  0  0
   -2.4773   -0.5337   -0.2729 H   0  0  0  0  0  0  0  0  0  0  0  0
   -0.4012   -0.4054    0.2170 C   0  0  1  0  0  0  0  0  0  0  0  0
    0.1791   -0.7770    1.0680 H   0  0  0  0  0  0  0  0  0  0  0  0
    0.3410   -0.7758   -1.0802 C   0  0  0  0  0  0  0  0  0  0  0  0
    0.4075   -1.8671   -1.1503 H   0  0  0  0  0  0  0  0  0  0  0  0
   -0.2500   -0.4272   -1.9338 H   0  0  0  0  0  0  0  0  0  0  0  0
    1.7289   -0.1874   -1.1964 C   0  0  0  0  0  0  0  0  0  0  0  0
    2.1611    1.0958   -0.9335 N   0  0  0  0  0  0  0  0  0  0  0  0
    1.5742    1.8843   -0.6606 H   0  0  0  0  0  0  0  0  0  0  0  0
    3.5212    1.1605   -1.1660 C   0  0  0  0  0  0  0  0  0  0  0  0
    4.1333    2.0507   -1.0534 H   0  0  0  0  0  0  0  0  0  0  0  0
    3.9681   -0.0120   -1.5435 N   0  0  0  0  0  0  0  0  0  0  0  0
    2.8651   -0.8594   -1.5668 C   0  0  0  0  0  0  0  0  0  0  0  0
    2.9017   -1.9105   -1.8377 H   0  0  0  0  0  0  0  0  0  0  0  0
   -0.5721    1.1145    0.3985 C   0  0  0  0  0  0  0  0  0  0  0  0
   -1.3931    1.7261   -0.2745 O   0  0  0  0  0  0  0  0  0  0  0  0
    0.2057    1.8076    1.3096 N   0  0  0  0  0  0  0  0  0  0  0  0
    0.8155    1.2571    1.9103 H   0  0  0  0  0  0  0  0  0  0  0  0
    0.0303    3.2264    1.5982 C   0  0  0  0  0  0  0  0  0  0  0  0
   -0.9750    3.4169    1.9884 H   0  0  0  0  0  0  0  0  0  0  0  0
    0.7593    3.5530    2.3463 H   0  0  0  0  0  0  0  0  0  0  0  0
    0.1750    3.8243    0.6923 H   0  0  0  0  0  0  0  0  0  0  0  0
  1  2  1  0  0  0  0
  2  3  1  0  0  0  0
  2  4  1  0  0  0  0
  2  5  1  0  0  0  0
  5  6  2  0  0  0  0
  5  7  1  0  0  0  0
  7  8  1  0  0  0  0
  7  9  1  0  0  0  0
  9 10  1  0  0  0  0
  9 11  1  0  0  0  0
  9 22  1  0  0  0  0
 11 12  1  0  0  0  0
 11 13  1  0  0  0  0
 11 14  1  0  0  0  0
 14 15  1  0  0  0  0
 14 20  2  0  0  0  0
 15 16  1  0  0  0  0
 15 17  1  0  0  0  0
 17 18  1  0  0  0  0
 17 19  2  0  0  0  0
 19 20  1  0  0  0  0
 20 21  1  0  0  0  0
 22 23  2  0  0  0  0
 22 24  1  0  0  0  0
 24 25  1  0  0  0  0
 24 26  1  0  0  0  0
 26 27  1  0  0  0  0
 26 28  1  0  0  0  0
 26 29  1  0  0  0  0
M  END
$$$$

  -OEChem-04042215593D

 29 29  0     1  0  0  0  0  0999 V2000
   -3.5676   -3.6335    1.3779 H   0  0  0  0  0  0  0  0  0  0  0  0
   -3.4778   -2.7123    0.7954 C   0  0  0  0  0  0  0  0  0  0  0  0
   -4.1637   -1.9677    1.2061 H   0  0  0  0  0  0  0  0  0  0  0  0
   -3.7556   -2.9225   -0.2402 H   0  0  0  0  0  0  0  0  0  0  0  0
   -2.0536   -2.1936    0.8540 C   0  0  0  0  0  0  0  0  0  0  0  0
   -1.2112   -2.7924    1.5025 O   0  0  0  0  0  0  0  0  0  0  0  0
   -1.7136   -1.0434    0.1737 N   0  0  0  0  0  0  0  0  0  0  0  0
   -2.4645   -0.5281   -0.2833 H   0  0  0  0  0  0  0  0  0  0  0  0
   -0.3933   -0.3979    0.2266 C   0  0  1  0  0  0  0  0  0  0  0  0
    0.1839   -0.7691    1.0798 H   0  0  0  0  0  0  0  0  0  0  0  0
    0.3511   -0.7697   -1.0692 C   0  0  0  0  0  0  0  0  0  0  0  0
    0.4105   -1.8610   -1.1420 H   0  0  0  0  0  0  0  0  0  0  0  0
   -0.2411   -0.4161   -1.9199 H   0  0  0  0  0  0  0  0  0  0  0  0
    1.7441   -0.1932   -1.2002 C   0  0  0  0  0  0  0  0  0  0  0  0
    2.2749    0.9807   -0.7058 N   0  0  0  0  0  0  0  0  0  0  0  0
    1.7609    1.7165   -0.2212 H   0  0  0  0  0  0  0  0  0  0  0  0
    3.6072    1.0503   -1.0646 C   0  0  0  0  0  0  0  0  0  0  0  0
    4.2762    1.8727   -0.8283 H   0  0  0  0  0  0  0  0  0  0  0  0
    3.9483   -0.0223   -1.7348 N   0  0  0  0  0  0  0  0  0  0  0  0
    2.8019   -0.8049   -1.8225 C   0  0  0  0  0  0  0  0  0  0  0  0
    2.7540   -1.7718   -2.3144 H   0  0  0  0  0  0  0  0  0  0  0  0
   -0.5696    1.1217    0.4037 C   0  0  0  0  0  0  0  0  0  0  0  0
   -1.3968    1.7277   -0.2667 O   0  0  0  0  0  0  0  0  0  0  0  0
    0.2018    1.8156    1.3210 N   0  0  0  0  0  0  0  0  0  0  0  0
    0.7565    1.2574    1.9667 H   0  0  0  0  0  0  0  0  0  0  0  0
   -0.0064    3.2276    1.6222 C   0  0  0  0  0  0  0  0  0  0  0  0
   -1.0133    3.3898    2.0214 H   0  0  0  0  0  0  0  0  0  0  0  0
    0.7205    3.5672    2.3665 H   0  0  0  0  0  0  0  0  0  0  0  0
    0.1159    3.8355    0.7195 H   0  0  0  0  0  0  0  0  0  0  0  0
  1  2  1  0  0  0  0
  2  3  1  0  0  0  0
  2  4  1  0  0  0  0
  2  5  1  0  0  0  0
  5  6  2  0  0  0  0
  5  7  1  0  0  0  0
  7  8  1  0  0  0  0
  7  9  1  0  0  0  0
  9 10  1  0  0  0  0
  9 11  1  0  0  0  0
  9 22  1  0  0  0  0
 11 12  1  0  0  0  0
 11 13  1  0  0  0  0
 11 14  1  0  0  0  0
 14 15  1  0  0  0  0
 14 20  2  0  0  0  0
 15 16  1  0  0  0  0
 15 17  1  0  0  0  0
 17 18  1  0  0  0  0
 17 19  2  0  0  0  0
 19 20  1  0  0  0  0
 20 21  1  0  0  0  0
 22 23  2  0  0  0  0
 22 24  1  0  0  0  0
 24 25  1  0  0  0  0
 24 26  1  0  0  0  0
 26 27  1  0  0  0  0
 26 28  1  0  0  0  0
 26 29  1  0  0  0  0
M  END
$$$$

  -OEChem-04042215593D

 29 29  0     1  0  0  0  0  0999 V2000
   -3.5743   -3.6399    1.3536 H   0  0  0  0  0  0  0  0  0  0  0  0
   -3.4810   -2.7171    0.7742 C   0  0  0  0  0  0  0  0  0  0  0  0
   -4.1751   -1.9762    1.1779 H   0  0  0  0  0  0  0  0  0  0  0  0
   -3.7452   -2.9264   -0.2652 H   0  0  0  0  0  0  0  0  0  0  0  0
   -2.0596   -2.1928    0.8519 C   0  0  0  0  0  0  0  0  0  0  0  0
   -1.2247   -2.7854    1.5158 O   0  0  0  0  0  0  0  0  0  0  0  0
   -1.7136   -1.0425    0.1741 N   0  0  0  0  0  0  0  0  0  0  0  0
   -2.4588   -0.5316   -0.2972 H   0  0  0  0  0  0  0  0  0  0  0  0
   -0.3942   -0.3959    0.2384 C   0  0  1  0  0  0  0  0  0  0  0  0
    0.1768   -0.7689    1.0948 H   0  0  0  0  0  0  0  0  0  0  0  0
    0.3549   -0.7694   -1.0543 C   0  0  0  0  0  0  0  0  0  0  0  0
    0.4153   -1.8609   -1.1235 H   0  0  0  0  0  0  0  0  0  0  0  0
   -0.2360   -0.4194   -1.9076 H   0  0  0  0  0  0  0  0  0  0  0  0
    1.7498   -0.1994   -1.1903 C   0  0  0  0  0  0  0  0  0  0  0  0
    2.3812    0.8146   -0.4994 N   0  0  0  0  0  0  0  0  0  0  0  0
    1.9445    1.4527    0.1642 H   0  0  0  0  0  0  0  0  0  0  0  0
    3.6746    0.9323   -0.9712 C   0  0  0  0  0  0  0  0  0  0  0  0
    4.4007    1.6639   -0.6286 H   0  0  0  0  0  0  0  0  0  0  0  0
    3.8989    0.0351   -1.8988 N   0  0  0  0  0  0  0  0  0  0  0  0
    2.7134   -0.6775   -2.0406 C   0  0  0  0  0  0  0  0  0  0  0  0
    2.5725   -1.5047   -2.7300 H   0  0  0  0  0  0  0  0  0  0  0  0
   -0.5660    1.1244    0.4130 C   0  0  0  0  0  0  0  0  0  0  0  0
   -1.3854    1.7323   -0.2650 O   0  0  0  0  0  0  0  0  0  0  0  0
    0.2025    1.8118    1.3386 N   0  0  0  0  0  0  0  0  0  0  0  0
    0.6964    1.2458    2.0253 H   0  0  0  0  0  0  0  0  0  0  0  0
    0.0057    3.2288    1.6240 C   0  0  0  0  0  0  0  0  0  0  0  0
   -1.0032    3.4054    2.0118 H   0  0  0  0  0  0  0  0  0  0  0  0
    0.7293    3.5691    2.3712 H   0  0  0  0  0  0  0  0  0  0  0  0
    0.1427    3.8264    0.7164 H   0  0  0  0  0  0  0  0  0  0  0  0
  1  2  1  0  0  0  0
  2  3  1  0  0  0  0
  2  4  1  0  0  0  0
  2  5  1  0  0  0  0
  5  6  2  0  0  0  0
  5  7  1  0  0  0  0
  7  8  1  0  0  0  0
  7  9  1  0  0  0  0
  9 10  1  0  0  0  0
  9 11  1  0  0  0  0
  9 22  1  0  0  0  0
 11 12  1  0  0  0  0
 11 13  1  0  0  0  0
 11 14  1  0  0  0  0
 14 15  1  0  0  0  0
 14 20  2  0  0  0  0
 15 16  1  0  0  0  0
 15 17  1  0  0  0  0
 17 18  1  0  0  0  0
 17 19  2  0  0  0  0
 19 20  1  0  0  0  0
 20 21  1  0  0  0  0
 22 23  2  0  0  0  0
 22 24  1  0  0  0  0
 24 25  1  0  0  0  0
 24 26  1  0  0  0  0
 26 27  1  0  0  0  0
 26 28  1  0  0  0  0
 26 29  1  0  0  0  0
M  END
$$$$

  -OEChem-04042215593D

 29 29  0     1  0  0  0  0  0999 V2000
   -3.5961   -3.6345    1.3461 H   0  0  0  0  0  0  0  0  0  0  0  0
   -3.4938   -2.7138    0.7648 C   0  0  0  0  0  0  0  0  0  0  0  0
   -4.1874   -1.9681    1.1607 H   0  0  0  0  0  0  0  0  0  0  0  0
   -3.7509   -2.9245   -0.2760 H   0  0  0  0  0  0  0  0  0  0  0  0
   -2.0706   -2.1961    0.8520 C   0  0  0  0  0  0  0  0  0  0  0  0
   -1.2445   -2.7883    1.5273 O   0  0  0  0  0  0  0  0  0  0  0  0
   -1.7139   -1.0495    0.1737 N   0  0  0  0  0  0  0  0  0  0  0  0
   -2.4522   -0.5369   -0.3063 H   0  0  0  0  0  0  0  0  0  0  0  0
   -0.3919   -0.4093    0.2473 C   0  0  1  0  0  0  0  0  0  0  0  0
    0.1743   -0.7873    1.1047 H   0  0  0  0  0  0  0  0  0  0  0  0
    0.3558   -0.7808   -1.0466 C   0  0  0  0  0  0  0  0  0  0  0  0
    0.4181   -1.8725   -1.1107 H   0  0  0  0  0  0  0  0  0  0  0  0
   -0.2325   -0.4347   -1.9036 H   0  0  0  0  0  0  0  0  0  0  0  0
    1.7530   -0.2175   -1.1758 C   0  0  0  0  0  0  0  0  0  0  0  0
    2.4837    0.5844   -0.3237 N   0  0  0  0  0  0  0  0  0  0  0  0
    2.1397    1.0367    0.5198 H   0  0  0  0  0  0  0  0  0  0  0  0
    3.7255    0.8100   -0.8864 C   0  0  0  0  0  0  0  0  0  0  0  0
    4.5073    1.4244   -0.4491 H   0  0  0  0  0  0  0  0  0  0  0  0
    3.8226    0.1808   -2.0310 N   0  0  0  0  0  0  0  0  0  0  0  0
    2.6046   -0.4621   -2.2220 C   0  0  0  0  0  0  0  0  0  0  0  0
    2.3628   -1.0771   -3.0838 H   0  0  0  0  0  0  0  0  0  0  0  0
   -0.5535    1.1131    0.4165 C   0  0  0  0  0  0  0  0  0  0  0  0
   -1.3627    1.7231   -0.2724 O   0  0  0  0  0  0  0  0  0  0  0  0
    0.2119    1.7983    1.3465 N   0  0  0  0  0  0  0  0  0  0  0  0
    0.6562    1.2353    2.0673 H   0  0  0  0  0  0  0  0  0  0  0  0
    0.0422    3.2258    1.5964 C   0  0  0  0  0  0  0  0  0  0  0  0
   -0.9657    3.4334    1.9712 H   0  0  0  0  0  0  0  0  0  0  0  0
    0.7674    3.5694    2.3405 H   0  0  0  0  0  0  0  0  0  0  0  0
    0.1990    3.7976    0.6752 H   0  0  0  0  0  0  0  0  0  0  0  0
  1  2  1  0  0  0  0
  2  3  1  0  0  0  0
  2  4  1  0  0  0  0
  2  5  1  0  0  0  0
  5  6  2  0  0  0  0
  5  7  1  0  0  0  0
  7  8  1  0  0  0  0
  7  9  1  0  0  0  0
  9 10  1  0  0  0  0
  9 11  1  0  0  0  0
  9 22  1  0  0  0  0
 11 12  1  0  0  0  0
 11 13  1  0  0  0  0
 11 14  1  0  0  0  0
 14 15  1  0  0  0  0
 14 20  2  0  0  0  0
 15 16  1  0  0  0  0
 15 17  1  0  0  0  0
 17 18  1  0  0  0  0
 17 19  2  0  0  0  0
 19 20  1  0  0  0  0
 20 21  1  0  0  0  0
 22 23  2  0  0  0  0
 22 24  1  0  0  0  0
 24 25  1  0  0  0  0
 24 26  1  0  0  0  0
 26 27  1  0  0  0  0
 26 28  1  0  0  0  0
 26 29  1  0  0  0  0
M  END
$$$$

  -OEChem-04042215593D

 29 29  0     1  0  0  0  0  0999 V2000
   -3.6345   -3.5962    1.3813 H   0  0  0  0  0  0  0  0  0  0  0  0
   -3.5170   -2.6840    0.7896 C   0  0  0  0  0  0  0  0  0  0  0  0
   -4.1909   -1.9191    1.1831 H   0  0  0  0  0  0  0  0  0  0  0  0
   -3.7865   -2.8994   -0.2471 H   0  0  0  0  0  0  0  0  0  0  0  0
   -2.0824   -2.1965    0.8607 C   0  0  0  0  0  0  0  0  0  0  0  0
   -1.2640   -2.7986    1.5371 O   0  0  0  0  0  0  0  0  0  0  0  0
   -1.7065   -1.0639    0.1701 N   0  0  0  0  0  0  0  0  0  0  0  0
   -2.4379   -0.5347   -0.3031 H   0  0  0  0  0  0  0  0  0  0  0  0
   -0.3746   -0.4452    0.2432 C   0  0  1  0  0  0  0  0  0  0  0  0
    0.1892   -0.8244    1.1012 H   0  0  0  0  0  0  0  0  0  0  0  0
    0.3623   -0.8067   -1.0583 C   0  0  0  0  0  0  0  0  0  0  0  0
    0.4205   -1.8982   -1.1251 H   0  0  0  0  0  0  0  0  0  0  0  0
   -0.2232   -0.4557   -1.9152 H   0  0  0  0  0  0  0  0  0  0  0  0
    1.7652   -0.2559   -1.1685 C   0  0  0  0  0  0  0  0  0  0  0  0
    2.5932    0.2773   -0.2024 N   0  0  0  0  0  0  0  0  0  0  0  0
    2.3972    0.3466    0.7917 H   0  0  0  0  0  0  0  0  0  0  0  0
    3.7689    0.6831   -0.8053 C   0  0  0  0  0  0  0  0  0  0  0  0
    4.6119    1.1346   -0.2901 H   0  0  0  0  0  0  0  0  0  0  0  0
    3.7223    0.4422   -2.0919 N   0  0  0  0  0  0  0  0  0  0  0  0
    2.4798   -0.1341   -2.3324 C   0  0  0  0  0  0  0  0  0  0  0  0
    2.1235   -0.4412   -3.3112 H   0  0  0  0  0  0  0  0  0  0  0  0
   -0.5324    1.0815    0.3944 C   0  0  0  0  0  0  0  0  0  0  0  0
   -1.3600    1.6755   -0.2882 O   0  0  0  0  0  0  0  0  0  0  0  0
    0.2224    1.7872    1.3161 N   0  0  0  0  0  0  0  0  0  0  0  0
    0.7301    1.2465    2.0088 H   0  0  0  0  0  0  0  0  0  0  0  0
    0.0542    3.2187    1.5387 C   0  0  0  0  0  0  0  0  0  0  0  0
   -0.9559    3.4343    1.9028 H   0  0  0  0  0  0  0  0  0  0  0  0
    0.7748    3.5746    2.2813 H   0  0  0  0  0  0  0  0  0  0  0  0
    0.2184    3.7726    0.6081 H   0  0  0  0  0  0  0  0  0  0  0  0
  1  2  1  0  0  0  0
  2  3  1  0  0  0  0
  2  4  1  0  0  0  0
  2  5  1  0  0  0  0
  5  6  2  0  0  0  0
  5  7  1  0  0  0  0
  7  8  1  0  0  0  0
  7  9  1  0  0  0  0
  9 10  1  0  0  0  0
  9 11  1  0  0  0  0
  9 22  1  0  0  0  0
 11 12  1  0  0  0  0
 11 13  1  0  0  0  0
 11 14  1  0  0  0  0
 14 15  1  0  0  0  0
 14 20  2  0  0  0  0
 15 16  1  0  0  0  0
 15 17  1  0  0  0  0
 17 18  1  0  0  0  0
 17 19  2  0  0  0  0
 19 20  1  0  0  0  0
 20 21  1  0  0  0  0
 22 23  2  0  0  0  0
 22 24  1  0  0  0  0
 24 25  1  0  0  0  0
 24 26  1  0  0  0  0
 26 27  1  0  0  0  0
 26 28  1  0  0  0  0
 26 29  1  0  0  0  0
M  END
$$$$

  -OEChem-04042215593D

 29 29  0     1  0  0  0  0  0999 V2000
   -3.6427   -3.5831    1.4449 H   0  0  0  0  0  0  0  0  0  0  0  0
   -3.5295   -2.6779    0.8417 C   0  0  0  0  0  0  0  0  0  0  0  0
   -4.1727   -1.8968    1.2540 H   0  0  0  0  0  0  0  0  0  0  0  0
   -3.8422   -2.8953   -0.1824 H   0  0  0  0  0  0  0  0  0  0  0  0
   -2.0838   -2.2189    0.8544 C   0  0  0  0  0  0  0  0  0  0  0  0
   -1.2470   -2.8466    1.4840 O   0  0  0  0  0  0  0  0  0  0  0  0
   -1.7166   -1.0873    0.1574 N   0  0  0  0  0  0  0  0  0  0  0  0
   -2.4606   -0.5316   -0.2635 H   0  0  0  0  0  0  0  0  0  0  0  0
   -0.3795   -0.4785    0.2062 C   0  0  1  0  0  0  0  0  0  0  0  0
    0.1928   -0.8609    1.0569 H   0  0  0  0  0  0  0  0  0  0  0  0
    0.3460   -0.8213   -1.1044 C   0  0  0  0  0  0  0  0  0  0  0  0
    0.4105   -1.9111   -1.1885 H   0  0  0  0  0  0  0  0  0  0  0  0
   -0.2409   -0.4591   -1.9558 H   0  0  0  0  0  0  0  0  0  0  0  0
    1.7432   -0.2543   -1.1810 C   0  0  0  0  0  0  0  0  0  0  0  0
    2.6357   -0.0021   -0.1595 N   0  0  0  0  0  0  0  0  0  0  0  0
    2.5406   -0.2952    0.8096 H   0  0  0  0  0  0  0  0  0  0  0  0
    3.7681    0.5761   -0.7025 C   0  0  0  0  0  0  0  0  0  0  0  0
    4.6529    0.8643   -0.1419 H   0  0  0  0  0  0  0  0  0  0  0  0
    3.6248    0.7206   -1.9966 N   0  0  0  0  0  0  0  0  0  0  0  0
    2.3666    0.2160   -2.3076 C   0  0  0  0  0  0  0  0  0  0  0  0
    1.9354    0.2049   -3.3043 H   0  0  0  0  0  0  0  0  0  0  0  0
   -0.5301    1.0502    0.3630 C   0  0  0  0  0  0  0  0  0  0  0  0
   -1.4000    1.6376   -0.2717 O   0  0  0  0  0  0  0  0  0  0  0  0
    0.2402    1.7601    1.2673 N   0  0  0  0  0  0  0  0  0  0  0  0
    0.9137    1.2445    1.8231 H   0  0  0  0  0  0  0  0  0  0  0  0
    0.1184    3.1998    1.4640 C   0  0  0  0  0  0  0  0  0  0  0  0
   -0.8862    3.4552    1.8170 H   0  0  0  0  0  0  0  0  0  0  0  0
    0.8438    3.5434    2.2075 H   0  0  0  0  0  0  0  0  0  0  0  0
    0.3083    3.7315    0.5255 H   0  0  0  0  0  0  0  0  0  0  0  0
  1  2  1  0  0  0  0
  2  3  1  0  0  0  0
  2  4  1  0  0  0  0
  2  5  1  0  0  0  0
  5  6  2  0  0  0  0
  5  7  1  0  0  0  0
  7  8  1  0  0  0  0
  7  9  1  0  0  0  0
  9 10  1  0  0  0  0
  9 11  1  0  0  0  0
  9 22  1  0  0  0  0
 11 12  1  0  0  0  0
 11 13  1  0  0  0  0
 11 14  1  0  0  0  0
 14 15  1  0  0  0  0
 14 20  2  0  0  0  0
 15 16  1  0  0  0  0
 15 17  1  0  0  0  0
 17 18  1  0  0  0  0
 17 19  2  0  0  0  0
 19 20  1  0  0  0  0
 20 21  1  0  0  0  0
 22 23  2  0  0  0  0
 22 24  1  0  0  0  0
 24 25  1  0  0  0  0
 24 26  1  0  0  0  0
 26 27  1  0  0  0  0
 26 28  1  0  0  0  0
 26 29  1  0  0  0  0
M  END
$$$$

  -OEChem-04042215593D

 29 29  0     1  0  0  0  0  0999 V2000
   -3.6180   -3.5957    1.4873 H   0  0  0  0  0  0  0  0  0  0  0  0
   -3.5224   -2.6928    0.8774 C   0  0  0  0  0  0  0  0  0  0  0  0
   -4.1511   -1.9092    1.3073 H   0  0  0  0  0  0  0  0  0  0  0  0
   -3.8678   -2.9132   -0.1356 H   0  0  0  0  0  0  0  0  0  0  0  0
   -2.0763   -2.2365    0.8428 C   0  0  0  0  0  0  0  0  0  0  0  0
   -1.2182   -2.8765    1.4304 O   0  0  0  0  0  0  0  0  0  0  0  0
   -1.7307   -1.0976    0.1466 N   0  0  0  0  0  0  0  0  0  0  0  0
   -2.4884   -0.5317   -0.2342 H   0  0  0  0  0  0  0  0  0  0  0  0
   -0.3945   -0.4853    0.1703 C   0  0  1  0  0  0  0  0  0  0  0  0
    0.1896   -0.8713    1.0113 H   0  0  0  0  0  0  0  0  0  0  0  0
    0.3230   -0.8158   -1.1458 C   0  0  0  0  0  0  0  0  0  0  0  0
    0.4002   -1.9035   -1.2446 H   0  0  0  0  0  0  0  0  0  0  0  0
   -0.2682   -0.4463   -1.9909 H   0  0  0  0  0  0  0  0  0  0  0  0
    1.7089   -0.2239   -1.1986 C   0  0  0  0  0  0  0  0  0  0  0  0
    2.6717   -0.2342   -0.2111 N   0  0  0  0  0  0  0  0  0  0  0  0
    2.6338   -0.7572    0.6617 H   0  0  0  0  0  0  0  0  0  0  0  0
    3.7770    0.4537   -0.6762 C   0  0  0  0  0  0  0  0  0  0  0  0
    4.7037    0.5918   -0.1265 H   0  0  0  0  0  0  0  0  0  0  0  0
    3.5485    0.9125   -1.8822 N   0  0  0  0  0  0  0  0  0  0  0  0
    2.2632    0.5016   -2.2204 C   0  0  0  0  0  0  0  0  0  0  0  0
    1.7677    0.7299   -3.1594 H   0  0  0  0  0  0  0  0  0  0  0  0
   -0.5345    1.0422    0.3435 C   0  0  0  0  0  0  0  0  0  0  0  0
   -1.4299    1.6354   -0.2493 O   0  0  0  0  0  0  0  0  0  0  0  0
    0.2628    1.7365    1.2356 N   0  0  0  0  0  0  0  0  0  0  0  0
    1.0183    1.2279    1.6830 H   0  0  0  0  0  0  0  0  0  0  0  0
    0.1787    3.1796    1.4246 C   0  0  0  0  0  0  0  0  0  0  0  0
   -0.8195    3.4634    1.7741 H   0  0  0  0  0  0  0  0  0  0  0  0
    0.9104    3.5067    2.1695 H   0  0  0  0  0  0  0  0  0  0  0  0
    0.3849    3.7020    0.4845 H   0  0  0  0  0  0  0  0  0  0  0  0
  1  2  1  0  0  0  0
  2  3  1  0  0  0  0
  2  4  1  0  0  0  0
  2  5  1  0  0  0  0
  5  6  2  0  0  0  0
  5  7  1  0  0  0  0
  7  8  1  0  0  0  0
  7  9  1  0  0  0  0
  9 10  1  0  0  0  0
  9 11  1  0  0  0  0
  9 22  1  0  0  0  0
 11 12  1  0  0  0  0
 11 13  1  0  0  0  0
 11 14  1  0  0  0  0
 14 15  1  0  0  0  0
 14 20  2  0  0  0  0
 15 16  1  0  0  0  0
 15 17  1  0  0  0  0
 17 18  1  0  0  0  0
 17 19  2  0  0  0  0
 19 20  1  0  0  0  0
 20 21  1  0  0  0  0
 22 23  2  0  0  0  0
 22 24  1  0  0  0  0
 24 25  1  0  0  0  0
 24 26  1  0  0  0  0
 26 27  1  0  0  0  0
 26 28  1  0  0  0  0
 26 29  1  0  0  0  0
M  END
$$$$

  -OEChem-04042215593D

 29 29  0     1  0  0  0  0  0999 V2000
   -3.5964   -3.6032    1.5118 H   0  0  0  0  0  0  0  0  0  0  0  0
   -3.5123   -2.7016    0.8985 C   0  0  0  0  0  0  0  0  0  0  0  0
   -4.1266   -1.9147    1.3428 H   0  0  0  0  0  0  0  0  0  0  0  0
   -3.8842   -2.9218   -0.1051 H   0  0  0  0  0  0  0  0  0  0  0  0
   -2.0657   -2.2509    0.8274 C   0  0  0  0  0  0  0  0  0  0  0  0
   -1.1932   -2.9020    1.3809 O   0  0  0  0  0  0  0  0  0  0  0  0
   -1.7369   -1.1039    0.1365 N   0  0  0  0  0  0  0  0  0  0  0  0
   -2.5043   -0.5324   -0.2151 H   0  0  0  0  0  0  0  0  0  0  0  0
   -0.4036   -0.4858    0.1461 C   0  0  1  0  0  0  0  0  0  0  0  0
    0.1902   -0.8745    0.9793 H   0  0  0  0  0  0  0  0  0  0  0  0
    0.3076   -0.8069   -1.1743 C   0  0  0  0  0  0  0  0  0  0  0  0
    0.3913   -1.8926   -1.2888 H   0  0  0  0  0  0  0  0  0  0  0  0
   -0.2877   -0.4283   -2.0125 H   0  0  0  0  0  0  0  0  0  0  0  0
    1.6843   -0.1956   -1.2108 C   0  0  0  0  0  0  0  0  0  0  0  0
    2.7263   -0.4415   -0.3429 N   0  0  0  0  0  0  0  0  0  0  0  0
    2.7405   -1.1373    0.4011 H   0  0  0  0  0  0  0  0  0  0  0  0
    3.8035    0.3338   -0.7293 C   0  0  0  0  0  0  0  0  0  0  0  0
    4.7748    0.3414   -0.2429 H   0  0  0  0  0  0  0  0  0  0  0  0
    3.4847    1.0603   -1.7728 N   0  0  0  0  0  0  0  0  0  0  0  0
    2.1682    0.7391   -2.0882 C   0  0  0  0  0  0  0  0  0  0  0  0
    1.6042    1.1724   -2.9090 H   0  0  0  0  0  0  0  0  0  0  0  0
   -0.5398    1.0394    0.3351 C   0  0  0  0  0  0  0  0  0  0  0  0
   -1.4431    1.6390   -0.2389 O   0  0  0  0  0  0  0  0  0  0  0  0
    0.2733    1.7220    1.2213 N   0  0  0  0  0  0  0  0  0  0  0  0
    1.0533    1.2120    1.6241 H   0  0  0  0  0  0  0  0  0  0  0  0
    0.2095    3.1663    1.4084 C   0  0  0  0  0  0  0  0  0  0  0  0
   -0.7847    3.4642    1.7578 H   0  0  0  0  0  0  0  0  0  0  0  0
    0.9456    3.4839    2.1531 H   0  0  0  0  0  0  0  0  0  0  0  0
    0.4227    3.6843    0.4673 H   0  0  0  0  0  0  0  0  0  0  0  0
  1  2  1  0  0  0  0
  2  3  1  0  0  0  0
  2  4  1  0  0  0  0
  2  5  1  0  0  0  0
  5  6  2  0  0  0  0
  5  7  1  0  0  0  0
  7  8  1  0  0  0  0
  7  9  1  0  0  0  0
  9 10  1  0  0  0  0
  9 11  1  0  0  0  0
  9 22  1  0  0  0  0
 11 12  1  0  0  0  0
 11 13  1  0  0  0  0
 11 14  1  0  0  0  0
 14 15  1  0  0  0  0
 14 20  2  0  0  0  0
 15 16  1  0  0  0  0
 15 17  1  0  0  0  0
 17 18  1  0  0  0  0
 17 19  2  0  0  0  0
 19 20  1  0  0  0  0
 20 21  1  0  0  0  0
 22 23  2  0  0  0  0
 22 24  1  0  0  0  0
 24 25  1  0  0  0  0
 24 26  1  0  0  0  0
 26 27  1  0  0  0  0
 26 28  1  0  0  0  0
 26 29  1  0  0  0  0
M  END
$$$$

  -OEChem-04042215593D

 29 29  0     1  0  0  0  0  0999 V2000
   -3.5836   -3.6153    1.5080 H   0  0  0  0  0  0  0  0  0  0  0  0
   -3.5068   -2.7097    0.8998 C   0  0  0  0  0  0  0  0  0  0  0  0
   -4.1180   -1.9269    1.3555 H   0  0  0  0  0  0  0  0  0  0  0  0
   -3.8879   -2.9239   -0.1016 H   0  0  0  0  0  0  0  0  0  0  0  0
   -2.0616   -2.2563    0.8169 C   0  0  0  0  0  0  0  0  0  0  0  0
   -1.1818   -2.9129    1.3520 O   0  0  0  0  0  0  0  0  0  0  0  0
   -1.7426   -1.1026    0.1325 N   0  0  0  0  0  0  0  0  0  0  0  0
   -2.5151   -0.5304   -0.2067 H   0  0  0  0  0  0  0  0  0  0  0  0
   -0.4119   -0.4791    0.1378 C   0  0  1  0  0  0  0  0  0  0  0  0
    0.1867   -0.8696    0.9669 H   0  0  0  0  0  0  0  0  0  0  0  0
    0.2993   -0.7981   -1.1829 C   0  0  0  0  0  0  0  0  0  0  0  0
    0.3848   -1.8827   -1.3068 H   0  0  0  0  0  0  0  0  0  0  0  0
   -0.2966   -0.4137   -2.0182 H   0  0  0  0  0  0  0  0  0  0  0  0
    1.6708   -0.1767   -1.2132 C   0  0  0  0  0  0  0  0  0  0  0  0
    2.7903   -0.6085   -0.5367 N   0  0  0  0  0  0  0  0  0  0  0  0
    2.8570   -1.4349    0.0554 H   0  0  0  0  0  0  0  0  0  0  0  0
    3.8398    0.2332   -0.8541 C   0  0  0  0  0  0  0  0  0  0  0  0
    4.8534    0.1392   -0.4746 H   0  0  0  0  0  0  0  0  0  0  0  0
    3.4347    1.1656   -1.6823 N   0  0  0  0  0  0  0  0  0  0  0  0
    2.0875    0.9173   -1.9256 C   0  0  0  0  0  0  0  0  0  0  0  0
    1.4557    1.5093   -2.5814 H   0  0  0  0  0  0  0  0  0  0  0  0
   -0.5485    1.0438    0.3392 C   0  0  0  0  0  0  0  0  0  0  0  0
   -1.4514    1.6486   -0.2297 O   0  0  0  0  0  0  0  0  0  0  0  0
    0.2718    1.7173    1.2255 N   0  0  0  0  0  0  0  0  0  0  0  0
    1.0596    1.2034    1.6091 H   0  0  0  0  0  0  0  0  0  0  0  0
    0.2218    3.1619    1.4141 C   0  0  0  0  0  0  0  0  0  0  0  0
   -0.7709    3.4698    1.7590 H   0  0  0  0  0  0  0  0  0  0  0  0
    0.9574    3.4709    2.1629 H   0  0  0  0  0  0  0  0  0  0  0  0
    0.4453    3.6789    0.4749 H   0  0  0  0  0  0  0  0  0  0  0  0
  1  2  1  0  0  0  0
  2  3  1  0  0  0  0
  2  4  1  0  0  0  0
  2  5  1  0  0  0  0
  5  6  2  0  0  0  0
  5  7  1  0  0  0  0
  7  8  1  0  0  0  0
  7  9  1  0  0  0  0
  9 10  1  0  0  0  0
  9 11  1  0  0  0  0
  9 22  1  0  0  0  0
 11 12  1  0  0  0  0
 11 13  1  0  0  0  0
 11 14  1  0  0  0  0
 14 15  1  0  0  0  0
 14 20  2  0  0  0  0
 15 16  1  0  0  0  0
 15 17  1  0  0  0  0
 17 18  1  0  0  0  0
 17 19  2  0  0  0  0
 19 20  1  0  0  0  0
 20 21  1  0  0  0  0
 22 23  2  0  0  0  0
 22 24  1  0  0  0  0
 24 25  1  0  0  0  0
 24 26  1  0  0  0  0
 26 27  1  0  0  0  0
 26 28  1  0  0  0  0
 26 29  1  0  0  0  0
M  END
$$$$

  -OEChem-04042215593D

 29 29  0     1  0  0  0  0  0999 V2000
   -3.5795   -3.6226    1.4938 H   0  0  0  0  0  0  0  0  0  0  0  0
   -3.5044   -2.7142    0.8897 C   0  0  0  0  0  0  0  0  0  0  0  0
   -4.1194   -1.9354    1.3472 H   0  0  0  0  0  0  0  0  0  0  0  0
   -3.8819   -2.9252   -0.1136 H   0  0  0  0  0  0  0  0  0  0  0  0
   -2.0606   -2.2559    0.8125 C   0  0  0  0  0  0  0  0  0  0  0  0
   -1.1793   -2.9161    1.3403 O   0  0  0  0  0  0  0  0  0  0  0  0
   -1.7443   -1.0972    0.1354 N   0  0  0  0  0  0  0  0  0  0  0  0
   -2.5187   -0.5262   -0.2015 H   0  0  0  0  0  0  0  0  0  0  0  0
   -0.4156   -0.4688    0.1438 C   0  0  1  0  0  0  0  0  0  0  0  0
    0.1836   -0.8611    0.9720 H   0  0  0  0  0  0  0  0  0  0  0  0
    0.2975   -0.7896   -1.1760 C   0  0  0  0  0  0  0  0  0  0  0  0
    0.3798   -1.8740   -1.3025 H   0  0  0  0  0  0  0  0  0  0  0  0
   -0.2993   -0.4032   -2.0095 H   0  0  0  0  0  0  0  0  0  0  0  0
    1.6690   -0.1673   -1.2140 C   0  0  0  0  0  0  0  0  0  0  0  0
    2.8462   -0.7365   -0.7823 N   0  0  0  0  0  0  0  0  0  0  0  0
    2.9538   -1.6624   -0.3713 H   0  0  0  0  0  0  0  0  0  0  0  0
    3.8760    0.1506   -1.0341 C   0  0  0  0  0  0  0  0  0  0  0  0
    4.9221   -0.0222   -0.7973 H   0  0  0  0  0  0  0  0  0  0  0  0
    3.4068    1.2362   -1.6004 N   0  0  0  0  0  0  0  0  0  0  0  0
    2.0353    1.0461   -1.7368 C   0  0  0  0  0  0  0  0  0  0  0  0
    1.3518    1.7592   -2.1886 H   0  0  0  0  0  0  0  0  0  0  0  0
   -0.5569    1.0519    0.3540 C   0  0  0  0  0  0  0  0  0  0  0  0
   -1.4534    1.6593   -0.2219 O   0  0  0  0  0  0  0  0  0  0  0  0
    0.2613    1.7233    1.2437 N   0  0  0  0  0  0  0  0  0  0  0  0
    1.0461    1.2073    1.6319 H   0  0  0  0  0  0  0  0  0  0  0  0
    0.2127    3.1677    1.4336 C   0  0  0  0  0  0  0  0  0  0  0  0
   -0.7809    3.4766    1.7752 H   0  0  0  0  0  0  0  0  0  0  0  0
    0.9461    3.4751    2.1854 H   0  0  0  0  0  0  0  0  0  0  0  0
    0.4402    3.6851    0.4956 H   0  0  0  0  0  0  0  0  0  0  0  0
  1  2  1  0  0  0  0
  2  3  1  0  0  0  0
  2  4  1  0  0  0  0
  2  5  1  0  0  0  0
  5  6  2  0  0  0  0
  5  7  1  0  0  0  0
  7  8  1  0  0  0  0
  7  9  1  0  0  0  0
  9 10  1  0  0  0  0
  9 11  1  0  0  0  0
  9 22  1  0  0  0  0
 11 12  1  0  0  0  0
 11 13  1  0  0  0  0
 11 14  1  0  0  0  0
 14 15  1  0  0  0  0
 14 20  2  0  0  0  0
 15 16  1  0  0  0  0
 15 17  1  0  0  0  0
 17 18  1  0  0  0  0
 17 19  2  0  0  0  0
 19 20  1  0  0  0  0
 20 21  1  0  0  0  0
 22 23  2  0  0  0  0
 22 24  1  0  0  0  0
 24 25  1  0  0  0  0
 24 26  1  0  0  0  0
 26 27  1  0  0  0  0
 26 28  1  0  0  0  0
 26 29  1  0  0  0  0
M  END
$$$$

  -OEChem-04042215593D

 29 29  0     1  0  0  0  0  0999 V2000
   -3.5754   -3.6285    1.4754 H   0  0  0  0  0  0  0  0  0  0  0  0
   -3.5008   -2.7174    0.8752 C   0  0  0  0  0  0  0  0  0  0  0  0
   -4.1233   -1.9436    1.3308 H   0  0  0  0  0  0  0  0  0  0  0  0
   -3.8704   -2.9268   -0.1315 H   0  0  0  0  0  0  0  0  0  0  0  0
   -2.0587   -2.2510    0.8107 C   0  0  0  0  0  0  0  0  0  0  0  0
   -1.1785   -2.9091    1.3424 O   0  0  0  0  0  0  0  0  0  0  0  0
   -1.7428   -1.0880    0.1407 N   0  0  0  0  0  0  0  0  0  0  0  0
   -2.5173   -0.5204   -0.2015 H   0  0  0  0  0  0  0  0  0  0  0  0
   -0.4167   -0.4537    0.1582 C   0  0  1  0  0  0  0  0  0  0  0  0
    0.1794   -0.8454    0.9890 H   0  0  0  0  0  0  0  0  0  0  0  0
    0.3023   -0.7801   -1.1589 C   0  0  0  0  0  0  0  0  0  0  0  0
    0.3807   -1.8658   -1.2771 H   0  0  0  0  0  0  0  0  0  0  0  0
   -0.2953   -0.3991   -1.9941 H   0  0  0  0  0  0  0  0  0  0  0  0
    1.6775   -0.1642   -1.2182 C   0  0  0  0  0  0  0  0  0  0  0  0
    2.8783   -0.8208   -1.0647 N   0  0  0  0  0  0  0  0  0  0  0  0
    3.0026   -1.8105   -0.8580 H   0  0  0  0  0  0  0  0  0  0  0  0
    3.9013    0.0898   -1.2509 C   0  0  0  0  0  0  0  0  0  0  0  0
    4.9613   -0.1370   -1.1796 H   0  0  0  0  0  0  0  0  0  0  0  0
    3.4065    1.2726   -1.5251 N   0  0  0  0  0  0  0  0  0  0  0  0
    2.0235    1.1254   -1.5339 C   0  0  0  0  0  0  0  0  0  0  0  0
    1.3186    1.9209   -1.7584 H   0  0  0  0  0  0  0  0  0  0  0  0
   -0.5684    1.0649    0.3744 C   0  0  0  0  0  0  0  0  0  0  0  0
   -1.4578    1.6725   -0.2121 O   0  0  0  0  0  0  0  0  0  0  0  0
    0.2412    1.7374    1.2713 N   0  0  0  0  0  0  0  0  0  0  0  0
    1.0148    1.2195    1.6798 H   0  0  0  0  0  0  0  0  0  0  0  0
    0.1852    3.1807    1.4672 C   0  0  0  0  0  0  0  0  0  0  0  0
   -0.8111    3.4837    1.8061 H   0  0  0  0  0  0  0  0  0  0  0  0
    0.9142    3.4878    2.2233 H   0  0  0  0  0  0  0  0  0  0  0  0
    0.4144    3.7034    0.5325 H   0  0  0  0  0  0  0  0  0  0  0  0
  1  2  1  0  0  0  0
  2  3  1  0  0  0  0
  2  4  1  0  0  0  0
  2  5  1  0  0  0  0
  5  6  2  0  0  0  0
  5  7  1  0  0  0  0
  7  8  1  0  0  0  0
  7  9  1  0  0  0  0
  9 10  1  0  0  0  0
  9 11  1  0  0  0  0
  9 22  1  0  0  0  0
 11 12  1  0  0  0  0
 11 13  1  0  0  0  0
 11 14  1  0  0  0  0
 14 15  1  0  0  0  0
 14 20  2  0  0  0  0
 15 16  1  0  0  0  0
 15 17  1  0  0  0  0
 17 18  1  0  0  0  0
 17 19  2  0  0  0  0
 19 20  1  0  0  0  0
 20 21  1  0  0  0  0
 22 23  2  0  0  0  0
 22 24  1  0  0  0  0
 24 25  1  0  0  0  0
 24 26  1  0  0  0  0
 26 27  1  0  0  0  0
 26 28  1  0  0  0  0
 26 29  1  0  0  0  0
M  END
$$$$

  -OEChem-04042215593D

 29 29  0     1  0  0  0  0  0999 V2000
   -3.5633   -3.6349    1.4468 H   0  0  0  0  0  0  0  0  0  0  0  0
   -3.4892   -2.7170    0.8569 C   0  0  0  0  0  0  0  0  0  0  0  0
   -4.1199   -1.9518    1.3159 H   0  0  0  0  0  0  0  0  0  0  0  0
   -3.8492   -2.9177   -0.1550 H   0  0  0  0  0  0  0  0  0  0  0  0
   -2.0495   -2.2418    0.8084 C   0  0  0  0  0  0  0  0  0  0  0  0
   -1.1700   -2.8996    1.3415 O   0  0  0  0  0  0  0  0  0  0  0  0
   -1.7350   -1.0736    0.1468 N   0  0  0  0  0  0  0  0  0  0  0  0
   -2.5104   -0.5092   -0.1989 H   0  0  0  0  0  0  0  0  0  0  0  0
   -0.4131   -0.4304    0.1784 C   0  0  1  0  0  0  0  0  0  0  0  0
    0.1784   -0.8177    1.0146 H   0  0  0  0  0  0  0  0  0  0  0  0
    0.3164   -0.7681   -1.1331 C   0  0  0  0  0  0  0  0  0  0  0  0
    0.3907   -1.8561   -1.2299 H   0  0  0  0  0  0  0  0  0  0  0  0
   -0.2810   -0.4039   -1.9758 H   0  0  0  0  0  0  0  0  0  0  0  0
    1.6980   -0.1647   -1.2269 C   0  0  0  0  0  0  0  0  0  0  0  0
    2.8770   -0.8636   -1.3665 N   0  0  0  0  0  0  0  0  0  0  0  0
    2.9790   -1.8768   -1.3711 H   0  0  0  0  0  0  0  0  0  0  0  0
    3.9138    0.0405   -1.4965 C   0  0  0  0  0  0  0  0  0  0  0  0
    4.9626   -0.2218   -1.6044 H   0  0  0  0  0  0  0  0  0  0  0  0
    3.4477    1.2652   -1.4682 N   0  0  0  0  0  0  0  0  0  0  0  0
    2.0685    1.1534   -1.3305 C   0  0  0  0  0  0  0  0  0  0  0  0
    1.3833    1.9958   -1.3197 H   0  0  0  0  0  0  0  0  0  0  0  0
   -0.5861    1.0847    0.4004 C   0  0  0  0  0  0  0  0  0  0  0  0
   -1.4741    1.6858   -0.1944 O   0  0  0  0  0  0  0  0  0  0  0  0
    0.2066    1.7623    1.3088 N   0  0  0  0  0  0  0  0  0  0  0  0
    0.9694    1.2465    1.7402 H   0  0  0  0  0  0  0  0  0  0  0  0
    0.1259    3.2024    1.5219 C   0  0  0  0  0  0  0  0  0  0  0  0
   -0.8783    3.4859    1.8543 H   0  0  0  0  0  0  0  0  0  0  0  0
    0.8427    3.5117    2.2889 H   0  0  0  0  0  0  0  0  0  0  0  0
    0.3563    3.7401    0.5961 H   0  0  0  0  0  0  0  0  0  0  0  0
  1  2  1  0  0  0  0
  2  3  1  0  0  0  0
  2  4  1  0  0  0  0
  2  5  1  0  0  0  0
  5  6  2  0  0  0  0
  5  7  1  0  0  0  0
  7  8  1  0  0  0  0
  7  9  1  0  0  0  0
  9 10  1  0  0  0  0
  9 11  1  0  0  0  0
  9 22  1  0  0  0  0
 11 12  1  0  0  0  0
 11 13  1  0  0  0  0
 11 14  1  0  0  0  0
 14 15  1  0  0  0  0
 14 20  2  0  0  0  0
 15 16  1  0  0  0  0
 15 17  1  0  0  0  0
 17 18  1  0  0  0  0
 17 19  2  0  0  0  0
 19 20  1  0  0  0  0
 20 21  1  0  0  0  0
 22 23  2  0  0  0  0
 22 24  1  0  0  0  0
 24 25  1  0  0  0  0
 24 26  1  0  0  0  0
 26 27  1  0  0  0  0
 26 28  1  0  0  0  0
 26 29  1  0  0  0  0
M  END
$$$$

  -OEChem-04042215593D

 29 29  0     1  0  0  0  0  0999 V2000
   -3.5422   -3.6418    1.4068 H   0  0  0  0  0  0  0  0  0  0  0  0
   -3.4666   -2.7178    0.8269 C   0  0  0  0  0  0  0  0  0  0  0  0
   -4.1150   -1.9639    1.2795 H   0  0  0  0  0  0  0  0  0  0  0  0
   -3.8040   -2.9138   -0.1937 H   0  0  0  0  0  0  0  0  0  0  0  0
   -2.0316   -2.2259    0.8123 C   0  0  0  0  0  0  0  0  0  0  0  0
   -1.1580   -2.8705    1.3701 O   0  0  0  0  0  0  0  0  0  0  0  0
   -1.7151   -1.0549    0.1568 N   0  0  0  0  0  0  0  0  0  0  0  0
   -2.4885   -0.5002   -0.2087 H   0  0  0  0  0  0  0  0  0  0  0  0
   -0.3991   -0.3999    0.2073 C   0  0  1  0  0  0  0  0  0  0  0  0
    0.1880   -0.7799    1.0499 H   0  0  0  0  0  0  0  0  0  0  0  0
    0.3362   -0.7479   -1.1017 C   0  0  0  0  0  0  0  0  0  0  0  0
    0.4086   -1.8382   -1.1697 H   0  0  0  0  0  0  0  0  0  0  0  0
   -0.2679   -0.4079   -1.9498 H   0  0  0  0  0  0  0  0  0  0  0  0
    1.7254   -0.1648   -1.2468 C   0  0  0  0  0  0  0  0  0  0  0  0
    2.8283   -0.8634   -1.6897 N   0  0  0  0  0  0  0  0  0  0  0  0
    2.8578   -1.8541   -1.9225 H   0  0  0  0  0  0  0  0  0  0  0  0
    3.9060   -0.0016   -1.7558 C   0  0  0  0  0  0  0  0  0  0  0  0
    4.9125   -0.2798   -2.0556 H   0  0  0  0  0  0  0  0  0  0  0  0
    3.5370    1.2045   -1.4023 N   0  0  0  0  0  0  0  0  0  0  0  0
    2.1803    1.1248   -1.1099 C   0  0  0  0  0  0  0  0  0  0  0  0
    1.5732    1.9813   -0.8372 H   0  0  0  0  0  0  0  0  0  0  0  0
   -0.6038    1.1109    0.4279 C   0  0  0  0  0  0  0  0  0  0  0  0
   -1.4889    1.6994   -0.1835 O   0  0  0  0  0  0  0  0  0  0  0  0
    0.1625    1.8001    1.3506 N   0  0  0  0  0  0  0  0  0  0  0  0
    0.9017    1.2881    1.8255 H   0  0  0  0  0  0  0  0  0  0  0  0
    0.0334    3.2323    1.5893 C   0  0  0  0  0  0  0  0  0  0  0  0
   -0.9799    3.4758    1.9253 H   0  0  0  0  0  0  0  0  0  0  0  0
    0.7391    3.5517    2.3622 H   0  0  0  0  0  0  0  0  0  0  0  0
    0.2461    3.7938    0.6736 H   0  0  0  0  0  0  0  0  0  0  0  0
  1  2  1  0  0  0  0
  2  3  1  0  0  0  0
  2  4  1  0  0  0  0
  2  5  1  0  0  0  0
  5  6  2  0  0  0  0
  5  7  1  0  0  0  0
  7  8  1  0  0  0  0
  7  9  1  0  0  0  0
  9 10  1  0  0  0  0
  9 11  1  0  0  0  0
  9 22  1  0  0  0  0
 11 12  1  0  0  0  0
 11 13  1  0  0  0  0
 11 14  1  0  0  0  0
 14 15  1  0  0  0  0
 14 20  2  0  0  0  0
 15 16  1  0  0  0  0
 15 17  1  0  0  0  0
 17 18  1  0  0  0  0
 17 19  2  0  0  0  0
 19 20  1  0  0  0  0
 20 21  1  0  0  0  0
 22 23  2  0  0  0  0
 22 24  1  0  0  0  0
 24 25  1  0  0  0  0
 24 26  1  0  0  0  0
 26 27  1  0  0  0  0
 26 28  1  0  0  0  0
 26 29  1  0  0  0  0
M  END
$$$$

  -OEChem-04042215593D

 29 29  0     1  0  0  0  0  0999 V2000
   -3.5113   -3.6438    1.3664 H   0  0  0  0  0  0  0  0  0  0  0  0
   -3.4349   -2.7137    0.7963 C   0  0  0  0  0  0  0  0  0  0  0  0
   -4.0959   -1.9694    1.2469 H   0  0  0  0  0  0  0  0  0  0  0  0
   -3.7559   -2.9023   -0.2310 H   0  0  0  0  0  0  0  0  0  0  0  0
   -2.0040   -2.2104    0.8070 C   0  0  0  0  0  0  0  0  0  0  0  0
   -1.1360   -2.8462    1.3831 O   0  0  0  0  0  0  0  0  0  0  0  0
   -1.6846   -1.0363    0.1588 N   0  0  0  0  0  0  0  0  0  0  0  0
   -2.4551   -0.4854   -0.2186 H   0  0  0  0  0  0  0  0  0  0  0  0
   -0.3749   -0.3710    0.2378 C   0  0  1  0  0  0  0  0  0  0  0  0
    0.2097   -0.7464    1.0841 H   0  0  0  0  0  0  0  0  0  0  0  0
    0.3585   -0.7154   -1.0757 C   0  0  0  0  0  0  0  0  0  0  0  0
    0.4266   -1.8070   -1.1329 H   0  0  0  0  0  0  0  0  0  0  0  0
   -0.2555   -0.3831   -1.9197 H   0  0  0  0  0  0  0  0  0  0  0  0
    1.7538   -0.1568   -1.2692 C   0  0  0  0  0  0  0  0  0  0  0  0
    2.7288   -0.7922   -2.0092 N   0  0  0  0  0  0  0  0  0  0  0  0
    2.6347   -1.6904   -2.4789 H   0  0  0  0  0  0  0  0  0  0  0  0
    3.8752   -0.0224   -1.9992 C   0  0  0  0  0  0  0  0  0  0  0  0
    4.8075   -0.2813   -2.4929 H   0  0  0  0  0  0  0  0  0  0  0  0
    3.6739    1.0686   -1.3041 N   0  0  0  0  0  0  0  0  0  0  0  0
    2.3593    1.0061   -0.8569 C   0  0  0  0  0  0  0  0  0  0  0  0
    1.8953    1.7942   -0.2789 H   0  0  0  0  0  0  0  0  0  0  0  0
   -0.6201    1.1353    0.4555 C   0  0  0  0  0  0  0  0  0  0  0  0
   -1.5030    1.7038   -0.1779 O   0  0  0  0  0  0  0  0  0  0  0  0
    0.1041    1.8450    1.3966 N   0  0  0  0  0  0  0  0  0  0  0  0
    0.8135    1.3431    1.9247 H   0  0  0  0  0  0  0  0  0  0  0  0
   -0.0848    3.2688    1.6465 C   0  0  0  0  0  0  0  0  0  0  0  0
   -1.1105    3.4681    1.9743 H   0  0  0  0  0  0  0  0  0  0  0  0
    0.6004    3.6101    2.4285 H   0  0  0  0  0  0  0  0  0  0  0  0
    0.1139    3.8460    0.7372 H   0  0  0  0  0  0  0  0  0  0  0  0
  1  2  1  0  0  0  0
  2  3  1  0  0  0  0
  2  4  1  0  0  0  0
  2  5  1  0  0  0  0
  5  6  2  0  0  0  0
  5  7  1  0  0  0  0
  7  8  1  0  0  0  0
  7  9  1  0  0  0  0
  9 10  1  0  0  0  0
  9 11  1  0  0  0  0
  9 22  1  0  0  0  0
 11 12  1  0  0  0  0
 11 13  1  0  0  0  0
 11 14  1  0  0  0  0
 14 15  1  0  0  0  0
 14 20  2  0  0  0  0
 15 16  1  0  0  0  0
 15 17  1  0  0  0  0
 17 18  1  0  0  0  0
 17 19  2  0  0  0  0
 19 20  1  0  0  0  0
 20 21  1  0  0  0  0
 22 23  2  0  0  0  0
 22 24  1  0  0  0  0
 24 25  1  0  0  0  0
 24 26  1  0  0  0  0
 26 27  1  0  0  0  0
 26 28  1  0  0  0  0
 26 29  1  0  0  0  0
M  END
$$$$

  -OEChem-04042215593D

 29 29  0     1  0  0  0  0  0999 V2000
   -3.5150   -3.6356    1.3637 H   0  0  0  0  0  0  0  0  0  0  0  0
   -3.4326   -2.7081    0.7901 C   0  0  0  0  0  0  0  0  0  0  0  0
   -4.0961   -1.9606    1.2318 H   0  0  0  0  0  0  0  0  0  0  0  0
   -3.7450   -2.9009   -0.2390 H   0  0  0  0  0  0  0  0  0  0  0  0
   -2.0012   -2.2067    0.8108 C   0  0  0  0  0  0  0  0  0  0  0  0
   -1.1395   -2.8406    1.3983 O   0  0  0  0  0  0  0  0  0  0  0  0
   -1.6737   -1.0365    0.1595 N   0  0  0  0  0  0  0  0  0  0  0  0
   -2.4397   -0.4842   -0.2254 H   0  0  0  0  0  0  0  0  0  0  0  0
   -0.3626   -0.3748    0.2483 C   0  0  1  0  0  0  0  0  0  0  0  0
    0.2247   -0.7523    1.0918 H   0  0  0  0  0  0  0  0  0  0  0  0
    0.3615   -0.6913   -1.0762 C   0  0  0  0  0  0  0  0  0  0  0  0
    0.4254   -1.7811   -1.1629 H   0  0  0  0  0  0  0  0  0  0  0  0
   -0.2579   -0.3327   -1.9054 H   0  0  0  0  0  0  0  0  0  0  0  0
    1.7573   -0.1354   -1.2694 C   0  0  0  0  0  0  0  0  0  0  0  0
    2.6160   -0.5798   -2.2525 N   0  0  0  0  0  0  0  0  0  0  0  0
    2.4064   -1.2834   -2.9575 H   0  0  0  0  0  0  0  0  0  0  0  0
    3.8225    0.0813   -2.1300 C   0  0  0  0  0  0  0  0  0  0  0  0
    4.6840   -0.0623   -2.7762 H   0  0  0  0  0  0  0  0  0  0  0  0
    3.7773    0.9074   -1.1151 N   0  0  0  0  0  0  0  0  0  0  0  0
    2.5069    0.7769   -0.5671 C   0  0  0  0  0  0  0  0  0  0  0  0
    2.1867    1.3200    0.3114 H   0  0  0  0  0  0  0  0  0  0  0  0
   -0.6232    1.1331    0.4565 C   0  0  0  0  0  0  0  0  0  0  0  0
   -1.5036    1.6885   -0.1928 O   0  0  0  0  0  0  0  0  0  0  0  0
    0.0782    1.8626    1.3994 N   0  0  0  0  0  0  0  0  0  0  0  0
    0.7714    1.3711    1.9572 H   0  0  0  0  0  0  0  0  0  0  0  0
   -0.1270    3.2877    1.6287 C   0  0  0  0  0  0  0  0  0  0  0  0
   -1.1591    3.4824    1.9381 H   0  0  0  0  0  0  0  0  0  0  0  0
    0.5430    3.6437    2.4171 H   0  0  0  0  0  0  0  0  0  0  0  0
    0.0813    3.8562    0.7161 H   0  0  0  0  0  0  0  0  0  0  0  0
  1  2  1  0  0  0  0
  2  3  1  0  0  0  0
  2  4  1  0  0  0  0
  2  5  1  0  0  0  0
  5  6  2  0  0  0  0
  5  7  1  0  0  0  0
  7  8  1  0  0  0  0
  7  9  1  0  0  0  0
  9 10  1  0  0  0  0
  9 11  1  0  0  0  0
  9 22  1  0  0  0  0
 11 12  1  0  0  0  0
 11 13  1  0  0  0  0
 11 14  1  0  0  0  0
 14 15  1  0  0  0  0
 14 20  2  0  0  0  0
 15 16  1  0  0  0  0
 15 17  1  0  0  0  0
 17 18  1  0  0  0  0
 17 19  2  0  0  0  0
 19 20  1  0  0  0  0
 20 21  1  0  0  0  0
 22 23  2  0  0  0  0
 22 24  1  0  0  0  0
 24 25  1  0  0  0  0
 24 26  1  0  0  0  0
 26 27  1  0  0  0  0
 26 28  1  0  0  0  0
 26 29  1  0  0  0  0
M  END
$$$$

  -OEChem-04042215593D

 29 29  0     1  0  0  0  0  0999 V2000
   -3.5684   -3.6228    1.4256 H   0  0  0  0  0  0  0  0  0  0  0  0
   -3.4837   -2.7075    0.8332 C   0  0  0  0  0  0  0  0  0  0  0  0
   -4.1359   -1.9458    1.2672 H   0  0  0  0  0  0  0  0  0  0  0  0
   -3.8088   -2.9174   -0.1885 H   0  0  0  0  0  0  0  0  0  0  0  0
   -2.0475   -2.2195    0.8293 C   0  0  0  0  0  0  0  0  0  0  0  0
   -1.1878   -2.8494    1.4234 O   0  0  0  0  0  0  0  0  0  0  0  0
   -1.7173   -1.0637    0.1533 N   0  0  0  0  0  0  0  0  0  0  0  0
   -2.4833   -0.5160   -0.2368 H   0  0  0  0  0  0  0  0  0  0  0  0
   -0.3997   -0.4119    0.2069 C   0  0  1  0  0  0  0  0  0  0  0  0
    0.1729   -0.7989    1.0559 H   0  0  0  0  0  0  0  0  0  0  0  0
    0.3437   -0.7254   -1.1042 C   0  0  0  0  0  0  0  0  0  0  0  0
    0.2171   -1.7896   -1.3289 H   0  0  0  0  0  0  0  0  0  0  0  0
   -0.1164   -0.1600   -1.9217 H   0  0  0  0  0  0  0  0  0  0  0  0
    1.8288   -0.4396   -1.0755 C   0  0  0  0  0  0  0  0  0  0  0  0
    2.6925   -0.6411   -2.1301 N   0  0  0  0  0  0  0  0  0  0  0  0
    2.4416   -0.9824   -3.0557 H   0  0  0  0  0  0  0  0  0  0  0  0
    3.9706   -0.3007   -1.7294 C   0  0  0  0  0  0  0  0  0  0  0  0
    4.8571   -0.3522   -2.3551 H   0  0  0  0  0  0  0  0  0  0  0  0
    3.9595    0.0948   -0.4802 N   0  0  0  0  0  0  0  0  0  0  0  0
    2.6388    0.0032   -0.0591 C   0  0  0  0  0  0  0  0  0  0  0  0
    2.3083    0.2404    0.9464 H   0  0  0  0  0  0  0  0  0  0  0  0
   -0.5801    1.1089    0.3927 C   0  0  0  0  0  0  0  0  0  0  0  0
   -1.4575    1.6908   -0.2365 O   0  0  0  0  0  0  0  0  0  0  0  0
    0.1816    1.8166    1.3049 N   0  0  0  0  0  0  0  0  0  0  0  0
    0.8763    1.3048    1.8415 H   0  0  0  0  0  0  0  0  0  0  0  0
    0.0422    3.2507    1.5253 C   0  0  0  0  0  0  0  0  0  0  0  0
   -0.9710    3.4905    1.8647 H   0  0  0  0  0  0  0  0  0  0  0  0
    0.7508    3.5860    2.2888 H   0  0  0  0  0  0  0  0  0  0  0  0
    0.2448    3.8014    0.6007 H   0  0  0  0  0  0  0  0  0  0  0  0
  1  2  1  0  0  0  0
  2  3  1  0  0  0  0
  2  4  1  0  0  0  0
  2  5  1  0  0  0  0
  5  6  2  0  0  0  0
  5  7  1  0  0  0  0
  7  8  1  0  0  0  0
  7  9  1  0  0  0  0
  9 10  1  0  0  0  0
  9 11  1  0  0  0  0
  9 22  1  0  0  0  0
 11 12  1  0  0  0  0
 11 13  1  0  0  0  0
 11 14  1  0  0  0  0
 14 15  1  0  0  0  0
 14 20  2  0  0  0  0
 15 16  1  0  0  0  0
 15 17  1  0  0  0  0
 17 18  1  0  0  0  0
 17 19  2  0  0  0  0
 19 20  1  0  0  0  0
 20 21  1  0  0  0  0
 22 23  2  0  0  0  0
 22 24  1  0  0  0  0
 24 25  1  0  0  0  0
 24 26  1  0  0  0  0
 26 27  1  0  0  0  0
 26 28  1  0  0  0  0
 26 29  1  0  0  0  0
M  END
$$$$

  -OEChem-04042215593D

 29 29  0     1  0  0  0  0  0999 V2000
   -3.5859   -3.6317    1.4344 H   0  0  0  0  0  0  0  0  0  0  0  0
   -3.5024   -2.7173    0.8403 C   0  0  0  0  0  0  0  0  0  0  0  0
   -4.1526   -1.9543    1.2751 H   0  0  0  0  0  0  0  0  0  0  0  0
   -3.8308   -2.9286   -0.1802 H   0  0  0  0  0  0  0  0  0  0  0  0
   -2.0657   -2.2310    0.8312 C   0  0  0  0  0  0  0  0  0  0  0  0
   -1.2042   -2.8631    1.4204 O   0  0  0  0  0  0  0  0  0  0  0  0
   -1.7374   -1.0755    0.1536 N   0  0  0  0  0  0  0  0  0  0  0  0
   -2.5051   -0.5267   -0.2312 H   0  0  0  0  0  0  0  0  0  0  0  0
   -0.4187   -0.4260    0.1988 C   0  0  1  0  0  0  0  0  0  0  0  0
    0.1470   -0.8171    1.0498 H   0  0  0  0  0  0  0  0  0  0  0  0
    0.3309   -0.7404   -1.1072 C   0  0  0  0  0  0  0  0  0  0  0  0
    0.2098   -1.8035   -1.3406 H   0  0  0  0  0  0  0  0  0  0  0  0
   -0.1238   -0.1699   -1.9240 H   0  0  0  0  0  0  0  0  0  0  0  0
    1.8129   -0.4437   -1.0541 C   0  0  0  0  0  0  0  0  0  0  0  0
    2.6477   -0.3542   -2.1466 N   0  0  0  0  0  0  0  0  0  0  0  0
    2.3779   -0.4710   -3.1213 H   0  0  0  0  0  0  0  0  0  0  0  0
    3.9253   -0.0658   -1.7054 C   0  0  0  0  0  0  0  0  0  0  0  0
    4.7928    0.0677   -2.3455 H   0  0  0  0  0  0  0  0  0  0  0  0
    3.9399    0.0259   -0.3981 N   0  0  0  0  0  0  0  0  0  0  0  0
    2.6372   -0.2155    0.0199 C   0  0  0  0  0  0  0  0  0  0  0  0
    2.3252   -0.2203    1.0593 H   0  0  0  0  0  0  0  0  0  0  0  0
   -0.5737    1.0962    0.3856 C   0  0  0  0  0  0  0  0  0  0  0  0
   -1.4526    1.6905   -0.2297 O   0  0  0  0  0  0  0  0  0  0  0  0
    0.2090    1.7882    1.2919 N   0  0  0  0  0  0  0  0  0  0  0  0
    0.9302    1.2714    1.7872 H   0  0  0  0  0  0  0  0  0  0  0  0
    0.1067    3.2267    1.5037 C   0  0  0  0  0  0  0  0  0  0  0  0
   -0.8973    3.4937    1.8501 H   0  0  0  0  0  0  0  0  0  0  0  0
    0.8297    3.5492    2.2592 H   0  0  0  0  0  0  0  0  0  0  0  0
    0.3145    3.7661    0.5736 H   0  0  0  0  0  0  0  0  0  0  0  0
  1  2  1  0  0  0  0
  2  3  1  0  0  0  0
  2  4  1  0  0  0  0
  2  5  1  0  0  0  0
  5  6  2  0  0  0  0
  5  7  1  0  0  0  0
  7  8  1  0  0  0  0
  7  9  1  0  0  0  0
  9 10  1  0  0  0  0
  9 11  1  0  0  0  0
  9 22  1  0  0  0  0
 11 12  1  0  0  0  0
 11 13  1  0  0  0  0
 11 14  1  0  0  0  0
 14 15  1  0  0  0  0
 14 20  2  0  0  0  0
 15 16  1  0  0  0  0
 15 17  1  0  0  0  0
 17 18  1  0  0  0  0
 17 19  2  0  0  0  0
 19 20  1  0  0  0  0
 20 21  1  0  0  0  0
 22 23  2  0  0  0  0
 22 24  1  0  0  0  0
 24 25  1  0  0  0  0
 24 26  1  0  0  0  0
 26 27  1  0  0  0  0
 26 28  1  0  0  0  0
 26 29  1  0  0  0  0
M  END
$$$$

  -OEChem-04042215593D

 29 29  0     1  0  0  0  0  0999 V2000
   -3.5922   -3.6360    1.4514 H   0  0  0  0  0  0  0  0  0  0  0  0
   -3.5116   -2.7228    0.8550 C   0  0  0  0  0  0  0  0  0  0  0  0
   -4.1560   -1.9574    1.2941 H   0  0  0  0  0  0  0  0  0  0  0  0
   -3.8497   -2.9354   -0.1620 H   0  0  0  0  0  0  0  0  0  0  0  0
   -2.0740   -2.2392    0.8325 C   0  0  0  0  0  0  0  0  0  0  0  0
   -1.2082   -2.8725    1.4144 O   0  0  0  0  0  0  0  0  0  0  0  0
   -1.7503   -1.0847    0.1510 N   0  0  0  0  0  0  0  0  0  0  0  0
   -2.5209   -0.5369   -0.2291 H   0  0  0  0  0  0  0  0  0  0  0  0
   -0.4310   -0.4358    0.1838 C   0  0  1  0  0  0  0  0  0  0  0  0
    0.1330   -0.8252    1.0361 H   0  0  0  0  0  0  0  0  0  0  0  0
    0.3201   -0.7530   -1.1195 C   0  0  0  0  0  0  0  0  0  0  0  0
    0.2065   -1.8164   -1.3546 H   0  0  0  0  0  0  0  0  0  0  0  0
   -0.1327   -0.1842   -1.9386 H   0  0  0  0  0  0  0  0  0  0  0  0
    1.7976   -0.4441   -1.0445 C   0  0  0  0  0  0  0  0  0  0  0  0
    2.5951   -0.0623   -2.1008 N   0  0  0  0  0  0  0  0  0  0  0  0
    2.2985    0.0560   -3.0675 H   0  0  0  0  0  0  0  0  0  0  0  0
    3.8769    0.1532   -1.6307 C   0  0  0  0  0  0  0  0  0  0  0  0
    4.7209    0.4684   -2.2378 H   0  0  0  0  0  0  0  0  0  0  0  0
    3.9274   -0.0751   -0.3409 N   0  0  0  0  0  0  0  0  0  0  0  0
    2.6456   -0.4574    0.0350 C   0  0  0  0  0  0  0  0  0  0  0  0
    2.3623   -0.7226    1.0487 H   0  0  0  0  0  0  0  0  0  0  0  0
   -0.5668    1.0876    0.3698 C   0  0  0  0  0  0  0  0  0  0  0  0
   -1.4486    1.6915   -0.2318 O   0  0  0  0  0  0  0  0  0  0  0  0
    0.2356    1.7672    1.2681 N   0  0  0  0  0  0  0  0  0  0  0  0
    0.9759    1.2444    1.7284 H   0  0  0  0  0  0  0  0  0  0  0  0
    0.1534    3.2057    1.4874 C   0  0  0  0  0  0  0  0  0  0  0  0
   -0.8451    3.4839    1.8406 H   0  0  0  0  0  0  0  0  0  0  0  0
    0.8841    3.5145    2.2412 H   0  0  0  0  0  0  0  0  0  0  0  0
    0.3632    3.7477    0.5594 H   0  0  0  0  0  0  0  0  0  0  0  0
  1  2  1  0  0  0  0
  2  3  1  0  0  0  0
  2  4  1  0  0  0  0
  2  5  1  0  0  0  0
  5  6  2  0  0  0  0
  5  7  1  0  0  0  0
  7  8  1  0  0  0  0
  7  9  1  0  0  0  0
  9 10  1  0  0  0  0
  9 11  1  0  0  0  0
  9 22  1  0  0  0  0
 11 12  1  0  0  0  0
 11 13  1  0  0  0  0
 11 14  1  0  0  0  0
 14 15  1  0  0  0  0
 14 20  2  0  0  0  0
 15 16  1  0  0  0  0
 15 17  1  0  0  0  0
 17 18  1  0  0  0  0
 17 19  2  0  0  0  0
 19 20  1  0  0  0  0
 20 21  1  0  0  0  0
 22 23  2  0  0  0  0
 22 24  1  0  0  0  0
 24 25  1  0  0  0  0
 24 26  1  0  0  0  0
 26 27  1  0  0  0  0
 26 28  1  0  0  0  0
 26 29  1  0  0  0  0
M  END
$$$$

  -OEChem-04042215593D

 29 29  0     1  0  0  0  0  0999 V2000
   -3.5815   -3.6413    1.4700 H   0  0  0  0  0  0  0  0  0  0  0  0
   -3.5080   -2.7303    0.8694 C   0  0  0  0  0  0  0  0  0  0  0  0
   -4.1507   -1.9647    1.3108 H   0  0  0  0  0  0  0  0  0  0  0  0
   -3.8539   -2.9475   -0.1441 H   0  0  0  0  0  0  0  0  0  0  0  0
   -2.0715   -2.2444    0.8327 C   0  0  0  0  0  0  0  0  0  0  0  0
   -1.1978   -2.8798    1.4004 O   0  0  0  0  0  0  0  0  0  0  0  0
   -1.7556   -1.0889    0.1490 N   0  0  0  0  0  0  0  0  0  0  0  0
   -2.5303   -0.5403   -0.2210 H   0  0  0  0  0  0  0  0  0  0  0  0
   -0.4365   -0.4396    0.1706 C   0  0  1  0  0  0  0  0  0  0  0  0
    0.1347   -0.8273    1.0192 H   0  0  0  0  0  0  0  0  0  0  0  0
    0.3086   -0.7558   -1.1347 C   0  0  0  0  0  0  0  0  0  0  0  0
    0.2027   -1.8209   -1.3669 H   0  0  0  0  0  0  0  0  0  0  0  0
   -0.1441   -0.1920   -1.9571 H   0  0  0  0  0  0  0  0  0  0  0  0
    1.7800   -0.4351   -1.0381 C   0  0  0  0  0  0  0  0  0  0  0  0
    2.5363    0.2249   -1.9808 N   0  0  0  0  0  0  0  0  0  0  0  0
    2.2055    0.5884   -2.8724 H   0  0  0  0  0  0  0  0  0  0  0  0
    3.8300    0.3337   -1.5070 C   0  0  0  0  0  0  0  0  0  0  0  0
    4.6499    0.8142   -2.0333 H   0  0  0  0  0  0  0  0  0  0  0  0
    3.9250   -0.2246   -0.3244 N   0  0  0  0  0  0  0  0  0  0  0  0
    2.6612   -0.7202   -0.0258 C   0  0  0  0  0  0  0  0  0  0  0  0
    2.4099   -1.2518    0.8871 H   0  0  0  0  0  0  0  0  0  0  0  0
   -0.5637    1.0837    0.3589 C   0  0  0  0  0  0  0  0  0  0  0  0
   -1.4473    1.6931   -0.2348 O   0  0  0  0  0  0  0  0  0  0  0  0
    0.2513    1.7570    1.2502 N   0  0  0  0  0  0  0  0  0  0  0  0
    1.0043    1.2317    1.6871 H   0  0  0  0  0  0  0  0  0  0  0  0
    0.1828    3.1966    1.4673 C   0  0  0  0  0  0  0  0  0  0  0  0
   -0.8093    3.4832    1.8317 H   0  0  0  0  0  0  0  0  0  0  0  0
    0.9245    3.5013    2.2119 H   0  0  0  0  0  0  0  0  0  0  0  0
    0.3861    3.7351    0.5358 H   0  0  0  0  0  0  0  0  0  0  0  0
  1  2  1  0  0  0  0
  2  3  1  0  0  0  0
  2  4  1  0  0  0  0
  2  5  1  0  0  0  0
  5  6  2  0  0  0  0
  5  7  1  0  0  0  0
  7  8  1  0  0  0  0
  7  9  1  0  0  0  0
  9 10  1  0  0  0  0
  9 11  1  0  0  0  0
  9 22  1  0  0  0  0
 11 12  1  0  0  0  0
 11 13  1  0  0  0  0
 11 14  1  0  0  0  0
 14 15  1  0  0  0  0
 14 20  2  0  0  0  0
 15 16  1  0  0  0  0
 15 17  1  0  0  0  0
 17 18  1  0  0  0  0
 17 19  2  0  0  0  0
 19 20  1  0  0  0  0
 20 21  1  0  0  0  0
 22 23  2  0  0  0  0
 22 24  1  0  0  0  0
 24 25  1  0  0  0  0
 24 26  1  0  0  0  0
 26 27  1  0  0  0  0
 26 28  1  0  0  0  0
 26 29  1  0  0  0  0
M  END
$$$$

  -OEChem-04042215593D

 29 29  0     1  0  0  0  0  0999 V2000
   -3.5700   -3.6471    1.4769 H   0  0  0  0  0  0  0  0  0  0  0  0
   -3.4999   -2.7383    0.8727 C   0  0  0  0  0  0  0  0  0  0  0  0
   -4.1480   -1.9745    1.3091 H   0  0  0  0  0  0  0  0  0  0  0  0
   -3.8415   -2.9618   -0.1408 H   0  0  0  0  0  0  0  0  0  0  0  0
   -2.0663   -2.2439    0.8377 C   0  0  0  0  0  0  0  0  0  0  0  0
   -1.1899   -2.8710    1.4104 O   0  0  0  0  0  0  0  0  0  0  0  0
   -1.7563   -1.0891    0.1499 N   0  0  0  0  0  0  0  0  0  0  0  0
   -2.5329   -0.5476   -0.2264 H   0  0  0  0  0  0  0  0  0  0  0  0
   -0.4378   -0.4385    0.1624 C   0  0  1  0  0  0  0  0  0  0  0  0
    0.1431   -0.8238    1.0064 H   0  0  0  0  0  0  0  0  0  0  0  0
    0.2999   -0.7585   -1.1444 C   0  0  0  0  0  0  0  0  0  0  0  0
    0.2022   -1.8274   -1.3620 H   0  0  0  0  0  0  0  0  0  0  0  0
   -0.1519   -0.2085   -1.9768 H   0  0  0  0  0  0  0  0  0  0  0  0
    1.7647   -0.4269   -1.0275 C   0  0  0  0  0  0  0  0  0  0  0  0
    2.4745    0.4697   -1.7941 N   0  0  0  0  0  0  0  0  0  0  0  0
    2.1028    1.0483   -2.5451 H   0  0  0  0  0  0  0  0  0  0  0  0
    3.7864    0.4717   -1.3593 C   0  0  0  0  0  0  0  0  0  0  0  0
    4.5807    1.0878   -1.7713 H   0  0  0  0  0  0  0  0  0  0  0  0
    3.9342   -0.3772   -0.3706 N   0  0  0  0  0  0  0  0  0  0  0  0
    2.6875   -0.9575   -0.1636 C   0  0  0  0  0  0  0  0  0  0  0  0
    2.4739   -1.7167    0.5834 H   0  0  0  0  0  0  0  0  0  0  0  0
   -0.5588    1.0854    0.3486 C   0  0  0  0  0  0  0  0  0  0  0  0
   -1.4332    1.7010   -0.2520 O   0  0  0  0  0  0  0  0  0  0  0  0
    0.2652    1.7557    1.2339 N   0  0  0  0  0  0  0  0  0  0  0  0
    1.0048    1.2211    1.6831 H   0  0  0  0  0  0  0  0  0  0  0  0
    0.2007    3.1944    1.4568 C   0  0  0  0  0  0  0  0  0  0  0  0
   -0.7866    3.4799    1.8349 H   0  0  0  0  0  0  0  0  0  0  0  0
    0.9521    3.4969    2.1923 H   0  0  0  0  0  0  0  0  0  0  0  0
    0.3915    3.7352    0.5242 H   0  0  0  0  0  0  0  0  0  0  0  0
  1  2  1  0  0  0  0
  2  3  1  0  0  0  0
  2  4  1  0  0  0  0
  2  5  1  0  0  0  0
  5  6  2  0  0  0  0
  5  7  1  0  0  0  0
  7  8  1  0  0  0  0
  7  9  1  0  0  0  0
  9 10  1  0  0  0  0
  9 11  1  0  0  0  0
  9 22  1  0  0  0  0
 11 12  1  0  0  0  0
 11 13  1  0  0  0  0
 11 14  1  0  0  0  0
 14 15  1  0  0  0  0
 14 20  2  0  0  0  0
 15 16  1  0  0  0  0
 15 17  1  0  0  0  0
 17 18  1  0  0  0  0
 17 19  2  0  0  0  0
 19 20  1  0  0  0  0
 20 21  1  0  0  0  0
 22 23  2  0  0  0  0
 22 24  1  0  0  0  0
 24 25  1  0  0  0  0
 24 26  1  0  0  0  0
 26 27  1  0  0  0  0
 26 28  1  0  0  0  0
 26 29  1  0  0  0  0
M  END
$$$$

  -OEChem-04042215593D

 29 29  0     1  0  0  0  0  0999 V2000
   -3.5739   -3.6438    1.4742 H   0  0  0  0  0  0  0  0  0  0  0  0
   -3.5023   -2.7350    0.8702 C   0  0  0  0  0  0  0  0  0  0  0  0
   -4.1491   -1.9702    1.3066 H   0  0  0  0  0  0  0  0  0  0  0  0
   -3.8447   -2.9579   -0.1432 H   0  0  0  0  0  0  0  0  0  0  0  0
   -2.0679   -2.2426    0.8357 C   0  0  0  0  0  0  0  0  0  0  0  0
   -1.1932   -2.8702    1.4103 O   0  0  0  0  0  0  0  0  0  0  0  0
   -1.7560   -1.0898    0.1458 N   0  0  0  0  0  0  0  0  0  0  0  0
   -2.5313   -0.5506   -0.2362 H   0  0  0  0  0  0  0  0  0  0  0  0
   -0.4373   -0.4396    0.1591 C   0  0  1  0  0  0  0  0  0  0  0  0
    0.1439   -0.8233    1.0040 H   0  0  0  0  0  0  0  0  0  0  0  0
    0.3038   -0.7679   -1.1422 C   0  0  0  0  0  0  0  0  0  0  0  0
    0.2102   -1.8401   -1.3456 H   0  0  0  0  0  0  0  0  0  0  0  0
   -0.1402   -0.2299   -1.9863 H   0  0  0  0  0  0  0  0  0  0  0  0
    1.7641   -0.4315   -1.0082 C   0  0  0  0  0  0  0  0  0  0  0  0
    2.4179    0.6480   -1.5584 N   0  0  0  0  0  0  0  0  0  0  0  0
    1.9984    1.3839   -2.1241 H   0  0  0  0  0  0  0  0  0  0  0  0
    3.7522    0.5724   -1.2067 C   0  0  0  0  0  0  0  0  0  0  0  0
    4.5151    1.2918   -1.4908 H   0  0  0  0  0  0  0  0  0  0  0  0
    3.9647   -0.4947   -0.4742 N   0  0  0  0  0  0  0  0  0  0  0  0
    2.7379   -1.1404   -0.3551 C   0  0  0  0  0  0  0  0  0  0  0  0
    2.5743   -2.0691    0.1841 H   0  0  0  0  0  0  0  0  0  0  0  0
   -0.5542    1.0847    0.3412 C   0  0  0  0  0  0  0  0  0  0  0  0
   -1.4156    1.7052   -0.2725 O   0  0  0  0  0  0  0  0  0  0  0  0
    0.2708    1.7538    1.2265 N   0  0  0  0  0  0  0  0  0  0  0  0
    0.9922    1.2114    1.6957 H   0  0  0  0  0  0  0  0  0  0  0  0
    0.2058    3.1912    1.4576 C   0  0  0  0  0  0  0  0  0  0  0  0
   -0.7804    3.4733    1.8410 H   0  0  0  0  0  0  0  0  0  0  0  0
    0.9600    3.4899    2.1920 H   0  0  0  0  0  0  0  0  0  0  0  0
    0.3928    3.7377    0.5274 H   0  0  0  0  0  0  0  0  0  0  0  0
  1  2  1  0  0  0  0
  2  3  1  0  0  0  0
  2  4  1  0  0  0  0
  2  5  1  0  0  0  0
  5  6  2  0  0  0  0
  5  7  1  0  0  0  0
  7  8  1  0  0  0  0
  7  9  1  0  0  0  0
  9 10  1  0  0  0  0
  9 11  1  0  0  0  0
  9 22  1  0  0  0  0
 11 12  1  0  0  0  0
 11 13  1  0  0  0  0
 11 14  1  0  0  0  0
 14 15  1  0  0  0  0
 14 20  2  0  0  0  0
 15 16  1  0  0  0  0
 15 17  1  0  0  0  0
 17 18  1  0  0  0  0
 17 19  2  0  0  0  0
 19 20  1  0  0  0  0
 20 21  1  0  0  0  0
 22 23  2  0  0  0  0
 22 24  1  0  0  0  0
 24 25  1  0  0  0  0
 24 26  1  0  0  0  0
 26 27  1  0  0  0  0
 26 28  1  0  0  0  0
 26 29  1  0  0  0  0
M  END
$$$$

  -OEChem-04042215593D

 29 29  0     1  0  0  0  0  0999 V2000
   -3.5857   -3.6361    1.4650 H   0  0  0  0  0  0  0  0  0  0  0  0
   -3.5094   -2.7270    0.8621 C   0  0  0  0  0  0  0  0  0  0  0  0
   -4.1571   -1.9615    1.2960 H   0  0  0  0  0  0  0  0  0  0  0  0
   -3.8472   -2.9484   -0.1531 H   0  0  0  0  0  0  0  0  0  0  0  0
   -2.0740   -2.2373    0.8361 C   0  0  0  0  0  0  0  0  0  0  0  0
   -1.2054   -2.8626    1.4221 O   0  0  0  0  0  0  0  0  0  0  0  0
   -1.7549   -1.0871    0.1448 N   0  0  0  0  0  0  0  0  0  0  0  0
   -2.5259   -0.5515   -0.2505 H   0  0  0  0  0  0  0  0  0  0  0  0
   -0.4346   -0.4398    0.1620 C   0  0  1  0  0  0  0  0  0  0  0  0
    0.1436   -0.8222    1.0100 H   0  0  0  0  0  0  0  0  0  0  0  0
    0.3115   -0.7809   -1.1333 C   0  0  0  0  0  0  0  0  0  0  0  0
    0.2128   -1.8543   -1.3280 H   0  0  0  0  0  0  0  0  0  0  0  0
   -0.1257   -0.2485   -1.9845 H   0  0  0  0  0  0  0  0  0  0  0  0
    1.7727   -0.4484   -0.9967 C   0  0  0  0  0  0  0  0  0  0  0  0
    2.3783    0.7505   -1.3013 N   0  0  0  0  0  0  0  0  0  0  0  0
    1.9167    1.5876   -1.6541 H   0  0  0  0  0  0  0  0  0  0  0  0
    3.7327    0.6268   -1.0568 C   0  0  0  0  0  0  0  0  0  0  0  0
    4.4683    1.4127   -1.2027 H   0  0  0  0  0  0  0  0  0  0  0  0
    4.0024   -0.5796   -0.6192 N   0  0  0  0  0  0  0  0  0  0  0  0
    2.7929   -1.2672   -0.5897 C   0  0  0  0  0  0  0  0  0  0  0  0
    2.6753   -2.3028   -0.2840 H   0  0  0  0  0  0  0  0  0  0  0  0
   -0.5480    1.0849    0.3393 C   0  0  0  0  0  0  0  0  0  0  0  0
   -1.3920    1.7108   -0.2924 O   0  0  0  0  0  0  0  0  0  0  0  0
    0.2751    1.7534    1.2269 N   0  0  0  0  0  0  0  0  0  0  0  0
    0.9677    1.2025    1.7288 H   0  0  0  0  0  0  0  0  0  0  0  0
    0.2018    3.1885    1.4699 C   0  0  0  0  0  0  0  0  0  0  0  0
   -0.7844    3.4610    1.8602 H   0  0  0  0  0  0  0  0  0  0  0  0
    0.9577    3.4864    2.2032 H   0  0  0  0  0  0  0  0  0  0  0  0
    0.3808    3.7443    0.5436 H   0  0  0  0  0  0  0  0  0  0  0  0
  1  2  1  0  0  0  0
  2  3  1  0  0  0  0
  2  4  1  0  0  0  0
  2  5  1  0  0  0  0
  5  6  2  0  0  0  0
  5  7  1  0  0  0  0
  7  8  1  0  0  0  0
  7  9  1  0  0  0  0
  9 10  1  0  0  0  0
  9 11  1  0  0  0  0
  9 22  1  0  0  0  0
 11 12  1  0  0  0  0
 11 13  1  0  0  0  0
 11 14  1  0  0  0  0
 14 15  1  0  0  0  0
 14 20  2  0  0  0  0
 15 16  1  0  0  0  0
 15 17  1  0  0  0  0
 17 18  1  0  0  0  0
 17 19  2  0  0  0  0
 19 20  1  0  0  0  0
 20 21  1  0  0  0  0
 22 23  2  0  0  0  0
 22 24  1  0  0  0  0
 24 25  1  0  0  0  0
 24 26  1  0  0  0  0
 26 27  1  0  0  0  0
 26 28  1  0  0  0  0
 26 29  1  0  0  0  0
M  END
$$$$

  -OEChem-04042215593D

 29 29  0     1  0  0  0  0  0999 V2000
   -3.5875   -3.6477    1.4346 H   0  0  0  0  0  0  0  0  0  0  0  0
   -3.5079   -2.7344    0.8384 C   0  0  0  0  0  0  0  0  0  0  0  0
   -4.1784   -1.9808    1.2579 H   0  0  0  0  0  0  0  0  0  0  0  0
   -3.8142   -2.9558   -0.1867 H   0  0  0  0  0  0  0  0  0  0  0  0
   -2.0792   -2.2245    0.8526 C   0  0  0  0  0  0  0  0  0  0  0  0
   -1.2207   -2.8347    1.4684 O   0  0  0  0  0  0  0  0  0  0  0  0
   -1.7533   -1.0766    0.1603 N   0  0  0  0  0  0  0  0  0  0  0  0
   -2.5165   -0.5565   -0.2691 H   0  0  0  0  0  0  0  0  0  0  0  0
   -0.4313   -0.4317    0.1799 C   0  0  1  0  0  0  0  0  0  0  0  0
    0.1472   -0.8130    1.0282 H   0  0  0  0  0  0  0  0  0  0  0  0
    0.3120   -0.7863   -1.1152 C   0  0  0  0  0  0  0  0  0  0  0  0
    0.2005   -1.8590   -1.3073 H   0  0  0  0  0  0  0  0  0  0  0  0
   -0.1251   -0.2511   -1.9649 H   0  0  0  0  0  0  0  0  0  0  0  0
    1.7792   -0.4663   -1.0005 C   0  0  0  0  0  0  0  0  0  0  0  0
    2.3669    0.7792   -1.0450 N   0  0  0  0  0  0  0  0  0  0  0  0
    1.8865    1.6692   -1.1714 H   0  0  0  0  0  0  0  0  0  0  0  0
    3.7340    0.6196   -0.9223 C   0  0  0  0  0  0  0  0  0  0  0  0
    4.4608    1.4270   -0.9259 H   0  0  0  0  0  0  0  0  0  0  0  0
    4.0289   -0.6521   -0.7993 N   0  0  0  0  0  0  0  0  0  0  0  0
    2.8221   -1.3427   -0.8554 C   0  0  0  0  0  0  0  0  0  0  0  0
    2.7219   -2.4222   -0.7911 H   0  0  0  0  0  0  0  0  0  0  0  0
   -0.5447    1.0934    0.3534 C   0  0  0  0  0  0  0  0  0  0  0  0
   -1.3694    1.7232   -0.2987 O   0  0  0  0  0  0  0  0  0  0  0  0
    0.2759    1.7636    1.2425 N   0  0  0  0  0  0  0  0  0  0  0  0
    0.9295    1.2048    1.7864 H   0  0  0  0  0  0  0  0  0  0  0  0
    0.1941    3.1978    1.4897 C   0  0  0  0  0  0  0  0  0  0  0  0
   -0.7919    3.4628    1.8855 H   0  0  0  0  0  0  0  0  0  0  0  0
    0.9520    3.4994    2.2191 H   0  0  0  0  0  0  0  0  0  0  0  0
    0.3643    3.7570    0.5639 H   0  0  0  0  0  0  0  0  0  0  0  0
  1  2  1  0  0  0  0
  2  3  1  0  0  0  0
  2  4  1  0  0  0  0
  2  5  1  0  0  0  0
  5  6  2  0  0  0  0
  5  7  1  0  0  0  0
  7  8  1  0  0  0  0
  7  9  1  0  0  0  0
  9 10  1  0  0  0  0
  9 11  1  0  0  0  0
  9 22  1  0  0  0  0
 11 12  1  0  0  0  0
 11 13  1  0  0  0  0
 11 14  1  0  0  0  0
 14 15  1  0  0  0  0
 14 20  2  0  0  0  0
 15 16  1  0  0  0  0
 15 17  1  0  0  0  0
 17 18  1  0  0  0  0
 17 19  2  0  0  0  0
 19 20  1  0  0  0  0
 20 21  1  0  0  0  0
 22 23  2  0  0  0  0
 22 24  1  0  0  0  0
 24 25  1  0  0  0  0
 24 26  1  0  0  0  0
 26 27  1  0  0  0  0
 26 28  1  0  0  0  0
 26 29  1  0  0  0  0
M  END
$$$$

  -OEChem-04042215593D

 29 29  0     1  0  0  0  0  0999 V2000
   -3.5945   -3.6195    1.4398 H   0  0  0  0  0  0  0  0  0  0  0  0
   -3.5073   -2.7078    0.8419 C   0  0  0  0  0  0  0  0  0  0  0  0
   -4.1692   -1.9467    1.2621 H   0  0  0  0  0  0  0  0  0  0  0  0
   -3.8189   -2.9273   -0.1820 H   0  0  0  0  0  0  0  0  0  0  0  0
   -2.0738   -2.2113    0.8519 C   0  0  0  0  0  0  0  0  0  0  0  0
   -1.2213   -2.8220    1.4756 O   0  0  0  0  0  0  0  0  0  0  0  0
   -1.7390   -1.0675    0.1573 N   0  0  0  0  0  0  0  0  0  0  0  0
   -2.4980   -0.5453   -0.2773 H   0  0  0  0  0  0  0  0  0  0  0  0
   -0.4146   -0.4274    0.1809 C   0  0  1  0  0  0  0  0  0  0  0  0
    0.1612   -0.8064    1.0321 H   0  0  0  0  0  0  0  0  0  0  0  0
    0.3303   -0.7931   -1.1124 C   0  0  0  0  0  0  0  0  0  0  0  0
    0.2047   -1.8637   -1.3065 H   0  0  0  0  0  0  0  0  0  0  0  0
   -0.1056   -0.2520   -1.9589 H   0  0  0  0  0  0  0  0  0  0  0  0
    1.8048   -0.4885   -1.0198 C   0  0  0  0  0  0  0  0  0  0  0  0
    2.4058    0.7324   -0.7980 N   0  0  0  0  0  0  0  0  0  0  0  0
    1.9304    1.6276   -0.6882 H   0  0  0  0  0  0  0  0  0  0  0  0
    3.7758    0.5518   -0.7960 C   0  0  0  0  0  0  0  0  0  0  0  0
    4.5105    1.3390   -0.6517 H   0  0  0  0  0  0  0  0  0  0  0  0
    4.0629   -0.7118   -0.9934 N   0  0  0  0  0  0  0  0  0  0  0  0
    2.8463   -1.3715   -1.1381 C   0  0  0  0  0  0  0  0  0  0  0  0
    2.7387   -2.4370   -1.3186 H   0  0  0  0  0  0  0  0  0  0  0  0
   -0.5393    1.0978    0.3485 C   0  0  0  0  0  0  0  0  0  0  0  0
   -1.3674    1.7201   -0.3058 O   0  0  0  0  0  0  0  0  0  0  0  0
    0.2715    1.7764    1.2409 N   0  0  0  0  0  0  0  0  0  0  0  0
    0.8765    1.2137    1.8352 H   0  0  0  0  0  0  0  0  0  0  0  0
    0.1303    3.1994    1.5268 C   0  0  0  0  0  0  0  0  0  0  0  0
   -0.8599    3.4093    1.9448 H   0  0  0  0  0  0  0  0  0  0  0  0
    0.8865    3.5166    2.2513 H   0  0  0  0  0  0  0  0  0  0  0  0
    0.2590    3.7897    0.6135 H   0  0  0  0  0  0  0  0  0  0  0  0
  1  2  1  0  0  0  0
  2  3  1  0  0  0  0
  2  4  1  0  0  0  0
  2  5  1  0  0  0  0
  5  6  2  0  0  0  0
  5  7  1  0  0  0  0
  7  8  1  0  0  0  0
  7  9  1  0  0  0  0
  9 10  1  0  0  0  0
  9 11  1  0  0  0  0
  9 22  1  0  0  0  0
 11 12  1  0  0  0  0
 11 13  1  0  0  0  0
 11 14  1  0  0  0  0
 14 15  1  0  0  0  0
 14 20  2  0  0  0  0
 15 16  1  0  0  0  0
 15 17  1  0  0  0  0
 17 18  1  0  0  0  0
 17 19  2  0  0  0  0
 19 20  1  0  0  0  0
 20 21  1  0  0  0  0
 22 23  2  0  0  0  0
 22 24  1  0  0  0  0
 24 25  1  0  0  0  0
 24 26  1  0  0  0  0
 26 27  1  0  0  0  0
 26 28  1  0  0  0  0
 26 29  1  0  0  0  0
M  END
$$$$

  -OEChem-04042215593D

 29 29  0     1  0  0  0  0  0999 V2000
   -3.5853   -3.6284    1.4156 H   0  0  0  0  0  0  0  0  0  0  0  0
   -3.4989   -2.7138    0.8224 C   0  0  0  0  0  0  0  0  0  0  0  0
   -4.1756   -1.9614    1.2346 H   0  0  0  0  0  0  0  0  0  0  0  0
   -3.7915   -2.9333   -0.2073 H   0  0  0  0  0  0  0  0  0  0  0  0
   -2.0711   -2.2026    0.8576 C   0  0  0  0  0  0  0  0  0  0  0  0
   -1.2249   -2.8004    1.5019 O   0  0  0  0  0  0  0  0  0  0  0  0
   -1.7347   -1.0586    0.1642 N   0  0  0  0  0  0  0  0  0  0  0  0
   -2.4887   -0.5466   -0.2909 H   0  0  0  0  0  0  0  0  0  0  0  0
   -0.4117   -0.4163    0.1945 C   0  0  1  0  0  0  0  0  0  0  0  0
    0.1624   -0.7941    1.0471 H   0  0  0  0  0  0  0  0  0  0  0  0
    0.3327   -0.7898   -1.0985 C   0  0  0  0  0  0  0  0  0  0  0  0
    0.1979   -1.8591   -1.2948 H   0  0  0  0  0  0  0  0  0  0  0  0
   -0.1067   -0.2432   -1.9399 H   0  0  0  0  0  0  0  0  0  0  0  0
    1.8123   -0.4956   -1.0313 C   0  0  0  0  0  0  0  0  0  0  0  0
    2.4468    0.6350   -0.5611 N   0  0  0  0  0  0  0  0  0  0  0  0
    1.9942    1.4915   -0.2425 H   0  0  0  0  0  0  0  0  0  0  0  0
    3.8117    0.4533   -0.6786 C   0  0  0  0  0  0  0  0  0  0  0  0
    4.5662    1.1841   -0.4012 H   0  0  0  0  0  0  0  0  0  0  0  0
    4.0664   -0.7314   -1.1775 N   0  0  0  0  0  0  0  0  0  0  0  0
    2.8324   -1.3342   -1.3994 C   0  0  0  0  0  0  0  0  0  0  0  0
    2.6979   -2.3319   -1.8066 H   0  0  0  0  0  0  0  0  0  0  0  0
   -0.5426    1.1081    0.3609 C   0  0  0  0  0  0  0  0  0  0  0  0
   -1.3652    1.7295   -0.3008 O   0  0  0  0  0  0  0  0  0  0  0  0
    0.2637    1.7854    1.2597 N   0  0  0  0  0  0  0  0  0  0  0  0
    0.8146    1.2158    1.8985 H   0  0  0  0  0  0  0  0  0  0  0  0
    0.1116    3.2070    1.5467 C   0  0  0  0  0  0  0  0  0  0  0  0
   -0.8804    3.4104    1.9640 H   0  0  0  0  0  0  0  0  0  0  0  0
    0.8653    3.5291    2.2719 H   0  0  0  0  0  0  0  0  0  0  0  0
    0.2373    3.7986    0.6336 H   0  0  0  0  0  0  0  0  0  0  0  0
  1  2  1  0  0  0  0
  2  3  1  0  0  0  0
  2  4  1  0  0  0  0
  2  5  1  0  0  0  0
  5  6  2  0  0  0  0
  5  7  1  0  0  0  0
  7  8  1  0  0  0  0
  7  9  1  0  0  0  0
  9 10  1  0  0  0  0
  9 11  1  0  0  0  0
  9 22  1  0  0  0  0
 11 12  1  0  0  0  0
 11 13  1  0  0  0  0
 11 14  1  0  0  0  0
 14 15  1  0  0  0  0
 14 20  2  0  0  0  0
 15 16  1  0  0  0  0
 15 17  1  0  0  0  0
 17 18  1  0  0  0  0
 17 19  2  0  0  0  0
 19 20  1  0  0  0  0
 20 21  1  0  0  0  0
 22 23  2  0  0  0  0
 22 24  1  0  0  0  0
 24 25  1  0  0  0  0
 24 26  1  0  0  0  0
 26 27  1  0  0  0  0
 26 28  1  0  0  0  0
 26 29  1  0  0  0  0
M  END
$$$$

  -OEChem-04042215593D

 29 29  0     1  0  0  0  0  0999 V2000
   -3.5834   -3.6363    1.3924 H   0  0  0  0  0  0  0  0  0  0  0  0
   -3.4938   -2.7193    0.8031 C   0  0  0  0  0  0  0  0  0  0  0  0
   -4.1809   -1.9719    1.2070 H   0  0  0  0  0  0  0  0  0  0  0  0
   -3.7700   -2.9374   -0.2313 H   0  0  0  0  0  0  0  0  0  0  0  0
   -2.0701   -2.1987    0.8600 C   0  0  0  0  0  0  0  0  0  0  0  0
   -1.2310   -2.7872    1.5219 O   0  0  0  0  0  0  0  0  0  0  0  0
   -1.7306   -1.0538    0.1696 N   0  0  0  0  0  0  0  0  0  0  0  0
   -2.4799   -0.5505   -0.3025 H   0  0  0  0  0  0  0  0  0  0  0  0
   -0.4094   -0.4086    0.2076 C   0  0  1  0  0  0  0  0  0  0  0  0
    0.1629   -0.7876    1.0608 H   0  0  0  0  0  0  0  0  0  0  0  0
    0.3351   -0.7852   -1.0855 C   0  0  0  0  0  0  0  0  0  0  0  0
    0.1960   -1.8539   -1.2821 H   0  0  0  0  0  0  0  0  0  0  0  0
   -0.1071   -0.2376   -1.9246 H   0  0  0  0  0  0  0  0  0  0  0  0
    1.8177   -0.4983   -1.0374 C   0  0  0  0  0  0  0  0  0  0  0  0
    2.4984    0.4821   -0.3456 N   0  0  0  0  0  0  0  0  0  0  0  0
    2.0796    1.2613    0.1604 H   0  0  0  0  0  0  0  0  0  0  0  0
    3.8517    0.3241   -0.5764 C   0  0  0  0  0  0  0  0  0  0  0  0
    4.6330    0.9660   -0.1793 H   0  0  0  0  0  0  0  0  0  0  0  0
    4.0583   -0.7117   -1.3516 N   0  0  0  0  0  0  0  0  0  0  0  0
    2.8030   -1.2364   -1.6407 C   0  0  0  0  0  0  0  0  0  0  0  0
    2.6290   -2.1139   -2.2565 H   0  0  0  0  0  0  0  0  0  0  0  0
   -0.5430    1.1156    0.3739 C   0  0  0  0  0  0  0  0  0  0  0  0
   -1.3579    1.7374   -0.2968 O   0  0  0  0  0  0  0  0  0  0  0  0
    0.2591    1.7903    1.2794 N   0  0  0  0  0  0  0  0  0  0  0  0
    0.7481    1.2161    1.9626 H   0  0  0  0  0  0  0  0  0  0  0  0
    0.1009    3.2132    1.5595 C   0  0  0  0  0  0  0  0  0  0  0  0
   -0.8939    3.4152    1.9708 H   0  0  0  0  0  0  0  0  0  0  0  0
    0.8502    3.5416    2.2863 H   0  0  0  0  0  0  0  0  0  0  0  0
    0.2292    3.8016    0.6445 H   0  0  0  0  0  0  0  0  0  0  0  0
  1  2  1  0  0  0  0
  2  3  1  0  0  0  0
  2  4  1  0  0  0  0
  2  5  1  0  0  0  0
  5  6  2  0  0  0  0
  5  7  1  0  0  0  0
  7  8  1  0  0  0  0
  7  9  1  0  0  0  0
  9 10  1  0  0  0  0
  9 11  1  0  0  0  0
  9 22  1  0  0  0  0
 11 12  1  0  0  0  0
 11 13  1  0  0  0  0
 11 14  1  0  0  0  0
 14 15  1  0  0  0  0
 14 20  2  0  0  0  0
 15 16  1  0  0  0  0
 15 17  1  0  0  0  0
 17 18  1  0  0  0  0
 17 19  2  0  0  0  0
 19 20  1  0  0  0  0
 20 21  1  0  0  0  0
 22 23  2  0  0  0  0
 22 24  1  0  0  0  0
 24 25  1  0  0  0  0
 24 26  1  0  0  0  0
 26 27  1  0  0  0  0
 26 28  1  0  0  0  0
 26 29  1  0  0  0  0
M  END
$$$$

  -OEChem-04042215593D

 29 29  0     1  0  0  0  0  0999 V2000
   -3.5897   -3.6481    1.3657 H   0  0  0  0  0  0  0  0  0  0  0  0
   -3.4974   -2.7274    0.7828 C   0  0  0  0  0  0  0  0  0  0  0  0
   -4.1947   -1.9864    1.1809 H   0  0  0  0  0  0  0  0  0  0  0  0
   -3.7574   -2.9417   -0.2566 H   0  0  0  0  0  0  0  0  0  0  0  0
   -2.0777   -2.1991    0.8638 C   0  0  0  0  0  0  0  0  0  0  0  0
   -1.2489   -2.7794    1.5457 O   0  0  0  0  0  0  0  0  0  0  0  0
   -1.7302   -1.0553    0.1756 N   0  0  0  0  0  0  0  0  0  0  0  0
   -2.4717   -0.5577   -0.3148 H   0  0  0  0  0  0  0  0  0  0  0  0
   -0.4093   -0.4103    0.2287 C   0  0  1  0  0  0  0  0  0  0  0  0
    0.1569   -0.7921    1.0845 H   0  0  0  0  0  0  0  0  0  0  0  0
    0.3383   -0.7822   -1.0646 C   0  0  0  0  0  0  0  0  0  0  0  0
    0.1984   -1.8504   -1.2632 H   0  0  0  0  0  0  0  0  0  0  0  0
   -0.1040   -0.2326   -1.9026 H   0  0  0  0  0  0  0  0  0  0  0  0
    1.8230   -0.5047   -1.0256 C   0  0  0  0  0  0  0  0  0  0  0  0
    2.5598    0.2663   -0.1506 N   0  0  0  0  0  0  0  0  0  0  0  0
    2.1876    0.8942    0.5579 H   0  0  0  0  0  0  0  0  0  0  0  0
    3.8936    0.1751   -0.5012 C   0  0  0  0  0  0  0  0  0  0  0  0
    4.7075    0.6939   -0.0028 H   0  0  0  0  0  0  0  0  0  0  0  0
    4.0363   -0.6235   -1.5298 N   0  0  0  0  0  0  0  0  0  0  0  0
    2.7580   -1.0584   -1.8617 C   0  0  0  0  0  0  0  0  0  0  0  0
    2.5329   -1.7461   -2.6715 H   0  0  0  0  0  0  0  0  0  0  0  0
   -0.5438    1.1141    0.3912 C   0  0  0  0  0  0  0  0  0  0  0  0
   -1.3448    1.7345   -0.2977 O   0  0  0  0  0  0  0  0  0  0  0  0
    0.2473    1.7896    1.3059 N   0  0  0  0  0  0  0  0  0  0  0  0
    0.6803    1.2215    2.0296 H   0  0  0  0  0  0  0  0  0  0  0  0
    0.1073    3.2212    1.5496 C   0  0  0  0  0  0  0  0  0  0  0  0
   -0.8907    3.4491    1.9385 H   0  0  0  0  0  0  0  0  0  0  0  0
    0.8501    3.5552    2.2804 H   0  0  0  0  0  0  0  0  0  0  0  0
    0.2605    3.7853    0.6232 H   0  0  0  0  0  0  0  0  0  0  0  0
  1  2  1  0  0  0  0
  2  3  1  0  0  0  0
  2  4  1  0  0  0  0
  2  5  1  0  0  0  0
  5  6  2  0  0  0  0
  5  7  1  0  0  0  0
  7  8  1  0  0  0  0
  7  9  1  0  0  0  0
  9 10  1  0  0  0  0
  9 11  1  0  0  0  0
  9 22  1  0  0  0  0
 11 12  1  0  0  0  0
 11 13  1  0  0  0  0
 11 14  1  0  0  0  0
 14 15  1  0  0  0  0
 14 20  2  0  0  0  0
 15 16  1  0  0  0  0
 15 17  1  0  0  0  0
 17 18  1  0  0  0  0
 17 19  2  0  0  0  0
 19 20  1  0  0  0  0
 20 21  1  0  0  0  0
 22 23  2  0  0  0  0
 22 24  1  0  0  0  0
 24 25  1  0  0  0  0
 24 26  1  0  0  0  0
 26 27  1  0  0  0  0
 26 28  1  0  0  0  0
 26 29  1  0  0  0  0
M  END
$$$$

  -OEChem-04042215593D

 29 29  0     1  0  0  0  0  0999 V2000
   -3.6297   -3.6187    1.3772 H   0  0  0  0  0  0  0  0  0  0  0  0
   -3.5199   -2.7043    0.7871 C   0  0  0  0  0  0  0  0  0  0  0  0
   -4.2074   -1.9493    1.1755 H   0  0  0  0  0  0  0  0  0  0  0  0
   -3.7780   -2.9231   -0.2517 H   0  0  0  0  0  0  0  0  0  0  0  0
   -2.0930   -2.1965    0.8704 C   0  0  0  0  0  0  0  0  0  0  0  0
   -1.2755   -2.7829    1.5612 O   0  0  0  0  0  0  0  0  0  0  0  0
   -1.7251   -1.0631    0.1755 N   0  0  0  0  0  0  0  0  0  0  0  0
   -2.4577   -0.5529   -0.3156 H   0  0  0  0  0  0  0  0  0  0  0  0
   -0.3974   -0.4336    0.2405 C   0  0  1  0  0  0  0  0  0  0  0  0
    0.1593   -0.8159    1.1016 H   0  0  0  0  0  0  0  0  0  0  0  0
    0.3521   -0.7978   -1.0531 C   0  0  0  0  0  0  0  0  0  0  0  0
    0.2078   -1.8656   -1.2503 H   0  0  0  0  0  0  0  0  0  0  0  0
   -0.0843   -0.2484   -1.8945 H   0  0  0  0  0  0  0  0  0  0  0  0
    1.8400   -0.5399   -1.0070 C   0  0  0  0  0  0  0  0  0  0  0  0
    2.6313   -0.0332    0.0033 N   0  0  0  0  0  0  0  0  0  0  0  0
    2.3238    0.2567    0.9264 H   0  0  0  0  0  0  0  0  0  0  0  0
    3.9372    0.0214   -0.4462 C   0  0  0  0  0  0  0  0  0  0  0  0
    4.7833    0.3772    0.1345 H   0  0  0  0  0  0  0  0  0  0  0  0
    4.0093   -0.4194   -1.6775 N   0  0  0  0  0  0  0  0  0  0  0  0
    2.7132   -0.7706   -2.0384 C   0  0  0  0  0  0  0  0  0  0  0  0
    2.4321   -1.1715   -3.0078 H   0  0  0  0  0  0  0  0  0  0  0  0
   -0.5334    1.0941    0.3875 C   0  0  0  0  0  0  0  0  0  0  0  0
   -1.3454    1.6992   -0.3032 O   0  0  0  0  0  0  0  0  0  0  0  0
    0.2382    1.7895    1.3029 N   0  0  0  0  0  0  0  0  0  0  0  0
    0.7147    1.2412    2.0117 H   0  0  0  0  0  0  0  0  0  0  0  0
    0.0927    3.2243    1.5220 C   0  0  0  0  0  0  0  0  0  0  0  0
   -0.9101    3.4554    1.8963 H   0  0  0  0  0  0  0  0  0  0  0  0
    0.8267    3.5720    2.2554 H   0  0  0  0  0  0  0  0  0  0  0  0
    0.2549    3.7735    0.5883 H   0  0  0  0  0  0  0  0  0  0  0  0
  1  2  1  0  0  0  0
  2  3  1  0  0  0  0
  2  4  1  0  0  0  0
  2  5  1  0  0  0  0
  5  6  2  0  0  0  0
  5  7  1  0  0  0  0
  7  8  1  0  0  0  0
  7  9  1  0  0  0  0
  9 10  1  0  0  0  0
  9 11  1  0  0  0  0
  9 22  1  0  0  0  0
 11 12  1  0  0  0  0
 11 13  1  0  0  0  0
 11 14  1  0  0  0  0
 14 15  1  0  0  0  0
 14 20  2  0  0  0  0
 15 16  1  0  0  0  0
 15 17  1  0  0  0  0
 17 18  1  0  0  0  0
 17 19  2  0  0  0  0
 19 20  1  0  0  0  0
 20 21  1  0  0  0  0
 22 23  2  0  0  0  0
 22 24  1  0  0  0  0
 24 25  1  0  0  0  0
 24 26  1  0  0  0  0
 26 27  1  0  0  0  0
 26 28  1  0  0  0  0
 26 29  1  0  0  0  0
M  END
$$$$

  -OEChem-04042215593D

 29 29  0     1  0  0  0  0  0999 V2000
   -3.6620   -3.5933    1.4287 H   0  0  0  0  0  0  0  0  0  0  0  0
   -3.5473   -2.6859    0.8291 C   0  0  0  0  0  0  0  0  0  0  0  0
   -4.2042   -1.9114    1.2321 H   0  0  0  0  0  0  0  0  0  0  0  0
   -3.8415   -2.9045   -0.2003 H   0  0  0  0  0  0  0  0  0  0  0  0
   -2.1061   -2.2141    0.8657 C   0  0  0  0  0  0  0  0  0  0  0  0
   -1.2771   -2.8295    1.5175 O   0  0  0  0  0  0  0  0  0  0  0  0
   -1.7352   -1.0852    0.1657 N   0  0  0  0  0  0  0  0  0  0  0  0
   -2.4754   -0.5424   -0.2773 H   0  0  0  0  0  0  0  0  0  0  0  0
   -0.3994   -0.4725    0.2164 C   0  0  1  0  0  0  0  0  0  0  0  0
    0.1561   -0.8590    1.0759 H   0  0  0  0  0  0  0  0  0  0  0  0
    0.3468   -0.8171   -1.0824 C   0  0  0  0  0  0  0  0  0  0  0  0
    0.2060   -1.8836   -1.2874 H   0  0  0  0  0  0  0  0  0  0  0  0
   -0.0864   -0.2626   -1.9224 H   0  0  0  0  0  0  0  0  0  0  0  0
    1.8336   -0.5605   -1.0082 C   0  0  0  0  0  0  0  0  0  0  0  0
    2.6402   -0.3438    0.0910 N   0  0  0  0  0  0  0  0  0  0  0  0
    2.3799   -0.4769    1.0647 H   0  0  0  0  0  0  0  0  0  0  0  0
    3.9251   -0.0905   -0.3525 C   0  0  0  0  0  0  0  0  0  0  0  0
    4.7831    0.0923    0.2883 H   0  0  0  0  0  0  0  0  0  0  0  0
    3.9625   -0.1099   -1.6616 N   0  0  0  0  0  0  0  0  0  0  0  0
    2.6680   -0.3936   -2.0828 C   0  0  0  0  0  0  0  0  0  0  0  0
    2.3600   -0.4638   -3.1219 H   0  0  0  0  0  0  0  0  0  0  0  0
   -0.5282    1.0575    0.3648 C   0  0  0  0  0  0  0  0  0  0  0  0
   -1.3865    1.6533   -0.2773 O   0  0  0  0  0  0  0  0  0  0  0  0
    0.2501    1.7613    1.2664 N   0  0  0  0  0  0  0  0  0  0  0  0
    0.9144    1.2404    1.8281 H   0  0  0  0  0  0  0  0  0  0  0  0
    0.1371    3.2014    1.4649 C   0  0  0  0  0  0  0  0  0  0  0  0
   -0.8639    3.4613    1.8248 H   0  0  0  0  0  0  0  0  0  0  0  0
    0.8692    3.5410    2.2038 H   0  0  0  0  0  0  0  0  0  0  0  0
    0.3232    3.7334    0.5258 H   0  0  0  0  0  0  0  0  0  0  0  0
  1  2  1  0  0  0  0
  2  3  1  0  0  0  0
  2  4  1  0  0  0  0
  2  5  1  0  0  0  0
  5  6  2  0  0  0  0
  5  7  1  0  0  0  0
  7  8  1  0  0  0  0
  7  9  1  0  0  0  0
  9 10  1  0  0  0  0
  9 11  1  0  0  0  0
  9 22  1  0  0  0  0
 11 12  1  0  0  0  0
 11 13  1  0  0  0  0
 11 14  1  0  0  0  0
 14 15  1  0  0  0  0
 14 20  2  0  0  0  0
 15 16  1  0  0  0  0
 15 17  1  0  0  0  0
 17 18  1  0  0  0  0
 17 19  2  0  0  0  0
 19 20  1  0  0  0  0
 20 21  1  0  0  0  0
 22 23  2  0  0  0  0
 22 24  1  0  0  0  0
 24 25  1  0  0  0  0
 24 26  1  0  0  0  0
 26 27  1  0  0  0  0
 26 28  1  0  0  0  0
 26 29  1  0  0  0  0
M  END
$$$$

  -OEChem-04042215593D

 29 29  0     1  0  0  0  0  0999 V2000
   -3.6453   -3.5976    1.4751 H   0  0  0  0  0  0  0  0  0  0  0  0
   -3.5447   -2.6945    0.8666 C   0  0  0  0  0  0  0  0  0  0  0  0
   -4.1787   -1.9119    1.2904 H   0  0  0  0  0  0  0  0  0  0  0  0
   -3.8802   -2.9153   -0.1496 H   0  0  0  0  0  0  0  0  0  0  0  0
   -2.0988   -2.2366    0.8461 C   0  0  0  0  0  0  0  0  0  0  0  0
   -1.2462   -2.8732    1.4454 O   0  0  0  0  0  0  0  0  0  0  0  0
   -1.7495   -1.0986    0.1498 N   0  0  0  0  0  0  0  0  0  0  0  0
   -2.5051   -0.5382   -0.2427 H   0  0  0  0  0  0  0  0  0  0  0  0
   -0.4142   -0.4844    0.1780 C   0  0  1  0  0  0  0  0  0  0  0  0
    0.1491   -0.8757    1.0299 H   0  0  0  0  0  0  0  0  0  0  0  0
    0.3248   -0.8157   -1.1265 C   0  0  0  0  0  0  0  0  0  0  0  0
    0.1956   -1.8822   -1.3381 H   0  0  0  0  0  0  0  0  0  0  0  0
   -0.1139   -0.2587   -1.9619 H   0  0  0  0  0  0  0  0  0  0  0  0
    1.8059   -0.5397   -1.0311 C   0  0  0  0  0  0  0  0  0  0  0  0
    2.6273   -0.6004    0.0766 N   0  0  0  0  0  0  0  0  0  0  0  0
    2.3863   -0.9984    0.9824 H   0  0  0  0  0  0  0  0  0  0  0  0
    3.8984   -0.2096   -0.3016 C   0  0  0  0  0  0  0  0  0  0  0  0
    4.7655   -0.1839    0.3524 H   0  0  0  0  0  0  0  0  0  0  0  0
    3.9095    0.1213   -1.5693 N   0  0  0  0  0  0  0  0  0  0  0  0
    2.6139   -0.0746   -2.0355 C   0  0  0  0  0  0  0  0  0  0  0  0
    2.2876    0.1226   -3.0524 H   0  0  0  0  0  0  0  0  0  0  0  0
   -0.5300    1.0439    0.3468 C   0  0  0  0  0  0  0  0  0  0  0  0
   -1.4167    1.6485   -0.2468 O   0  0  0  0  0  0  0  0  0  0  0  0
    0.2762    1.7276    1.2386 N   0  0  0  0  0  0  0  0  0  0  0  0
    1.0300    1.2114    1.6803 H   0  0  0  0  0  0  0  0  0  0  0  0
    0.2057    3.1709    1.4323 C   0  0  0  0  0  0  0  0  0  0  0  0
   -0.7887    3.4618    1.7871 H   0  0  0  0  0  0  0  0  0  0  0  0
    0.9433    3.4895    2.1751 H   0  0  0  0  0  0  0  0  0  0  0  0
    0.4124    3.6943    0.4928 H   0  0  0  0  0  0  0  0  0  0  0  0
  1  2  1  0  0  0  0
  2  3  1  0  0  0  0
  2  4  1  0  0  0  0
  2  5  1  0  0  0  0
  5  6  2  0  0  0  0
  5  7  1  0  0  0  0
  7  8  1  0  0  0  0
  7  9  1  0  0  0  0
  9 10  1  0  0  0  0
  9 11  1  0  0  0  0
  9 22  1  0  0  0  0
 11 12  1  0  0  0  0
 11 13  1  0  0  0  0
 11 14  1  0  0  0  0
 14 15  1  0  0  0  0
 14 20  2  0  0  0  0
 15 16  1  0  0  0  0
 15 17  1  0  0  0  0
 17 18  1  0  0  0  0
 17 19  2  0  0  0  0
 19 20  1  0  0  0  0
 20 21  1  0  0  0  0
 22 23  2  0  0  0  0
 22 24  1  0  0  0  0
 24 25  1  0  0  0  0
 24 26  1  0  0  0  0
 26 27  1  0  0  0  0
 26 28  1  0  0  0  0
 26 29  1  0  0  0  0
M  END
$$$$

  -OEChem-04042215593D

 29 29  0     1  0  0  0  0  0999 V2000
   -3.6143   -3.6113    1.4978 H   0  0  0  0  0  0  0  0  0  0  0  0
   -3.5295   -2.7071    0.8887 C   0  0  0  0  0  0  0  0  0  0  0  0
   -4.1514   -1.9251    1.3311 H   0  0  0  0  0  0  0  0  0  0  0  0
   -3.8916   -2.9256   -0.1188 H   0  0  0  0  0  0  0  0  0  0  0  0
   -2.0847   -2.2490    0.8309 C   0  0  0  0  0  0  0  0  0  0  0  0
   -1.2148   -2.8929    1.3972 O   0  0  0  0  0  0  0  0  0  0  0  0
   -1.7553   -1.1023    0.1391 N   0  0  0  0  0  0  0  0  0  0  0  0
   -2.5220   -0.5371   -0.2238 H   0  0  0  0  0  0  0  0  0  0  0  0
   -0.4224   -0.4831    0.1479 C   0  0  1  0  0  0  0  0  0  0  0  0
    0.1530   -0.8776    0.9904 H   0  0  0  0  0  0  0  0  0  0  0  0
    0.3057   -0.8065   -1.1633 C   0  0  0  0  0  0  0  0  0  0  0  0
    0.1838   -1.8718   -1.3855 H   0  0  0  0  0  0  0  0  0  0  0  0
   -0.1377   -0.2425   -1.9915 H   0  0  0  0  0  0  0  0  0  0  0  0
    1.7808   -0.5127   -1.0546 C   0  0  0  0  0  0  0  0  0  0  0  0
    2.6341   -0.8371   -0.0206 N   0  0  0  0  0  0  0  0  0  0  0  0
    2.4140   -1.4309    0.7779 H   0  0  0  0  0  0  0  0  0  0  0  0
    3.8899   -0.3447   -0.3227 C   0  0  0  0  0  0  0  0  0  0  0  0
    4.7742   -0.4650    0.2967 H   0  0  0  0  0  0  0  0  0  0  0  0
    3.8611    0.2890   -1.4698 N   0  0  0  0  0  0  0  0  0  0  0  0
    2.5547    0.1926   -1.9382 C   0  0  0  0  0  0  0  0  0  0  0  0
    2.1979    0.6237   -2.8690 H   0  0  0  0  0  0  0  0  0  0  0  0
   -0.5307    1.0427    0.3341 C   0  0  0  0  0  0  0  0  0  0  0  0
   -1.4319    1.6549   -0.2289 O   0  0  0  0  0  0  0  0  0  0  0  0
    0.2977    1.7102    1.2172 N   0  0  0  0  0  0  0  0  0  0  0  0
    1.0788    1.1903    1.6057 H   0  0  0  0  0  0  0  0  0  0  0  0
    0.2457    3.1526    1.4211 C   0  0  0  0  0  0  0  0  0  0  0  0
   -0.7430    3.4536    1.7831 H   0  0  0  0  0  0  0  0  0  0  0  0
    0.9907    3.4572    2.1622 H   0  0  0  0  0  0  0  0  0  0  0  0
    0.4535    3.6794    0.4839 H   0  0  0  0  0  0  0  0  0  0  0  0
  1  2  1  0  0  0  0
  2  3  1  0  0  0  0
  2  4  1  0  0  0  0
  2  5  1  0  0  0  0
  5  6  2  0  0  0  0
  5  7  1  0  0  0  0
  7  8  1  0  0  0  0
  7  9  1  0  0  0  0
  9 10  1  0  0  0  0
  9 11  1  0  0  0  0
  9 22  1  0  0  0  0
 11 12  1  0  0  0  0
 11 13  1  0  0  0  0
 11 14  1  0  0  0  0
 14 15  1  0  0  0  0
 14 20  2  0  0  0  0
 15 16  1  0  0  0  0
 15 17  1  0  0  0  0
 17 18  1  0  0  0  0
 17 19  2  0  0  0  0
 19 20  1  0  0  0  0
 20 21  1  0  0  0  0
 22 23  2  0  0  0  0
 22 24  1  0  0  0  0
 24 25  1  0  0  0  0
 24 26  1  0  0  0  0
 26 27  1  0  0  0  0
 26 28  1  0  0  0  0
 26 29  1  0  0  0  0
M  END
$$$$

  -OEChem-04042215593D

 29 29  0     1  0  0  0  0  0999 V2000
   -3.5850   -3.6206    1.5091 H   0  0  0  0  0  0  0  0  0  0  0  0
   -3.5118   -2.7166    0.8983 C   0  0  0  0  0  0  0  0  0  0  0  0
   -4.1281   -1.9357    1.3504 H   0  0  0  0  0  0  0  0  0  0  0  0
   -3.8901   -2.9360   -0.1029 H   0  0  0  0  0  0  0  0  0  0  0  0
   -2.0687   -2.2566    0.8163 C   0  0  0  0  0  0  0  0  0  0  0  0
   -1.1854   -2.9115    1.3485 O   0  0  0  0  0  0  0  0  0  0  0  0
   -1.7552   -1.1018    0.1307 N   0  0  0  0  0  0  0  0  0  0  0  0
   -2.5303   -0.5329   -0.2078 H   0  0  0  0  0  0  0  0  0  0  0  0
   -0.4256   -0.4758    0.1289 C   0  0  1  0  0  0  0  0  0  0  0  0
    0.1608   -0.8728    0.9633 H   0  0  0  0  0  0  0  0  0  0  0  0
    0.2933   -0.7950   -1.1876 C   0  0  0  0  0  0  0  0  0  0  0  0
    0.1759   -1.8583   -1.4212 H   0  0  0  0  0  0  0  0  0  0  0  0
   -0.1540   -0.2231   -2.0081 H   0  0  0  0  0  0  0  0  0  0  0  0
    1.7626   -0.4870   -1.0696 C   0  0  0  0  0  0  0  0  0  0  0  0
    2.6591   -1.0425   -0.1824 N   0  0  0  0  0  0  0  0  0  0  0  0
    2.4656   -1.7927    0.4801 H   0  0  0  0  0  0  0  0  0  0  0  0
    3.8999   -0.4764   -0.4079 C   0  0  0  0  0  0  0  0  0  0  0  0
    4.8088   -0.7257    0.1325 H   0  0  0  0  0  0  0  0  0  0  0  0
    3.8211    0.4095   -1.3715 N   0  0  0  0  0  0  0  0  0  0  0  0
    2.4972    0.4091   -1.7998 C   0  0  0  0  0  0  0  0  0  0  0  0
    2.1020    1.0352   -2.5944 H   0  0  0  0  0  0  0  0  0  0  0  0
   -0.5337    1.0479    0.3299 C   0  0  0  0  0  0  0  0  0  0  0  0
   -1.4382    1.6650   -0.2223 O   0  0  0  0  0  0  0  0  0  0  0  0
    0.3053    1.7080    1.2087 N   0  0  0  0  0  0  0  0  0  0  0  0
    1.0890    1.1829    1.5862 H   0  0  0  0  0  0  0  0  0  0  0  0
    0.2587    3.1490    1.4244 C   0  0  0  0  0  0  0  0  0  0  0  0
   -0.7258    3.4489    1.7987 H   0  0  0  0  0  0  0  0  0  0  0  0
    1.0117    3.4459    2.1607 H   0  0  0  0  0  0  0  0  0  0  0  0
    0.4587    3.6830    0.4895 H   0  0  0  0  0  0  0  0  0  0  0  0
  1  2  1  0  0  0  0
  2  3  1  0  0  0  0
  2  4  1  0  0  0  0
  2  5  1  0  0  0  0
  5  6  2  0  0  0  0
  5  7  1  0  0  0  0
  7  8  1  0  0  0  0
  7  9  1  0  0  0  0
  9 10  1  0  0  0  0
  9 11  1  0  0  0  0
  9 22  1  0  0  0  0
 11 12  1  0  0  0  0
 11 13  1  0  0  0  0
 11 14  1  0  0  0  0
 14 15  1  0  0  0  0
 14 20  2  0  0  0  0
 15 16  1  0  0  0  0
 15 17  1  0  0  0  0
 17 18  1  0  0  0  0
 17 19  2  0  0  0  0
 19 20  1  0  0  0  0
 20 21  1  0  0  0  0
 22 23  2  0  0  0  0
 22 24  1  0  0  0  0
 24 25  1  0  0  0  0
 24 26  1  0  0  0  0
 26 27  1  0  0  0  0
 26 28  1  0  0  0  0
 26 29  1  0  0  0  0
M  END
$$$$

  -OEChem-04042215593D

 29 29  0     1  0  0  0  0  0999 V2000
   -3.5701   -3.6275    1.5077 H   0  0  0  0  0  0  0  0  0  0  0  0
   -3.5028   -2.7218    0.8986 C   0  0  0  0  0  0  0  0  0  0  0  0
   -4.1152   -1.9424    1.3586 H   0  0  0  0  0  0  0  0  0  0  0  0
   -3.8901   -2.9381   -0.0999 H   0  0  0  0  0  0  0  0  0  0  0  0
   -2.0609   -2.2608    0.8047 C   0  0  0  0  0  0  0  0  0  0  0  0
   -1.1721   -2.9214    1.3199 O   0  0  0  0  0  0  0  0  0  0  0  0
   -1.7551   -1.1004    0.1253 N   0  0  0  0  0  0  0  0  0  0  0  0
   -2.5346   -0.5311   -0.2021 H   0  0  0  0  0  0  0  0  0  0  0  0
   -0.4279   -0.4689    0.1197 C   0  0  1  0  0  0  0  0  0  0  0  0
    0.1662   -0.8684    0.9483 H   0  0  0  0  0  0  0  0  0  0  0  0
    0.2873   -0.7857   -1.1984 C   0  0  0  0  0  0  0  0  0  0  0  0
    0.1710   -1.8468   -1.4419 H   0  0  0  0  0  0  0  0  0  0  0  0
   -0.1611   -0.2070   -2.0134 H   0  0  0  0  0  0  0  0  0  0  0  0
    1.7530   -0.4681   -1.0734 C   0  0  0  0  0  0  0  0  0  0  0  0
    2.6998   -1.2030   -0.3953 N   0  0  0  0  0  0  0  0  0  0  0  0
    2.5402   -2.0762    0.1058 H   0  0  0  0  0  0  0  0  0  0  0  0
    3.9228   -0.5763   -0.5429 C   0  0  0  0  0  0  0  0  0  0  0  0
    4.8598   -0.9263   -0.1188 H   0  0  0  0  0  0  0  0  0  0  0  0
    3.7877    0.5075   -1.2694 N   0  0  0  0  0  0  0  0  0  0  0  0
    2.4433    0.5812   -1.6203 C   0  0  0  0  0  0  0  0  0  0  0  0
    2.0036    1.3619   -2.2341 H   0  0  0  0  0  0  0  0  0  0  0  0
   -0.5383    1.0530    0.3312 C   0  0  0  0  0  0  0  0  0  0  0  0
   -1.4428    1.6731   -0.2176 O   0  0  0  0  0  0  0  0  0  0  0  0
    0.3050    1.7083    1.2093 N   0  0  0  0  0  0  0  0  0  0  0  0
    1.0873    1.1790    1.5852 H   0  0  0  0  0  0  0  0  0  0  0  0
    0.2610    3.1480    1.4331 C   0  0  0  0  0  0  0  0  0  0  0  0
   -0.7220    3.4475    1.8117 H   0  0  0  0  0  0  0  0  0  0  0  0
    1.0165    3.4396    2.1690 H   0  0  0  0  0  0  0  0  0  0  0  0
    0.4591    3.6870    0.5008 H   0  0  0  0  0  0  0  0  0  0  0  0
  1  2  1  0  0  0  0
  2  3  1  0  0  0  0
  2  4  1  0  0  0  0
  2  5  1  0  0  0  0
  5  6  2  0  0  0  0
  5  7  1  0  0  0  0
  7  8  1  0  0  0  0
  7  9  1  0  0  0  0
  9 10  1  0  0  0  0
  9 11  1  0  0  0  0
  9 22  1  0  0  0  0
 11 12  1  0  0  0  0
 11 13  1  0  0  0  0
 11 14  1  0  0  0  0
 14 15  1  0  0  0  0
 14 20  2  0  0  0  0
 15 16  1  0  0  0  0
 15 17  1  0  0  0  0
 17 18  1  0  0  0  0
 17 19  2  0  0  0  0
 19 20  1  0  0  0  0
 20 21  1  0  0  0  0
 22 23  2  0  0  0  0
 22 24  1  0  0  0  0
 24 25  1  0  0  0  0
 24 26  1  0  0  0  0
 26 27  1  0  0  0  0
 26 28  1  0  0  0  0
 26 29  1  0  0  0  0
M  END
$$$$

  -OEChem-04042215593D

 29 29  0     1  0  0  0  0  0999 V2000
   -3.5696   -3.6288    1.4975 H   0  0  0  0  0  0  0  0  0  0  0  0
   -3.5023   -2.7218    0.8906 C   0  0  0  0  0  0  0  0  0  0  0  0
   -4.1151   -1.9437    1.3520 H   0  0  0  0  0  0  0  0  0  0  0  0
   -3.8891   -2.9364   -0.1085 H   0  0  0  0  0  0  0  0  0  0  0  0
   -2.0603   -2.2602    0.7988 C   0  0  0  0  0  0  0  0  0  0  0  0
   -1.1713   -2.9248    1.3084 O   0  0  0  0  0  0  0  0  0  0  0  0
   -1.7552   -1.0965    0.1242 N   0  0  0  0  0  0  0  0  0  0  0  0
   -2.5358   -0.5270   -0.2001 H   0  0  0  0  0  0  0  0  0  0  0  0
   -0.4295   -0.4613    0.1227 C   0  0  1  0  0  0  0  0  0  0  0  0
    0.1644   -0.8622    0.9507 H   0  0  0  0  0  0  0  0  0  0  0  0
    0.2876   -0.7815   -1.1937 C   0  0  0  0  0  0  0  0  0  0  0  0
    0.1693   -1.8419   -1.4392 H   0  0  0  0  0  0  0  0  0  0  0  0
   -0.1601   -0.2004   -2.0075 H   0  0  0  0  0  0  0  0  0  0  0  0
    1.7533   -0.4624   -1.0724 C   0  0  0  0  0  0  0  0  0  0  0  0
    2.7496   -1.3127   -0.6493 N   0  0  0  0  0  0  0  0  0  0  0  0
    2.6289   -2.2757   -0.3385 H   0  0  0  0  0  0  0  0  0  0  0  0
    3.9545   -0.6392   -0.7203 C   0  0  0  0  0  0  0  0  0  0  0  0
    4.9196   -1.0535   -0.4430 H   0  0  0  0  0  0  0  0  0  0  0  0
    3.7635    0.5783   -1.1696 N   0  0  0  0  0  0  0  0  0  0  0  0
    2.3992    0.6971   -1.4130 C   0  0  0  0  0  0  0  0  0  0  0  0
    1.9147    1.5843   -1.8100 H   0  0  0  0  0  0  0  0  0  0  0  0
   -0.5431    1.0595    0.3390 C   0  0  0  0  0  0  0  0  0  0  0  0
   -1.4402    1.6821   -0.2186 O   0  0  0  0  0  0  0  0  0  0  0  0
    0.2976    1.7138    1.2204 N   0  0  0  0  0  0  0  0  0  0  0  0
    1.0698    1.1807    1.6119 H   0  0  0  0  0  0  0  0  0  0  0  0
    0.2530    3.1530    1.4473 C   0  0  0  0  0  0  0  0  0  0  0  0
   -0.7303    3.4514    1.8258 H   0  0  0  0  0  0  0  0  0  0  0  0
    1.0081    3.4431    2.1842 H   0  0  0  0  0  0  0  0  0  0  0  0
    0.4517    3.6942    0.5163 H   0  0  0  0  0  0  0  0  0  0  0  0
  1  2  1  0  0  0  0
  2  3  1  0  0  0  0
  2  4  1  0  0  0  0
  2  5  1  0  0  0  0
  5  6  2  0  0  0  0
  5  7  1  0  0  0  0
  7  8  1  0  0  0  0
  7  9  1  0  0  0  0
  9 10  1  0  0  0  0
  9 11  1  0  0  0  0
  9 22  1  0  0  0  0
 11 12  1  0  0  0  0
 11 13  1  0  0  0  0
 11 14  1  0  0  0  0
 14 15  1  0  0  0  0
 14 20  2  0  0  0  0
 15 16  1  0  0  0  0
 15 17  1  0  0  0  0
 17 18  1  0  0  0  0
 17 19  2  0  0  0  0
 19 20  1  0  0  0  0
 20 21  1  0  0  0  0
 22 23  2  0  0  0  0
 22 24  1  0  0  0  0
 24 25  1  0  0  0  0
 24 26  1  0  0  0  0
 26 27  1  0  0  0  0
 26 28  1  0  0  0  0
 26 29  1  0  0  0  0
M  END
$$$$

  -OEChem-04042215593D

 29 29  0     1  0  0  0  0  0999 V2000
   -3.5727   -3.6281    1.4796 H   0  0  0  0  0  0  0  0  0  0  0  0
   -3.5014   -2.7183    0.8769 C   0  0  0  0  0  0  0  0  0  0  0  0
   -4.1193   -1.9426    1.3355 H   0  0  0  0  0  0  0  0  0  0  0  0
   -3.8788   -2.9292   -0.1266 H   0  0  0  0  0  0  0  0  0  0  0  0
   -2.0597   -2.2537    0.8002 C   0  0  0  0  0  0  0  0  0  0  0  0
   -1.1746   -2.9169    1.3176 O   0  0  0  0  0  0  0  0  0  0  0  0
   -1.7515   -1.0889    0.1297 N   0  0  0  0  0  0  0  0  0  0  0  0
   -2.5307   -0.5224   -0.2027 H   0  0  0  0  0  0  0  0  0  0  0  0
   -0.4277   -0.4499    0.1369 C   0  0  1  0  0  0  0  0  0  0  0  0
    0.1638   -0.8490    0.9679 H   0  0  0  0  0  0  0  0  0  0  0  0
    0.2940   -0.7782   -1.1766 C   0  0  0  0  0  0  0  0  0  0  0  0
    0.1715   -1.8405   -1.4119 H   0  0  0  0  0  0  0  0  0  0  0  0
   -0.1545   -0.2044   -1.9950 H   0  0  0  0  0  0  0  0  0  0  0  0
    1.7637   -0.4643   -1.0743 C   0  0  0  0  0  0  0  0  0  0  0  0
    2.7919   -1.3691   -0.9350 N   0  0  0  0  0  0  0  0  0  0  0  0
    2.6973   -2.3786   -0.8355 H   0  0  0  0  0  0  0  0  0  0  0  0
    3.9865   -0.6743   -0.9324 C   0  0  0  0  0  0  0  0  0  0  0  0
    4.9699   -1.1228   -0.8231 H   0  0  0  0  0  0  0  0  0  0  0  0
    3.7610    0.6096   -1.0775 N   0  0  0  0  0  0  0  0  0  0  0  0
    2.3827    0.7534   -1.1916 C   0  0  0  0  0  0  0  0  0  0  0  0
    1.8703    1.6979   -1.3495 H   0  0  0  0  0  0  0  0  0  0  0  0
   -0.5530    1.0696    0.3542 C   0  0  0  0  0  0  0  0  0  0  0  0
   -1.4422    1.6902   -0.2178 O   0  0  0  0  0  0  0  0  0  0  0  0
    0.2778    1.7272    1.2427 N   0  0  0  0  0  0  0  0  0  0  0  0
    1.0327    1.1908    1.6633 H   0  0  0  0  0  0  0  0  0  0  0  0
    0.2274    3.1659    1.4704 C   0  0  0  0  0  0  0  0  0  0  0  0
   -0.7584    3.4606    1.8454 H   0  0  0  0  0  0  0  0  0  0  0  0
    0.9790    3.4575    2.2102 H   0  0  0  0  0  0  0  0  0  0  0  0
    0.4284    3.7083    0.5406 H   0  0  0  0  0  0  0  0  0  0  0  0
  1  2  1  0  0  0  0
  2  3  1  0  0  0  0
  2  4  1  0  0  0  0
  2  5  1  0  0  0  0
  5  6  2  0  0  0  0
  5  7  1  0  0  0  0
  7  8  1  0  0  0  0
  7  9  1  0  0  0  0
  9 10  1  0  0  0  0
  9 11  1  0  0  0  0
  9 22  1  0  0  0  0
 11 12  1  0  0  0  0
 11 13  1  0  0  0  0
 11 14  1  0  0  0  0
 14 15  1  0  0  0  0
 14 20  2  0  0  0  0
 15 16  1  0  0  0  0
 15 17  1  0  0  0  0
 17 18  1  0  0  0  0
 17 19  2  0  0  0  0
 19 20  1  0  0  0  0
 20 21  1  0  0  0  0
 22 23  2  0  0  0  0
 22 24  1  0  0  0  0
 24 25  1  0  0  0  0
 24 26  1  0  0  0  0
 26 27  1  0  0  0  0
 26 28  1  0  0  0  0
 26 29  1  0  0  0  0
M  END
$$$$

  -OEChem-04042215593D

 29 29  0     1  0  0  0  0  0999 V2000
   -3.5679   -3.6305    1.4540 H   0  0  0  0  0  0  0  0  0  0  0  0
   -3.4940   -2.7163    0.8584 C   0  0  0  0  0  0  0  0  0  0  0  0
   -4.1239   -1.9481    1.3135 H   0  0  0  0  0  0  0  0  0  0  0  0
   -3.8553   -2.9235   -0.1517 H   0  0  0  0  0  0  0  0  0  0  0  0
   -2.0540   -2.2419    0.8057 C   0  0  0  0  0  0  0  0  0  0  0  0
   -1.1743   -2.8996    1.3382 O   0  0  0  0  0  0  0  0  0  0  0  0
   -1.7405   -1.0761    0.1391 N   0  0  0  0  0  0  0  0  0  0  0  0
   -2.5169   -0.5149   -0.2090 H   0  0  0  0  0  0  0  0  0  0  0  0
   -0.4187   -0.4314    0.1627 C   0  0  1  0  0  0  0  0  0  0  0  0
    0.1676   -0.8261    0.9994 H   0  0  0  0  0  0  0  0  0  0  0  0
    0.3096   -0.7705   -1.1478 C   0  0  0  0  0  0  0  0  0  0  0  0
    0.1799   -1.8355   -1.3660 H   0  0  0  0  0  0  0  0  0  0  0  0
   -0.1416   -0.2092   -1.9729 H   0  0  0  0  0  0  0  0  0  0  0  0
    1.7867   -0.4699   -1.0799 C   0  0  0  0  0  0  0  0  0  0  0  0
    2.8111   -1.3765   -1.2397 N   0  0  0  0  0  0  0  0  0  0  0  0
    2.7106   -2.3819   -1.3672 H   0  0  0  0  0  0  0  0  0  0  0  0
    4.0135   -0.6988   -1.1694 C   0  0  0  0  0  0  0  0  0  0  0  0
    4.9954   -1.1578   -1.2424 H   0  0  0  0  0  0  0  0  0  0  0  0
    3.7977    0.5831   -0.9992 N   0  0  0  0  0  0  0  0  0  0  0  0
    2.4172    0.7436   -0.9683 C   0  0  0  0  0  0  0  0  0  0  0  0
    1.9146    1.7017   -0.8793 H   0  0  0  0  0  0  0  0  0  0  0  0
   -0.5662    1.0865    0.3784 C   0  0  0  0  0  0  0  0  0  0  0  0
   -1.4476    1.6981   -0.2148 O   0  0  0  0  0  0  0  0  0  0  0  0
    0.2426    1.7560    1.2786 N   0  0  0  0  0  0  0  0  0  0  0  0
    0.9774    1.2235    1.7379 H   0  0  0  0  0  0  0  0  0  0  0  0
    0.1679    3.1936    1.5076 C   0  0  0  0  0  0  0  0  0  0  0  0
   -0.8260    3.4731    1.8726 H   0  0  0  0  0  0  0  0  0  0  0  0
    0.9077    3.4960    2.2551 H   0  0  0  0  0  0  0  0  0  0  0  0
    0.3700    3.7400    0.5803 H   0  0  0  0  0  0  0  0  0  0  0  0
  1  2  1  0  0  0  0
  2  3  1  0  0  0  0
  2  4  1  0  0  0  0
  2  5  1  0  0  0  0
  5  6  2  0  0  0  0
  5  7  1  0  0  0  0
  7  8  1  0  0  0  0
  7  9  1  0  0  0  0
  9 10  1  0  0  0  0
  9 11  1  0  0  0  0
  9 22  1  0  0  0  0
 11 12  1  0  0  0  0
 11 13  1  0  0  0  0
 11 14  1  0  0  0  0
 14 15  1  0  0  0  0
 14 20  2  0  0  0  0
 15 16  1  0  0  0  0
 15 17  1  0  0  0  0
 17 18  1  0  0  0  0
 17 19  2  0  0  0  0
 19 20  1  0  0  0  0
 20 21  1  0  0  0  0
 22 23  2  0  0  0  0
 22 24  1  0  0  0  0
 24 25  1  0  0  0  0
 24 26  1  0  0  0  0
 26 27  1  0  0  0  0
 26 28  1  0  0  0  0
 26 29  1  0  0  0  0
M  END
$$$$

  -OEChem-04042215593D

 29 29  0     1  0  0  0  0  0999 V2000
   -3.5533   -3.6275    1.4181 H   0  0  0  0  0  0  0  0  0  0  0  0
   -3.4729   -2.7059    0.8349 C   0  0  0  0  0  0  0  0  0  0  0  0
   -4.1161   -1.9465    1.2862 H   0  0  0  0  0  0  0  0  0  0  0  0
   -3.8124   -2.9030   -0.1847 H   0  0  0  0  0  0  0  0  0  0  0  0
   -2.0351   -2.2228    0.8162 C   0  0  0  0  0  0  0  0  0  0  0  0
   -1.1664   -2.8681    1.3805 O   0  0  0  0  0  0  0  0  0  0  0  0
   -1.7124   -1.0596    0.1498 N   0  0  0  0  0  0  0  0  0  0  0  0
   -2.4831   -0.5068   -0.2237 H   0  0  0  0  0  0  0  0  0  0  0  0
   -0.3945   -0.4073    0.1967 C   0  0  1  0  0  0  0  0  0  0  0  0
    0.1873   -0.7923    1.0409 H   0  0  0  0  0  0  0  0  0  0  0  0
    0.3376   -0.7553   -1.1128 C   0  0  0  0  0  0  0  0  0  0  0  0
    0.2011   -1.8243   -1.3070 H   0  0  0  0  0  0  0  0  0  0  0  0
   -0.1222   -0.2119   -1.9452 H   0  0  0  0  0  0  0  0  0  0  0  0
    1.8230   -0.4754   -1.0953 C   0  0  0  0  0  0  0  0  0  0  0  0
    2.7974   -1.3313   -1.5613 N   0  0  0  0  0  0  0  0  0  0  0  0
    2.6474   -2.2682   -1.9302 H   0  0  0  0  0  0  0  0  0  0  0  0
    4.0291   -0.7209   -1.4226 C   0  0  0  0  0  0  0  0  0  0  0  0
    4.9822   -1.1666   -1.6929 H   0  0  0  0  0  0  0  0  0  0  0  0
    3.8805    0.4780   -0.9153 N   0  0  0  0  0  0  0  0  0  0  0  0
    2.5145    0.6517   -0.7263 C   0  0  0  0  0  0  0  0  0  0  0  0
    2.0702    1.5692   -0.3584 H   0  0  0  0  0  0  0  0  0  0  0  0
   -0.5801    1.1085    0.4007 C   0  0  0  0  0  0  0  0  0  0  0  0
   -1.4555    1.6994   -0.2220 O   0  0  0  0  0  0  0  0  0  0  0  0
    0.1909    1.8019    1.3160 N   0  0  0  0  0  0  0  0  0  0  0  0
    0.8974    1.2808    1.8296 H   0  0  0  0  0  0  0  0  0  0  0  0
    0.0589    3.2337    1.5554 C   0  0  0  0  0  0  0  0  0  0  0  0
   -0.9525    3.4734    1.8999 H   0  0  0  0  0  0  0  0  0  0  0  0
    0.7703    3.5558    2.3220 H   0  0  0  0  0  0  0  0  0  0  0  0
    0.2620    3.7959    0.6378 H   0  0  0  0  0  0  0  0  0  0  0  0
  1  2  1  0  0  0  0
  2  3  1  0  0  0  0
  2  4  1  0  0  0  0
  2  5  1  0  0  0  0
  5  6  2  0  0  0  0
  5  7  1  0  0  0  0
  7  8  1  0  0  0  0
  7  9  1  0  0  0  0
  9 10  1  0  0  0  0
  9 11  1  0  0  0  0
  9 22  1  0  0  0  0
 11 12  1  0  0  0  0
 11 13  1  0  0  0  0
 11 14  1  0  0  0  0
 14 15  1  0  0  0  0
 14 20  2  0  0  0  0
 15 16  1  0  0  0  0
 15 17  1  0  0  0  0
 17 18  1  0  0  0  0
 17 19  2  0  0  0  0
 19 20  1  0  0  0  0
 20 21  1  0  0  0  0
 22 23  2  0  0  0  0
 22 24  1  0  0  0  0
 24 25  1  0  0  0  0
 24 26  1  0  0  0  0
 26 27  1  0  0  0  0
 26 28  1  0  0  0  0
 26 29  1  0  0  0  0
M  END
$$$$

  -OEChem-04042215593D

 29 29  0     1  0  0  0  0  0999 V2000
   -3.5370   -3.6208    1.4020 H   0  0  0  0  0  0  0  0  0  0  0  0
   -3.4512   -2.6996    0.8192 C   0  0  0  0  0  0  0  0  0  0  0  0
   -4.1059   -1.9431    1.2585 H   0  0  0  0  0  0  0  0  0  0  0  0
   -3.7724   -2.8995   -0.2057 H   0  0  0  0  0  0  0  0  0  0  0  0
   -2.0157   -2.2092    0.8249 C   0  0  0  0  0  0  0  0  0  0  0  0
   -1.1556   -2.8419    1.4155 O   0  0  0  0  0  0  0  0  0  0  0  0
   -1.6860   -1.0491    0.1565 N   0  0  0  0  0  0  0  0  0  0  0  0
   -2.4521   -0.5014   -0.2338 H   0  0  0  0  0  0  0  0  0  0  0  0
   -0.3712   -0.3914    0.2211 C   0  0  1  0  0  0  0  0  0  0  0  0
    0.2106   -0.7699    1.0682 H   0  0  0  0  0  0  0  0  0  0  0  0
    0.3595   -0.7250   -1.0948 C   0  0  0  0  0  0  0  0  0  0  0  0
    0.2216   -1.7942   -1.2867 H   0  0  0  0  0  0  0  0  0  0  0  0
   -0.1109   -0.1825   -1.9220 H   0  0  0  0  0  0  0  0  0  0  0  0
    1.8492   -0.4584   -1.1130 C   0  0  0  0  0  0  0  0  0  0  0  0
    2.7540   -1.1749   -1.8673 N   0  0  0  0  0  0  0  0  0  0  0  0
    2.5347   -1.9452   -2.4956 H   0  0  0  0  0  0  0  0  0  0  0  0
    4.0239   -0.6889   -1.6244 C   0  0  0  0  0  0  0  0  0  0  0  0
    4.9356   -1.0641   -2.0805 H   0  0  0  0  0  0  0  0  0  0  0  0
    3.9689    0.2931   -0.7593 N   0  0  0  0  0  0  0  0  0  0  0  0
    2.6268    0.4463   -0.4331 C   0  0  0  0  0  0  0  0  0  0  0  0
    2.2671    1.1882    0.2677 H   0  0  0  0  0  0  0  0  0  0  0  0
   -0.5906    1.1239    0.4126 C   0  0  0  0  0  0  0  0  0  0  0  0
   -1.4670    1.6916   -0.2308 O   0  0  0  0  0  0  0  0  0  0  0  0
    0.1443    1.8455    1.3354 N   0  0  0  0  0  0  0  0  0  0  0  0
    0.8285    1.3409    1.8930 H   0  0  0  0  0  0  0  0  0  0  0  0
   -0.0365    3.2736    1.5665 C   0  0  0  0  0  0  0  0  0  0  0  0
   -1.0605    3.4831    1.8930 H   0  0  0  0  0  0  0  0  0  0  0  0
    0.6516    3.6206    2.3434 H   0  0  0  0  0  0  0  0  0  0  0  0
    0.1641    3.8382    0.6499 H   0  0  0  0  0  0  0  0  0  0  0  0
  1  2  1  0  0  0  0
  2  3  1  0  0  0  0
  2  4  1  0  0  0  0
  2  5  1  0  0  0  0
  5  6  2  0  0  0  0
  5  7  1  0  0  0  0
  7  8  1  0  0  0  0
  7  9  1  0  0  0  0
  9 10  1  0  0  0  0
  9 11  1  0  0  0  0
  9 22  1  0  0  0  0
 11 12  1  0  0  0  0
 11 13  1  0  0  0  0
 11 14  1  0  0  0  0
 14 15  1  0  0  0  0
 14 20  2  0  0  0  0
 15 16  1  0  0  0  0
 15 17  1  0  0  0  0
 17 18  1  0  0  0  0
 17 19  2  0  0  0  0
 19 20  1  0  0  0  0
 20 21  1  0  0  0  0
 22 23  2  0  0  0  0
 22 24  1  0  0  0  0
 24 25  1  0  0  0  0
 24 26  1  0  0  0  0
 26 27  1  0  0  0  0
 26 28  1  0  0  0  0
 26 29  1  0  0  0  0
M  END
$$$$

  -OEChem-04042215593D

 29 29  0     1  0  0  0  0  0999 V2000
   -3.5443   -3.6229    1.4096 H   0  0  0  0  0  0  0  0  0  0  0  0
   -3.4596   -2.7050    0.8213 C   0  0  0  0  0  0  0  0  0  0  0  0
   -4.1185   -1.9479    1.2531 H   0  0  0  0  0  0  0  0  0  0  0  0
   -3.7762   -2.9129   -0.2035 H   0  0  0  0  0  0  0  0  0  0  0  0
   -2.0259   -2.2101    0.8297 C   0  0  0  0  0  0  0  0  0  0  0  0
   -1.1670   -2.8384    1.4265 O   0  0  0  0  0  0  0  0  0  0  0  0
   -1.6955   -1.0527    0.1568 N   0  0  0  0  0  0  0  0  0  0  0  0
   -2.4604   -0.5073   -0.2388 H   0  0  0  0  0  0  0  0  0  0  0  0
   -0.3797   -0.3975    0.2196 C   0  0  1  0  0  0  0  0  0  0  0  0
    0.2002   -0.7797    1.0661 H   0  0  0  0  0  0  0  0  0  0  0  0
    0.3541   -0.7137   -1.0978 C   0  0  0  0  0  0  0  0  0  0  0  0
    0.2204   -1.7798   -1.3102 H   0  0  0  0  0  0  0  0  0  0  0  0
   -0.1131   -0.1557   -1.9165 H   0  0  0  0  0  0  0  0  0  0  0  0
    1.8423   -0.4402   -1.0992 C   0  0  0  0  0  0  0  0  0  0  0  0
    2.7214   -0.9173   -2.0477 N   0  0  0  0  0  0  0  0  0  0  0  0
    2.4790   -1.4714   -2.8665 H   0  0  0  0  0  0  0  0  0  0  0  0
    4.0015   -0.5237   -1.7084 C   0  0  0  0  0  0  0  0  0  0  0  0
    4.8974   -0.7504   -2.2793 H   0  0  0  0  0  0  0  0  0  0  0  0
    3.9786    0.1633   -0.5932 N   0  0  0  0  0  0  0  0  0  0  0  0
    2.6475    0.2118   -0.1981 C   0  0  0  0  0  0  0  0  0  0  0  0
    2.3121    0.6884    0.7149 H   0  0  0  0  0  0  0  0  0  0  0  0
   -0.5877    1.1207    0.4062 C   0  0  0  0  0  0  0  0  0  0  0  0
   -1.4617    1.6908   -0.2387 O   0  0  0  0  0  0  0  0  0  0  0  0
    0.1514    1.8437    1.3248 N   0  0  0  0  0  0  0  0  0  0  0  0
    0.8287    1.3389    1.8899 H   0  0  0  0  0  0  0  0  0  0  0  0
   -0.0172    3.2754    1.5430 C   0  0  0  0  0  0  0  0  0  0  0  0
   -1.0375    3.4965    1.8736 H   0  0  0  0  0  0  0  0  0  0  0  0
    0.6790    3.6252    2.3115 H   0  0  0  0  0  0  0  0  0  0  0  0
    0.1822    3.8292    0.6196 H   0  0  0  0  0  0  0  0  0  0  0  0
  1  2  1  0  0  0  0
  2  3  1  0  0  0  0
  2  4  1  0  0  0  0
  2  5  1  0  0  0  0
  5  6  2  0  0  0  0
  5  7  1  0  0  0  0
  7  8  1  0  0  0  0
  7  9  1  0  0  0  0
  9 10  1  0  0  0  0
  9 11  1  0  0  0  0
  9 22  1  0  0  0  0
 11 12  1  0  0  0  0
 11 13  1  0  0  0  0
 11 14  1  0  0  0  0
 14 15  1  0  0  0  0
 14 20  2  0  0  0  0
 15 16  1  0  0  0  0
 15 17  1  0  0  0  0
 17 18  1  0  0  0  0
 17 19  2  0  0  0  0
 19 20  1  0  0  0  0
 20 21  1  0  0  0  0
 22 23  2  0  0  0  0
 22 24  1  0  0  0  0
 24 25  1  0  0  0  0
 24 26  1  0  0  0  0
 26 27  1  0  0  0  0
 26 28  1  0  0  0  0
 26 29  1  0  0  0  0
M  END
$$$$

  -OEChem-04042215593D

 29 29  0     1  0  0  0  0  0999 V2000
   -3.5925   -3.6304    1.4309 H   0  0  0  0  0  0  0  0  0  0  0  0
   -3.5079   -2.7156    0.8376 C   0  0  0  0  0  0  0  0  0  0  0  0
   -4.1602   -1.9535    1.2708 H   0  0  0  0  0  0  0  0  0  0  0  0
   -3.8329   -2.9269   -0.1839 H   0  0  0  0  0  0  0  0  0  0  0  0
   -2.0718   -2.2272    0.8336 C   0  0  0  0  0  0  0  0  0  0  0  0
   -1.2137   -2.8529    1.4344 O   0  0  0  0  0  0  0  0  0  0  0  0
   -1.7436   -1.0734    0.1524 N   0  0  0  0  0  0  0  0  0  0  0  0
   -2.5111   -0.5337   -0.2450 H   0  0  0  0  0  0  0  0  0  0  0  0
   -0.4264   -0.4188    0.1929 C   0  0  1  0  0  0  0  0  0  0  0  0
    0.1226   -0.8069    1.0555 H   0  0  0  0  0  0  0  0  0  0  0  0
    0.3453   -0.7443   -1.1010 C   0  0  0  0  0  0  0  0  0  0  0  0
    0.0357   -1.7340   -1.4526 H   0  0  0  0  0  0  0  0  0  0  0  0
    0.0761   -0.0240   -1.8810 H   0  0  0  0  0  0  0  0  0  0  0  0
    1.8494   -0.7801   -0.9404 C   0  0  0  0  0  0  0  0  0  0  0  0
    2.7448   -1.0483   -1.9527 N   0  0  0  0  0  0  0  0  0  0  0  0
    2.5118   -1.2615   -2.9203 H   0  0  0  0  0  0  0  0  0  0  0  0
    4.0269   -0.9845   -1.4407 C   0  0  0  0  0  0  0  0  0  0  0  0
    4.9365   -1.1507   -2.0106 H   0  0  0  0  0  0  0  0  0  0  0  0
    3.9872   -0.6908   -0.1643 N   0  0  0  0  0  0  0  0  0  0  0  0
    2.6420   -0.5688    0.1615 C   0  0  0  0  0  0  0  0  0  0  0  0
    2.2811   -0.3317    1.1570 H   0  0  0  0  0  0  0  0  0  0  0  0
   -0.5651    1.1045    0.3733 C   0  0  0  0  0  0  0  0  0  0  0  0
   -1.4360    1.7068   -0.2449 O   0  0  0  0  0  0  0  0  0  0  0  0
    0.2291    1.7892    1.2747 N   0  0  0  0  0  0  0  0  0  0  0  0
    0.9272    1.2597    1.7896 H   0  0  0  0  0  0  0  0  0  0  0  0
    0.1238    3.2247    1.5057 C   0  0  0  0  0  0  0  0  0  0  0  0
   -0.8771    3.4829    1.8674 H   0  0  0  0  0  0  0  0  0  0  0  0
    0.8545    3.5413    2.2562 H   0  0  0  0  0  0  0  0  0  0  0  0
    0.3177    3.7766    0.5800 H   0  0  0  0  0  0  0  0  0  0  0  0
  1  2  1  0  0  0  0
  2  3  1  0  0  0  0
  2  4  1  0  0  0  0
  2  5  1  0  0  0  0
  5  6  2  0  0  0  0
  5  7  1  0  0  0  0
  7  8  1  0  0  0  0
  7  9  1  0  0  0  0
  9 10  1  0  0  0  0
  9 11  1  0  0  0  0
  9 22  1  0  0  0  0
 11 12  1  0  0  0  0
 11 13  1  0  0  0  0
 11 14  1  0  0  0  0
 14 15  1  0  0  0  0
 14 20  2  0  0  0  0
 15 16  1  0  0  0  0
 15 17  1  0  0  0  0
 17 18  1  0  0  0  0
 17 19  2  0  0  0  0
 19 20  1  0  0  0  0
 20 21  1  0  0  0  0
 22 23  2  0  0  0  0
 22 24  1  0  0  0  0
 24 25  1  0  0  0  0
 24 26  1  0  0  0  0
 26 27  1  0  0  0  0
 26 28  1  0  0  0  0
 26 29  1  0  0  0  0
M  END
$$$$

  -OEChem-04042215593D

 29 29  0     1  0  0  0  0  0999 V2000
   -3.6014   -3.6497    1.4185 H   0  0  0  0  0  0  0  0  0  0  0  0
   -3.5183   -2.7346    0.8255 C   0  0  0  0  0  0  0  0  0  0  0  0
   -4.1846   -1.9790    1.2483 H   0  0  0  0  0  0  0  0  0  0  0  0
   -3.8265   -2.9509   -0.2001 H   0  0  0  0  0  0  0  0  0  0  0  0
   -2.0875   -2.2309    0.8406 C   0  0  0  0  0  0  0  0  0  0  0  0
   -1.2309   -2.8498    1.4505 O   0  0  0  0  0  0  0  0  0  0  0  0
   -1.7597   -1.0771    0.1588 N   0  0  0  0  0  0  0  0  0  0  0  0
   -2.5256   -0.5433   -0.2493 H   0  0  0  0  0  0  0  0  0  0  0  0
   -0.4427   -0.4222    0.1996 C   0  0  1  0  0  0  0  0  0  0  0  0
    0.0983   -0.8078    1.0672 H   0  0  0  0  0  0  0  0  0  0  0  0
    0.3356   -0.7492   -1.0895 C   0  0  0  0  0  0  0  0  0  0  0  0
    0.0287   -1.7363   -1.4503 H   0  0  0  0  0  0  0  0  0  0  0  0
    0.0708   -0.0234   -1.8660 H   0  0  0  0  0  0  0  0  0  0  0  0
    1.8384   -0.7810   -0.9182 C   0  0  0  0  0  0  0  0  0  0  0  0
    2.7482   -0.7561   -1.9526 N   0  0  0  0  0  0  0  0  0  0  0  0
    2.5283   -0.7268   -2.9461 H   0  0  0  0  0  0  0  0  0  0  0  0
    4.0242   -0.7730   -1.4228 C   0  0  0  0  0  0  0  0  0  0  0  0
    4.9421   -0.7576   -2.0035 H   0  0  0  0  0  0  0  0  0  0  0  0
    3.9668   -0.8071   -0.1142 N   0  0  0  0  0  0  0  0  0  0  0  0
    2.6165   -0.8218    0.2137 C   0  0  0  0  0  0  0  0  0  0  0  0
    2.2437   -0.8544    1.2324 H   0  0  0  0  0  0  0  0  0  0  0  0
   -0.5674    1.1018    0.3787 C   0  0  0  0  0  0  0  0  0  0  0  0
   -1.4314    1.7129   -0.2405 O   0  0  0  0  0  0  0  0  0  0  0  0
    0.2357    1.7765    1.2799 N   0  0  0  0  0  0  0  0  0  0  0  0
    0.9452    1.2418    1.7738 H   0  0  0  0  0  0  0  0  0  0  0  0
    0.1667    3.2169    1.4918 C   0  0  0  0  0  0  0  0  0  0  0  0
   -0.8233    3.5027    1.8623 H   0  0  0  0  0  0  0  0  0  0  0  0
    0.9144    3.5264    2.2285 H   0  0  0  0  0  0  0  0  0  0  0  0
    0.3619    3.7517    0.5562 H   0  0  0  0  0  0  0  0  0  0  0  0
  1  2  1  0  0  0  0
  2  3  1  0  0  0  0
  2  4  1  0  0  0  0
  2  5  1  0  0  0  0
  5  6  2  0  0  0  0
  5  7  1  0  0  0  0
  7  8  1  0  0  0  0
  7  9  1  0  0  0  0
  9 10  1  0  0  0  0
  9 11  1  0  0  0  0
  9 22  1  0  0  0  0
 11 12  1  0  0  0  0
 11 13  1  0  0  0  0
 11 14  1  0  0  0  0
 14 15  1  0  0  0  0
 14 20  2  0  0  0  0
 15 16  1  0  0  0  0
 15 17  1  0  0  0  0
 17 18  1  0  0  0  0
 17 19  2  0  0  0  0
 19 20  1  0  0  0  0
 20 21  1  0  0  0  0
 22 23  2  0  0  0  0
 22 24  1  0  0  0  0
 24 25  1  0  0  0  0
 24 26  1  0  0  0  0
 26 27  1  0  0  0  0
 26 28  1  0  0  0  0
 26 29  1  0  0  0  0
M  END
$$$$

  -OEChem-04042215593D

 29 29  0     1  0  0  0  0  0999 V2000
   -3.5972   -3.6403    1.4441 H   0  0  0  0  0  0  0  0  0  0  0  0
   -3.5174   -2.7276    0.8468 C   0  0  0  0  0  0  0  0  0  0  0  0
   -4.1704   -1.9658    1.2791 H   0  0  0  0  0  0  0  0  0  0  0  0
   -3.8462   -2.9441   -0.1725 H   0  0  0  0  0  0  0  0  0  0  0  0
   -2.0829   -2.2341    0.8350 C   0  0  0  0  0  0  0  0  0  0  0  0
   -1.2188   -2.8569    1.4305 O   0  0  0  0  0  0  0  0  0  0  0  0
   -1.7613   -1.0802    0.1507 N   0  0  0  0  0  0  0  0  0  0  0  0
   -2.5313   -0.5422   -0.2435 H   0  0  0  0  0  0  0  0  0  0  0  0
   -0.4444   -0.4258    0.1853 C   0  0  1  0  0  0  0  0  0  0  0  0
    0.0995   -0.8063    1.0532 H   0  0  0  0  0  0  0  0  0  0  0  0
    0.3311   -0.7523   -1.1050 C   0  0  0  0  0  0  0  0  0  0  0  0
    0.0287   -1.7394   -1.4698 H   0  0  0  0  0  0  0  0  0  0  0  0
    0.0664   -0.0256   -1.8807 H   0  0  0  0  0  0  0  0  0  0  0  0
    1.8308   -0.7787   -0.9181 C   0  0  0  0  0  0  0  0  0  0  0  0
    2.7603   -0.4619   -1.8847 N   0  0  0  0  0  0  0  0  0  0  0  0
    2.5607   -0.1738   -2.8406 H   0  0  0  0  0  0  0  0  0  0  0  0
    4.0244   -0.5887   -1.3413 C   0  0  0  0  0  0  0  0  0  0  0  0
    4.9544   -0.3985   -1.8696 H   0  0  0  0  0  0  0  0  0  0  0  0
    3.9392   -0.9695   -0.0903 N   0  0  0  0  0  0  0  0  0  0  0  0
    2.5832   -1.1052    0.1839 C   0  0  0  0  0  0  0  0  0  0  0  0
    2.1857   -1.4251    1.1422 H   0  0  0  0  0  0  0  0  0  0  0  0
   -0.5653    1.0981    0.3654 C   0  0  0  0  0  0  0  0  0  0  0  0
   -1.4352    1.7112   -0.2436 O   0  0  0  0  0  0  0  0  0  0  0  0
    0.2448    1.7685    1.2632 N   0  0  0  0  0  0  0  0  0  0  0  0
    0.9668    1.2324    1.7378 H   0  0  0  0  0  0  0  0  0  0  0  0
    0.1733    3.2064    1.4899 C   0  0  0  0  0  0  0  0  0  0  0  0
   -0.8193    3.4879    1.8570 H   0  0  0  0  0  0  0  0  0  0  0  0
    0.9153    3.5083    2.2354 H   0  0  0  0  0  0  0  0  0  0  0  0
    0.3742    3.7510    0.5613 H   0  0  0  0  0  0  0  0  0  0  0  0
  1  2  1  0  0  0  0
  2  3  1  0  0  0  0
  2  4  1  0  0  0  0
  2  5  1  0  0  0  0
  5  6  2  0  0  0  0
  5  7  1  0  0  0  0
  7  8  1  0  0  0  0
  7  9  1  0  0  0  0
  9 10  1  0  0  0  0
  9 11  1  0  0  0  0
  9 22  1  0  0  0  0
 11 12  1  0  0  0  0
 11 13  1  0  0  0  0
 11 14  1  0  0  0  0
 14 15  1  0  0  0  0
 14 20  2  0  0  0  0
 15 16  1  0  0  0  0
 15 17  1  0  0  0  0
 17 18  1  0  0  0  0
 17 19  2  0  0  0  0
 19 20  1  0  0  0  0
 20 21  1  0  0  0  0
 22 23  2  0  0  0  0
 22 24  1  0  0  0  0
 24 25  1  0  0  0  0
 24 26  1  0  0  0  0
 26 27  1  0  0  0  0
 26 28  1  0  0  0  0
 26 29  1  0  0  0  0
M  END
$$$$

  -OEChem-04042215593D

 29 29  0     1  0  0  0  0  0999 V2000
   -3.5782   -3.6468    1.4611 H   0  0  0  0  0  0  0  0  0  0  0  0
   -3.5069   -2.7360    0.8599 C   0  0  0  0  0  0  0  0  0  0  0  0
   -4.1602   -1.9755    1.2943 H   0  0  0  0  0  0  0  0  0  0  0  0
   -3.8411   -2.9581   -0.1565 H   0  0  0  0  0  0  0  0  0  0  0  0
   -2.0747   -2.2363    0.8366 C   0  0  0  0  0  0  0  0  0  0  0  0
   -1.2021   -2.8581    1.4210 O   0  0  0  0  0  0  0  0  0  0  0  0
   -1.7631   -1.0808    0.1505 N   0  0  0  0  0  0  0  0  0  0  0  0
   -2.5381   -0.5453   -0.2373 H   0  0  0  0  0  0  0  0  0  0  0  0
   -0.4462   -0.4258    0.1713 C   0  0  1  0  0  0  0  0  0  0  0  0
    0.1116   -0.8061    1.0317 H   0  0  0  0  0  0  0  0  0  0  0  0
    0.3165   -0.7518   -1.1253 C   0  0  0  0  0  0  0  0  0  0  0  0
    0.0184   -1.7425   -1.4846 H   0  0  0  0  0  0  0  0  0  0  0  0
    0.0494   -0.0299   -1.9046 H   0  0  0  0  0  0  0  0  0  0  0  0
    1.8112   -0.7694   -0.9191 C   0  0  0  0  0  0  0  0  0  0  0  0
    2.7537   -0.1886   -1.7385 N   0  0  0  0  0  0  0  0  0  0  0  0
    2.5704    0.3352   -2.5921 H   0  0  0  0  0  0  0  0  0  0  0  0
    4.0058   -0.4260   -1.2042 C   0  0  0  0  0  0  0  0  0  0  0  0
    4.9435   -0.0810   -1.6308 H   0  0  0  0  0  0  0  0  0  0  0  0
    3.8986   -1.1262   -0.1012 N   0  0  0  0  0  0  0  0  0  0  0  0
    2.5404   -1.3620    0.0814 C   0  0  0  0  0  0  0  0  0  0  0  0
    2.1200   -1.9324    0.9045 H   0  0  0  0  0  0  0  0  0  0  0  0
   -0.5607    1.0977    0.3556 C   0  0  0  0  0  0  0  0  0  0  0  0
   -1.4296    1.7174   -0.2481 O   0  0  0  0  0  0  0  0  0  0  0  0
    0.2627    1.7621    1.2456 N   0  0  0  0  0  0  0  0  0  0  0  0
    0.9808    1.2184    1.7179 H   0  0  0  0  0  0  0  0  0  0  0  0
    0.1967    3.1988    1.4811 C   0  0  0  0  0  0  0  0  0  0  0  0
   -0.7905    3.4792    1.8631 H   0  0  0  0  0  0  0  0  0  0  0  0
    0.9492    3.4961    2.2180 H   0  0  0  0  0  0  0  0  0  0  0  0
    0.3855    3.7485    0.5530 H   0  0  0  0  0  0  0  0  0  0  0  0
  1  2  1  0  0  0  0
  2  3  1  0  0  0  0
  2  4  1  0  0  0  0
  2  5  1  0  0  0  0
  5  6  2  0  0  0  0
  5  7  1  0  0  0  0
  7  8  1  0  0  0  0
  7  9  1  0  0  0  0
  9 10  1  0  0  0  0
  9 11  1  0  0  0  0
  9 22  1  0  0  0  0
 11 12  1  0  0  0  0
 11 13  1  0  0  0  0
 11 14  1  0  0  0  0
 14 15  1  0  0  0  0
 14 20  2  0  0  0  0
 15 16  1  0  0  0  0
 15 17  1  0  0  0  0
 17 18  1  0  0  0  0
 17 19  2  0  0  0  0
 19 20  1  0  0  0  0
 20 21  1  0  0  0  0
 22 23  2  0  0  0  0
 22 24  1  0  0  0  0
 24 25  1  0  0  0  0
 24 26  1  0  0  0  0
 26 27  1  0  0  0  0
 26 28  1  0  0  0  0
 26 29  1  0  0  0  0
M  END
$$$$

  -OEChem-04042215593D

 29 29  0     1  0  0  0  0  0999 V2000
   -3.5661   -3.6478    1.4723 H   0  0  0  0  0  0  0  0  0  0  0  0
   -3.4992   -2.7383    0.8687 C   0  0  0  0  0  0  0  0  0  0  0  0
   -4.1493   -1.9767    1.3062 H   0  0  0  0  0  0  0  0  0  0  0  0
   -3.8410   -2.9621   -0.1448 H   0  0  0  0  0  0  0  0  0  0  0  0
   -2.0672   -2.2393    0.8331 C   0  0  0  0  0  0  0  0  0  0  0  0
   -1.1886   -2.8650    1.4039 O   0  0  0  0  0  0  0  0  0  0  0  0
   -1.7621   -1.0825    0.1464 N   0  0  0  0  0  0  0  0  0  0  0  0
   -2.5409   -0.5460   -0.2324 H   0  0  0  0  0  0  0  0  0  0  0  0
   -0.4458   -0.4268    0.1581 C   0  0  1  0  0  0  0  0  0  0  0  0
    0.1228   -0.8092    1.0117 H   0  0  0  0  0  0  0  0  0  0  0  0
    0.3087   -0.7547   -1.1401 C   0  0  0  0  0  0  0  0  0  0  0  0
    0.0164   -1.7517   -1.4869 H   0  0  0  0  0  0  0  0  0  0  0  0
    0.0414   -0.0436   -1.9289 H   0  0  0  0  0  0  0  0  0  0  0  0
    1.7975   -0.7634   -0.9123 C   0  0  0  0  0  0  0  0  0  0  0  0
    2.7331    0.0370   -1.5291 N   0  0  0  0  0  0  0  0  0  0  0  0
    2.5481    0.7541   -2.2279 H   0  0  0  0  0  0  0  0  0  0  0  0
    3.9823   -0.2984   -1.0417 C   0  0  0  0  0  0  0  0  0  0  0  0
    4.9162    0.1692   -1.3408 H   0  0  0  0  0  0  0  0  0  0  0  0
    3.8772   -1.2631   -0.1600 N   0  0  0  0  0  0  0  0  0  0  0  0
    2.5237   -1.5753   -0.0791 C   0  0  0  0  0  0  0  0  0  0  0  0
    2.1019   -2.3474    0.5584 H   0  0  0  0  0  0  0  0  0  0  0  0
   -0.5557    1.0959    0.3455 C   0  0  0  0  0  0  0  0  0  0  0  0
   -1.4222    1.7205   -0.2564 O   0  0  0  0  0  0  0  0  0  0  0  0
    0.2765    1.7565    1.2300 N   0  0  0  0  0  0  0  0  0  0  0  0
    0.9873    1.2063    1.7062 H   0  0  0  0  0  0  0  0  0  0  0  0
    0.2103    3.1915    1.4759 C   0  0  0  0  0  0  0  0  0  0  0  0
   -0.7732    3.4676    1.8706 H   0  0  0  0  0  0  0  0  0  0  0  0
    0.9705    3.4853    2.2062 H   0  0  0  0  0  0  0  0  0  0  0  0
    0.3876    3.7475    0.5493 H   0  0  0  0  0  0  0  0  0  0  0  0
  1  2  1  0  0  0  0
  2  3  1  0  0  0  0
  2  4  1  0  0  0  0
  2  5  1  0  0  0  0
  5  6  2  0  0  0  0
  5  7  1  0  0  0  0
  7  8  1  0  0  0  0
  7  9  1  0  0  0  0
  9 10  1  0  0  0  0
  9 11  1  0  0  0  0
  9 22  1  0  0  0  0
 11 12  1  0  0  0  0
 11 13  1  0  0  0  0
 11 14  1  0  0  0  0
 14 15  1  0  0  0  0
 14 20  2  0  0  0  0
 15 16  1  0  0  0  0
 15 17  1  0  0  0  0
 17 18  1  0  0  0  0
 17 19  2  0  0  0  0
 19 20  1  0  0  0  0
 20 21  1  0  0  0  0
 22 23  2  0  0  0  0
 22 24  1  0  0  0  0
 24 25  1  0  0  0  0
 24 26  1  0  0  0  0
 26 27  1  0  0  0  0
 26 28  1  0  0  0  0
 26 29  1  0  0  0  0
M  END
$$$$

  -OEChem-04042215593D

 29 29  0     1  0  0  0  0  0999 V2000
   -3.5687   -3.6465    1.4696 H   0  0  0  0  0  0  0  0  0  0  0  0
   -3.5007   -2.7373    0.8656 C   0  0  0  0  0  0  0  0  0  0  0  0
   -4.1527   -1.9759    1.3005 H   0  0  0  0  0  0  0  0  0  0  0  0
   -3.8395   -2.9620   -0.1486 H   0  0  0  0  0  0  0  0  0  0  0  0
   -2.0691   -2.2371    0.8340 C   0  0  0  0  0  0  0  0  0  0  0  0
   -1.1917   -2.8624    1.4069 O   0  0  0  0  0  0  0  0  0  0  0  0
   -1.7627   -1.0820    0.1451 N   0  0  0  0  0  0  0  0  0  0  0  0
   -2.5405   -0.5480   -0.2390 H   0  0  0  0  0  0  0  0  0  0  0  0
   -0.4455   -0.4275    0.1527 C   0  0  1  0  0  0  0  0  0  0  0  0
    0.1265   -0.8110    1.0044 H   0  0  0  0  0  0  0  0  0  0  0  0
    0.3080   -0.7644   -1.1418 C   0  0  0  0  0  0  0  0  0  0  0  0
    0.0178   -1.7666   -1.4749 H   0  0  0  0  0  0  0  0  0  0  0  0
    0.0449   -0.0651   -1.9425 H   0  0  0  0  0  0  0  0  0  0  0  0
    1.7924   -0.7684   -0.8965 C   0  0  0  0  0  0  0  0  0  0  0  0
    2.6986    0.1959   -1.2768 N   0  0  0  0  0  0  0  0  0  0  0  0
    2.4903    1.0559   -1.7810 H   0  0  0  0  0  0  0  0  0  0  0  0
    3.9574   -0.2106   -0.8764 C   0  0  0  0  0  0  0  0  0  0  0  0
    4.8751    0.3480   -1.0374 H   0  0  0  0  0  0  0  0  0  0  0  0
    3.8844   -1.3709   -0.2700 N   0  0  0  0  0  0  0  0  0  0  0  0
    2.5425   -1.7394   -0.2859 C   0  0  0  0  0  0  0  0  0  0  0  0
    2.1453   -2.6614    0.1292 H   0  0  0  0  0  0  0  0  0  0  0  0
   -0.5483    1.0959    0.3371 C   0  0  0  0  0  0  0  0  0  0  0  0
   -1.4070    1.7254   -0.2705 O   0  0  0  0  0  0  0  0  0  0  0  0
    0.2892    1.7541    1.2185 N   0  0  0  0  0  0  0  0  0  0  0  0
    0.9804    1.1959    1.7140 H   0  0  0  0  0  0  0  0  0  0  0  0
    0.2188    3.1869    1.4766 C   0  0  0  0  0  0  0  0  0  0  0  0
   -0.7624    3.4551    1.8823 H   0  0  0  0  0  0  0  0  0  0  0  0
    0.9842    3.4785    2.2022 H   0  0  0  0  0  0  0  0  0  0  0  0
    0.3850    3.7516    0.5532 H   0  0  0  0  0  0  0  0  0  0  0  0
  1  2  1  0  0  0  0
  2  3  1  0  0  0  0
  2  4  1  0  0  0  0
  2  5  1  0  0  0  0
  5  6  2  0  0  0  0
  5  7  1  0  0  0  0
  7  8  1  0  0  0  0
  7  9  1  0  0  0  0
  9 10  1  0  0  0  0
  9 11  1  0  0  0  0
  9 22  1  0  0  0  0
 11 12  1  0  0  0  0
 11 13  1  0  0  0  0
 11 14  1  0  0  0  0
 14 15  1  0  0  0  0
 14 20  2  0  0  0  0
 15 16  1  0  0  0  0
 15 17  1  0  0  0  0
 17 18  1  0  0  0  0
 17 19  2  0  0  0  0
 19 20  1  0  0  0  0
 20 21  1  0  0  0  0
 22 23  2  0  0  0  0
 22 24  1  0  0  0  0
 24 25  1  0  0  0  0
 24 26  1  0  0  0  0
 26 27  1  0  0  0  0
 26 28  1  0  0  0  0
 26 29  1  0  0  0  0
M  END
$$$$

  -OEChem-04042215593D

 29 29  0     1  0  0  0  0  0999 V2000
   -3.5849   -3.6361    1.4658 H   0  0  0  0  0  0  0  0  0  0  0  0
   -3.5118   -2.7270    0.8622 C   0  0  0  0  0  0  0  0  0  0  0  0
   -4.1626   -1.9636    1.2955 H   0  0  0  0  0  0  0  0  0  0  0  0
   -3.8485   -2.9504   -0.1530 H   0  0  0  0  0  0  0  0  0  0  0  0
   -2.0780   -2.2324    0.8352 C   0  0  0  0  0  0  0  0  0  0  0  0
   -1.2065   -2.8580    1.4166 O   0  0  0  0  0  0  0  0  0  0  0  0
   -1.7636   -1.0811    0.1432 N   0  0  0  0  0  0  0  0  0  0  0  0
   -2.5371   -0.5493   -0.2522 H   0  0  0  0  0  0  0  0  0  0  0  0
   -0.4437   -0.4315    0.1506 C   0  0  1  0  0  0  0  0  0  0  0  0
    0.1257   -0.8153    1.0041 H   0  0  0  0  0  0  0  0  0  0  0  0
    0.3123   -0.7793   -1.1392 C   0  0  0  0  0  0  0  0  0  0  0  0
    0.0180   -1.7823   -1.4662 H   0  0  0  0  0  0  0  0  0  0  0  0
    0.0564   -0.0840   -1.9456 H   0  0  0  0  0  0  0  0  0  0  0  0
    1.7955   -0.7859   -0.8861 C   0  0  0  0  0  0  0  0  0  0  0  0
    2.6595    0.2800   -1.0061 N   0  0  0  0  0  0  0  0  0  0  0  0
    2.4152    1.2274   -1.2895 H   0  0  0  0  0  0  0  0  0  0  0  0
    3.9358   -0.1618   -0.7117 C   0  0  0  0  0  0  0  0  0  0  0  0
    4.8295    0.4557   -0.7242 H   0  0  0  0  0  0  0  0  0  0  0  0
    3.9130   -1.4383   -0.4133 N   0  0  0  0  0  0  0  0  0  0  0  0
    2.5868   -1.8454   -0.5269 C   0  0  0  0  0  0  0  0  0  0  0  0
    2.2304   -2.8568   -0.3544 H   0  0  0  0  0  0  0  0  0  0  0  0
   -0.5384    1.0930    0.3287 C   0  0  0  0  0  0  0  0  0  0  0  0
   -1.3860    1.7275   -0.2888 O   0  0  0  0  0  0  0  0  0  0  0  0
    0.3021    1.7489    1.2094 N   0  0  0  0  0  0  0  0  0  0  0  0
    0.9601    1.1809    1.7381 H   0  0  0  0  0  0  0  0  0  0  0  0
    0.2223    3.1784    1.4826 C   0  0  0  0  0  0  0  0  0  0  0  0
   -0.7561    3.4341    1.9026 H   0  0  0  0  0  0  0  0  0  0  0  0
    0.9941    3.4692    2.2018 H   0  0  0  0  0  0  0  0  0  0  0  0
    0.3726    3.7538    0.5631 H   0  0  0  0  0  0  0  0  0  0  0  0
  1  2  1  0  0  0  0
  2  3  1  0  0  0  0
  2  4  1  0  0  0  0
  2  5  1  0  0  0  0
  5  6  2  0  0  0  0
  5  7  1  0  0  0  0
  7  8  1  0  0  0  0
  7  9  1  0  0  0  0
  9 10  1  0  0  0  0
  9 11  1  0  0  0  0
  9 22  1  0  0  0  0
 11 12  1  0  0  0  0
 11 13  1  0  0  0  0
 11 14  1  0  0  0  0
 14 15  1  0  0  0  0
 14 20  2  0  0  0  0
 15 16  1  0  0  0  0
 15 17  1  0  0  0  0
 17 18  1  0  0  0  0
 17 19  2  0  0  0  0
 19 20  1  0  0  0  0
 20 21  1  0  0  0  0
 22 23  2  0  0  0  0
 22 24  1  0  0  0  0
 24 25  1  0  0  0  0
 24 26  1  0  0  0  0
 26 27  1  0  0  0  0
 26 28  1  0  0  0  0
 26 29  1  0  0  0  0
M  END
$$$$

  -OEChem-04042215593D

 29 29  0     1  0  0  0  0  0999 V2000
   -3.5949   -3.6342    1.4512 H   0  0  0  0  0  0  0  0  0  0  0  0
   -3.5163   -2.7242    0.8497 C   0  0  0  0  0  0  0  0  0  0  0  0
   -4.1779   -1.9643    1.2723 H   0  0  0  0  0  0  0  0  0  0  0  0
   -3.8343   -2.9484   -0.1714 H   0  0  0  0  0  0  0  0  0  0  0  0
   -2.0846   -2.2227    0.8473 C   0  0  0  0  0  0  0  0  0  0  0  0
   -1.2225   -2.8388    1.4522 O   0  0  0  0  0  0  0  0  0  0  0  0
   -1.7618   -1.0753    0.1528 N   0  0  0  0  0  0  0  0  0  0  0  0
   -2.5287   -0.5520   -0.2662 H   0  0  0  0  0  0  0  0  0  0  0  0
   -0.4385   -0.4320    0.1590 C   0  0  1  0  0  0  0  0  0  0  0  0
    0.1326   -0.8172    1.0107 H   0  0  0  0  0  0  0  0  0  0  0  0
    0.3123   -0.7902   -1.1323 C   0  0  0  0  0  0  0  0  0  0  0  0
    0.0066   -1.7893   -1.4614 H   0  0  0  0  0  0  0  0  0  0  0  0
    0.0611   -0.0905   -1.9364 H   0  0  0  0  0  0  0  0  0  0  0  0
    1.7976   -0.8070   -0.8894 C   0  0  0  0  0  0  0  0  0  0  0  0
    2.6237    0.2852   -0.7384 N   0  0  0  0  0  0  0  0  0  0  0  0
    2.3463    1.2643   -0.7885 H   0  0  0  0  0  0  0  0  0  0  0  0
    3.9160   -0.1706   -0.5578 C   0  0  0  0  0  0  0  0  0  0  0  0
    4.7878    0.4619   -0.4170 H   0  0  0  0  0  0  0  0  0  0  0  0
    3.9391   -1.4811   -0.5815 N   0  0  0  0  0  0  0  0  0  0  0  0
    2.6268   -1.8936   -0.7930 C   0  0  0  0  0  0  0  0  0  0  0  0
    2.3077   -2.9289   -0.8717 H   0  0  0  0  0  0  0  0  0  0  0  0
   -0.5285    1.0934    0.3327 C   0  0  0  0  0  0  0  0  0  0  0  0
   -1.3630    1.7317   -0.2977 O   0  0  0  0  0  0  0  0  0  0  0  0
    0.3134    1.7496    1.2126 N   0  0  0  0  0  0  0  0  0  0  0  0
    0.9266    1.1739    1.7851 H   0  0  0  0  0  0  0  0  0  0  0  0
    0.2227    3.1779    1.4914 C   0  0  0  0  0  0  0  0  0  0  0  0
   -0.7563    3.4242    1.9157 H   0  0  0  0  0  0  0  0  0  0  0  0
    0.9950    3.4736    2.2081 H   0  0  0  0  0  0  0  0  0  0  0  0
    0.3642    3.7576    0.5733 H   0  0  0  0  0  0  0  0  0  0  0  0
  1  2  1  0  0  0  0
  2  3  1  0  0  0  0
  2  4  1  0  0  0  0
  2  5  1  0  0  0  0
  5  6  2  0  0  0  0
  5  7  1  0  0  0  0
  7  8  1  0  0  0  0
  7  9  1  0  0  0  0
  9 10  1  0  0  0  0
  9 11  1  0  0  0  0
  9 22  1  0  0  0  0
 11 12  1  0  0  0  0
 11 13  1  0  0  0  0
 11 14  1  0  0  0  0
 14 15  1  0  0  0  0
 14 20  2  0  0  0  0
 15 16  1  0  0  0  0
 15 17  1  0  0  0  0
 17 18  1  0  0  0  0
 17 19  2  0  0  0  0
 19 20  1  0  0  0  0
 20 21  1  0  0  0  0
 22 23  2  0  0  0  0
 22 24  1  0  0  0  0
 24 25  1  0  0  0  0
 24 26  1  0  0  0  0
 26 27  1  0  0  0  0
 26 28  1  0  0  0  0
 26 29  1  0  0  0  0
M  END
$$$$

  -OEChem-04042215593D

 29 29  0     1  0  0  0  0  0999 V2000
   -3.6012   -3.6275    1.4431 H   0  0  0  0  0  0  0  0  0  0  0  0
   -3.5167   -2.7172    0.8429 C   0  0  0  0  0  0  0  0  0  0  0  0
   -4.1806   -1.9569    1.2611 H   0  0  0  0  0  0  0  0  0  0  0  0
   -3.8274   -2.9405   -0.1805 H   0  0  0  0  0  0  0  0  0  0  0  0
   -2.0850   -2.2166    0.8514 C   0  0  0  0  0  0  0  0  0  0  0  0
   -1.2293   -2.8274    1.4702 O   0  0  0  0  0  0  0  0  0  0  0  0
   -1.7574   -1.0710    0.1563 N   0  0  0  0  0  0  0  0  0  0  0  0
   -2.5210   -0.5510   -0.2725 H   0  0  0  0  0  0  0  0  0  0  0  0
   -0.4332   -0.4304    0.1633 C   0  0  1  0  0  0  0  0  0  0  0  0
    0.1375   -0.8164    1.0148 H   0  0  0  0  0  0  0  0  0  0  0  0
    0.3156   -0.7959   -1.1287 C   0  0  0  0  0  0  0  0  0  0  0  0
    0.0005   -1.7906   -1.4618 H   0  0  0  0  0  0  0  0  0  0  0  0
    0.0664   -0.0897   -1.9281 H   0  0  0  0  0  0  0  0  0  0  0  0
    1.8051   -0.8209   -0.9028 C   0  0  0  0  0  0  0  0  0  0  0  0
    2.6043    0.2215   -0.4847 N   0  0  0  0  0  0  0  0  0  0  0  0
    2.3056    1.1810   -0.3163 H   0  0  0  0  0  0  0  0  0  0  0  0
    3.9081   -0.2321   -0.4134 C   0  0  0  0  0  0  0  0  0  0  0  0
    4.7646    0.3699   -0.1236 H   0  0  0  0  0  0  0  0  0  0  0  0
    3.9638   -1.4976   -0.7505 N   0  0  0  0  0  0  0  0  0  0  0  0
    2.6613   -1.8795   -1.0579 C   0  0  0  0  0  0  0  0  0  0  0  0
    2.3667   -2.8751   -1.3771 H   0  0  0  0  0  0  0  0  0  0  0  0
   -0.5243    1.0949    0.3351 C   0  0  0  0  0  0  0  0  0  0  0  0
   -1.3525    1.7343   -0.3020 O   0  0  0  0  0  0  0  0  0  0  0  0
    0.3173    1.7498    1.2169 N   0  0  0  0  0  0  0  0  0  0  0  0
    0.8809    1.1673    1.8320 H   0  0  0  0  0  0  0  0  0  0  0  0
    0.2110    3.1756    1.5042 C   0  0  0  0  0  0  0  0  0  0  0  0
   -0.7655    3.4065    1.9427 H   0  0  0  0  0  0  0  0  0  0  0  0
    0.9891    3.4787    2.2112 H   0  0  0  0  0  0  0  0  0  0  0  0
    0.3323    3.7617    0.5871 H   0  0  0  0  0  0  0  0  0  0  0  0
  1  2  1  0  0  0  0
  2  3  1  0  0  0  0
  2  4  1  0  0  0  0
  2  5  1  0  0  0  0
  5  6  2  0  0  0  0
  5  7  1  0  0  0  0
  7  8  1  0  0  0  0
  7  9  1  0  0  0  0
  9 10  1  0  0  0  0
  9 11  1  0  0  0  0
  9 22  1  0  0  0  0
 11 12  1  0  0  0  0
 11 13  1  0  0  0  0
 11 14  1  0  0  0  0
 14 15  1  0  0  0  0
 14 20  2  0  0  0  0
 15 16  1  0  0  0  0
 15 17  1  0  0  0  0
 17 18  1  0  0  0  0
 17 19  2  0  0  0  0
 19 20  1  0  0  0  0
 20 21  1  0  0  0  0
 22 23  2  0  0  0  0
 22 24  1  0  0  0  0
 24 25  1  0  0  0  0
 24 26  1  0  0  0  0
 26 27  1  0  0  0  0
 26 28  1  0  0  0  0
 26 29  1  0  0  0  0
M  END
$$$$

  -OEChem-04042215593D

 29 29  0     1  0  0  0  0  0999 V2000
   -3.5927   -3.6457    1.4164 H   0  0  0  0  0  0  0  0  0  0  0  0
   -3.5097   -2.7304    0.8237 C   0  0  0  0  0  0  0  0  0  0  0  0
   -4.1912   -1.9816    1.2346 H   0  0  0  0  0  0  0  0  0  0  0  0
   -3.7987   -2.9511   -0.2066 H   0  0  0  0  0  0  0  0  0  0  0  0
   -2.0848   -2.2112    0.8618 C   0  0  0  0  0  0  0  0  0  0  0  0
   -1.2372   -2.8057    1.5071 O   0  0  0  0  0  0  0  0  0  0  0  0
   -1.7547   -1.0653    0.1680 N   0  0  0  0  0  0  0  0  0  0  0  0
   -2.5119   -0.5606   -0.2895 H   0  0  0  0  0  0  0  0  0  0  0  0
   -0.4315   -0.4220    0.1808 C   0  0  1  0  0  0  0  0  0  0  0  0
    0.1394   -0.8090    1.0316 H   0  0  0  0  0  0  0  0  0  0  0  0
    0.3136   -0.7907   -1.1146 C   0  0  0  0  0  0  0  0  0  0  0  0
   -0.0094   -1.7813   -1.4522 H   0  0  0  0  0  0  0  0  0  0  0  0
    0.0597   -0.0780   -1.9068 H   0  0  0  0  0  0  0  0  0  0  0  0
    1.8084   -0.8234   -0.9159 C   0  0  0  0  0  0  0  0  0  0  0  0
    2.5983    0.0949   -0.2566 N   0  0  0  0  0  0  0  0  0  0  0  0
    2.2945    0.9929    0.1167 H   0  0  0  0  0  0  0  0  0  0  0  0
    3.9074   -0.3470   -0.2987 C   0  0  0  0  0  0  0  0  0  0  0  0
    4.7587    0.1798    0.1231 H   0  0  0  0  0  0  0  0  0  0  0  0
    3.9762   -1.4940   -0.9289 N   0  0  0  0  0  0  0  0  0  0  0  0
    2.6764   -1.8065   -1.3138 C   0  0  0  0  0  0  0  0  0  0  0  0
    2.3907   -2.7052   -1.8524 H   0  0  0  0  0  0  0  0  0  0  0  0
   -0.5269    1.1032    0.3514 C   0  0  0  0  0  0  0  0  0  0  0  0
   -1.3401    1.7435   -0.3036 O   0  0  0  0  0  0  0  0  0  0  0  0
    0.3107    1.7569    1.2389 N   0  0  0  0  0  0  0  0  0  0  0  0
    0.8116    1.1722    1.9039 H   0  0  0  0  0  0  0  0  0  0  0  0
    0.2058    3.1857    1.5120 C   0  0  0  0  0  0  0  0  0  0  0  0
   -0.7760    3.4246    1.9343 H   0  0  0  0  0  0  0  0  0  0  0  0
    0.9754    3.4921    2.2271 H   0  0  0  0  0  0  0  0  0  0  0  0
    0.3428    3.7636    0.5916 H   0  0  0  0  0  0  0  0  0  0  0  0
  1  2  1  0  0  0  0
  2  3  1  0  0  0  0
  2  4  1  0  0  0  0
  2  5  1  0  0  0  0
  5  6  2  0  0  0  0
  5  7  1  0  0  0  0
  7  8  1  0  0  0  0
  7  9  1  0  0  0  0
  9 10  1  0  0  0  0
  9 11  1  0  0  0  0
  9 22  1  0  0  0  0
 11 12  1  0  0  0  0
 11 13  1  0  0  0  0
 11 14  1  0  0  0  0
 14 15  1  0  0  0  0
 14 20  2  0  0  0  0
 15 16  1  0  0  0  0
 15 17  1  0  0  0  0
 17 18  1  0  0  0  0
 17 19  2  0  0  0  0
 19 20  1  0  0  0  0
 20 21  1  0  0  0  0
 22 23  2  0  0  0  0
 22 24  1  0  0  0  0
 24 25  1  0  0  0  0
 24 26  1  0  0  0  0
 26 27  1  0  0  0  0
 26 28  1  0  0  0  0
 26 29  1  0  0  0  0
M  END
$$$$

  -OEChem-04042215593D

 29 29  0     1  0  0  0  0  0999 V2000
   -3.5912   -3.6548    1.3925 H   0  0  0  0  0  0  0  0  0  0  0  0
   -3.5053   -2.7361    0.8054 C   0  0  0  0  0  0  0  0  0  0  0  0
   -4.1970   -1.9932    1.2097 H   0  0  0  0  0  0  0  0  0  0  0  0
   -3.7783   -2.9534   -0.2300 H   0  0  0  0  0  0  0  0  0  0  0  0
   -2.0844   -2.2087    0.8660 C   0  0  0  0  0  0  0  0  0  0  0  0
   -1.2454   -2.7926    1.5321 O   0  0  0  0  0  0  0  0  0  0  0  0
   -1.7498   -1.0628    0.1745 N   0  0  0  0  0  0  0  0  0  0  0  0
   -2.5012   -0.5659   -0.3010 H   0  0  0  0  0  0  0  0  0  0  0  0
   -0.4282   -0.4161    0.2011 C   0  0  1  0  0  0  0  0  0  0  0  0
    0.1383   -0.8029    1.0545 H   0  0  0  0  0  0  0  0  0  0  0  0
    0.3202   -0.7839   -1.0944 C   0  0  0  0  0  0  0  0  0  0  0  0
   -0.0071   -1.7714   -1.4377 H   0  0  0  0  0  0  0  0  0  0  0  0
    0.0645   -0.0665   -1.8817 H   0  0  0  0  0  0  0  0  0  0  0  0
    1.8186   -0.8246   -0.9177 C   0  0  0  0  0  0  0  0  0  0  0  0
    2.6121   -0.0971   -0.0551 N   0  0  0  0  0  0  0  0  0  0  0  0
    2.3132    0.6836    0.5245 H   0  0  0  0  0  0  0  0  0  0  0  0
    3.9226   -0.5069   -0.2162 C   0  0  0  0  0  0  0  0  0  0  0  0
    4.7759   -0.0963    0.3163 H   0  0  0  0  0  0  0  0  0  0  0  0
    3.9906   -1.4597   -1.1130 N   0  0  0  0  0  0  0  0  0  0  0  0
    2.6881   -1.6742   -1.5511 C   0  0  0  0  0  0  0  0  0  0  0  0
    2.4009   -2.4158   -2.2908 H   0  0  0  0  0  0  0  0  0  0  0  0
   -0.5340    1.1087    0.3693 C   0  0  0  0  0  0  0  0  0  0  0  0
   -1.3377    1.7437   -0.3024 O   0  0  0  0  0  0  0  0  0  0  0  0
    0.2895    1.7675    1.2663 N   0  0  0  0  0  0  0  0  0  0  0  0
    0.7431    1.1901    1.9694 H   0  0  0  0  0  0  0  0  0  0  0  0
    0.1847    3.2009    1.5151 C   0  0  0  0  0  0  0  0  0  0  0  0
   -0.8004    3.4490    1.9241 H   0  0  0  0  0  0  0  0  0  0  0  0
    0.9484    3.5179    2.2316 H   0  0  0  0  0  0  0  0  0  0  0  0
    0.3313    3.7628    0.5864 H   0  0  0  0  0  0  0  0  0  0  0  0
  1  2  1  0  0  0  0
  2  3  1  0  0  0  0
  2  4  1  0  0  0  0
  2  5  1  0  0  0  0
  5  6  2  0  0  0  0
  5  7  1  0  0  0  0
  7  8  1  0  0  0  0
  7  9  1  0  0  0  0
  9 10  1  0  0  0  0
  9 11  1  0  0  0  0
  9 22  1  0  0  0  0
 11 12  1  0  0  0  0
 11 13  1  0  0  0  0
 11 14  1  0  0  0  0
 14 15  1  0  0  0  0
 14 20  2  0  0  0  0
 15 16  1  0  0  0  0
 15 17  1  0  0  0  0
 17 18  1  0  0  0  0
 17 19  2  0  0  0  0
 19 20  1  0  0  0  0
 20 21  1  0  0  0  0
 22 23  2  0  0  0  0
 22 24  1  0  0  0  0
 24 25  1  0  0  0  0
 24 26  1  0  0  0  0
 26 27  1  0  0  0  0
 26 28  1  0  0  0  0
 26 29  1  0  0  0  0
M  END
$$$$

  -OEChem-04042215593D

 29 29  0     1  0  0  0  0  0999 V2000
   -3.6144   -3.6417    1.3796 H   0  0  0  0  0  0  0  0  0  0  0  0
   -3.5177   -2.7228    0.7943 C   0  0  0  0  0  0  0  0  0  0  0  0
   -4.2135   -1.9785    1.1889 H   0  0  0  0  0  0  0  0  0  0  0  0
   -3.7764   -2.9394   -0.2449 H   0  0  0  0  0  0  0  0  0  0  0  0
   -2.0965   -2.1987    0.8764 C   0  0  0  0  0  0  0  0  0  0  0  0
   -1.2732   -2.7764    1.5676 O   0  0  0  0  0  0  0  0  0  0  0  0
   -1.7424   -1.0613    0.1805 N   0  0  0  0  0  0  0  0  0  0  0  0
   -2.4812   -0.5615   -0.3121 H   0  0  0  0  0  0  0  0  0  0  0  0
   -0.4168   -0.4243    0.2281 C   0  0  1  0  0  0  0  0  0  0  0  0
    0.1370   -0.8080    1.0906 H   0  0  0  0  0  0  0  0  0  0  0  0
    0.3406   -0.7876   -1.0646 C   0  0  0  0  0  0  0  0  0  0  0  0
    0.0061   -1.7708   -1.4126 H   0  0  0  0  0  0  0  0  0  0  0  0
    0.0918   -0.0665   -1.8510 H   0  0  0  0  0  0  0  0  0  0  0  0
    1.8408   -0.8509   -0.8993 C   0  0  0  0  0  0  0  0  0  0  0  0
    2.6455   -0.3790    0.1173 N   0  0  0  0  0  0  0  0  0  0  0  0
    2.3449    0.1394    0.9369 H   0  0  0  0  0  0  0  0  0  0  0  0
    3.9579   -0.6982   -0.1768 C   0  0  0  0  0  0  0  0  0  0  0  0
    4.8155   -0.4479    0.4414 H   0  0  0  0  0  0  0  0  0  0  0  0
    4.0210   -1.3454   -1.3138 N   0  0  0  0  0  0  0  0  0  0  0  0
    2.7119   -1.4529   -1.7704 C   0  0  0  0  0  0  0  0  0  0  0  0
    2.4209   -1.9472   -2.6926 H   0  0  0  0  0  0  0  0  0  0  0  0
   -0.5377    1.1031    0.3814 C   0  0  0  0  0  0  0  0  0  0  0  0
   -1.3485    1.7191   -0.3006 O   0  0  0  0  0  0  0  0  0  0  0  0
    0.2553    1.7875    1.2864 N   0  0  0  0  0  0  0  0  0  0  0  0
    0.7362    1.2325    1.9871 H   0  0  0  0  0  0  0  0  0  0  0  0
    0.1365    3.2247    1.5054 C   0  0  0  0  0  0  0  0  0  0  0  0
   -0.8563    3.4731    1.8951 H   0  0  0  0  0  0  0  0  0  0  0  0
    0.8874    3.5612    2.2266 H   0  0  0  0  0  0  0  0  0  0  0  0
    0.2935    3.7693    0.5682 H   0  0  0  0  0  0  0  0  0  0  0  0
  1  2  1  0  0  0  0
  2  3  1  0  0  0  0
  2  4  1  0  0  0  0
  2  5  1  0  0  0  0
  5  6  2  0  0  0  0
  5  7  1  0  0  0  0
  7  8  1  0  0  0  0
  7  9  1  0  0  0  0
  9 10  1  0  0  0  0
  9 11  1  0  0  0  0
  9 22  1  0  0  0  0
 11 12  1  0  0  0  0
 11 13  1  0  0  0  0
 11 14  1  0  0  0  0
 14 15  1  0  0  0  0
 14 20  2  0  0  0  0
 15 16  1  0  0  0  0
 15 17  1  0  0  0  0
 17 18  1  0  0  0  0
 17 19  2  0  0  0  0
 19 20  1  0  0  0  0
 20 21  1  0  0  0  0
 22 23  2  0  0  0  0
 22 24  1  0  0  0  0
 24 25  1  0  0  0  0
 24 26  1  0  0  0  0
 26 27  1  0  0  0  0
 26 28  1  0  0  0  0
 26 29  1  0  0  0  0
M  END
$$$$

  -OEChem-04042215593D

 29 29  0     1  0  0  0  0  0999 V2000
   -3.6615   -3.6097    1.4104 H   0  0  0  0  0  0  0  0  0  0  0  0
   -3.5516   -2.6977    0.8171 C   0  0  0  0  0  0  0  0  0  0  0  0
   -4.2262   -1.9355    1.2142 H   0  0  0  0  0  0  0  0  0  0  0  0
   -3.8273   -2.9161   -0.2174 H   0  0  0  0  0  0  0  0  0  0  0  0
   -2.1184   -2.2040    0.8778 C   0  0  0  0  0  0  0  0  0  0  0  0
   -1.2949   -2.8010    1.5528 O   0  0  0  0  0  0  0  0  0  0  0  0
   -1.7511   -1.0748    0.1757 N   0  0  0  0  0  0  0  0  0  0  0  0
   -2.4900   -0.5489   -0.2890 H   0  0  0  0  0  0  0  0  0  0  0  0
   -0.4179   -0.4549    0.2234 C   0  0  1  0  0  0  0  0  0  0  0  0
    0.1244   -0.8376    1.0924 H   0  0  0  0  0  0  0  0  0  0  0  0
    0.3481   -0.8072   -1.0655 C   0  0  0  0  0  0  0  0  0  0  0  0
    0.0151   -1.7913   -1.4125 H   0  0  0  0  0  0  0  0  0  0  0  0
    0.1056   -0.0884   -1.8562 H   0  0  0  0  0  0  0  0  0  0  0  0
    1.8464   -0.8835   -0.8839 C   0  0  0  0  0  0  0  0  0  0  0  0
    2.6236   -0.6919    0.2409 N   0  0  0  0  0  0  0  0  0  0  0  0
    2.2896   -0.5869    1.1948 H   0  0  0  0  0  0  0  0  0  0  0  0
    3.9520   -0.8335   -0.1152 C   0  0  0  0  0  0  0  0  0  0  0  0
    4.7936   -0.7594    0.5675 H   0  0  0  0  0  0  0  0  0  0  0  0
    4.0524   -1.0776   -1.3980 N   0  0  0  0  0  0  0  0  0  0  0  0
    2.7518   -1.1093   -1.8881 C   0  0  0  0  0  0  0  0  0  0  0  0
    2.4903   -1.2826   -2.9277 H   0  0  0  0  0  0  0  0  0  0  0  0
   -0.5361    1.0751    0.3684 C   0  0  0  0  0  0  0  0  0  0  0  0
   -1.3865    1.6771   -0.2777 O   0  0  0  0  0  0  0  0  0  0  0  0
    0.2506    1.7729    1.2674 N   0  0  0  0  0  0  0  0  0  0  0  0
    0.8977    1.2442    1.8421 H   0  0  0  0  0  0  0  0  0  0  0  0
    0.1412    3.2122    1.4741 C   0  0  0  0  0  0  0  0  0  0  0  0
   -0.8559    3.4712    1.8456 H   0  0  0  0  0  0  0  0  0  0  0  0
    0.8815    3.5472    2.2071 H   0  0  0  0  0  0  0  0  0  0  0  0
    0.3183    3.7488    0.5358 H   0  0  0  0  0  0  0  0  0  0  0  0
  1  2  1  0  0  0  0
  2  3  1  0  0  0  0
  2  4  1  0  0  0  0
  2  5  1  0  0  0  0
  5  6  2  0  0  0  0
  5  7  1  0  0  0  0
  7  8  1  0  0  0  0
  7  9  1  0  0  0  0
  9 10  1  0  0  0  0
  9 11  1  0  0  0  0
  9 22  1  0  0  0  0
 11 12  1  0  0  0  0
 11 13  1  0  0  0  0
 11 14  1  0  0  0  0
 14 15  1  0  0  0  0
 14 20  2  0  0  0  0
 15 16  1  0  0  0  0
 15 17  1  0  0  0  0
 17 18  1  0  0  0  0
 17 19  2  0  0  0  0
 19 20  1  0  0  0  0
 20 21  1  0  0  0  0
 22 23  2  0  0  0  0
 22 24  1  0  0  0  0
 24 25  1  0  0  0  0
 24 26  1  0  0  0  0
 26 27  1  0  0  0  0
 26 28  1  0  0  0  0
 26 29  1  0  0  0  0
M  END
$$$$

  -OEChem-04042215593D

 29 29  0     1  0  0  0  0  0999 V2000
   -3.6718   -3.5983    1.4600 H   0  0  0  0  0  0  0  0  0  0  0  0
   -3.5660   -2.6946    0.8532 C   0  0  0  0  0  0  0  0  0  0  0  0
   -4.2095   -1.9146    1.2672 H   0  0  0  0  0  0  0  0  0  0  0  0
   -3.8846   -2.9166   -0.1681 H   0  0  0  0  0  0  0  0  0  0  0  0
   -2.1224   -2.2289    0.8547 C   0  0  0  0  0  0  0  0  0  0  0  0
   -1.2787   -2.8532    1.4790 O   0  0  0  0  0  0  0  0  0  0  0  0
   -1.7677   -1.0926    0.1576 N   0  0  0  0  0  0  0  0  0  0  0  0
   -2.5188   -0.5427   -0.2575 H   0  0  0  0  0  0  0  0  0  0  0  0
   -0.4331   -0.4760    0.1922 C   0  0  1  0  0  0  0  0  0  0  0  0
    0.1083   -0.8638    1.0586 H   0  0  0  0  0  0  0  0  0  0  0  0
    0.3326   -0.8142   -1.0995 C   0  0  0  0  0  0  0  0  0  0  0  0
    0.0084   -1.8015   -1.4451 H   0  0  0  0  0  0  0  0  0  0  0  0
    0.0855   -0.0976   -1.8907 H   0  0  0  0  0  0  0  0  0  0  0  0
    1.8291   -0.8827   -0.9018 C   0  0  0  0  0  0  0  0  0  0  0  0
    2.5621   -0.9690    0.2652 N   0  0  0  0  0  0  0  0  0  0  0  0
    2.1941   -1.1747    1.1918 H   0  0  0  0  0  0  0  0  0  0  0  0
    3.9056   -0.9400   -0.0590 C   0  0  0  0  0  0  0  0  0  0  0  0
    4.7220   -1.0212    0.6531 H   0  0  0  0  0  0  0  0  0  0  0  0
    4.0544   -0.8063   -1.3538 N   0  0  0  0  0  0  0  0  0  0  0  0
    2.7719   -0.7645   -1.8897 C   0  0  0  0  0  0  0  0  0  0  0  0
    2.5491   -0.6443   -2.9459 H   0  0  0  0  0  0  0  0  0  0  0  0
   -0.5370    1.0526    0.3549 C   0  0  0  0  0  0  0  0  0  0  0  0
   -1.4110    1.6637   -0.2502 O   0  0  0  0  0  0  0  0  0  0  0  0
    0.2710    1.7313    1.2490 N   0  0  0  0  0  0  0  0  0  0  0  0
    1.0056    1.2065    1.7131 H   0  0  0  0  0  0  0  0  0  0  0  0
    0.2049    3.1742    1.4474 C   0  0  0  0  0  0  0  0  0  0  0  0
   -0.7882    3.4664    1.8043 H   0  0  0  0  0  0  0  0  0  0  0  0
    0.9447    3.4888    2.1898 H   0  0  0  0  0  0  0  0  0  0  0  0
    0.4114    3.6999    0.5091 H   0  0  0  0  0  0  0  0  0  0  0  0
  1  2  1  0  0  0  0
  2  3  1  0  0  0  0
  2  4  1  0  0  0  0
  2  5  1  0  0  0  0
  5  6  2  0  0  0  0
  5  7  1  0  0  0  0
  7  8  1  0  0  0  0
  7  9  1  0  0  0  0
  9 10  1  0  0  0  0
  9 11  1  0  0  0  0
  9 22  1  0  0  0  0
 11 12  1  0  0  0  0
 11 13  1  0  0  0  0
 11 14  1  0  0  0  0
 14 15  1  0  0  0  0
 14 20  2  0  0  0  0
 15 16  1  0  0  0  0
 15 17  1  0  0  0  0
 17 18  1  0  0  0  0
 17 19  2  0  0  0  0
 19 20  1  0  0  0  0
 20 21  1  0  0  0  0
 22 23  2  0  0  0  0
 22 24  1  0  0  0  0
 24 25  1  0  0  0  0
 24 26  1  0  0  0  0
 26 27  1  0  0  0  0
 26 28  1  0  0  0  0
 26 29  1  0  0  0  0
M  END
$$$$

  -OEChem-04042215593D

 29 29  0     1  0  0  0  0  0999 V2000
   -3.6423   -3.6084    1.4850 H   0  0  0  0  0  0  0  0  0  0  0  0
   -3.5528   -2.7048    0.8758 C   0  0  0  0  0  0  0  0  0  0  0  0
   -4.1831   -1.9244    1.3088 H   0  0  0  0  0  0  0  0  0  0  0  0
   -3.9012   -2.9259   -0.1359 H   0  0  0  0  0  0  0  0  0  0  0  0
   -2.1090   -2.2415    0.8364 C   0  0  0  0  0  0  0  0  0  0  0  0
   -1.2458   -2.8770    1.4228 O   0  0  0  0  0  0  0  0  0  0  0  0
   -1.7741   -1.0965    0.1438 N   0  0  0  0  0  0  0  0  0  0  0  0
   -2.5369   -0.5390   -0.2385 H   0  0  0  0  0  0  0  0  0  0  0  0
   -0.4408   -0.4771    0.1617 C   0  0  1  0  0  0  0  0  0  0  0  0
    0.1101   -0.8679    1.0208 H   0  0  0  0  0  0  0  0  0  0  0  0
    0.3138   -0.8076   -1.1376 C   0  0  0  0  0  0  0  0  0  0  0  0
   -0.0055   -1.7955   -1.4856 H   0  0  0  0  0  0  0  0  0  0  0  0
    0.0596   -0.0883   -1.9241 H   0  0  0  0  0  0  0  0  0  0  0  0
    1.8085   -0.8658   -0.9325 C   0  0  0  0  0  0  0  0  0  0  0  0
    2.5118   -1.2258    0.1990 N   0  0  0  0  0  0  0  0  0  0  0  0
    2.1215   -1.6553    1.0369 H   0  0  0  0  0  0  0  0  0  0  0  0
    3.8612   -1.0770   -0.0592 C   0  0  0  0  0  0  0  0  0  0  0  0
    4.6604   -1.3106    0.6385 H   0  0  0  0  0  0  0  0  0  0  0  0
    4.0389   -0.6152   -1.2727 N   0  0  0  0  0  0  0  0  0  0  0  0
    2.7709   -0.4769   -1.8272 C   0  0  0  0  0  0  0  0  0  0  0  0
    2.5723   -0.1026   -2.8271 H   0  0  0  0  0  0  0  0  0  0  0  0
   -0.5350    1.0493    0.3421 C   0  0  0  0  0  0  0  0  0  0  0  0
   -1.4212    1.6705   -0.2341 O   0  0  0  0  0  0  0  0  0  0  0  0
    0.2946    1.7100    1.2293 N   0  0  0  0  0  0  0  0  0  0  0  0
    1.0540    1.1784    1.6447 H   0  0  0  0  0  0  0  0  0  0  0  0
    0.2477    3.1515    1.4419 C   0  0  0  0  0  0  0  0  0  0  0  0
   -0.7386    3.4529    1.8100 H   0  0  0  0  0  0  0  0  0  0  0  0
    0.9972    3.4496    2.1814 H   0  0  0  0  0  0  0  0  0  0  0  0
    0.4528    3.6838    0.5071 H   0  0  0  0  0  0  0  0  0  0  0  0
  1  2  1  0  0  0  0
  2  3  1  0  0  0  0
  2  4  1  0  0  0  0
  2  5  1  0  0  0  0
  5  6  2  0  0  0  0
  5  7  1  0  0  0  0
  7  8  1  0  0  0  0
  7  9  1  0  0  0  0
  9 10  1  0  0  0  0
  9 11  1  0  0  0  0
  9 22  1  0  0  0  0
 11 12  1  0  0  0  0
 11 13  1  0  0  0  0
 11 14  1  0  0  0  0
 14 15  1  0  0  0  0
 14 20  2  0  0  0  0
 15 16  1  0  0  0  0
 15 17  1  0  0  0  0
 17 18  1  0  0  0  0
 17 19  2  0  0  0  0
 19 20  1  0  0  0  0
 20 21  1  0  0  0  0
 22 23  2  0  0  0  0
 22 24  1  0  0  0  0
 24 25  1  0  0  0  0
 24 26  1  0  0  0  0
 26 27  1  0  0  0  0
 26 28  1  0  0  0  0
 26 29  1  0  0  0  0
M  END
$$$$

  -OEChem-04042215593D

 29 29  0     1  0  0  0  0  0999 V2000
   -3.6005   -3.6171    1.5072 H   0  0  0  0  0  0  0  0  0  0  0  0
   -3.5269   -2.7146    0.8943 C   0  0  0  0  0  0  0  0  0  0  0  0
   -4.1458   -1.9336    1.3424 H   0  0  0  0  0  0  0  0  0  0  0  0
   -3.9016   -2.9373   -0.1076 H   0  0  0  0  0  0  0  0  0  0  0  0
   -2.0844   -2.2524    0.8159 C   0  0  0  0  0  0  0  0  0  0  0  0
   -1.2017   -2.9024    1.3560 O   0  0  0  0  0  0  0  0  0  0  0  0
   -1.7704   -1.0976    0.1299 N   0  0  0  0  0  0  0  0  0  0  0  0
   -2.5445   -0.5319   -0.2155 H   0  0  0  0  0  0  0  0  0  0  0  0
   -0.4404   -0.4716    0.1342 C   0  0  1  0  0  0  0  0  0  0  0  0
    0.1249   -0.8660    0.9830 H   0  0  0  0  0  0  0  0  0  0  0  0
    0.2992   -0.7929   -1.1747 C   0  0  0  0  0  0  0  0  0  0  0  0
   -0.0156   -1.7789   -1.5317 H   0  0  0  0  0  0  0  0  0  0  0  0
    0.0393   -0.0653   -1.9516 H   0  0  0  0  0  0  0  0  0  0  0  0
    1.7906   -0.8385   -0.9607 C   0  0  0  0  0  0  0  0  0  0  0  0
    2.4748   -1.4569    0.0644 N   0  0  0  0  0  0  0  0  0  0  0  0
    2.0693   -2.0644    0.7764 H   0  0  0  0  0  0  0  0  0  0  0  0
    3.8256   -1.2230   -0.1099 C   0  0  0  0  0  0  0  0  0  0  0  0
    4.6142   -1.6027    0.5336 H   0  0  0  0  0  0  0  0  0  0  0  0
    4.0190   -0.4744   -1.1690 N   0  0  0  0  0  0  0  0  0  0  0  0
    2.7614   -0.2299   -1.7113 C   0  0  0  0  0  0  0  0  0  0  0  0
    2.5762    0.3672   -2.5992 H   0  0  0  0  0  0  0  0  0  0  0  0
   -0.5346    1.0521    0.3329 C   0  0  0  0  0  0  0  0  0  0  0  0
   -1.4301    1.6783   -0.2232 O   0  0  0  0  0  0  0  0  0  0  0  0
    0.3085    1.7029    1.2145 N   0  0  0  0  0  0  0  0  0  0  0  0
    1.0739    1.1655    1.6123 H   0  0  0  0  0  0  0  0  0  0  0  0
    0.2656    3.1417    1.4447 C   0  0  0  0  0  0  0  0  0  0  0  0
   -0.7149    3.4393    1.8312 H   0  0  0  0  0  0  0  0  0  0  0  0
    1.0263    3.4303    2.1764 H   0  0  0  0  0  0  0  0  0  0  0  0
    0.4573    3.6846    0.5131 H   0  0  0  0  0  0  0  0  0  0  0  0
  1  2  1  0  0  0  0
  2  3  1  0  0  0  0
  2  4  1  0  0  0  0
  2  5  1  0  0  0  0
  5  6  2  0  0  0  0
  5  7  1  0  0  0  0
  7  8  1  0  0  0  0
  7  9  1  0  0  0  0
  9 10  1  0  0  0  0
  9 11  1  0  0  0  0
  9 22  1  0  0  0  0
 11 12  1  0  0  0  0
 11 13  1  0  0  0  0
 11 14  1  0  0  0  0
 14 15  1  0  0  0  0
 14 20  2  0  0  0  0
 15 16  1  0  0  0  0
 15 17  1  0  0  0  0
 17 18  1  0  0  0  0
 17 19  2  0  0  0  0
 19 20  1  0  0  0  0
 20 21  1  0  0  0  0
 22 23  2  0  0  0  0
 22 24  1  0  0  0  0
 24 25  1  0  0  0  0
 24 26  1  0  0  0  0
 26 27  1  0  0  0  0
 26 28  1  0  0  0  0
 26 29  1  0  0  0  0
M  END
$$$$

  -OEChem-04042215593D

 29 29  0     1  0  0  0  0  0999 V2000
   -3.5602   -3.6351    1.5087 H   0  0  0  0  0  0  0  0  0  0  0  0
   -3.5021   -2.7279    0.9008 C   0  0  0  0  0  0  0  0  0  0  0  0
   -4.1143   -1.9523    1.3672 H   0  0  0  0  0  0  0  0  0  0  0  0
   -3.8965   -2.9445   -0.0949 H   0  0  0  0  0  0  0  0  0  0  0  0
   -2.0632   -2.2594    0.7966 C   0  0  0  0  0  0  0  0  0  0  0  0
   -1.1662   -2.9177    1.3023 O   0  0  0  0  0  0  0  0  0  0  0  0
   -1.7671   -1.0952    0.1186 N   0  0  0  0  0  0  0  0  0  0  0  0
   -2.5502   -0.5269   -0.2018 H   0  0  0  0  0  0  0  0  0  0  0  0
   -0.4411   -0.4610    0.1112 C   0  0  1  0  0  0  0  0  0  0  0  0
    0.1382   -0.8592    0.9498 H   0  0  0  0  0  0  0  0  0  0  0  0
    0.2874   -0.7801   -1.2026 C   0  0  0  0  0  0  0  0  0  0  0  0
   -0.0223   -1.7650   -1.5670 H   0  0  0  0  0  0  0  0  0  0  0  0
    0.0255   -0.0466   -1.9732 H   0  0  0  0  0  0  0  0  0  0  0  0
    1.7747   -0.8103   -0.9750 C   0  0  0  0  0  0  0  0  0  0  0  0
    2.4594   -1.6438   -0.1181 N   0  0  0  0  0  0  0  0  0  0  0  0
    2.0534   -2.3860    0.4523 H   0  0  0  0  0  0  0  0  0  0  0  0
    3.8056   -1.3446   -0.2052 C   0  0  0  0  0  0  0  0  0  0  0  0
    4.5937   -1.8439    0.3512 H   0  0  0  0  0  0  0  0  0  0  0  0
    3.9942   -0.3655   -1.0578 N   0  0  0  0  0  0  0  0  0  0  0  0
    2.7386   -0.0279   -1.5532 C   0  0  0  0  0  0  0  0  0  0  0  0
    2.5504    0.7504   -2.2867 H   0  0  0  0  0  0  0  0  0  0  0  0
   -0.5355    1.0599    0.3272 C   0  0  0  0  0  0  0  0  0  0  0  0
   -1.4407    1.6898   -0.2087 O   0  0  0  0  0  0  0  0  0  0  0  0
    0.3196    1.7019    1.2035 N   0  0  0  0  0  0  0  0  0  0  0  0
    1.0916    1.1606    1.5843 H   0  0  0  0  0  0  0  0  0  0  0  0
    0.2761    3.1372    1.4543 C   0  0  0  0  0  0  0  0  0  0  0  0
   -0.7022    3.4279    1.8515 H   0  0  0  0  0  0  0  0  0  0  0  0
    1.0412    3.4169    2.1850 H   0  0  0  0  0  0  0  0  0  0  0  0
    0.4602    3.6935    0.5293 H   0  0  0  0  0  0  0  0  0  0  0  0
  1  2  1  0  0  0  0
  2  3  1  0  0  0  0
  2  4  1  0  0  0  0
  2  5  1  0  0  0  0
  5  6  2  0  0  0  0
  5  7  1  0  0  0  0
  7  8  1  0  0  0  0
  7  9  1  0  0  0  0
  9 10  1  0  0  0  0
  9 11  1  0  0  0  0
  9 22  1  0  0  0  0
 11 12  1  0  0  0  0
 11 13  1  0  0  0  0
 11 14  1  0  0  0  0
 14 15  1  0  0  0  0
 14 20  2  0  0  0  0
 15 16  1  0  0  0  0
 15 17  1  0  0  0  0
 17 18  1  0  0  0  0
 17 19  2  0  0  0  0
 19 20  1  0  0  0  0
 20 21  1  0  0  0  0
 22 23  2  0  0  0  0
 22 24  1  0  0  0  0
 24 25  1  0  0  0  0
 24 26  1  0  0  0  0
 26 27  1  0  0  0  0
 26 28  1  0  0  0  0
 26 29  1  0  0  0  0
M  END
$$$$

  -OEChem-04042215593D

 29 29  0     1  0  0  0  0  0999 V2000
   -3.5440   -3.6362    1.5112 H   0  0  0  0  0  0  0  0  0  0  0  0
   -3.4911   -2.7305    0.9005 C   0  0  0  0  0  0  0  0  0  0  0  0
   -4.0980   -1.9531    1.3710 H   0  0  0  0  0  0  0  0  0  0  0  0
   -3.8954   -2.9490   -0.0908 H   0  0  0  0  0  0  0  0  0  0  0  0
   -2.0528   -2.2642    0.7810 C   0  0  0  0  0  0  0  0  0  0  0  0
   -1.1500   -2.9335    1.2608 O   0  0  0  0  0  0  0  0  0  0  0  0
   -1.7648   -1.0943    0.1092 N   0  0  0  0  0  0  0  0  0  0  0  0
   -2.5528   -0.5231   -0.1931 H   0  0  0  0  0  0  0  0  0  0  0  0
   -0.4418   -0.4537    0.0993 C   0  0  1  0  0  0  0  0  0  0  0  0
    0.1434   -0.8564    0.9327 H   0  0  0  0  0  0  0  0  0  0  0  0
    0.2834   -0.7726   -1.2147 C   0  0  0  0  0  0  0  0  0  0  0  0
   -0.0235   -1.7556   -1.5871 H   0  0  0  0  0  0  0  0  0  0  0  0
    0.0222   -0.0337   -1.9803 H   0  0  0  0  0  0  0  0  0  0  0  0
    1.7679   -0.7921   -0.9759 C   0  0  0  0  0  0  0  0  0  0  0  0
    2.4801   -1.7858   -0.3429 N   0  0  0  0  0  0  0  0  0  0  0  0
    2.0943   -2.6386    0.0625 H   0  0  0  0  0  0  0  0  0  0  0  0
    3.8155   -1.4303   -0.3457 C   0  0  0  0  0  0  0  0  0  0  0  0
    4.6198   -2.0179    0.0879 H   0  0  0  0  0  0  0  0  0  0  0  0
    3.9718   -0.2738   -0.9457 N   0  0  0  0  0  0  0  0  0  0  0  0
    2.7059    0.1293   -1.3585 C   0  0  0  0  0  0  0  0  0  0  0  0
    2.4923    1.0461   -1.9000 H   0  0  0  0  0  0  0  0  0  0  0  0
   -0.5370    1.0658    0.3247 C   0  0  0  0  0  0  0  0  0  0  0  0
   -1.4410    1.6989   -0.2091 O   0  0  0  0  0  0  0  0  0  0  0  0
    0.3218    1.7041    1.2003 N   0  0  0  0  0  0  0  0  0  0  0  0
    1.0846    1.1567    1.5911 H   0  0  0  0  0  0  0  0  0  0  0  0
    0.2763    3.1369    1.4648 C   0  0  0  0  0  0  0  0  0  0  0  0
   -0.7005    3.4213    1.8702 H   0  0  0  0  0  0  0  0  0  0  0  0
    1.0448    3.4108    2.1940 H   0  0  0  0  0  0  0  0  0  0  0  0
    0.4546    3.7026    0.5442 H   0  0  0  0  0  0  0  0  0  0  0  0
  1  2  1  0  0  0  0
  2  3  1  0  0  0  0
  2  4  1  0  0  0  0
  2  5  1  0  0  0  0
  5  6  2  0  0  0  0
  5  7  1  0  0  0  0
  7  8  1  0  0  0  0
  7  9  1  0  0  0  0
  9 10  1  0  0  0  0
  9 11  1  0  0  0  0
  9 22  1  0  0  0  0
 11 12  1  0  0  0  0
 11 13  1  0  0  0  0
 11 14  1  0  0  0  0
 14 15  1  0  0  0  0
 14 20  2  0  0  0  0
 15 16  1  0  0  0  0
 15 17  1  0  0  0  0
 17 18  1  0  0  0  0
 17 19  2  0  0  0  0
 19 20  1  0  0  0  0
 20 21  1  0  0  0  0
 22 23  2  0  0  0  0
 22 24  1  0  0  0  0
 24 25  1  0  0  0  0
 24 26  1  0  0  0  0
 26 27  1  0  0  0  0
 26 28  1  0  0  0  0
 26 29  1  0  0  0  0
M  END
$$$$

  -OEChem-04042215593D

 29 29  0     1  0  0  0  0  0999 V2000
   -3.5510   -3.6318    1.5059 H   0  0  0  0  0  0  0  0  0  0  0  0
   -3.4963   -2.7249    0.8973 C   0  0  0  0  0  0  0  0  0  0  0  0
   -4.0979   -1.9461    1.3722 H   0  0  0  0  0  0  0  0  0  0  0  0
   -3.9051   -2.9392   -0.0930 H   0  0  0  0  0  0  0  0  0  0  0  0
   -2.0562   -2.2649    0.7737 C   0  0  0  0  0  0  0  0  0  0  0  0
   -1.1556   -2.9404    1.2480 O   0  0  0  0  0  0  0  0  0  0  0  0
   -1.7662   -1.0935    0.1056 N   0  0  0  0  0  0  0  0  0  0  0  0
   -2.5543   -0.5220   -0.1956 H   0  0  0  0  0  0  0  0  0  0  0  0
   -0.4437   -0.4507    0.0970 C   0  0  1  0  0  0  0  0  0  0  0  0
    0.1419   -0.8561    0.9290 H   0  0  0  0  0  0  0  0  0  0  0  0
    0.2843   -0.7719   -1.2149 C   0  0  0  0  0  0  0  0  0  0  0  0
   -0.0229   -1.7535   -1.5906 H   0  0  0  0  0  0  0  0  0  0  0  0
    0.0253   -0.0312   -1.9796 H   0  0  0  0  0  0  0  0  0  0  0  0
    1.7688   -0.7879   -0.9738 C   0  0  0  0  0  0  0  0  0  0  0  0
    2.5314   -1.8721   -0.6041 N   0  0  0  0  0  0  0  0  0  0  0  0
    2.1862   -2.8084   -0.3958 H   0  0  0  0  0  0  0  0  0  0  0  0
    3.8494   -1.4655   -0.5165 C   0  0  0  0  0  0  0  0  0  0  0  0
    4.6822   -2.1019   -0.2307 H   0  0  0  0  0  0  0  0  0  0  0  0
    3.9497   -0.1937   -0.8240 N   0  0  0  0  0  0  0  0  0  0  0  0
    2.6634    0.2374   -1.1303 C   0  0  0  0  0  0  0  0  0  0  0  0
    2.4048    1.2455   -1.4407 H   0  0  0  0  0  0  0  0  0  0  0  0
   -0.5396    1.0680    0.3254 C   0  0  0  0  0  0  0  0  0  0  0  0
   -1.4372    1.7045   -0.2148 O   0  0  0  0  0  0  0  0  0  0  0  0
    0.3196    1.7032    1.2027 N   0  0  0  0  0  0  0  0  0  0  0  0
    1.0684    1.1488    1.6110 H   0  0  0  0  0  0  0  0  0  0  0  0
    0.2762    3.1349    1.4722 C   0  0  0  0  0  0  0  0  0  0  0  0
   -0.6990    3.4187    1.8818 H   0  0  0  0  0  0  0  0  0  0  0  0
    1.0476    3.4057    2.1996 H   0  0  0  0  0  0  0  0  0  0  0  0
    0.4521    3.7037    0.5531 H   0  0  0  0  0  0  0  0  0  0  0  0
  1  2  1  0  0  0  0
  2  3  1  0  0  0  0
  2  4  1  0  0  0  0
  2  5  1  0  0  0  0
  5  6  2  0  0  0  0
  5  7  1  0  0  0  0
  7  8  1  0  0  0  0
  7  9  1  0  0  0  0
  9 10  1  0  0  0  0
  9 11  1  0  0  0  0
  9 22  1  0  0  0  0
 11 12  1  0  0  0  0
 11 13  1  0  0  0  0
 11 14  1  0  0  0  0
 14 15  1  0  0  0  0
 14 20  2  0  0  0  0
 15 16  1  0  0  0  0
 15 17  1  0  0  0  0
 17 18  1  0  0  0  0
 17 19  2  0  0  0  0
 19 20  1  0  0  0  0
 20 21  1  0  0  0  0
 22 23  2  0  0  0  0
 22 24  1  0  0  0  0
 24 25  1  0  0  0  0
 24 26  1  0  0  0  0
 26 27  1  0  0  0  0
 26 28  1  0  0  0  0
 26 29  1  0  0  0  0
M  END
$$$$

  -OEChem-04042215593D

 29 29  0     1  0  0  0  0  0999 V2000
   -3.5616   -3.6293    1.4891 H   0  0  0  0  0  0  0  0  0  0  0  0
   -3.4993   -2.7226    0.8808 C   0  0  0  0  0  0  0  0  0  0  0  0
   -4.1158   -1.9470    1.3418 H   0  0  0  0  0  0  0  0  0  0  0  0
   -3.8857   -2.9404   -0.1178 H   0  0  0  0  0  0  0  0  0  0  0  0
   -2.0595   -2.2541    0.7877 C   0  0  0  0  0  0  0  0  0  0  0  0
   -1.1671   -2.9227    1.2853 O   0  0  0  0  0  0  0  0  0  0  0  0
   -1.7612   -1.0851    0.1191 N   0  0  0  0  0  0  0  0  0  0  0  0
   -2.5456   -0.5198   -0.2026 H   0  0  0  0  0  0  0  0  0  0  0  0
   -0.4385   -0.4420    0.1139 C   0  0  1  0  0  0  0  0  0  0  0  0
    0.1476   -0.8456    0.9467 H   0  0  0  0  0  0  0  0  0  0  0  0
    0.2888   -0.7718   -1.1982 C   0  0  0  0  0  0  0  0  0  0  0  0
   -0.0252   -1.7548   -1.5642 H   0  0  0  0  0  0  0  0  0  0  0  0
    0.0282   -0.0369   -1.9680 H   0  0  0  0  0  0  0  0  0  0  0  0
    1.7775   -0.7935   -0.9763 C   0  0  0  0  0  0  0  0  0  0  0  0
    2.5863   -1.9039   -0.8937 N   0  0  0  0  0  0  0  0  0  0  0  0
    2.2793   -2.8751   -0.9107 H   0  0  0  0  0  0  0  0  0  0  0  0
    3.8908   -1.4802   -0.7239 C   0  0  0  0  0  0  0  0  0  0  0  0
    4.7502   -2.1349   -0.6103 H   0  0  0  0  0  0  0  0  0  0  0  0
    3.9414   -0.1691   -0.7146 N   0  0  0  0  0  0  0  0  0  0  0  0
    2.6347    0.2722   -0.8909 C   0  0  0  0  0  0  0  0  0  0  0  0
    2.3364    1.3149   -0.9491 H   0  0  0  0  0  0  0  0  0  0  0  0
   -0.5420    1.0770    0.3377 C   0  0  0  0  0  0  0  0  0  0  0  0
   -1.4309    1.7111   -0.2192 O   0  0  0  0  0  0  0  0  0  0  0  0
    0.3100    1.7188    1.2176 N   0  0  0  0  0  0  0  0  0  0  0  0
    1.0345    1.1613    1.6638 H   0  0  0  0  0  0  0  0  0  0  0  0
    0.2570    3.1505    1.4853 C   0  0  0  0  0  0  0  0  0  0  0  0
   -0.7209    3.4280    1.8926 H   0  0  0  0  0  0  0  0  0  0  0  0
    1.0256    3.4279    2.2134 H   0  0  0  0  0  0  0  0  0  0  0  0
    0.4308    3.7190    0.5655 H   0  0  0  0  0  0  0  0  0  0  0  0
  1  2  1  0  0  0  0
  2  3  1  0  0  0  0
  2  4  1  0  0  0  0
  2  5  1  0  0  0  0
  5  6  2  0  0  0  0
  5  7  1  0  0  0  0
  7  8  1  0  0  0  0
  7  9  1  0  0  0  0
  9 10  1  0  0  0  0
  9 11  1  0  0  0  0
  9 22  1  0  0  0  0
 11 12  1  0  0  0  0
 11 13  1  0  0  0  0
 11 14  1  0  0  0  0
 14 15  1  0  0  0  0
 14 20  2  0  0  0  0
 15 16  1  0  0  0  0
 15 17  1  0  0  0  0
 17 18  1  0  0  0  0
 17 19  2  0  0  0  0
 19 20  1  0  0  0  0
 20 21  1  0  0  0  0
 22 23  2  0  0  0  0
 22 24  1  0  0  0  0
 24 25  1  0  0  0  0
 24 26  1  0  0  0  0
 26 27  1  0  0  0  0
 26 28  1  0  0  0  0
 26 29  1  0  0  0  0
M  END
$$$$

  -OEChem-04042215593D

 29 29  0     1  0  0  0  0  0999 V2000
   -3.5650   -3.6322    1.4622 H   0  0  0  0  0  0  0  0  0  0  0  0
   -3.4945   -2.7218    0.8604 C   0  0  0  0  0  0  0  0  0  0  0  0
   -4.1311   -1.9546    1.3076 H   0  0  0  0  0  0  0  0  0  0  0  0
   -3.8500   -2.9381   -0.1498 H   0  0  0  0  0  0  0  0  0  0  0  0
   -2.0572   -2.2395    0.8090 C   0  0  0  0  0  0  0  0  0  0  0  0
   -1.1757   -2.8933    1.3431 O   0  0  0  0  0  0  0  0  0  0  0  0
   -1.7491   -1.0746    0.1375 N   0  0  0  0  0  0  0  0  0  0  0  0
   -2.5283   -0.5178   -0.2109 H   0  0  0  0  0  0  0  0  0  0  0  0
   -0.4267   -0.4298    0.1446 C   0  0  1  0  0  0  0  0  0  0  0  0
    0.1584   -0.8282    0.9806 H   0  0  0  0  0  0  0  0  0  0  0  0
    0.3009   -0.7667   -1.1687 C   0  0  0  0  0  0  0  0  0  0  0  0
   -0.0223   -1.7512   -1.5221 H   0  0  0  0  0  0  0  0  0  0  0  0
    0.0353   -0.0395   -1.9438 H   0  0  0  0  0  0  0  0  0  0  0  0
    1.7967   -0.8011   -0.9811 C   0  0  0  0  0  0  0  0  0  0  0  0
    2.6311   -1.8751   -1.1971 N   0  0  0  0  0  0  0  0  0  0  0  0
    2.3449   -2.8177   -1.4551 H   0  0  0  0  0  0  0  0  0  0  0  0
    3.9312   -1.4770   -0.9486 C   0  0  0  0  0  0  0  0  0  0  0  0
    4.8055   -2.1177   -1.0196 H   0  0  0  0  0  0  0  0  0  0  0  0
    3.9574   -0.2100   -0.6107 N   0  0  0  0  0  0  0  0  0  0  0  0
    2.6387    0.2276   -0.6452 C   0  0  0  0  0  0  0  0  0  0  0  0
    2.3260    1.2467   -0.4408 H   0  0  0  0  0  0  0  0  0  0  0  0
   -0.5503    1.0895    0.3583 C   0  0  0  0  0  0  0  0  0  0  0  0
   -1.4289    1.7129   -0.2265 O   0  0  0  0  0  0  0  0  0  0  0  0
    0.2808    1.7473    1.2463 N   0  0  0  0  0  0  0  0  0  0  0  0
    0.9799    1.1943    1.7363 H   0  0  0  0  0  0  0  0  0  0  0  0
    0.2105    3.1806    1.5019 C   0  0  0  0  0  0  0  0  0  0  0  0
   -0.7734    3.4524    1.8983 H   0  0  0  0  0  0  0  0  0  0  0  0
    0.9703    3.4710    2.2341 H   0  0  0  0  0  0  0  0  0  0  0  0
    0.3870    3.7438    0.5794 H   0  0  0  0  0  0  0  0  0  0  0  0
  1  2  1  0  0  0  0
  2  3  1  0  0  0  0
  2  4  1  0  0  0  0
  2  5  1  0  0  0  0
  5  6  2  0  0  0  0
  5  7  1  0  0  0  0
  7  8  1  0  0  0  0
  7  9  1  0  0  0  0
  9 10  1  0  0  0  0
  9 11  1  0  0  0  0
  9 22  1  0  0  0  0
 11 12  1  0  0  0  0
 11 13  1  0  0  0  0
 11 14  1  0  0  0  0
 14 15  1  0  0  0  0
 14 20  2  0  0  0  0
 15 16  1  0  0  0  0
 15 17  1  0  0  0  0
 17 18  1  0  0  0  0
 17 19  2  0  0  0  0
 19 20  1  0  0  0  0
 20 21  1  0  0  0  0
 22 23  2  0  0  0  0
 22 24  1  0  0  0  0
 24 25  1  0  0  0  0
 24 26  1  0  0  0  0
 26 27  1  0  0  0  0
 26 28  1  0  0  0  0
 26 29  1  0  0  0  0
M  END
$$$$

  -OEChem-04042215593D

 29 29  0     1  0  0  0  0  0999 V2000
   -3.5604   -3.6244    1.4405 H   0  0  0  0  0  0  0  0  0  0  0  0
   -3.4805   -2.7081    0.8487 C   0  0  0  0  0  0  0  0  0  0  0  0
   -4.1225   -1.9441    1.2938 H   0  0  0  0  0  0  0  0  0  0  0  0
   -3.8225   -2.9141   -0.1684 H   0  0  0  0  0  0  0  0  0  0  0  0
   -2.0425   -2.2261    0.8235 C   0  0  0  0  0  0  0  0  0  0  0  0
   -1.1737   -2.8670    1.3923 O   0  0  0  0  0  0  0  0  0  0  0  0
   -1.7227   -1.0665    0.1489 N   0  0  0  0  0  0  0  0  0  0  0  0
   -2.4950   -0.5193   -0.2289 H   0  0  0  0  0  0  0  0  0  0  0  0
   -0.4029   -0.4163    0.1755 C   0  0  1  0  0  0  0  0  0  0  0  0
    0.1784   -0.8061    1.0179 H   0  0  0  0  0  0  0  0  0  0  0  0
    0.3294   -0.7530   -1.1382 C   0  0  0  0  0  0  0  0  0  0  0  0
    0.0017   -1.7419   -1.4754 H   0  0  0  0  0  0  0  0  0  0  0  0
    0.0533   -0.0375   -1.9204 H   0  0  0  0  0  0  0  0  0  0  0  0
    1.8319   -0.7999   -0.9917 C   0  0  0  0  0  0  0  0  0  0  0  0
    2.6619   -1.7725   -1.5046 N   0  0  0  0  0  0  0  0  0  0  0  0
    2.3709   -2.6023   -2.0175 H   0  0  0  0  0  0  0  0  0  0  0  0
    3.9664   -1.4612   -1.1709 C   0  0  0  0  0  0  0  0  0  0  0  0
    4.8377   -2.0549   -1.4323 H   0  0  0  0  0  0  0  0  0  0  0  0
    4.0013   -0.3419   -0.4895 N   0  0  0  0  0  0  0  0  0  0  0  0
    2.6834    0.0840   -0.3785 C   0  0  0  0  0  0  0  0  0  0  0  0
    2.3845    0.9997    0.1186 H   0  0  0  0  0  0  0  0  0  0  0  0
   -0.5613    1.1032    0.3745 C   0  0  0  0  0  0  0  0  0  0  0  0
   -1.4369    1.7043   -0.2379 O   0  0  0  0  0  0  0  0  0  0  0  0
    0.2346    1.7887    1.2738 N   0  0  0  0  0  0  0  0  0  0  0  0
    0.9148    1.2524    1.8066 H   0  0  0  0  0  0  0  0  0  0  0  0
    0.1212    3.2212    1.5180 C   0  0  0  0  0  0  0  0  0  0  0  0
   -0.8762    3.4690    1.8960 H   0  0  0  0  0  0  0  0  0  0  0  0
    0.8606    3.5370    2.2603 H   0  0  0  0  0  0  0  0  0  0  0  0
    0.2983    3.7820    0.5942 H   0  0  0  0  0  0  0  0  0  0  0  0
  1  2  1  0  0  0  0
  2  3  1  0  0  0  0
  2  4  1  0  0  0  0
  2  5  1  0  0  0  0
  5  6  2  0  0  0  0
  5  7  1  0  0  0  0
  7  8  1  0  0  0  0
  7  9  1  0  0  0  0
  9 10  1  0  0  0  0
  9 11  1  0  0  0  0
  9 22  1  0  0  0  0
 11 12  1  0  0  0  0
 11 13  1  0  0  0  0
 11 14  1  0  0  0  0
 14 15  1  0  0  0  0
 14 20  2  0  0  0  0
 15 16  1  0  0  0  0
 15 17  1  0  0  0  0
 17 18  1  0  0  0  0
 17 19  2  0  0  0  0
 19 20  1  0  0  0  0
 20 21  1  0  0  0  0
 22 23  2  0  0  0  0
 22 24  1  0  0  0  0
 24 25  1  0  0  0  0
 24 26  1  0  0  0  0
 26 27  1  0  0  0  0
 26 28  1  0  0  0  0
 26 29  1  0  0  0  0
M  END
$$$$

  -OEChem-04042215593D

 29 29  0     1  0  0  0  0  0999 V2000
   -3.5544   -3.6201    1.4395 H   0  0  0  0  0  0  0  0  0  0  0  0
   -3.4731   -2.7049    0.8463 C   0  0  0  0  0  0  0  0  0  0  0  0
   -4.1207   -1.9422    1.2853 H   0  0  0  0  0  0  0  0  0  0  0  0
   -3.8070   -2.9149   -0.1727 H   0  0  0  0  0  0  0  0  0  0  0  0
   -2.0365   -2.2179    0.8300 C   0  0  0  0  0  0  0  0  0  0  0  0
   -1.1712   -2.8527    1.4106 O   0  0  0  0  0  0  0  0  0  0  0  0
   -1.7132   -1.0614    0.1515 N   0  0  0  0  0  0  0  0  0  0  0  0
   -2.4836   -0.5161   -0.2329 H   0  0  0  0  0  0  0  0  0  0  0  0
   -0.3949   -0.4082    0.1877 C   0  0  1  0  0  0  0  0  0  0  0  0
    0.1805   -0.7947    1.0352 H   0  0  0  0  0  0  0  0  0  0  0  0
    0.3463   -0.7348   -1.1245 C   0  0  0  0  0  0  0  0  0  0  0  0
    0.0218   -1.7249   -1.4614 H   0  0  0  0  0  0  0  0  0  0  0  0
    0.0662   -0.0201   -1.9060 H   0  0  0  0  0  0  0  0  0  0  0  0
    1.8517   -0.7840   -0.9917 C   0  0  0  0  0  0  0  0  0  0  0  0
    2.6918   -1.5706   -1.7496 N   0  0  0  0  0  0  0  0  0  0  0  0
    2.4107   -2.2125   -2.4879 H   0  0  0  0  0  0  0  0  0  0  0  0
    3.9912   -1.3714   -1.3237 C   0  0  0  0  0  0  0  0  0  0  0  0
    4.8671   -1.8622   -1.7384 H   0  0  0  0  0  0  0  0  0  0  0  0
    4.0143   -0.5028   -0.3427 N   0  0  0  0  0  0  0  0  0  0  0  0
    2.6927   -0.1344   -0.1230 C   0  0  0  0  0  0  0  0  0  0  0  0
    2.3828    0.5711    0.6390 H   0  0  0  0  0  0  0  0  0  0  0  0
   -0.5643    1.1125    0.3764 C   0  0  0  0  0  0  0  0  0  0  0  0
   -1.4374    1.7024   -0.2506 O   0  0  0  0  0  0  0  0  0  0  0  0
    0.2146    1.8140    1.2785 N   0  0  0  0  0  0  0  0  0  0  0  0
    0.8854    1.2884    1.8327 H   0  0  0  0  0  0  0  0  0  0  0  0
    0.0745    3.2455    1.5164 C   0  0  0  0  0  0  0  0  0  0  0  0
   -0.9297    3.4769    1.8867 H   0  0  0  0  0  0  0  0  0  0  0  0
    0.8031    3.5778    2.2622 H   0  0  0  0  0  0  0  0  0  0  0  0
    0.2474    3.8062    0.5917 H   0  0  0  0  0  0  0  0  0  0  0  0
  1  2  1  0  0  0  0
  2  3  1  0  0  0  0
  2  4  1  0  0  0  0
  2  5  1  0  0  0  0
  5  6  2  0  0  0  0
  5  7  1  0  0  0  0
  7  8  1  0  0  0  0
  7  9  1  0  0  0  0
  9 10  1  0  0  0  0
  9 11  1  0  0  0  0
  9 22  1  0  0  0  0
 11 12  1  0  0  0  0
 11 13  1  0  0  0  0
 11 14  1  0  0  0  0
 14 15  1  0  0  0  0
 14 20  2  0  0  0  0
 15 16  1  0  0  0  0
 15 17  1  0  0  0  0
 17 18  1  0  0  0  0
 17 19  2  0  0  0  0
 19 20  1  0  0  0  0
 20 21  1  0  0  0  0
 22 23  2  0  0  0  0
 22 24  1  0  0  0  0
 24 25  1  0  0  0  0
 24 26  1  0  0  0  0
 26 27  1  0  0  0  0
 26 28  1  0  0  0  0
 26 29  1  0  0  0  0
M  END
$$$$

  -OEChem-04042215593D

 29 29  0     1  0  0  0  0  0999 V2000
   -3.5688   -3.6263    1.4353 H   0  0  0  0  0  0  0  0  0  0  0  0
   -3.4873   -2.7120    0.8410 C   0  0  0  0  0  0  0  0  0  0  0  0
   -4.1400   -1.9507    1.2751 H   0  0  0  0  0  0  0  0  0  0  0  0
   -3.8145   -2.9249   -0.1795 H   0  0  0  0  0  0  0  0  0  0  0  0
   -2.0520   -2.2211    0.8327 C   0  0  0  0  0  0  0  0  0  0  0  0
   -1.1894   -2.8503    1.4232 O   0  0  0  0  0  0  0  0  0  0  0  0
   -1.7272   -1.0657    0.1528 N   0  0  0  0  0  0  0  0  0  0  0  0
   -2.4963   -0.5240   -0.2390 H   0  0  0  0  0  0  0  0  0  0  0  0
   -0.4099   -0.4108    0.1917 C   0  0  1  0  0  0  0  0  0  0  0  0
    0.1535   -0.7981    1.0465 H   0  0  0  0  0  0  0  0  0  0  0  0
    0.3470   -0.7340   -1.1122 C   0  0  0  0  0  0  0  0  0  0  0  0
    0.0313   -1.7247   -1.4557 H   0  0  0  0  0  0  0  0  0  0  0  0
    0.0710   -0.0171   -1.8930 H   0  0  0  0  0  0  0  0  0  0  0  0
    1.8519   -0.7758   -0.9672 C   0  0  0  0  0  0  0  0  0  0  0  0
    2.7222   -1.3186   -1.8871 N   0  0  0  0  0  0  0  0  0  0  0  0
    2.4678   -1.7528   -2.7718 H   0  0  0  0  0  0  0  0  0  0  0  0
    4.0117   -1.1938   -1.4060 C   0  0  0  0  0  0  0  0  0  0  0  0
    4.9063   -1.5329   -1.9204 H   0  0  0  0  0  0  0  0  0  0  0  0
    4.0000   -0.6045   -0.2355 N   0  0  0  0  0  0  0  0  0  0  0  0
    2.6654   -0.3478    0.0526 C   0  0  0  0  0  0  0  0  0  0  0  0
    2.3253    0.1256    0.9672 H   0  0  0  0  0  0  0  0  0  0  0  0
   -0.5658    1.1114    0.3760 C   0  0  0  0  0  0  0  0  0  0  0  0
   -1.4383    1.7060   -0.2476 O   0  0  0  0  0  0  0  0  0  0  0  0
    0.2190    1.8069    1.2777 N   0  0  0  0  0  0  0  0  0  0  0  0
    0.8984    1.2803    1.8198 H   0  0  0  0  0  0  0  0  0  0  0  0
    0.0948    3.2409    1.5090 C   0  0  0  0  0  0  0  0  0  0  0  0
   -0.9074    3.4852    1.8764 H   0  0  0  0  0  0  0  0  0  0  0  0
    0.8256    3.5683    2.2547 H   0  0  0  0  0  0  0  0  0  0  0  0
    0.2757    3.7953    0.5822 H   0  0  0  0  0  0  0  0  0  0  0  0
  1  2  1  0  0  0  0
  2  3  1  0  0  0  0
  2  4  1  0  0  0  0
  2  5  1  0  0  0  0
  5  6  2  0  0  0  0
  5  7  1  0  0  0  0
  7  8  1  0  0  0  0
  7  9  1  0  0  0  0
  9 10  1  0  0  0  0
  9 11  1  0  0  0  0
  9 22  1  0  0  0  0
 11 12  1  0  0  0  0
 11 13  1  0  0  0  0
 11 14  1  0  0  0  0
 14 15  1  0  0  0  0
 14 20  2  0  0  0  0
 15 16  1  0  0  0  0
 15 17  1  0  0  0  0
 17 18  1  0  0  0  0
 17 19  2  0  0  0  0
 19 20  1  0  0  0  0
 20 21  1  0  0  0  0
 22 23  2  0  0  0  0
 22 24  1  0  0  0  0
 24 25  1  0  0  0  0
 24 26  1  0  0  0  0
 26 27  1  0  0  0  0
 26 28  1  0  0  0  0
 26 29  1  0  0  0  0
M  END
$$$$

  -OEChem-04042215593D

 29 29  0     1  0  0  0  0  0999 V2000
   -3.6056   -3.6361    1.4204 H   0  0  0  0  0  0  0  0  0  0  0  0
   -3.5188   -2.7210    0.8278 C   0  0  0  0  0  0  0  0  0  0  0  0
   -4.1857   -1.9645    1.2485 H   0  0  0  0  0  0  0  0  0  0  0  0
   -3.8238   -2.9366   -0.1990 H   0  0  0  0  0  0  0  0  0  0  0  0
   -2.0872   -2.2190    0.8490 C   0  0  0  0  0  0  0  0  0  0  0  0
   -1.2377   -2.8291    1.4775 O   0  0  0  0  0  0  0  0  0  0  0  0
   -1.7540   -1.0702    0.1615 N   0  0  0  0  0  0  0  0  0  0  0  0
   -2.5155   -0.5430   -0.2627 H   0  0  0  0  0  0  0  0  0  0  0  0
   -0.4364   -0.4161    0.2046 C   0  0  1  0  0  0  0  0  0  0  0  0
    0.0927   -0.7878    1.0844 H   0  0  0  0  0  0  0  0  0  0  0  0
    0.3583   -0.7527   -1.0775 C   0  0  0  0  0  0  0  0  0  0  0  0
   -0.1226   -1.6007   -1.5762 H   0  0  0  0  0  0  0  0  0  0  0  0
    0.3133    0.0925   -1.7729 H   0  0  0  0  0  0  0  0  0  0  0  0
    1.8057   -1.1350   -0.8535 C   0  0  0  0  0  0  0  0  0  0  0  0
    2.6879   -1.4706   -1.8581 N   0  0  0  0  0  0  0  0  0  0  0  0
    2.4780   -1.5127   -2.8532 H   0  0  0  0  0  0  0  0  0  0  0  0
    3.9206   -1.7426   -1.2964 C   0  0  0  0  0  0  0  0  0  0  0  0
    4.8105   -2.0302   -1.8492 H   0  0  0  0  0  0  0  0  0  0  0  0
    3.8632   -1.5975    0.0041 N   0  0  0  0  0  0  0  0  0  0  0  0
    2.5543   -1.2311    0.2955 C   0  0  0  0  0  0  0  0  0  0  0  0
    2.1933   -1.0389    1.3006 H   0  0  0  0  0  0  0  0  0  0  0  0
   -0.5655    1.1085    0.3732 C   0  0  0  0  0  0  0  0  0  0  0  0
   -1.4221    1.7161   -0.2593 O   0  0  0  0  0  0  0  0  0  0  0  0
    0.2321    1.7886    1.2750 N   0  0  0  0  0  0  0  0  0  0  0  0
    0.9182    1.2515    1.7987 H   0  0  0  0  0  0  0  0  0  0  0  0
    0.1463    3.2268    1.4963 C   0  0  0  0  0  0  0  0  0  0  0  0
   -0.8485    3.4995    1.8640 H   0  0  0  0  0  0  0  0  0  0  0  0
    0.8871    3.5395    2.2386 H   0  0  0  0  0  0  0  0  0  0  0  0
    0.3401    3.7701    0.5653 H   0  0  0  0  0  0  0  0  0  0  0  0
  1  2  1  0  0  0  0
  2  3  1  0  0  0  0
  2  4  1  0  0  0  0
  2  5  1  0  0  0  0
  5  6  2  0  0  0  0
  5  7  1  0  0  0  0
  7  8  1  0  0  0  0
  7  9  1  0  0  0  0
  9 10  1  0  0  0  0
  9 11  1  0  0  0  0
  9 22  1  0  0  0  0
 11 12  1  0  0  0  0
 11 13  1  0  0  0  0
 11 14  1  0  0  0  0
 14 15  1  0  0  0  0
 14 20  2  0  0  0  0
 15 16  1  0  0  0  0
 15 17  1  0  0  0  0
 17 18  1  0  0  0  0
 17 19  2  0  0  0  0
 19 20  1  0  0  0  0
 20 21  1  0  0  0  0
 22 23  2  0  0  0  0
 22 24  1  0  0  0  0
 24 25  1  0  0  0  0
 24 26  1  0  0  0  0
 26 27  1  0  0  0  0
 26 28  1  0  0  0  0
 26 29  1  0  0  0  0
M  END
$$$$

  -OEChem-04042215593D

 29 29  0     1  0  0  0  0  0999 V2000
   -3.6051   -3.6239    1.4333 H   0  0  0  0  0  0  0  0  0  0  0  0
   -3.5190   -2.7110    0.8373 C   0  0  0  0  0  0  0  0  0  0  0  0
   -4.1806   -1.9509    1.2596 H   0  0  0  0  0  0  0  0  0  0  0  0
   -3.8310   -2.9287   -0.1868 H   0  0  0  0  0  0  0  0  0  0  0  0
   -2.0858   -2.2140    0.8479 C   0  0  0  0  0  0  0  0  0  0  0  0
   -1.2341   -2.8240    1.4735 O   0  0  0  0  0  0  0  0  0  0  0  0
   -1.7526   -1.0674    0.1569 N   0  0  0  0  0  0  0  0  0  0  0  0
   -2.5147   -0.5356   -0.2608 H   0  0  0  0  0  0  0  0  0  0  0  0
   -0.4337   -0.4165    0.2032 C   0  0  1  0  0  0  0  0  0  0  0  0
    0.0938   -0.7805    1.0869 H   0  0  0  0  0  0  0  0  0  0  0  0
    0.3623   -0.7547   -1.0781 C   0  0  0  0  0  0  0  0  0  0  0  0
   -0.1182   -1.5951   -1.5896 H   0  0  0  0  0  0  0  0  0  0  0  0
    0.3249    0.0976   -1.7653 H   0  0  0  0  0  0  0  0  0  0  0  0
    1.8070   -1.1412   -0.8461 C   0  0  0  0  0  0  0  0  0  0  0  0
    2.7694   -1.1927   -1.8315 N   0  0  0  0  0  0  0  0  0  0  0  0
    2.6313   -0.9854   -2.8184 H   0  0  0  0  0  0  0  0  0  0  0  0
    3.9690   -1.5757   -1.2631 C   0  0  0  0  0  0  0  0  0  0  0  0
    4.9060   -1.6954   -1.7997 H   0  0  0  0  0  0  0  0  0  0  0  0
    3.8139   -1.7713    0.0227 N   0  0  0  0  0  0  0  0  0  0  0  0
    2.4737   -1.5203    0.2953 C   0  0  0  0  0  0  0  0  0  0  0  0
    2.0317   -1.6159    1.2819 H   0  0  0  0  0  0  0  0  0  0  0  0
   -0.5637    1.1087    0.3679 C   0  0  0  0  0  0  0  0  0  0  0  0
   -1.4205    1.7146   -0.2662 O   0  0  0  0  0  0  0  0  0  0  0  0
    0.2304    1.7908    1.2713 N   0  0  0  0  0  0  0  0  0  0  0  0
    0.9220    1.2556    1.7900 H   0  0  0  0  0  0  0  0  0  0  0  0
    0.1333    3.2270    1.5008 C   0  0  0  0  0  0  0  0  0  0  0  0
   -0.8679    3.4918    1.8567 H   0  0  0  0  0  0  0  0  0  0  0  0
    0.8616    3.5388    2.2556 H   0  0  0  0  0  0  0  0  0  0  0  0
    0.3366    3.7777    0.5764 H   0  0  0  0  0  0  0  0  0  0  0  0
  1  2  1  0  0  0  0
  2  3  1  0  0  0  0
  2  4  1  0  0  0  0
  2  5  1  0  0  0  0
  5  6  2  0  0  0  0
  5  7  1  0  0  0  0
  7  8  1  0  0  0  0
  7  9  1  0  0  0  0
  9 10  1  0  0  0  0
  9 11  1  0  0  0  0
  9 22  1  0  0  0  0
 11 12  1  0  0  0  0
 11 13  1  0  0  0  0
 11 14  1  0  0  0  0
 14 15  1  0  0  0  0
 14 20  2  0  0  0  0
 15 16  1  0  0  0  0
 15 17  1  0  0  0  0
 17 18  1  0  0  0  0
 17 19  2  0  0  0  0
 19 20  1  0  0  0  0
 20 21  1  0  0  0  0
 22 23  2  0  0  0  0
 22 24  1  0  0  0  0
 24 25  1  0  0  0  0
 24 26  1  0  0  0  0
 26 27  1  0  0  0  0
 26 28  1  0  0  0  0
 26 29  1  0  0  0  0
M  END
$$$$

  -OEChem-04042215593D

 29 29  0     1  0  0  0  0  0999 V2000
   -3.5903   -3.6264    1.4515 H   0  0  0  0  0  0  0  0  0  0  0  0
   -3.5114   -2.7149    0.8527 C   0  0  0  0  0  0  0  0  0  0  0  0
   -4.1681   -1.9543    1.2818 H   0  0  0  0  0  0  0  0  0  0  0  0
   -3.8357   -2.9343   -0.1672 H   0  0  0  0  0  0  0  0  0  0  0  0
   -2.0780   -2.2186    0.8444 C   0  0  0  0  0  0  0  0  0  0  0  0
   -1.2158   -2.8342    1.4502 O   0  0  0  0  0  0  0  0  0  0  0  0
   -1.7544   -1.0689    0.1541 N   0  0  0  0  0  0  0  0  0  0  0  0
   -2.5216   -0.5346   -0.2506 H   0  0  0  0  0  0  0  0  0  0  0  0
   -0.4356   -0.4179    0.1904 C   0  0  1  0  0  0  0  0  0  0  0  0
    0.1042   -0.7817    1.0677 H   0  0  0  0  0  0  0  0  0  0  0  0
    0.3497   -0.7516   -1.0971 C   0  0  0  0  0  0  0  0  0  0  0  0
   -0.1295   -1.5901   -1.6130 H   0  0  0  0  0  0  0  0  0  0  0  0
    0.3129    0.1043   -1.7797 H   0  0  0  0  0  0  0  0  0  0  0  0
    1.7909   -1.1344   -0.8499 C   0  0  0  0  0  0  0  0  0  0  0  0
    2.8355   -0.9181   -1.7221 N   0  0  0  0  0  0  0  0  0  0  0  0
    2.7744   -0.4765   -2.6372 H   0  0  0  0  0  0  0  0  0  0  0  0
    3.9954   -1.4076   -1.1525 C   0  0  0  0  0  0  0  0  0  0  0  0
    4.9801   -1.3713   -1.6095 H   0  0  0  0  0  0  0  0  0  0  0  0
    3.7362   -1.9214    0.0245 N   0  0  0  0  0  0  0  0  0  0  0  0
    2.3670   -1.7750    0.2208 C   0  0  0  0  0  0  0  0  0  0  0  0
    1.8359   -2.1257    1.1007 H   0  0  0  0  0  0  0  0  0  0  0  0
   -0.5627    1.1065    0.3627 C   0  0  0  0  0  0  0  0  0  0  0  0
   -1.4236    1.7173   -0.2610 O   0  0  0  0  0  0  0  0  0  0  0  0
    0.2415    1.7824    1.2614 N   0  0  0  0  0  0  0  0  0  0  0  0
    0.9390    1.2427    1.7676 H   0  0  0  0  0  0  0  0  0  0  0  0
    0.1510    3.2175    1.4989 C   0  0  0  0  0  0  0  0  0  0  0  0
   -0.8458    3.4829    1.8665 H   0  0  0  0  0  0  0  0  0  0  0  0
    0.8880    3.5234    2.2476 H   0  0  0  0  0  0  0  0  0  0  0  0
    0.3461    3.7721    0.5751 H   0  0  0  0  0  0  0  0  0  0  0  0
  1  2  1  0  0  0  0
  2  3  1  0  0  0  0
  2  4  1  0  0  0  0
  2  5  1  0  0  0  0
  5  6  2  0  0  0  0
  5  7  1  0  0  0  0
  7  8  1  0  0  0  0
  7  9  1  0  0  0  0
  9 10  1  0  0  0  0
  9 11  1  0  0  0  0
  9 22  1  0  0  0  0
 11 12  1  0  0  0  0
 11 13  1  0  0  0  0
 11 14  1  0  0  0  0
 14 15  1  0  0  0  0
 14 20  2  0  0  0  0
 15 16  1  0  0  0  0
 15 17  1  0  0  0  0
 17 18  1  0  0  0  0
 17 19  2  0  0  0  0
 19 20  1  0  0  0  0
 20 21  1  0  0  0  0
 22 23  2  0  0  0  0
 22 24  1  0  0  0  0
 24 25  1  0  0  0  0
 24 26  1  0  0  0  0
 26 27  1  0  0  0  0
 26 28  1  0  0  0  0
 26 29  1  0  0  0  0
M  END
$$$$

  -OEChem-04042215593D

 29 29  0     1  0  0  0  0  0999 V2000
   -3.5730   -3.6405    1.4598 H   0  0  0  0  0  0  0  0  0  0  0  0
   -3.5018   -2.7293    0.8593 C   0  0  0  0  0  0  0  0  0  0  0  0
   -4.1591   -1.9708    1.2914 H   0  0  0  0  0  0  0  0  0  0  0  0
   -3.8315   -2.9518   -0.1584 H   0  0  0  0  0  0  0  0  0  0  0  0
   -2.0709   -2.2261    0.8418 C   0  0  0  0  0  0  0  0  0  0  0  0
   -1.2000   -2.8433    1.4335 O   0  0  0  0  0  0  0  0  0  0  0  0
   -1.7580   -1.0719    0.1540 N   0  0  0  0  0  0  0  0  0  0  0  0
   -2.5311   -0.5396   -0.2420 H   0  0  0  0  0  0  0  0  0  0  0  0
   -0.4399   -0.4188    0.1763 C   0  0  1  0  0  0  0  0  0  0  0  0
    0.1151   -0.7884    1.0436 H   0  0  0  0  0  0  0  0  0  0  0  0
    0.3312   -0.7500   -1.1186 C   0  0  0  0  0  0  0  0  0  0  0  0
   -0.1449   -1.5954   -1.6266 H   0  0  0  0  0  0  0  0  0  0  0  0
    0.2890    0.1005   -1.8074 H   0  0  0  0  0  0  0  0  0  0  0  0
    1.7682   -1.1249   -0.8535 C   0  0  0  0  0  0  0  0  0  0  0  0
    2.8706   -0.6759   -1.5465 N   0  0  0  0  0  0  0  0  0  0  0  0
    2.8668   -0.0303   -2.3335 H   0  0  0  0  0  0  0  0  0  0  0  0
    3.9988   -1.2561   -0.9986 C   0  0  0  0  0  0  0  0  0  0  0  0
    5.0167   -1.0844   -1.3369 H   0  0  0  0  0  0  0  0  0  0  0  0
    3.6635   -2.0432   -0.0058 N   0  0  0  0  0  0  0  0  0  0  0  0
    2.2765   -1.9843    0.0890 C   0  0  0  0  0  0  0  0  0  0  0  0
    1.6827   -2.5391    0.8101 H   0  0  0  0  0  0  0  0  0  0  0  0
   -0.5590    1.1046    0.3584 C   0  0  0  0  0  0  0  0  0  0  0  0
   -1.4190    1.7244   -0.2575 O   0  0  0  0  0  0  0  0  0  0  0  0
    0.2610    1.7710    1.2500 N   0  0  0  0  0  0  0  0  0  0  0  0
    0.9523    1.2216    1.7546 H   0  0  0  0  0  0  0  0  0  0  0  0
    0.1830    3.2057    1.4945 C   0  0  0  0  0  0  0  0  0  0  0  0
   -0.8052    3.4749    1.8818 H   0  0  0  0  0  0  0  0  0  0  0  0
    0.9360    3.5055    2.2298 H   0  0  0  0  0  0  0  0  0  0  0  0
    0.3630    3.7622    0.5688 H   0  0  0  0  0  0  0  0  0  0  0  0
  1  2  1  0  0  0  0
  2  3  1  0  0  0  0
  2  4  1  0  0  0  0
  2  5  1  0  0  0  0
  5  6  2  0  0  0  0
  5  7  1  0  0  0  0
  7  8  1  0  0  0  0
  7  9  1  0  0  0  0
  9 10  1  0  0  0  0
  9 11  1  0  0  0  0
  9 22  1  0  0  0  0
 11 12  1  0  0  0  0
 11 13  1  0  0  0  0
 11 14  1  0  0  0  0
 14 15  1  0  0  0  0
 14 20  2  0  0  0  0
 15 16  1  0  0  0  0
 15 17  1  0  0  0  0
 17 18  1  0  0  0  0
 17 19  2  0  0  0  0
 19 20  1  0  0  0  0
 20 21  1  0  0  0  0
 22 23  2  0  0  0  0
 22 24  1  0  0  0  0
 24 25  1  0  0  0  0
 24 26  1  0  0  0  0
 26 27  1  0  0  0  0
 26 28  1  0  0  0  0
 26 29  1  0  0  0  0
M  END
$$$$

  -OEChem-04042215593D

 29 29  0     1  0  0  0  0  0999 V2000
   -3.5603   -3.6454    1.4675 H   0  0  0  0  0  0  0  0  0  0  0  0
   -3.4938   -2.7351    0.8650 C   0  0  0  0  0  0  0  0  0  0  0  0
   -4.1482   -1.9761    1.3004 H   0  0  0  0  0  0  0  0  0  0  0  0
   -3.8309   -2.9591   -0.1499 H   0  0  0  0  0  0  0  0  0  0  0  0
   -2.0632   -2.2316    0.8359 C   0  0  0  0  0  0  0  0  0  0  0  0
   -1.1854   -2.8538    1.4118 O   0  0  0  0  0  0  0  0  0  0  0  0
   -1.7581   -1.0742    0.1501 N   0  0  0  0  0  0  0  0  0  0  0  0
   -2.5355   -0.5408   -0.2355 H   0  0  0  0  0  0  0  0  0  0  0  0
   -0.4409   -0.4193    0.1617 C   0  0  1  0  0  0  0  0  0  0  0  0
    0.1244   -0.7951    1.0206 H   0  0  0  0  0  0  0  0  0  0  0  0
    0.3205   -0.7513   -1.1361 C   0  0  0  0  0  0  0  0  0  0  0  0
   -0.1515   -1.6063   -1.6317 H   0  0  0  0  0  0  0  0  0  0  0  0
    0.2745    0.0897   -1.8363 H   0  0  0  0  0  0  0  0  0  0  0  0
    1.7530   -1.1183   -0.8494 C   0  0  0  0  0  0  0  0  0  0  0  0
    2.8815   -0.4805   -1.3146 N   0  0  0  0  0  0  0  0  0  0  0  0
    2.9071    0.3321   -1.9273 H   0  0  0  0  0  0  0  0  0  0  0  0
    3.9901   -1.1444   -0.8236 C   0  0  0  0  0  0  0  0  0  0  0  0
    5.0223   -0.8693   -1.0217 H   0  0  0  0  0  0  0  0  0  0  0  0
    3.6161   -2.1567   -0.0796 N   0  0  0  0  0  0  0  0  0  0  0  0
    2.2242   -2.1618   -0.0936 C   0  0  0  0  0  0  0  0  0  0  0  0
    1.6004   -2.8855    0.4234 H   0  0  0  0  0  0  0  0  0  0  0  0
   -0.5545    1.1031    0.3508 C   0  0  0  0  0  0  0  0  0  0  0  0
   -1.4167    1.7281   -0.2563 O   0  0  0  0  0  0  0  0  0  0  0  0
    0.2764    1.7641    1.2363 N   0  0  0  0  0  0  0  0  0  0  0  0
    0.9609    1.2078    1.7428 H   0  0  0  0  0  0  0  0  0  0  0  0
    0.1996    3.1968    1.4924 C   0  0  0  0  0  0  0  0  0  0  0  0
   -0.7838    3.4620    1.8942 H   0  0  0  0  0  0  0  0  0  0  0  0
    0.9615    3.4925    2.2200 H   0  0  0  0  0  0  0  0  0  0  0  0
    0.3672    3.7600    0.5685 H   0  0  0  0  0  0  0  0  0  0  0  0
  1  2  1  0  0  0  0
  2  3  1  0  0  0  0
  2  4  1  0  0  0  0
  2  5  1  0  0  0  0
  5  6  2  0  0  0  0
  5  7  1  0  0  0  0
  7  8  1  0  0  0  0
  7  9  1  0  0  0  0
  9 10  1  0  0  0  0
  9 11  1  0  0  0  0
  9 22  1  0  0  0  0
 11 12  1  0  0  0  0
 11 13  1  0  0  0  0
 11 14  1  0  0  0  0
 14 15  1  0  0  0  0
 14 20  2  0  0  0  0
 15 16  1  0  0  0  0
 15 17  1  0  0  0  0
 17 18  1  0  0  0  0
 17 19  2  0  0  0  0
 19 20  1  0  0  0  0
 20 21  1  0  0  0  0
 22 23  2  0  0  0  0
 22 24  1  0  0  0  0
 24 25  1  0  0  0  0
 24 26  1  0  0  0  0
 26 27  1  0  0  0  0
 26 28  1  0  0  0  0
 26 29  1  0  0  0  0
M  END
$$$$

  -OEChem-04042215593D

 29 29  0     1  0  0  0  0  0999 V2000
   -3.5636   -3.6403    1.4723 H   0  0  0  0  0  0  0  0  0  0  0  0
   -3.4961   -2.7315    0.8678 C   0  0  0  0  0  0  0  0  0  0  0  0
   -4.1450   -1.9689    1.3051 H   0  0  0  0  0  0  0  0  0  0  0  0
   -3.8391   -2.9560   -0.1450 H   0  0  0  0  0  0  0  0  0  0  0  0
   -2.0637   -2.2338    0.8307 C   0  0  0  0  0  0  0  0  0  0  0  0
   -1.1853   -2.8606    1.4004 O   0  0  0  0  0  0  0  0  0  0  0  0
   -1.7587   -1.0765    0.1447 N   0  0  0  0  0  0  0  0  0  0  0  0
   -2.5367   -0.5419   -0.2379 H   0  0  0  0  0  0  0  0  0  0  0  0
   -0.4409   -0.4222    0.1530 C   0  0  1  0  0  0  0  0  0  0  0  0
    0.1273   -0.8018    1.0091 H   0  0  0  0  0  0  0  0  0  0  0  0
    0.3191   -0.7582   -1.1430 C   0  0  0  0  0  0  0  0  0  0  0  0
   -0.1512   -1.6196   -1.6290 H   0  0  0  0  0  0  0  0  0  0  0  0
    0.2754    0.0743   -1.8534 H   0  0  0  0  0  0  0  0  0  0  0  0
    1.7470   -1.1211   -0.8379 C   0  0  0  0  0  0  0  0  0  0  0  0
    2.8666   -0.3464   -1.0441 N   0  0  0  0  0  0  0  0  0  0  0  0
    2.8896    0.5881   -1.4475 H   0  0  0  0  0  0  0  0  0  0  0  0
    3.9739   -1.0711   -0.6444 C   0  0  0  0  0  0  0  0  0  0  0  0
    5.0010   -0.7201   -0.6907 H   0  0  0  0  0  0  0  0  0  0  0  0
    3.6061   -2.2482   -0.1996 N   0  0  0  0  0  0  0  0  0  0  0  0
    2.2200   -2.2989   -0.3198 C   0  0  0  0  0  0  0  0  0  0  0  0
    1.6011   -3.1473   -0.0415 H   0  0  0  0  0  0  0  0  0  0  0  0
   -0.5487    1.1001    0.3424 C   0  0  0  0  0  0  0  0  0  0  0  0
   -1.4061    1.7295   -0.2667 O   0  0  0  0  0  0  0  0  0  0  0  0
    0.2874    1.7578    1.2257 N   0  0  0  0  0  0  0  0  0  0  0  0
    0.9525    1.1943    1.7499 H   0  0  0  0  0  0  0  0  0  0  0  0
    0.2073    3.1889    1.4911 C   0  0  0  0  0  0  0  0  0  0  0  0
   -0.7726    3.4479    1.9056 H   0  0  0  0  0  0  0  0  0  0  0  0
    0.9764    3.4839    2.2114 H   0  0  0  0  0  0  0  0  0  0  0  0
    0.3618    3.7584    0.5686 H   0  0  0  0  0  0  0  0  0  0  0  0
  1  2  1  0  0  0  0
  2  3  1  0  0  0  0
  2  4  1  0  0  0  0
  2  5  1  0  0  0  0
  5  6  2  0  0  0  0
  5  7  1  0  0  0  0
  7  8  1  0  0  0  0
  7  9  1  0  0  0  0
  9 10  1  0  0  0  0
  9 11  1  0  0  0  0
  9 22  1  0  0  0  0
 11 12  1  0  0  0  0
 11 13  1  0  0  0  0
 11 14  1  0  0  0  0
 14 15  1  0  0  0  0
 14 20  2  0  0  0  0
 15 16  1  0  0  0  0
 15 17  1  0  0  0  0
 17 18  1  0  0  0  0
 17 19  2  0  0  0  0
 19 20  1  0  0  0  0
 20 21  1  0  0  0  0
 22 23  2  0  0  0  0
 22 24  1  0  0  0  0
 24 25  1  0  0  0  0
 24 26  1  0  0  0  0
 26 27  1  0  0  0  0
 26 28  1  0  0  0  0
 26 29  1  0  0  0  0
M  END
$$$$

  -OEChem-04042215593D

 29 29  0     1  0  0  0  0  0999 V2000
   -3.5803   -3.6356    1.4620 H   0  0  0  0  0  0  0  0  0  0  0  0
   -3.5070   -2.7262    0.8591 C   0  0  0  0  0  0  0  0  0  0  0  0
   -4.1614   -1.9646    1.2896 H   0  0  0  0  0  0  0  0  0  0  0  0
   -3.8382   -2.9502   -0.1577 H   0  0  0  0  0  0  0  0  0  0  0  0
   -2.0748   -2.2272    0.8386 C   0  0  0  0  0  0  0  0  0  0  0  0
   -1.2045   -2.8490    1.4253 O   0  0  0  0  0  0  0  0  0  0  0  0
   -1.7617   -1.0743    0.1486 N   0  0  0  0  0  0  0  0  0  0  0  0
   -2.5350   -0.5452   -0.2508 H   0  0  0  0  0  0  0  0  0  0  0  0
   -0.4413   -0.4248    0.1546 C   0  0  1  0  0  0  0  0  0  0  0  0
    0.1256   -0.8054    1.0113 H   0  0  0  0  0  0  0  0  0  0  0  0
    0.3182   -0.7725   -1.1379 C   0  0  0  0  0  0  0  0  0  0  0  0
   -0.1566   -1.6355   -1.6166 H   0  0  0  0  0  0  0  0  0  0  0  0
    0.2798    0.0540   -1.8560 H   0  0  0  0  0  0  0  0  0  0  0  0
    1.7439   -1.1379   -0.8266 C   0  0  0  0  0  0  0  0  0  0  0  0
    2.8250   -0.2869   -0.7650 N   0  0  0  0  0  0  0  0  0  0  0  0
    2.8162    0.7158   -0.9417 H   0  0  0  0  0  0  0  0  0  0  0  0
    3.9500   -1.0374   -0.4781 C   0  0  0  0  0  0  0  0  0  0  0  0
    4.9558   -0.6406   -0.3730 H   0  0  0  0  0  0  0  0  0  0  0  0
    3.6290   -2.3022   -0.3533 N   0  0  0  0  0  0  0  0  0  0  0  0
    2.2565   -2.3829   -0.5715 C   0  0  0  0  0  0  0  0  0  0  0  0
    1.6755   -3.3001   -0.5453 H   0  0  0  0  0  0  0  0  0  0  0  0
   -0.5392    1.0986    0.3367 C   0  0  0  0  0  0  0  0  0  0  0  0
   -1.3858    1.7333   -0.2816 O   0  0  0  0  0  0  0  0  0  0  0  0
    0.3019    1.7530    1.2178 N   0  0  0  0  0  0  0  0  0  0  0  0
    0.9325    1.1802    1.7735 H   0  0  0  0  0  0  0  0  0  0  0  0
    0.2162    3.1819    1.4939 C   0  0  0  0  0  0  0  0  0  0  0  0
   -0.7617    3.4324    1.9183 H   0  0  0  0  0  0  0  0  0  0  0  0
    0.9899    3.4762    2.2096 H   0  0  0  0  0  0  0  0  0  0  0  0
    0.3597    3.7591    0.5745 H   0  0  0  0  0  0  0  0  0  0  0  0
  1  2  1  0  0  0  0
  2  3  1  0  0  0  0
  2  4  1  0  0  0  0
  2  5  1  0  0  0  0
  5  6  2  0  0  0  0
  5  7  1  0  0  0  0
  7  8  1  0  0  0  0
  7  9  1  0  0  0  0
  9 10  1  0  0  0  0
  9 11  1  0  0  0  0
  9 22  1  0  0  0  0
 11 12  1  0  0  0  0
 11 13  1  0  0  0  0
 11 14  1  0  0  0  0
 14 15  1  0  0  0  0
 14 20  2  0  0  0  0
 15 16  1  0  0  0  0
 15 17  1  0  0  0  0
 17 18  1  0  0  0  0
 17 19  2  0  0  0  0
 19 20  1  0  0  0  0
 20 21  1  0  0  0  0
 22 23  2  0  0  0  0
 22 24  1  0  0  0  0
 24 25  1  0  0  0  0
 24 26  1  0  0  0  0
 26 27  1  0  0  0  0
 26 28  1  0  0  0  0
 26 29  1  0  0  0  0
M  END
$$$$

  -OEChem-04042215593D

 29 29  0     1  0  0  0  0  0999 V2000
   -3.5904   -3.6395    1.4447 H   0  0  0  0  0  0  0  0  0  0  0  0
   -3.5132   -2.7277    0.8458 C   0  0  0  0  0  0  0  0  0  0  0  0
   -4.1822   -1.9728    1.2658 H   0  0  0  0  0  0  0  0  0  0  0  0
   -3.8231   -2.9520   -0.1776 H   0  0  0  0  0  0  0  0  0  0  0  0
   -2.0847   -2.2173    0.8539 C   0  0  0  0  0  0  0  0  0  0  0  0
   -1.2252   -2.8262    1.4691 O   0  0  0  0  0  0  0  0  0  0  0  0
   -1.7633   -1.0691    0.1598 N   0  0  0  0  0  0  0  0  0  0  0  0
   -2.5291   -0.5511   -0.2675 H   0  0  0  0  0  0  0  0  0  0  0  0
   -0.4397   -0.4260    0.1627 C   0  0  1  0  0  0  0  0  0  0  0  0
    0.1281   -0.8082    1.0182 H   0  0  0  0  0  0  0  0  0  0  0  0
    0.3136   -0.7832   -1.1320 C   0  0  0  0  0  0  0  0  0  0  0  0
   -0.1715   -1.6398   -1.6121 H   0  0  0  0  0  0  0  0  0  0  0  0
    0.2814    0.0461   -1.8470 H   0  0  0  0  0  0  0  0  0  0  0  0
    1.7397   -1.1570   -0.8301 C   0  0  0  0  0  0  0  0  0  0  0  0
    2.7682   -0.3025   -0.4987 N   0  0  0  0  0  0  0  0  0  0  0  0
    2.7172    0.7129   -0.4451 H   0  0  0  0  0  0  0  0  0  0  0  0
    3.9151   -1.0541   -0.3228 C   0  0  0  0  0  0  0  0  0  0  0  0
    4.8909   -0.6533   -0.0632 H   0  0  0  0  0  0  0  0  0  0  0  0
    3.6571   -2.3242   -0.5191 N   0  0  0  0  0  0  0  0  0  0  0  0
    2.3043   -2.4055   -0.8360 C   0  0  0  0  0  0  0  0  0  0  0  0
    1.7741   -3.3267   -1.0587 H   0  0  0  0  0  0  0  0  0  0  0  0
   -0.5297    1.0987    0.3385 C   0  0  0  0  0  0  0  0  0  0  0  0
   -1.3639    1.7378   -0.2915 O   0  0  0  0  0  0  0  0  0  0  0  0
    0.3159    1.7509    1.2176 N   0  0  0  0  0  0  0  0  0  0  0  0
    0.9024    1.1707    1.8122 H   0  0  0  0  0  0  0  0  0  0  0  0
    0.2260    3.1789    1.4982 C   0  0  0  0  0  0  0  0  0  0  0  0
   -0.7525    3.4253    1.9237 H   0  0  0  0  0  0  0  0  0  0  0  0
    0.9992    3.4734    2.2143 H   0  0  0  0  0  0  0  0  0  0  0  0
    0.3675    3.7601    0.5807 H   0  0  0  0  0  0  0  0  0  0  0  0
  1  2  1  0  0  0  0
  2  3  1  0  0  0  0
  2  4  1  0  0  0  0
  2  5  1  0  0  0  0
  5  6  2  0  0  0  0
  5  7  1  0  0  0  0
  7  8  1  0  0  0  0
  7  9  1  0  0  0  0
  9 10  1  0  0  0  0
  9 11  1  0  0  0  0
  9 22  1  0  0  0  0
 11 12  1  0  0  0  0
 11 13  1  0  0  0  0
 11 14  1  0  0  0  0
 14 15  1  0  0  0  0
 14 20  2  0  0  0  0
 15 16  1  0  0  0  0
 15 17  1  0  0  0  0
 17 18  1  0  0  0  0
 17 19  2  0  0  0  0
 19 20  1  0  0  0  0
 20 21  1  0  0  0  0
 22 23  2  0  0  0  0
 22 24  1  0  0  0  0
 24 25  1  0  0  0  0
 24 26  1  0  0  0  0
 26 27  1  0  0  0  0
 26 28  1  0  0  0  0
 26 29  1  0  0  0  0
M  END
$$$$

  -OEChem-04042215593D

 29 29  0     1  0  0  0  0  0999 V2000
   -3.5952   -3.6434    1.4299 H   0  0  0  0  0  0  0  0  0  0  0  0
   -3.5143   -2.7294    0.8347 C   0  0  0  0  0  0  0  0  0  0  0  0
   -4.1923   -1.9787    1.2478 H   0  0  0  0  0  0  0  0  0  0  0  0
   -3.8096   -2.9522   -0.1935 H   0  0  0  0  0  0  0  0  0  0  0  0
   -2.0882   -2.2126    0.8631 C   0  0  0  0  0  0  0  0  0  0  0  0
   -1.2376   -2.8102    1.5014 O   0  0  0  0  0  0  0  0  0  0  0  0
   -1.7613   -1.0663    0.1682 N   0  0  0  0  0  0  0  0  0  0  0  0
   -2.5217   -0.5569   -0.2784 H   0  0  0  0  0  0  0  0  0  0  0  0
   -0.4365   -0.4253    0.1729 C   0  0  1  0  0  0  0  0  0  0  0  0
    0.1319   -0.8092    1.0269 H   0  0  0  0  0  0  0  0  0  0  0  0
    0.3124   -0.7863   -1.1251 C   0  0  0  0  0  0  0  0  0  0  0  0
   -0.1808   -1.6348   -1.6113 H   0  0  0  0  0  0  0  0  0  0  0  0
    0.2831    0.0497   -1.8323 H   0  0  0  0  0  0  0  0  0  0  0  0
    1.7417   -1.1675   -0.8420 C   0  0  0  0  0  0  0  0  0  0  0  0
    2.7142   -0.3883   -0.2527 N   0  0  0  0  0  0  0  0  0  0  0  0
    2.6240    0.5890    0.0170 H   0  0  0  0  0  0  0  0  0  0  0  0
    3.8800   -1.1285   -0.1849 C   0  0  0  0  0  0  0  0  0  0  0  0
    4.8232   -0.7728    0.2197 H   0  0  0  0  0  0  0  0  0  0  0  0
    3.6865   -2.3235   -0.6870 N   0  0  0  0  0  0  0  0  0  0  0  0
    2.3572   -2.3652   -1.0965 C   0  0  0  0  0  0  0  0  0  0  0  0
    1.8775   -3.2250   -1.5550 H   0  0  0  0  0  0  0  0  0  0  0  0
   -0.5263    1.0998    0.3459 C   0  0  0  0  0  0  0  0  0  0  0  0
   -1.3488    1.7404   -0.2975 O   0  0  0  0  0  0  0  0  0  0  0  0
    0.3182    1.7516    1.2271 N   0  0  0  0  0  0  0  0  0  0  0  0
    0.8590    1.1683    1.8606 H   0  0  0  0  0  0  0  0  0  0  0  0
    0.2235    3.1806    1.5028 C   0  0  0  0  0  0  0  0  0  0  0  0
   -0.7555    3.4252    1.9286 H   0  0  0  0  0  0  0  0  0  0  0  0
    0.9969    3.4804    2.2165 H   0  0  0  0  0  0  0  0  0  0  0  0
    0.3618    3.7588    0.5829 H   0  0  0  0  0  0  0  0  0  0  0  0
  1  2  1  0  0  0  0
  2  3  1  0  0  0  0
  2  4  1  0  0  0  0
  2  5  1  0  0  0  0
  5  6  2  0  0  0  0
  5  7  1  0  0  0  0
  7  8  1  0  0  0  0
  7  9  1  0  0  0  0
  9 10  1  0  0  0  0
  9 11  1  0  0  0  0
  9 22  1  0  0  0  0
 11 12  1  0  0  0  0
 11 13  1  0  0  0  0
 11 14  1  0  0  0  0
 14 15  1  0  0  0  0
 14 20  2  0  0  0  0
 15 16  1  0  0  0  0
 15 17  1  0  0  0  0
 17 18  1  0  0  0  0
 17 19  2  0  0  0  0
 19 20  1  0  0  0  0
 20 21  1  0  0  0  0
 22 23  2  0  0  0  0
 22 24  1  0  0  0  0
 24 25  1  0  0  0  0
 24 26  1  0  0  0  0
 26 27  1  0  0  0  0
 26 28  1  0  0  0  0
 26 29  1  0  0  0  0
M  END
$$$$

  -OEChem-04042215593D

 29 29  0     1  0  0  0  0  0999 V2000
   -3.5941   -3.6502    1.4110 H   0  0  0  0  0  0  0  0  0  0  0  0
   -3.5100   -2.7334    0.8207 C   0  0  0  0  0  0  0  0  0  0  0  0
   -4.1982   -1.9885    1.2271 H   0  0  0  0  0  0  0  0  0  0  0  0
   -3.7895   -2.9537   -0.2123 H   0  0  0  0  0  0  0  0  0  0  0  0
   -2.0877   -2.2081    0.8718 C   0  0  0  0  0  0  0  0  0  0  0  0
   -1.2468   -2.7927    1.5348 O   0  0  0  0  0  0  0  0  0  0  0  0
   -1.7548   -1.0634    0.1769 N   0  0  0  0  0  0  0  0  0  0  0  0
   -2.5084   -0.5630   -0.2910 H   0  0  0  0  0  0  0  0  0  0  0  0
   -0.4305   -0.4215    0.1916 C   0  0  1  0  0  0  0  0  0  0  0  0
    0.1351   -0.8053    1.0471 H   0  0  0  0  0  0  0  0  0  0  0  0
    0.3188   -0.7820   -1.1085 C   0  0  0  0  0  0  0  0  0  0  0  0
   -0.1815   -1.6210   -1.6042 H   0  0  0  0  0  0  0  0  0  0  0  0
    0.2912    0.0624   -1.8059 H   0  0  0  0  0  0  0  0  0  0  0  0
    1.7525   -1.1714   -0.8502 C   0  0  0  0  0  0  0  0  0  0  0  0
    2.6748   -0.5478   -0.0364 N   0  0  0  0  0  0  0  0  0  0  0  0
    2.5490    0.3342    0.4541 H   0  0  0  0  0  0  0  0  0  0  0  0
    3.8542   -1.2677   -0.0839 C   0  0  0  0  0  0  0  0  0  0  0  0
    4.7659   -1.0082    0.4465 H   0  0  0  0  0  0  0  0  0  0  0  0
    3.7179   -2.3076   -0.8696 N   0  0  0  0  0  0  0  0  0  0  0  0
    2.4117   -2.2658   -1.3461 C   0  0  0  0  0  0  0  0  0  0  0  0
    1.9757   -2.9996   -2.0174 H   0  0  0  0  0  0  0  0  0  0  0  0
   -0.5318    1.1038    0.3603 C   0  0  0  0  0  0  0  0  0  0  0  0
   -1.3462    1.7383   -0.2993 O   0  0  0  0  0  0  0  0  0  0  0  0
    0.2996    1.7637    1.2482 N   0  0  0  0  0  0  0  0  0  0  0  0
    0.8037    1.1873    1.9162 H   0  0  0  0  0  0  0  0  0  0  0  0
    0.2018    3.1964    1.5031 C   0  0  0  0  0  0  0  0  0  0  0  0
   -0.7799    3.4463    1.9190 H   0  0  0  0  0  0  0  0  0  0  0  0
    0.9709    3.5069    2.2169 H   0  0  0  0  0  0  0  0  0  0  0  0
    0.3456    3.7619    0.5762 H   0  0  0  0  0  0  0  0  0  0  0  0
  1  2  1  0  0  0  0
  2  3  1  0  0  0  0
  2  4  1  0  0  0  0
  2  5  1  0  0  0  0
  5  6  2  0  0  0  0
  5  7  1  0  0  0  0
  7  8  1  0  0  0  0
  7  9  1  0  0  0  0
  9 10  1  0  0  0  0
  9 11  1  0  0  0  0
  9 22  1  0  0  0  0
 11 12  1  0  0  0  0
 11 13  1  0  0  0  0
 11 14  1  0  0  0  0
 14 15  1  0  0  0  0
 14 20  2  0  0  0  0
 15 16  1  0  0  0  0
 15 17  1  0  0  0  0
 17 18  1  0  0  0  0
 17 19  2  0  0  0  0
 19 20  1  0  0  0  0
 20 21  1  0  0  0  0
 22 23  2  0  0  0  0
 22 24  1  0  0  0  0
 24 25  1  0  0  0  0
 24 26  1  0  0  0  0
 26 27  1  0  0  0  0
 26 28  1  0  0  0  0
 26 29  1  0  0  0  0
M  END
$$$$

  -OEChem-04042215593D

 29 29  0     1  0  0  0  0  0999 V2000
   -3.6080   -3.6344    1.4030 H   0  0  0  0  0  0  0  0  0  0  0  0
   -3.5140   -2.7193    0.8114 C   0  0  0  0  0  0  0  0  0  0  0  0
   -4.2086   -1.9730    1.2043 H   0  0  0  0  0  0  0  0  0  0  0  0
   -3.7768   -2.9427   -0.2254 H   0  0  0  0  0  0  0  0  0  0  0  0
   -2.0924   -2.1947    0.8839 C   0  0  0  0  0  0  0  0  0  0  0  0
   -1.2663   -2.7691    1.5742 O   0  0  0  0  0  0  0  0  0  0  0  0
   -1.7441   -1.0579    0.1839 N   0  0  0  0  0  0  0  0  0  0  0  0
   -2.4860   -0.5609   -0.3063 H   0  0  0  0  0  0  0  0  0  0  0  0
   -0.4173   -0.4221    0.2175 C   0  0  1  0  0  0  0  0  0  0  0  0
    0.1374   -0.8004    1.0815 H   0  0  0  0  0  0  0  0  0  0  0  0
    0.3415   -0.7822   -1.0794 C   0  0  0  0  0  0  0  0  0  0  0  0
   -0.1662   -1.6095   -1.5869 H   0  0  0  0  0  0  0  0  0  0  0  0
    0.3223    0.0699   -1.7677 H   0  0  0  0  0  0  0  0  0  0  0  0
    1.7765   -1.1886   -0.8424 C   0  0  0  0  0  0  0  0  0  0  0  0
    2.6521   -0.7916    0.1471 N   0  0  0  0  0  0  0  0  0  0  0  0
    2.4736   -0.1053    0.8742 H   0  0  0  0  0  0  0  0  0  0  0  0
    3.8487   -1.4605   -0.0318 C   0  0  0  0  0  0  0  0  0  0  0  0
    4.7296   -1.3437    0.5932 H   0  0  0  0  0  0  0  0  0  0  0  0
    3.7709   -2.2552   -1.0704 N   0  0  0  0  0  0  0  0  0  0  0  0
    2.4852   -2.1033   -1.5780 C   0  0  0  0  0  0  0  0  0  0  0  0
    2.0971   -2.6381   -2.4399 H   0  0  0  0  0  0  0  0  0  0  0  0
   -0.5373    1.1052    0.3715 C   0  0  0  0  0  0  0  0  0  0  0  0
   -1.3538    1.7213   -0.3034 O   0  0  0  0  0  0  0  0  0  0  0  0
    0.2651    1.7892    1.2676 N   0  0  0  0  0  0  0  0  0  0  0  0
    0.7870    1.2332    1.9377 H   0  0  0  0  0  0  0  0  0  0  0  0
    0.1423    3.2236    1.5014 C   0  0  0  0  0  0  0  0  0  0  0  0
   -0.8475    3.4640    1.9036 H   0  0  0  0  0  0  0  0  0  0  0  0
    0.8989    3.5562    2.2186 H   0  0  0  0  0  0  0  0  0  0  0  0
    0.2872    3.7780    0.5679 H   0  0  0  0  0  0  0  0  0  0  0  0
  1  2  1  0  0  0  0
  2  3  1  0  0  0  0
  2  4  1  0  0  0  0
  2  5  1  0  0  0  0
  5  6  2  0  0  0  0
  5  7  1  0  0  0  0
  7  8  1  0  0  0  0
  7  9  1  0  0  0  0
  9 10  1  0  0  0  0
  9 11  1  0  0  0  0
  9 22  1  0  0  0  0
 11 12  1  0  0  0  0
 11 13  1  0  0  0  0
 11 14  1  0  0  0  0
 14 15  1  0  0  0  0
 14 20  2  0  0  0  0
 15 16  1  0  0  0  0
 15 17  1  0  0  0  0
 17 18  1  0  0  0  0
 17 19  2  0  0  0  0
 19 20  1  0  0  0  0
 20 21  1  0  0  0  0
 22 23  2  0  0  0  0
 22 24  1  0  0  0  0
 24 25  1  0  0  0  0
 24 26  1  0  0  0  0
 26 27  1  0  0  0  0
 26 28  1  0  0  0  0
 26 29  1  0  0  0  0
M  END
$$$$

  -OEChem-04042215593D

 29 29  0     1  0  0  0  0  0999 V2000
   -3.6468   -3.6182    1.4053 H   0  0  0  0  0  0  0  0  0  0  0  0
   -3.5409   -2.7038    0.8149 C   0  0  0  0  0  0  0  0  0  0  0  0
   -4.2278   -1.9497    1.2065 H   0  0  0  0  0  0  0  0  0  0  0  0
   -3.8037   -2.9228   -0.2229 H   0  0  0  0  0  0  0  0  0  0  0  0
   -2.1139   -2.1948    0.8902 C   0  0  0  0  0  0  0  0  0  0  0  0
   -1.2936   -2.7769    1.5817 O   0  0  0  0  0  0  0  0  0  0  0  0
   -1.7522   -1.0646    0.1869 N   0  0  0  0  0  0  0  0  0  0  0  0
   -2.4909   -0.5535   -0.2938 H   0  0  0  0  0  0  0  0  0  0  0  0
   -0.4212   -0.4388    0.2290 C   0  0  1  0  0  0  0  0  0  0  0  0
    0.1193   -0.8130    1.1024 H   0  0  0  0  0  0  0  0  0  0  0  0
    0.3532   -0.7918   -1.0598 C   0  0  0  0  0  0  0  0  0  0  0  0
   -0.1519   -1.6180   -1.5716 H   0  0  0  0  0  0  0  0  0  0  0  0
    0.3390    0.0609   -1.7476 H   0  0  0  0  0  0  0  0  0  0  0  0
    1.7866   -1.2083   -0.8212 C   0  0  0  0  0  0  0  0  0  0  0  0
    2.5893   -1.0688    0.2934 N   0  0  0  0  0  0  0  0  0  0  0  0
    2.3088   -0.7080    1.2006 H   0  0  0  0  0  0  0  0  0  0  0  0
    3.8278   -1.6157    0.0132 C   0  0  0  0  0  0  0  0  0  0  0  0
    4.6619   -1.6628    0.7074 H   0  0  0  0  0  0  0  0  0  0  0  0
    3.8518   -2.0754   -1.2131 N   0  0  0  0  0  0  0  0  0  0  0  0
    2.5886   -1.8337   -1.7405 C   0  0  0  0  0  0  0  0  0  0  0  0
    2.2805   -2.1022   -2.7466 H   0  0  0  0  0  0  0  0  0  0  0  0
   -0.5448    1.0904    0.3738 C   0  0  0  0  0  0  0  0  0  0  0  0
   -1.3871    1.6931   -0.2820 O   0  0  0  0  0  0  0  0  0  0  0  0
    0.2445    1.7882    1.2703 N   0  0  0  0  0  0  0  0  0  0  0  0
    0.8714    1.2555    1.8641 H   0  0  0  0  0  0  0  0  0  0  0  0
    0.1323    3.2271    1.4789 C   0  0  0  0  0  0  0  0  0  0  0  0
   -0.8632    3.4835    1.8564 H   0  0  0  0  0  0  0  0  0  0  0  0
    0.8763    3.5634    2.2074 H   0  0  0  0  0  0  0  0  0  0  0  0
    0.3021    3.7649    0.5400 H   0  0  0  0  0  0  0  0  0  0  0  0
  1  2  1  0  0  0  0
  2  3  1  0  0  0  0
  2  4  1  0  0  0  0
  2  5  1  0  0  0  0
  5  6  2  0  0  0  0
  5  7  1  0  0  0  0
  7  8  1  0  0  0  0
  7  9  1  0  0  0  0
  9 10  1  0  0  0  0
  9 11  1  0  0  0  0
  9 22  1  0  0  0  0
 11 12  1  0  0  0  0
 11 13  1  0  0  0  0
 11 14  1  0  0  0  0
 14 15  1  0  0  0  0
 14 20  2  0  0  0  0
 15 16  1  0  0  0  0
 15 17  1  0  0  0  0
 17 18  1  0  0  0  0
 17 19  2  0  0  0  0
 19 20  1  0  0  0  0
 20 21  1  0  0  0  0
 22 23  2  0  0  0  0
 22 24  1  0  0  0  0
 24 25  1  0  0  0  0
 24 26  1  0  0  0  0
 26 27  1  0  0  0  0
 26 28  1  0  0  0  0
 26 29  1  0  0  0  0
M  END
$$$$

  -OEChem-04042215593D

 29 29  0     1  0  0  0  0  0999 V2000
   -3.6713   -3.6047    1.4355 H   0  0  0  0  0  0  0  0  0  0  0  0
   -3.5655   -2.6960    0.8363 C   0  0  0  0  0  0  0  0  0  0  0  0
   -4.2338   -1.9300    1.2367 H   0  0  0  0  0  0  0  0  0  0  0  0
   -3.8525   -2.9188   -0.1942 H   0  0  0  0  0  0  0  0  0  0  0  0
   -2.1305   -2.2060    0.8790 C   0  0  0  0  0  0  0  0  0  0  0  0
   -1.2995   -2.8051    1.5439 O   0  0  0  0  0  0  0  0  0  0  0  0
   -1.7706   -1.0748    0.1762 N   0  0  0  0  0  0  0  0  0  0  0  0
   -2.5136   -0.5452   -0.2775 H   0  0  0  0  0  0  0  0  0  0  0  0
   -0.4360   -0.4573    0.2156 C   0  0  1  0  0  0  0  0  0  0  0  0
    0.0966   -0.8318    1.0928 H   0  0  0  0  0  0  0  0  0  0  0  0
    0.3439   -0.8046   -1.0708 C   0  0  0  0  0  0  0  0  0  0  0  0
   -0.1565   -1.6378   -1.5754 H   0  0  0  0  0  0  0  0  0  0  0  0
    0.3261    0.0422   -1.7662 H   0  0  0  0  0  0  0  0  0  0  0  0
    1.7746   -1.2255   -0.8241 C   0  0  0  0  0  0  0  0  0  0  0  0
    2.4807   -1.3482    0.3561 N   0  0  0  0  0  0  0  0  0  0  0  0
    2.0921   -1.3139    1.2958 H   0  0  0  0  0  0  0  0  0  0  0  0
    3.7748   -1.7297    0.0547 C   0  0  0  0  0  0  0  0  0  0  0  0
    4.5538   -1.9284    0.7854 H   0  0  0  0  0  0  0  0  0  0  0  0
    3.9273   -1.8240   -1.2431 N   0  0  0  0  0  0  0  0  0  0  0  0
    2.6923   -1.5136   -1.8008 C   0  0  0  0  0  0  0  0  0  0  0  0
    2.4856   -1.4958   -2.8666 H   0  0  0  0  0  0  0  0  0  0  0  0
   -0.5459    1.0721    0.3665 C   0  0  0  0  0  0  0  0  0  0  0  0
   -1.4018    1.6804   -0.2662 O   0  0  0  0  0  0  0  0  0  0  0  0
    0.2536    1.7591    1.2619 N   0  0  0  0  0  0  0  0  0  0  0  0
    0.9518    1.2311    1.7760 H   0  0  0  0  0  0  0  0  0  0  0  0
    0.1731    3.2011    1.4615 C   0  0  0  0  0  0  0  0  0  0  0  0
   -0.8208    3.4824    1.8250 H   0  0  0  0  0  0  0  0  0  0  0  0
    0.9146    3.5234    2.1988 H   0  0  0  0  0  0  0  0  0  0  0  0
    0.3679    3.7295    0.5221 H   0  0  0  0  0  0  0  0  0  0  0  0
  1  2  1  0  0  0  0
  2  3  1  0  0  0  0
  2  4  1  0  0  0  0
  2  5  1  0  0  0  0
  5  6  2  0  0  0  0
  5  7  1  0  0  0  0
  7  8  1  0  0  0  0
  7  9  1  0  0  0  0
  9 10  1  0  0  0  0
  9 11  1  0  0  0  0
  9 22  1  0  0  0  0
 11 12  1  0  0  0  0
 11 13  1  0  0  0  0
 11 14  1  0  0  0  0
 14 15  1  0  0  0  0
 14 20  2  0  0  0  0
 15 16  1  0  0  0  0
 15 17  1  0  0  0  0
 17 18  1  0  0  0  0
 17 19  2  0  0  0  0
 19 20  1  0  0  0  0
 20 21  1  0  0  0  0
 22 23  2  0  0  0  0
 22 24  1  0  0  0  0
 24 25  1  0  0  0  0
 24 26  1  0  0  0  0
 26 27  1  0  0  0  0
 26 28  1  0  0  0  0
 26 29  1  0  0  0  0
M  END
$$$$

  -OEChem-04042215593D

 29 29  0     1  0  0  0  0  0999 V2000
   -3.6636   -3.5993    1.4694 H   0  0  0  0  0  0  0  0  0  0  0  0
   -3.5666   -2.6950    0.8622 C   0  0  0  0  0  0  0  0  0  0  0  0
   -4.2148   -1.9198    1.2780 H   0  0  0  0  0  0  0  0  0  0  0  0
   -3.8865   -2.9199   -0.1581 H   0  0  0  0  0  0  0  0  0  0  0  0
   -2.1264   -2.2191    0.8591 C   0  0  0  0  0  0  0  0  0  0  0  0
   -1.2755   -2.8378    1.4809 O   0  0  0  0  0  0  0  0  0  0  0  0
   -1.7809   -1.0813    0.1595 N   0  0  0  0  0  0  0  0  0  0  0  0
   -2.5349   -0.5346   -0.2543 H   0  0  0  0  0  0  0  0  0  0  0  0
   -0.4451   -0.4671    0.1881 C   0  0  1  0  0  0  0  0  0  0  0  0
    0.0908   -0.8431    1.0622 H   0  0  0  0  0  0  0  0  0  0  0  0
    0.3280   -0.8080   -1.1041 C   0  0  0  0  0  0  0  0  0  0  0  0
   -0.1712   -1.6463   -1.6012 H   0  0  0  0  0  0  0  0  0  0  0  0
    0.3030    0.0357   -1.8029 H   0  0  0  0  0  0  0  0  0  0  0  0
    1.7577   -1.2291   -0.8533 C   0  0  0  0  0  0  0  0  0  0  0  0
    2.3672   -1.6168    0.3231 N   0  0  0  0  0  0  0  0  0  0  0  0
    1.8925   -1.8470    1.1952 H   0  0  0  0  0  0  0  0  0  0  0  0
    3.7048   -1.8518    0.0673 C   0  0  0  0  0  0  0  0  0  0  0  0
    4.4292   -2.1992    0.7984 H   0  0  0  0  0  0  0  0  0  0  0  0
    3.9740   -1.5994   -1.1902 N   0  0  0  0  0  0  0  0  0  0  0  0
    2.7735   -1.2089   -1.7734 C   0  0  0  0  0  0  0  0  0  0  0  0
    2.6602   -0.9188   -2.8138 H   0  0  0  0  0  0  0  0  0  0  0  0
   -0.5433    1.0611    0.3544 C   0  0  0  0  0  0  0  0  0  0  0  0
   -1.4121    1.6792   -0.2507 O   0  0  0  0  0  0  0  0  0  0  0  0
    0.2737    1.7315    1.2463 N   0  0  0  0  0  0  0  0  0  0  0  0
    1.0004    1.1973    1.7137 H   0  0  0  0  0  0  0  0  0  0  0  0
    0.2140    3.1729    1.4561 C   0  0  0  0  0  0  0  0  0  0  0  0
   -0.7750    3.4655    1.8242 H   0  0  0  0  0  0  0  0  0  0  0  0
    0.9612    3.4797    2.1943 H   0  0  0  0  0  0  0  0  0  0  0  0
    0.4141    3.7050    0.5200 H   0  0  0  0  0  0  0  0  0  0  0  0
  1  2  1  0  0  0  0
  2  3  1  0  0  0  0
  2  4  1  0  0  0  0
  2  5  1  0  0  0  0
  5  6  2  0  0  0  0
  5  7  1  0  0  0  0
  7  8  1  0  0  0  0
  7  9  1  0  0  0  0
  9 10  1  0  0  0  0
  9 11  1  0  0  0  0
  9 22  1  0  0  0  0
 11 12  1  0  0  0  0
 11 13  1  0  0  0  0
 11 14  1  0  0  0  0
 14 15  1  0  0  0  0
 14 20  2  0  0  0  0
 15 16  1  0  0  0  0
 15 17  1  0  0  0  0
 17 18  1  0  0  0  0
 17 19  2  0  0  0  0
 19 20  1  0  0  0  0
 20 21  1  0  0  0  0
 22 23  2  0  0  0  0
 22 24  1  0  0  0  0
 24 25  1  0  0  0  0
 24 26  1  0  0  0  0
 26 27  1  0  0  0  0
 26 28  1  0  0  0  0
 26 29  1  0  0  0  0
M  END
$$$$

  -OEChem-04042215593D

 29 29  0     1  0  0  0  0  0999 V2000
   -3.6181   -3.6106    1.4921 H   0  0  0  0  0  0  0  0  0  0  0  0
   -3.5399   -2.7058    0.8829 C   0  0  0  0  0  0  0  0  0  0  0  0
   -4.1748   -1.9310    1.3197 H   0  0  0  0  0  0  0  0  0  0  0  0
   -3.8917   -2.9293   -0.1271 H   0  0  0  0  0  0  0  0  0  0  0  0
   -2.1003   -2.2308    0.8351 C   0  0  0  0  0  0  0  0  0  0  0  0
   -1.2248   -2.8655    1.4057 O   0  0  0  0  0  0  0  0  0  0  0  0
   -1.7784   -1.0822    0.1419 N   0  0  0  0  0  0  0  0  0  0  0  0
   -2.5452   -0.5242   -0.2312 H   0  0  0  0  0  0  0  0  0  0  0  0
   -0.4450   -0.4637    0.1564 C   0  0  1  0  0  0  0  0  0  0  0  0
    0.1045   -0.8424    1.0212 H   0  0  0  0  0  0  0  0  0  0  0  0
    0.3111   -0.7960   -1.1468 C   0  0  0  0  0  0  0  0  0  0  0  0
   -0.1873   -1.6350   -1.6433 H   0  0  0  0  0  0  0  0  0  0  0  0
    0.2795    0.0512   -1.8411 H   0  0  0  0  0  0  0  0  0  0  0  0
    1.7396   -1.2109   -0.8913 C   0  0  0  0  0  0  0  0  0  0  0  0
    2.2582   -1.8535    0.2139 N   0  0  0  0  0  0  0  0  0  0  0  0
    1.7166   -2.2734    0.9703 H   0  0  0  0  0  0  0  0  0  0  0  0
    3.6223   -1.9897    0.0408 C   0  0  0  0  0  0  0  0  0  0  0  0
    4.2954   -2.4802    0.7384 H   0  0  0  0  0  0  0  0  0  0  0  0
    3.9886   -1.4419   -1.0929 N   0  0  0  0  0  0  0  0  0  0  0  0
    2.8277   -0.9529   -1.6831 C   0  0  0  0  0  0  0  0  0  0  0  0
    2.7916   -0.4308   -2.6347 H   0  0  0  0  0  0  0  0  0  0  0  0
   -0.5401    1.0617    0.3434 C   0  0  0  0  0  0  0  0  0  0  0  0
   -1.4212    1.6875   -0.2355 O   0  0  0  0  0  0  0  0  0  0  0  0
    0.2933    1.7179    1.2304 N   0  0  0  0  0  0  0  0  0  0  0  0
    1.0327    1.1765    1.6698 H   0  0  0  0  0  0  0  0  0  0  0  0
    0.2391    3.1556    1.4646 C   0  0  0  0  0  0  0  0  0  0  0  0
   -0.7450    3.4444    1.8486 H   0  0  0  0  0  0  0  0  0  0  0  0
    0.9952    3.4483    2.1995 H   0  0  0  0  0  0  0  0  0  0  0  0
    0.4300    3.7027    0.5353 H   0  0  0  0  0  0  0  0  0  0  0  0
  1  2  1  0  0  0  0
  2  3  1  0  0  0  0
  2  4  1  0  0  0  0
  2  5  1  0  0  0  0
  5  6  2  0  0  0  0
  5  7  1  0  0  0  0
  7  8  1  0  0  0  0
  7  9  1  0  0  0  0
  9 10  1  0  0  0  0
  9 11  1  0  0  0  0
  9 22  1  0  0  0  0
 11 12  1  0  0  0  0
 11 13  1  0  0  0  0
 11 14  1  0  0  0  0
 14 15  1  0  0  0  0
 14 20  2  0  0  0  0
 15 16  1  0  0  0  0
 15 17  1  0  0  0  0
 17 18  1  0  0  0  0
 17 19  2  0  0  0  0
 19 20  1  0  0  0  0
 20 21  1  0  0  0  0
 22 23  2  0  0  0  0
 22 24  1  0  0  0  0
 24 25  1  0  0  0  0
 24 26  1  0  0  0  0
 26 27  1  0  0  0  0
 26 28  1  0  0  0  0
 26 29  1  0  0  0  0
M  END
$$$$

  -OEChem-04042215593D

 29 29  0     1  0  0  0  0  0999 V2000
   -3.5572   -3.6274    1.5130 H   0  0  0  0  0  0  0  0  0  0  0  0
   -3.5023   -2.7211    0.9034 C   0  0  0  0  0  0  0  0  0  0  0  0
   -4.1177   -1.9468    1.3677 H   0  0  0  0  0  0  0  0  0  0  0  0
   -3.8953   -2.9407   -0.0922 H   0  0  0  0  0  0  0  0  0  0  0  0
   -2.0651   -2.2478    0.7983 C   0  0  0  0  0  0  0  0  0  0  0  0
   -1.1639   -2.9027    1.3036 O   0  0  0  0  0  0  0  0  0  0  0  0
   -1.7716   -1.0843    0.1172 N   0  0  0  0  0  0  0  0  0  0  0  0
   -2.5535   -0.5157   -0.2057 H   0  0  0  0  0  0  0  0  0  0  0  0
   -0.4436   -0.4545    0.1190 C   0  0  1  0  0  0  0  0  0  0  0  0
    0.1218   -0.8395    0.9721 H   0  0  0  0  0  0  0  0  0  0  0  0
    0.2975   -0.7768   -1.1931 C   0  0  0  0  0  0  0  0  0  0  0  0
   -0.1950   -1.6163   -1.6947 H   0  0  0  0  0  0  0  0  0  0  0  0
    0.2610    0.0759   -1.8801 H   0  0  0  0  0  0  0  0  0  0  0  0
    1.7243   -1.1763   -0.9207 C   0  0  0  0  0  0  0  0  0  0  0  0
    2.1666   -2.0483    0.0512 N   0  0  0  0  0  0  0  0  0  0  0  0
    1.5758   -2.6044    0.6723 H   0  0  0  0  0  0  0  0  0  0  0  0
    3.5446   -2.1159   -0.0190 C   0  0  0  0  0  0  0  0  0  0  0  0
    4.1733   -2.7339    0.6161 H   0  0  0  0  0  0  0  0  0  0  0  0
    3.9857   -1.3216   -0.9658 N   0  0  0  0  0  0  0  0  0  0  0  0
    2.8628   -0.7327   -1.5394 C   0  0  0  0  0  0  0  0  0  0  0  0
    2.8878   -0.0163   -2.3552 H   0  0  0  0  0  0  0  0  0  0  0  0
   -0.5401    1.0666    0.3328 C   0  0  0  0  0  0  0  0  0  0  0  0
   -1.4363    1.6977   -0.2161 O   0  0  0  0  0  0  0  0  0  0  0  0
    0.3080    1.7092    1.2157 N   0  0  0  0  0  0  0  0  0  0  0  0
    1.0584    1.1617    1.6291 H   0  0  0  0  0  0  0  0  0  0  0  0
    0.2545    3.1422    1.4775 C   0  0  0  0  0  0  0  0  0  0  0  0
   -0.7261    3.4225    1.8765 H   0  0  0  0  0  0  0  0  0  0  0  0
    1.0175    3.4216    2.2104 H   0  0  0  0  0  0  0  0  0  0  0  0
    0.4354    3.7069    0.5568 H   0  0  0  0  0  0  0  0  0  0  0  0
  1  2  1  0  0  0  0
  2  3  1  0  0  0  0
  2  4  1  0  0  0  0
  2  5  1  0  0  0  0
  5  6  2  0  0  0  0
  5  7  1  0  0  0  0
  7  8  1  0  0  0  0
  7  9  1  0  0  0  0
  9 10  1  0  0  0  0
  9 11  1  0  0  0  0
  9 22  1  0  0  0  0
 11 12  1  0  0  0  0
 11 13  1  0  0  0  0
 11 14  1  0  0  0  0
 14 15  1  0  0  0  0
 14 20  2  0  0  0  0
 15 16  1  0  0  0  0
 15 17  1  0  0  0  0
 17 18  1  0  0  0  0
 17 19  2  0  0  0  0
 19 20  1  0  0  0  0
 20 21  1  0  0  0  0
 22 23  2  0  0  0  0
 22 24  1  0  0  0  0
 24 25  1  0  0  0  0
 24 26  1  0  0  0  0
 26 27  1  0  0  0  0
 26 28  1  0  0  0  0
 26 29  1  0  0  0  0
M  END
$$$$

  -OEChem-04042215593D

 29 29  0     1  0  0  0  0  0999 V2000
   -3.5078   -3.6417    1.5179 H   0  0  0  0  0  0  0  0  0  0  0  0
   -3.4691   -2.7355    0.9069 C   0  0  0  0  0  0  0  0  0  0  0  0
   -4.0748   -1.9622    1.3859 H   0  0  0  0  0  0  0  0  0  0  0  0
   -3.8853   -2.9564   -0.0791 H   0  0  0  0  0  0  0  0  0  0  0  0
   -2.0357   -2.2598    0.7675 C   0  0  0  0  0  0  0  0  0  0  0  0
   -1.1183   -2.9315    1.2189 O   0  0  0  0  0  0  0  0  0  0  0  0
   -1.7636   -1.0844    0.0985 N   0  0  0  0  0  0  0  0  0  0  0  0
   -2.5566   -0.5110   -0.1857 H   0  0  0  0  0  0  0  0  0  0  0  0
   -0.4422   -0.4413    0.0932 C   0  0  1  0  0  0  0  0  0  0  0  0
    0.1348   -0.8338    0.9364 H   0  0  0  0  0  0  0  0  0  0  0  0
    0.2893   -0.7611   -1.2221 C   0  0  0  0  0  0  0  0  0  0  0  0
   -0.1948   -1.6026   -1.7286 H   0  0  0  0  0  0  0  0  0  0  0  0
    0.2505    0.0957   -1.9040 H   0  0  0  0  0  0  0  0  0  0  0  0
    1.7141   -1.1423   -0.9290 C   0  0  0  0  0  0  0  0  0  0  0  0
    2.1180   -2.2019   -0.1475 N   0  0  0  0  0  0  0  0  0  0  0  0
    1.5039   -2.8609    0.3353 H   0  0  0  0  0  0  0  0  0  0  0  0
    3.4993   -2.2216   -0.1251 C   0  0  0  0  0  0  0  0  0  0  0  0
    4.1052   -2.9453    0.4128 H   0  0  0  0  0  0  0  0  0  0  0  0
    3.9746   -1.2329   -0.8464 N   0  0  0  0  0  0  0  0  0  0  0  0
    2.8731   -0.5574   -1.3631 C   0  0  0  0  0  0  0  0  0  0  0  0
    2.9265    0.3113   -2.0124 H   0  0  0  0  0  0  0  0  0  0  0  0
   -0.5417    1.0764    0.3272 C   0  0  0  0  0  0  0  0  0  0  0  0
   -1.4465    1.7112   -0.2028 O   0  0  0  0  0  0  0  0  0  0  0  0
    0.3153    1.7105    1.2076 N   0  0  0  0  0  0  0  0  0  0  0  0
    1.0665    1.1575    1.6127 H   0  0  0  0  0  0  0  0  0  0  0  0
    0.2588    3.1391    1.4927 C   0  0  0  0  0  0  0  0  0  0  0  0
   -0.7197    3.4100    1.9032 H   0  0  0  0  0  0  0  0  0  0  0  0
    1.0262    3.4089    2.2247 H   0  0  0  0  0  0  0  0  0  0  0  0
    0.4314    3.7192    0.5802 H   0  0  0  0  0  0  0  0  0  0  0  0
  1  2  1  0  0  0  0
  2  3  1  0  0  0  0
  2  4  1  0  0  0  0
  2  5  1  0  0  0  0
  5  6  2  0  0  0  0
  5  7  1  0  0  0  0
  7  8  1  0  0  0  0
  7  9  1  0  0  0  0
  9 10  1  0  0  0  0
  9 11  1  0  0  0  0
  9 22  1  0  0  0  0
 11 12  1  0  0  0  0
 11 13  1  0  0  0  0
 11 14  1  0  0  0  0
 14 15  1  0  0  0  0
 14 20  2  0  0  0  0
 15 16  1  0  0  0  0
 15 17  1  0  0  0  0
 17 18  1  0  0  0  0
 17 19  2  0  0  0  0
 19 20  1  0  0  0  0
 20 21  1  0  0  0  0
 22 23  2  0  0  0  0
 22 24  1  0  0  0  0
 24 25  1  0  0  0  0
 24 26  1  0  0  0  0
 26 27  1  0  0  0  0
 26 28  1  0  0  0  0
 26 29  1  0  0  0  0
M  END
$$$$

  -OEChem-04042215593D

 29 29  0     1  0  0  0  0  0999 V2000
   -3.5026   -3.6443    1.5086 H   0  0  0  0  0  0  0  0  0  0  0  0
   -3.4655   -2.7369    0.8994 C   0  0  0  0  0  0  0  0  0  0  0  0
   -4.0662   -1.9634    1.3839 H   0  0  0  0  0  0  0  0  0  0  0  0
   -3.8883   -2.9542   -0.0845 H   0  0  0  0  0  0  0  0  0  0  0  0
   -2.0319   -2.2643    0.7523 C   0  0  0  0  0  0  0  0  0  0  0  0
   -1.1141   -2.9472    1.1838 O   0  0  0  0  0  0  0  0  0  0  0  0
   -1.7620   -1.0842    0.0906 N   0  0  0  0  0  0  0  0  0  0  0  0
   -2.5576   -0.5085   -0.1819 H   0  0  0  0  0  0  0  0  0  0  0  0
   -0.4432   -0.4342    0.0844 C   0  0  1  0  0  0  0  0  0  0  0  0
    0.1371   -0.8329    0.9237 H   0  0  0  0  0  0  0  0  0  0  0  0
    0.2886   -0.7577   -1.2282 C   0  0  0  0  0  0  0  0  0  0  0  0
   -0.1903   -1.5995   -1.7393 H   0  0  0  0  0  0  0  0  0  0  0  0
    0.2512    0.1007   -1.9078 H   0  0  0  0  0  0  0  0  0  0  0  0
    1.7123   -1.1278   -0.9213 C   0  0  0  0  0  0  0  0  0  0  0  0
    2.1338   -2.3205   -0.3796 N   0  0  0  0  0  0  0  0  0  0  0  0
    1.5321   -3.0789   -0.0551 H   0  0  0  0  0  0  0  0  0  0  0  0
    3.5112   -2.2854   -0.2768 C   0  0  0  0  0  0  0  0  0  0  0  0
    4.1277   -3.0822    0.1294 H   0  0  0  0  0  0  0  0  0  0  0  0
    3.9680   -1.1434   -0.7361 N   0  0  0  0  0  0  0  0  0  0  0  0
    2.8585   -0.4174   -1.1572 C   0  0  0  0  0  0  0  0  0  0  0  0
    2.8970    0.5713   -1.6047 H   0  0  0  0  0  0  0  0  0  0  0  0
   -0.5418    1.0819    0.3260 C   0  0  0  0  0  0  0  0  0  0  0  0
   -1.4452    1.7195   -0.2027 O   0  0  0  0  0  0  0  0  0  0  0  0
    0.3184    1.7122    1.2062 N   0  0  0  0  0  0  0  0  0  0  0  0
    1.0613    1.1538    1.6195 H   0  0  0  0  0  0  0  0  0  0  0  0
    0.2589    3.1382    1.5033 C   0  0  0  0  0  0  0  0  0  0  0  0
   -0.7190    3.4037    1.9184 H   0  0  0  0  0  0  0  0  0  0  0  0
    1.0275    3.4039    2.2354 H   0  0  0  0  0  0  0  0  0  0  0  0
    0.4275    3.7263    0.5951 H   0  0  0  0  0  0  0  0  0  0  0  0
  1  2  1  0  0  0  0
  2  3  1  0  0  0  0
  2  4  1  0  0  0  0
  2  5  1  0  0  0  0
  5  6  2  0  0  0  0
  5  7  1  0  0  0  0
  7  8  1  0  0  0  0
  7  9  1  0  0  0  0
  9 10  1  0  0  0  0
  9 11  1  0  0  0  0
  9 22  1  0  0  0  0
 11 12  1  0  0  0  0
 11 13  1  0  0  0  0
 11 14  1  0  0  0  0
 14 15  1  0  0  0  0
 14 20  2  0  0  0  0
 15 16  1  0  0  0  0
 15 17  1  0  0  0  0
 17 18  1  0  0  0  0
 17 19  2  0  0  0  0
 19 20  1  0  0  0  0
 20 21  1  0  0  0  0
 22 23  2  0  0  0  0
 22 24  1  0  0  0  0
 24 25  1  0  0  0  0
 24 26  1  0  0  0  0
 26 27  1  0  0  0  0
 26 28  1  0  0  0  0
 26 29  1  0  0  0  0
M  END
$$$$

  -OEChem-04042215593D

 29 29  0     1  0  0  0  0  0999 V2000
   -3.5308   -3.6340    1.4982 H   0  0  0  0  0  0  0  0  0  0  0  0
   -3.4830   -2.7256    0.8913 C   0  0  0  0  0  0  0  0  0  0  0  0
   -4.0807   -1.9485    1.3738 H   0  0  0  0  0  0  0  0  0  0  0  0
   -3.9013   -2.9374   -0.0956 H   0  0  0  0  0  0  0  0  0  0  0  0
   -2.0449   -2.2632    0.7547 C   0  0  0  0  0  0  0  0  0  0  0  0
   -1.1373   -2.9498    1.1991 O   0  0  0  0  0  0  0  0  0  0  0  0
   -1.7639   -1.0853    0.0941 N   0  0  0  0  0  0  0  0  0  0  0  0
   -2.5565   -0.5110   -0.1896 H   0  0  0  0  0  0  0  0  0  0  0  0
   -0.4444   -0.4355    0.0882 C   0  0  1  0  0  0  0  0  0  0  0  0
    0.1346   -0.8373    0.9271 H   0  0  0  0  0  0  0  0  0  0  0  0
    0.2915   -0.7615   -1.2216 C   0  0  0  0  0  0  0  0  0  0  0  0
   -0.1885   -1.6006   -1.7359 H   0  0  0  0  0  0  0  0  0  0  0  0
    0.2567    0.0982   -1.9000 H   0  0  0  0  0  0  0  0  0  0  0  0
    1.7166   -1.1296   -0.9158 C   0  0  0  0  0  0  0  0  0  0  0  0
    2.1981   -2.3902   -0.6480 N   0  0  0  0  0  0  0  0  0  0  0  0
    1.6383   -3.2340   -0.5282 H   0  0  0  0  0  0  0  0  0  0  0  0
    3.5637   -2.3004   -0.4573 C   0  0  0  0  0  0  0  0  0  0  0  0
    4.2150   -3.1329   -0.2068 H   0  0  0  0  0  0  0  0  0  0  0  0
    3.9604   -1.0590   -0.6154 N   0  0  0  0  0  0  0  0  0  0  0  0
    2.8216   -0.3211   -0.9190 C   0  0  0  0  0  0  0  0  0  0  0  0
    2.8102    0.7453   -1.1242 H   0  0  0  0  0  0  0  0  0  0  0  0
   -0.5408    1.0809    0.3264 C   0  0  0  0  0  0  0  0  0  0  0  0
   -1.4382    1.7208   -0.2096 O   0  0  0  0  0  0  0  0  0  0  0  0
    0.3201    1.7100    1.2065 N   0  0  0  0  0  0  0  0  0  0  0  0
    1.0451    1.1448    1.6420 H   0  0  0  0  0  0  0  0  0  0  0  0
    0.2600    3.1351    1.5068 C   0  0  0  0  0  0  0  0  0  0  0  0
   -0.7168    3.3977    1.9265 H   0  0  0  0  0  0  0  0  0  0  0  0
    1.0313    3.4004    2.2362 H   0  0  0  0  0  0  0  0  0  0  0  0
    0.4242    3.7254    0.5992 H   0  0  0  0  0  0  0  0  0  0  0  0
  1  2  1  0  0  0  0
  2  3  1  0  0  0  0
  2  4  1  0  0  0  0
  2  5  1  0  0  0  0
  5  6  2  0  0  0  0
  5  7  1  0  0  0  0
  7  8  1  0  0  0  0
  7  9  1  0  0  0  0
  9 10  1  0  0  0  0
  9 11  1  0  0  0  0
  9 22  1  0  0  0  0
 11 12  1  0  0  0  0
 11 13  1  0  0  0  0
 11 14  1  0  0  0  0
 14 15  1  0  0  0  0
 14 20  2  0  0  0  0
 15 16  1  0  0  0  0
 15 17  1  0  0  0  0
 17 18  1  0  0  0  0
 17 19  2  0  0  0  0
 19 20  1  0  0  0  0
 20 21  1  0  0  0  0
 22 23  2  0  0  0  0
 22 24  1  0  0  0  0
 24 25  1  0  0  0  0
 24 26  1  0  0  0  0
 26 27  1  0  0  0  0
 26 28  1  0  0  0  0
 26 29  1  0  0  0  0
M  END
$$$$

  -OEChem-04042215593D

 29 29  0     1  0  0  0  0  0999 V2000
   -3.5535   -3.6299    1.4856 H   0  0  0  0  0  0  0  0  0  0  0  0
   -3.4942   -2.7226    0.8778 C   0  0  0  0  0  0  0  0  0  0  0  0
   -4.1073   -1.9473    1.3434 H   0  0  0  0  0  0  0  0  0  0  0  0
   -3.8867   -2.9394   -0.1186 H   0  0  0  0  0  0  0  0  0  0  0  0
   -2.0549   -2.2542    0.7767 C   0  0  0  0  0  0  0  0  0  0  0  0
   -1.1598   -2.9289    1.2605 O   0  0  0  0  0  0  0  0  0  0  0  0
   -1.7613   -1.0813    0.1125 N   0  0  0  0  0  0  0  0  0  0  0  0
   -2.5483   -0.5150   -0.2008 H   0  0  0  0  0  0  0  0  0  0  0  0
   -0.4399   -0.4343    0.1066 C   0  0  1  0  0  0  0  0  0  0  0  0
    0.1409   -0.8357    0.9446 H   0  0  0  0  0  0  0  0  0  0  0  0
    0.2938   -0.7620   -1.2056 C   0  0  0  0  0  0  0  0  0  0  0  0
   -0.1932   -1.5988   -1.7168 H   0  0  0  0  0  0  0  0  0  0  0  0
    0.2584    0.0964   -1.8854 H   0  0  0  0  0  0  0  0  0  0  0  0
    1.7226   -1.1359   -0.9185 C   0  0  0  0  0  0  0  0  0  0  0  0
    2.2725   -2.3970   -0.9400 N   0  0  0  0  0  0  0  0  0  0  0  0
    1.7666   -3.2717   -1.0696 H   0  0  0  0  0  0  0  0  0  0  0  0
    3.6202   -2.2879   -0.6544 C   0  0  0  0  0  0  0  0  0  0  0  0
    4.3113   -3.1227   -0.5798 H   0  0  0  0  0  0  0  0  0  0  0  0
    3.9447   -1.0280   -0.4818 N   0  0  0  0  0  0  0  0  0  0  0  0
    2.7750   -0.2982   -0.6596 C   0  0  0  0  0  0  0  0  0  0  0  0
    2.7059    0.7839   -0.5995 H   0  0  0  0  0  0  0  0  0  0  0  0
   -0.5389    1.0835    0.3364 C   0  0  0  0  0  0  0  0  0  0  0  0
   -1.4261    1.7219   -0.2180 O   0  0  0  0  0  0  0  0  0  0  0  0
    0.3179    1.7191    1.2159 N   0  0  0  0  0  0  0  0  0  0  0  0
    1.0206    1.1518    1.6838 H   0  0  0  0  0  0  0  0  0  0  0  0
    0.2537    3.1459    1.5072 C   0  0  0  0  0  0  0  0  0  0  0  0
   -0.7237    3.4076    1.9259 H   0  0  0  0  0  0  0  0  0  0  0  0
    1.0252    3.4188    2.2337 H   0  0  0  0  0  0  0  0  0  0  0  0
    0.4151    3.7309    0.5956 H   0  0  0  0  0  0  0  0  0  0  0  0
  1  2  1  0  0  0  0
  2  3  1  0  0  0  0
  2  4  1  0  0  0  0
  2  5  1  0  0  0  0
  5  6  2  0  0  0  0
  5  7  1  0  0  0  0
  7  8  1  0  0  0  0
  7  9  1  0  0  0  0
  9 10  1  0  0  0  0
  9 11  1  0  0  0  0
  9 22  1  0  0  0  0
 11 12  1  0  0  0  0
 11 13  1  0  0  0  0
 11 14  1  0  0  0  0
 14 15  1  0  0  0  0
 14 20  2  0  0  0  0
 15 16  1  0  0  0  0
 15 17  1  0  0  0  0
 17 18  1  0  0  0  0
 17 19  2  0  0  0  0
 19 20  1  0  0  0  0
 20 21  1  0  0  0  0
 22 23  2  0  0  0  0
 22 24  1  0  0  0  0
 24 25  1  0  0  0  0
 24 26  1  0  0  0  0
 26 27  1  0  0  0  0
 26 28  1  0  0  0  0
 26 29  1  0  0  0  0
M  END
$$$$

  -OEChem-04042215593D

 29 29  0     1  0  0  0  0  0999 V2000
   -3.5681   -3.6277    1.4685 H   0  0  0  0  0  0  0  0  0  0  0  0
   -3.4983   -2.7154    0.8696 C   0  0  0  0  0  0  0  0  0  0  0  0
   -4.1221   -1.9448    1.3291 H   0  0  0  0  0  0  0  0  0  0  0  0
   -3.8704   -2.9246   -0.1361 H   0  0  0  0  0  0  0  0  0  0  0  0
   -2.0578   -2.2446    0.8011 C   0  0  0  0  0  0  0  0  0  0  0  0
   -1.1756   -2.9052    1.3252 O   0  0  0  0  0  0  0  0  0  0  0  0
   -1.7517   -1.0783    0.1314 N   0  0  0  0  0  0  0  0  0  0  0  0
   -2.5329   -0.5213   -0.2114 H   0  0  0  0  0  0  0  0  0  0  0  0
   -0.4296   -0.4321    0.1302 C   0  0  1  0  0  0  0  0  0  0  0  0
    0.1508   -0.8311    0.9693 H   0  0  0  0  0  0  0  0  0  0  0  0
    0.3045   -0.7596   -1.1846 C   0  0  0  0  0  0  0  0  0  0  0  0
   -0.1895   -1.5977   -1.6866 H   0  0  0  0  0  0  0  0  0  0  0  0
    0.2626    0.0945   -1.8691 H   0  0  0  0  0  0  0  0  0  0  0  0
    1.7391   -1.1408   -0.9273 C   0  0  0  0  0  0  0  0  0  0  0  0
    2.3554   -2.3323   -1.2362 N   0  0  0  0  0  0  0  0  0  0  0  0
    1.9074   -3.1586   -1.6277 H   0  0  0  0  0  0  0  0  0  0  0  0
    3.6810   -2.2498   -0.8526 C   0  0  0  0  0  0  0  0  0  0  0  0
    4.4114   -3.0475   -0.9545 H   0  0  0  0  0  0  0  0  0  0  0  0
    3.9315   -1.0666   -0.3440 N   0  0  0  0  0  0  0  0  0  0  0  0
    2.7340   -0.3634   -0.3945 C   0  0  0  0  0  0  0  0  0  0  0  0
    2.6082    0.6617   -0.0601 H   0  0  0  0  0  0  0  0  0  0  0  0
   -0.5408    1.0875    0.3473 C   0  0  0  0  0  0  0  0  0  0  0  0
   -1.4188    1.7177   -0.2306 O   0  0  0  0  0  0  0  0  0  0  0  0
    0.3027    1.7376    1.2294 N   0  0  0  0  0  0  0  0  0  0  0  0
    0.9845    1.1751    1.7324 H   0  0  0  0  0  0  0  0  0  0  0  0
    0.2253    3.1664    1.5076 C   0  0  0  0  0  0  0  0  0  0  0  0
   -0.7535    3.4236    1.9258 H   0  0  0  0  0  0  0  0  0  0  0  0
    0.9958    3.4529    2.2299 H   0  0  0  0  0  0  0  0  0  0  0  0
    0.3800    3.7444    0.5904 H   0  0  0  0  0  0  0  0  0  0  0  0
  1  2  1  0  0  0  0
  2  3  1  0  0  0  0
  2  4  1  0  0  0  0
  2  5  1  0  0  0  0
  5  6  2  0  0  0  0
  5  7  1  0  0  0  0
  7  8  1  0  0  0  0
  7  9  1  0  0  0  0
  9 10  1  0  0  0  0
  9 11  1  0  0  0  0
  9 22  1  0  0  0  0
 11 12  1  0  0  0  0
 11 13  1  0  0  0  0
 11 14  1  0  0  0  0
 14 15  1  0  0  0  0
 14 20  2  0  0  0  0
 15 16  1  0  0  0  0
 15 17  1  0  0  0  0
 17 18  1  0  0  0  0
 17 19  2  0  0  0  0
 19 20  1  0  0  0  0
 20 21  1  0  0  0  0
 22 23  2  0  0  0  0
 22 24  1  0  0  0  0
 24 25  1  0  0  0  0
 24 26  1  0  0  0  0
 26 27  1  0  0  0  0
 26 28  1  0  0  0  0
 26 29  1  0  0  0  0
M  END
$$$$

  -OEChem-04042215593D

 29 29  0     1  0  0  0  0  0999 V2000
   -3.5673   -3.6243    1.4610 H   0  0  0  0  0  0  0  0  0  0  0  0
   -3.4913   -2.7106    0.8648 C   0  0  0  0  0  0  0  0  0  0  0  0
   -4.1259   -1.9432    1.3148 H   0  0  0  0  0  0  0  0  0  0  0  0
   -3.8457   -2.9196   -0.1474 H   0  0  0  0  0  0  0  0  0  0  0  0
   -2.0519   -2.2329    0.8212 C   0  0  0  0  0  0  0  0  0  0  0  0
   -1.1795   -2.8768    1.3804 O   0  0  0  0  0  0  0  0  0  0  0  0
   -1.7374   -1.0726    0.1448 N   0  0  0  0  0  0  0  0  0  0  0  0
   -2.5133   -0.5247   -0.2240 H   0  0  0  0  0  0  0  0  0  0  0  0
   -0.4161   -0.4240    0.1546 C   0  0  1  0  0  0  0  0  0  0  0  0
    0.1590   -0.8163    1.0000 H   0  0  0  0  0  0  0  0  0  0  0  0
    0.3259   -0.7482   -1.1594 C   0  0  0  0  0  0  0  0  0  0  0  0
   -0.1710   -1.5919   -1.6494 H   0  0  0  0  0  0  0  0  0  0  0  0
    0.2734    0.0989   -1.8521 H   0  0  0  0  0  0  0  0  0  0  0  0
    1.7672   -1.1343   -0.9313 C   0  0  0  0  0  0  0  0  0  0  0  0
    2.4388   -2.1887   -1.5095 N   0  0  0  0  0  0  0  0  0  0  0  0
    2.0457   -2.8740   -2.1512 H   0  0  0  0  0  0  0  0  0  0  0  0
    3.7381   -2.1939   -1.0375 C   0  0  0  0  0  0  0  0  0  0  0  0
    4.5003   -2.9172   -1.3131 H   0  0  0  0  0  0  0  0  0  0  0  0
    3.9202   -1.1961   -0.2064 N   0  0  0  0  0  0  0  0  0  0  0  0
    2.7034   -0.5297   -0.1321 C   0  0  0  0  0  0  0  0  0  0  0  0
    2.5263    0.3528    0.4739 H   0  0  0  0  0  0  0  0  0  0  0  0
   -0.5465    1.0966    0.3567 C   0  0  0  0  0  0  0  0  0  0  0  0
   -1.4207    1.7121   -0.2431 O   0  0  0  0  0  0  0  0  0  0  0  0
    0.2756    1.7667    1.2440 N   0  0  0  0  0  0  0  0  0  0  0  0
    0.9450    1.2168    1.7760 H   0  0  0  0  0  0  0  0  0  0  0  0
    0.1748    3.1973    1.5051 C   0  0  0  0  0  0  0  0  0  0  0  0
   -0.8113    3.4446    1.9121 H   0  0  0  0  0  0  0  0  0  0  0  0
    0.9350    3.5039    2.2299 H   0  0  0  0  0  0  0  0  0  0  0  0
    0.3286    3.7665    0.5823 H   0  0  0  0  0  0  0  0  0  0  0  0
  1  2  1  0  0  0  0
  2  3  1  0  0  0  0
  2  4  1  0  0  0  0
  2  5  1  0  0  0  0
  5  6  2  0  0  0  0
  5  7  1  0  0  0  0
  7  8  1  0  0  0  0
  7  9  1  0  0  0  0
  9 10  1  0  0  0  0
  9 11  1  0  0  0  0
  9 22  1  0  0  0  0
 11 12  1  0  0  0  0
 11 13  1  0  0  0  0
 11 14  1  0  0  0  0
 14 15  1  0  0  0  0
 14 20  2  0  0  0  0
 15 16  1  0  0  0  0
 15 17  1  0  0  0  0
 17 18  1  0  0  0  0
 17 19  2  0  0  0  0
 19 20  1  0  0  0  0
 20 21  1  0  0  0  0
 22 23  2  0  0  0  0
 22 24  1  0  0  0  0
 24 25  1  0  0  0  0
 24 26  1  0  0  0  0
 26 27  1  0  0  0  0
 26 28  1  0  0  0  0
 26 29  1  0  0  0  0
M  END
$$$$

  -OEChem-04042215593D

 29 29  0     1  0  0  0  0  0999 V2000
   -3.5729   -3.6290    1.4479 H   0  0  0  0  0  0  0  0  0  0  0  0
   -3.4937   -2.7148    0.8529 C   0  0  0  0  0  0  0  0  0  0  0  0
   -4.1428   -1.9527    1.2909 H   0  0  0  0  0  0  0  0  0  0  0  0
   -3.8278   -2.9274   -0.1654 H   0  0  0  0  0  0  0  0  0  0  0  0
   -2.0576   -2.2255    0.8357 C   0  0  0  0  0  0  0  0  0  0  0  0
   -1.1935   -2.8544    1.4240 O   0  0  0  0  0  0  0  0  0  0  0  0
   -1.7371   -1.0697    0.1544 N   0  0  0  0  0  0  0  0  0  0  0  0
   -2.5085   -0.5309   -0.2363 H   0  0  0  0  0  0  0  0  0  0  0  0
   -0.4177   -0.4172    0.1748 C   0  0  1  0  0  0  0  0  0  0  0  0
    0.1442   -0.8032    1.0310 H   0  0  0  0  0  0  0  0  0  0  0  0
    0.3417   -0.7422   -1.1306 C   0  0  0  0  0  0  0  0  0  0  0  0
   -0.1495   -1.5916   -1.6160 H   0  0  0  0  0  0  0  0  0  0  0  0
    0.2854    0.0999   -1.8290 H   0  0  0  0  0  0  0  0  0  0  0  0
    1.7874   -1.1261   -0.9131 C   0  0  0  0  0  0  0  0  0  0  0  0
    2.5252   -1.9809   -1.7023 N   0  0  0  0  0  0  0  0  0  0  0  0
    2.1920   -2.4780   -2.5255 H   0  0  0  0  0  0  0  0  0  0  0  0
    3.7995   -2.0799   -1.1758 C   0  0  0  0  0  0  0  0  0  0  0  0
    4.6009   -2.6869   -1.5877 H   0  0  0  0  0  0  0  0  0  0  0  0
    3.9036   -1.3317   -0.1046 N   0  0  0  0  0  0  0  0  0  0  0  0
    2.6594   -0.7396    0.0736 C   0  0  0  0  0  0  0  0  0  0  0  0
    2.4197   -0.0585    0.8836 H   0  0  0  0  0  0  0  0  0  0  0  0
   -0.5535    1.1051    0.3635 C   0  0  0  0  0  0  0  0  0  0  0  0
   -1.4237    1.7133   -0.2494 O   0  0  0  0  0  0  0  0  0  0  0  0
    0.2566    1.7846    1.2548 N   0  0  0  0  0  0  0  0  0  0  0  0
    0.9285    1.2427    1.7915 H   0  0  0  0  0  0  0  0  0  0  0  0
    0.1504    3.2173    1.5024 C   0  0  0  0  0  0  0  0  0  0  0  0
   -0.8409    3.4664    1.8952 H   0  0  0  0  0  0  0  0  0  0  0  0
    0.9013    3.5310    2.2339 H   0  0  0  0  0  0  0  0  0  0  0  0
    0.3147    3.7791    0.5768 H   0  0  0  0  0  0  0  0  0  0  0  0
  1  2  1  0  0  0  0
  2  3  1  0  0  0  0
  2  4  1  0  0  0  0
  2  5  1  0  0  0  0
  5  6  2  0  0  0  0
  5  7  1  0  0  0  0
  7  8  1  0  0  0  0
  7  9  1  0  0  0  0
  9 10  1  0  0  0  0
  9 11  1  0  0  0  0
  9 22  1  0  0  0  0
 11 12  1  0  0  0  0
 11 13  1  0  0  0  0
 11 14  1  0  0  0  0
 14 15  1  0  0  0  0
 14 20  2  0  0  0  0
 15 16  1  0  0  0  0
 15 17  1  0  0  0  0
 17 18  1  0  0  0  0
 17 19  2  0  0  0  0
 19 20  1  0  0  0  0
 20 21  1  0  0  0  0
 22 23  2  0  0  0  0
 22 24  1  0  0  0  0
 24 25  1  0  0  0  0
 24 26  1  0  0  0  0
 26 27  1  0  0  0  0
 26 28  1  0  0  0  0
 26 29  1  0  0  0  0
M  END
$$$$

  -OEChem-04042215593D

 29 29  0     1  0  0  0  0  0999 V2000
   -3.5902   -3.6332    1.4324 H   0  0  0  0  0  0  0  0  0  0  0  0
   -3.5060   -2.7187    0.8385 C   0  0  0  0  0  0  0  0  0  0  0  0
   -4.1648   -1.9591    1.2662 H   0  0  0  0  0  0  0  0  0  0  0  0
   -3.8233   -2.9326   -0.1850 H   0  0  0  0  0  0  0  0  0  0  0  0
   -2.0722   -2.2231    0.8434 C   0  0  0  0  0  0  0  0  0  0  0  0
   -1.2167   -2.8412    1.4552 O   0  0  0  0  0  0  0  0  0  0  0  0
   -1.7448   -1.0708    0.1594 N   0  0  0  0  0  0  0  0  0  0  0  0
   -2.5113   -0.5385   -0.2493 H   0  0  0  0  0  0  0  0  0  0  0  0
   -0.4270   -0.4162    0.1932 C   0  0  1  0  0  0  0  0  0  0  0  0
    0.1169   -0.7967    1.0619 H   0  0  0  0  0  0  0  0  0  0  0  0
    0.3525   -0.7447   -1.1000 C   0  0  0  0  0  0  0  0  0  0  0  0
   -0.1317   -1.5958   -1.5900 H   0  0  0  0  0  0  0  0  0  0  0  0
    0.2989    0.0974   -1.7987 H   0  0  0  0  0  0  0  0  0  0  0  0
    1.8001   -1.1264   -0.8812 C   0  0  0  0  0  0  0  0  0  0  0  0
    2.6095   -1.7355   -1.8157 N   0  0  0  0  0  0  0  0  0  0  0  0
    2.3380   -2.0155   -2.7558 H   0  0  0  0  0  0  0  0  0  0  0  0
    3.8626   -1.9215   -1.2639 C   0  0  0  0  0  0  0  0  0  0  0  0
    4.7072   -2.3794   -1.7708 H   0  0  0  0  0  0  0  0  0  0  0  0
    3.8870   -1.4612   -0.0373 N   0  0  0  0  0  0  0  0  0  0  0  0
    2.6112   -0.9725    0.2167 C   0  0  0  0  0  0  0  0  0  0  0  0
    2.3119   -0.5213    1.1572 H   0  0  0  0  0  0  0  0  0  0  0  0
   -0.5614    1.1071    0.3711 C   0  0  0  0  0  0  0  0  0  0  0  0
   -1.4249    1.7134   -0.2533 O   0  0  0  0  0  0  0  0  0  0  0  0
    0.2401    1.7885    1.2687 N   0  0  0  0  0  0  0  0  0  0  0  0
    0.9226    1.2518    1.7972 H   0  0  0  0  0  0  0  0  0  0  0  0
    0.1443    3.2249    1.4983 C   0  0  0  0  0  0  0  0  0  0  0  0
   -0.8494    3.4878    1.8758 H   0  0  0  0  0  0  0  0  0  0  0  0
    0.8889    3.5402    2.2356 H   0  0  0  0  0  0  0  0  0  0  0  0
    0.3252    3.7745    0.5686 H   0  0  0  0  0  0  0  0  0  0  0  0
  1  2  1  0  0  0  0
  2  3  1  0  0  0  0
  2  4  1  0  0  0  0
  2  5  1  0  0  0  0
  5  6  2  0  0  0  0
  5  7  1  0  0  0  0
  7  8  1  0  0  0  0
  7  9  1  0  0  0  0
  9 10  1  0  0  0  0
  9 11  1  0  0  0  0
  9 22  1  0  0  0  0
 11 12  1  0  0  0  0
 11 13  1  0  0  0  0
 11 14  1  0  0  0  0
 14 15  1  0  0  0  0
 14 20  2  0  0  0  0
 15 16  1  0  0  0  0
 15 17  1  0  0  0  0
 17 18  1  0  0  0  0
 17 19  2  0  0  0  0
 19 20  1  0  0  0  0
 20 21  1  0  0  0  0
 22 23  2  0  0  0  0
 22 24  1  0  0  0  0
 24 25  1  0  0  0  0
 24 26  1  0  0  0  0
 26 27  1  0  0  0  0
 26 28  1  0  0  0  0
 26 29  1  0  0  0  0
M  END
$$$$

  -OEChem-04042215593D

 29 29  0     1  0  0  0  0  0999 V2000
   -3.6024   -3.6114    1.4310 H   0  0  0  0  0  0  0  0  0  0  0  0
   -3.5071   -2.6997    0.8345 C   0  0  0  0  0  0  0  0  0  0  0  0
   -4.1829   -1.9421    1.2386 H   0  0  0  0  0  0  0  0  0  0  0  0
   -3.7932   -2.9224   -0.1962 H   0  0  0  0  0  0  0  0  0  0  0  0
   -2.0772   -2.1947    0.8775 C   0  0  0  0  0  0  0  0  0  0  0  0
   -1.2414   -2.7857    1.5415 O   0  0  0  0  0  0  0  0  0  0  0  0
   -1.7302   -1.0589    0.1760 N   0  0  0  0  0  0  0  0  0  0  0  0
   -2.4810   -0.5371   -0.2731 H   0  0  0  0  0  0  0  0  0  0  0  0
   -0.4081   -0.4160    0.2303 C   0  0  1  0  0  0  0  0  0  0  0  0
    0.1216   -0.7592    1.1207 H   0  0  0  0  0  0  0  0  0  0  0  0
    0.3905   -0.7549   -1.0525 C   0  0  0  0  0  0  0  0  0  0  0  0
   -0.2306   -1.3720   -1.7097 H   0  0  0  0  0  0  0  0  0  0  0  0
    0.6085    0.1673   -1.6022 H   0  0  0  0  0  0  0  0  0  0  0  0
    1.6969   -1.4868   -0.8295 C   0  0  0  0  0  0  0  0  0  0  0  0
    2.5497   -1.8749   -1.8407 N   0  0  0  0  0  0  0  0  0  0  0  0
    2.4106   -1.7194   -2.8368 H   0  0  0  0  0  0  0  0  0  0  0  0
    3.6347   -2.5244   -1.2847 C   0  0  0  0  0  0  0  0  0  0  0  0
    4.4713   -2.9352   -1.8426 H   0  0  0  0  0  0  0  0  0  0  0  0
    3.5108   -2.5709    0.0180 N   0  0  0  0  0  0  0  0  0  0  0  0
    2.3037   -1.9475    0.3157 C   0  0  0  0  0  0  0  0  0  0  0  0
    1.9124   -1.8467    1.3228 H   0  0  0  0  0  0  0  0  0  0  0  0
   -0.5574    1.1103    0.3750 C   0  0  0  0  0  0  0  0  0  0  0  0
   -1.3978    1.7030   -0.2925 O   0  0  0  0  0  0  0  0  0  0  0  0
    0.2160    1.8124    1.2811 N   0  0  0  0  0  0  0  0  0  0  0  0
    0.8835    1.2867    1.8394 H   0  0  0  0  0  0  0  0  0  0  0  0
    0.1015    3.2508    1.4884 C   0  0  0  0  0  0  0  0  0  0  0  0
   -0.9035    3.5095    1.8381 H   0  0  0  0  0  0  0  0  0  0  0  0
    0.8249    3.5832    2.2392 H   0  0  0  0  0  0  0  0  0  0  0  0
    0.3000    3.7896    0.5560 H   0  0  0  0  0  0  0  0  0  0  0  0
  1  2  1  0  0  0  0
  2  3  1  0  0  0  0
  2  4  1  0  0  0  0
  2  5  1  0  0  0  0
  5  6  2  0  0  0  0
  5  7  1  0  0  0  0
  7  8  1  0  0  0  0
  7  9  1  0  0  0  0
  9 10  1  0  0  0  0
  9 11  1  0  0  0  0
  9 22  1  0  0  0  0
 11 12  1  0  0  0  0
 11 13  1  0  0  0  0
 11 14  1  0  0  0  0
 14 15  1  0  0  0  0
 14 20  2  0  0  0  0
 15 16  1  0  0  0  0
 15 17  1  0  0  0  0
 17 18  1  0  0  0  0
 17 19  2  0  0  0  0
 19 20  1  0  0  0  0
 20 21  1  0  0  0  0
 22 23  2  0  0  0  0
 22 24  1  0  0  0  0
 24 25  1  0  0  0  0
 24 26  1  0  0  0  0
 26 27  1  0  0  0  0
 26 28  1  0  0  0  0
 26 29  1  0  0  0  0
M  END
$$$$

  -OEChem-04042215593D

 29 29  0     1  0  0  0  0  0999 V2000
   -3.5991   -3.6099    1.4383 H   0  0  0  0  0  0  0  0  0  0  0  0
   -3.5058   -2.6990    0.8405 C   0  0  0  0  0  0  0  0  0  0  0  0
   -4.1790   -1.9403    1.2466 H   0  0  0  0  0  0  0  0  0  0  0  0
   -3.7962   -2.9223   -0.1889 H   0  0  0  0  0  0  0  0  0  0  0  0
   -2.0758   -2.1946    0.8765 C   0  0  0  0  0  0  0  0  0  0  0  0
   -1.2350   -2.7879    1.5324 O   0  0  0  0  0  0  0  0  0  0  0  0
   -1.7331   -1.0577    0.1749 N   0  0  0  0  0  0  0  0  0  0  0  0
   -2.4862   -0.5344   -0.2689 H   0  0  0  0  0  0  0  0  0  0  0  0
   -0.4102   -0.4166    0.2233 C   0  0  1  0  0  0  0  0  0  0  0  0
    0.1273   -0.7582    1.1105 H   0  0  0  0  0  0  0  0  0  0  0  0
    0.3810   -0.7565   -1.0628 C   0  0  0  0  0  0  0  0  0  0  0  0
   -0.2385   -1.3678   -1.7272 H   0  0  0  0  0  0  0  0  0  0  0  0
    0.6046    0.1685   -1.6053 H   0  0  0  0  0  0  0  0  0  0  0  0
    1.6831   -1.4899   -0.8282 C   0  0  0  0  0  0  0  0  0  0  0  0
    2.6822   -1.6334   -1.7666 N   0  0  0  0  0  0  0  0  0  0  0  0
    2.6703   -1.2724   -2.7181 H   0  0  0  0  0  0  0  0  0  0  0  0
    3.7123   -2.3666   -1.2101 C   0  0  0  0  0  0  0  0  0  0  0  0
    4.6362   -2.6315   -1.7163 H   0  0  0  0  0  0  0  0  0  0  0  0
    3.4147   -2.6959    0.0220 N   0  0  0  0  0  0  0  0  0  0  0  0
    2.1487   -2.1748    0.2700 C   0  0  0  0  0  0  0  0  0  0  0  0
    1.6134   -2.3037    1.2058 H   0  0  0  0  0  0  0  0  0  0  0  0
   -0.5556    1.1094    0.3719 C   0  0  0  0  0  0  0  0  0  0  0  0
   -1.3994    1.7059   -0.2879 O   0  0  0  0  0  0  0  0  0  0  0  0
    0.2252    1.8060    1.2757 N   0  0  0  0  0  0  0  0  0  0  0  0
    0.8934    1.2753    1.8287 H   0  0  0  0  0  0  0  0  0  0  0  0
    0.1120    3.2427    1.4950 C   0  0  0  0  0  0  0  0  0  0  0  0
   -0.8923    3.4989    1.8485 H   0  0  0  0  0  0  0  0  0  0  0  0
    0.8367    3.5683    2.2475 H   0  0  0  0  0  0  0  0  0  0  0  0
    0.3092    3.7894    0.5668 H   0  0  0  0  0  0  0  0  0  0  0  0
  1  2  1  0  0  0  0
  2  3  1  0  0  0  0
  2  4  1  0  0  0  0
  2  5  1  0  0  0  0
  5  6  2  0  0  0  0
  5  7  1  0  0  0  0
  7  8  1  0  0  0  0
  7  9  1  0  0  0  0
  9 10  1  0  0  0  0
  9 11  1  0  0  0  0
  9 22  1  0  0  0  0
 11 12  1  0  0  0  0
 11 13  1  0  0  0  0
 11 14  1  0  0  0  0
 14 15  1  0  0  0  0
 14 20  2  0  0  0  0
 15 16  1  0  0  0  0
 15 17  1  0  0  0  0
 17 18  1  0  0  0  0
 17 19  2  0  0  0  0
 19 20  1  0  0  0  0
 20 21  1  0  0  0  0
 22 23  2  0  0  0  0
 22 24  1  0  0  0  0
 24 25  1  0  0  0  0
 24 26  1  0  0  0  0
 26 27  1  0  0  0  0
 26 28  1  0  0  0  0
 26 29  1  0  0  0  0
M  END
$$$$

  -OEChem-04042215593D

 29 29  0     1  0  0  0  0  0999 V2000
   -3.6055   -3.6134    1.4404 H   0  0  0  0  0  0  0  0  0  0  0  0
   -3.5109   -2.7023    0.8431 C   0  0  0  0  0  0  0  0  0  0  0  0
   -4.1814   -1.9423    1.2516 H   0  0  0  0  0  0  0  0  0  0  0  0
   -3.8047   -2.9243   -0.1856 H   0  0  0  0  0  0  0  0  0  0  0  0
   -2.0792   -2.2020    0.8758 C   0  0  0  0  0  0  0  0  0  0  0  0
   -1.2382   -2.8018    1.5250 O   0  0  0  0  0  0  0  0  0  0  0  0
   -1.7356   -1.0629    0.1785 N   0  0  0  0  0  0  0  0  0  0  0  0
   -2.4901   -0.5383   -0.2613 H   0  0  0  0  0  0  0  0  0  0  0  0
   -0.4113   -0.4229    0.2166 C   0  0  1  0  0  0  0  0  0  0  0  0
    0.1394   -0.7722    1.0943 H   0  0  0  0  0  0  0  0  0  0  0  0
    0.3674   -0.7579   -1.0773 C   0  0  0  0  0  0  0  0  0  0  0  0
   -0.2533   -1.3680   -1.7416 H   0  0  0  0  0  0  0  0  0  0  0  0
    0.5896    0.1686   -1.6178 H   0  0  0  0  0  0  0  0  0  0  0  0
    1.6664   -1.4909   -0.8359 C   0  0  0  0  0  0  0  0  0  0  0  0
    2.7893   -1.4090   -1.6304 N   0  0  0  0  0  0  0  0  0  0  0  0
    2.8867   -0.8581   -2.4806 H   0  0  0  0  0  0  0  0  0  0  0  0
    3.7720   -2.2164   -1.0906 C   0  0  0  0  0  0  0  0  0  0  0  0
    4.7679   -2.3507   -1.5031 H   0  0  0  0  0  0  0  0  0  0  0  0
    3.3293   -2.7981   -0.0038 N   0  0  0  0  0  0  0  0  0  0  0  0
    2.0165   -2.3673    0.1634 C   0  0  0  0  0  0  0  0  0  0  0  0
    1.3672   -2.6846    0.9736 H   0  0  0  0  0  0  0  0  0  0  0  0
   -0.5524    1.1026    0.3733 C   0  0  0  0  0  0  0  0  0  0  0  0
   -1.3987    1.7044   -0.2785 O   0  0  0  0  0  0  0  0  0  0  0  0
    0.2386    1.7940    1.2721 N   0  0  0  0  0  0  0  0  0  0  0  0
    0.9088    1.2586    1.8181 H   0  0  0  0  0  0  0  0  0  0  0  0
    0.1301    3.2299    1.4990 C   0  0  0  0  0  0  0  0  0  0  0  0
   -0.8698    3.4859    1.8653 H   0  0  0  0  0  0  0  0  0  0  0  0
    0.8641    3.5509    2.2445 H   0  0  0  0  0  0  0  0  0  0  0  0
    0.3175    3.7802    0.5709 H   0  0  0  0  0  0  0  0  0  0  0  0
  1  2  1  0  0  0  0
  2  3  1  0  0  0  0
  2  4  1  0  0  0  0
  2  5  1  0  0  0  0
  5  6  2  0  0  0  0
  5  7  1  0  0  0  0
  7  8  1  0  0  0  0
  7  9  1  0  0  0  0
  9 10  1  0  0  0  0
  9 11  1  0  0  0  0
  9 22  1  0  0  0  0
 11 12  1  0  0  0  0
 11 13  1  0  0  0  0
 11 14  1  0  0  0  0
 14 15  1  0  0  0  0
 14 20  2  0  0  0  0
 15 16  1  0  0  0  0
 15 17  1  0  0  0  0
 17 18  1  0  0  0  0
 17 19  2  0  0  0  0
 19 20  1  0  0  0  0
 20 21  1  0  0  0  0
 22 23  2  0  0  0  0
 22 24  1  0  0  0  0
 24 25  1  0  0  0  0
 24 26  1  0  0  0  0
 26 27  1  0  0  0  0
 26 28  1  0  0  0  0
 26 29  1  0  0  0  0
M  END
$$$$

  -OEChem-04042215593D

 29 29  0     1  0  0  0  0  0999 V2000
   -3.6019   -3.6236    1.4392 H   0  0  0  0  0  0  0  0  0  0  0  0
   -3.5090   -2.7119    0.8425 C   0  0  0  0  0  0  0  0  0  0  0  0
   -4.1811   -1.9533    1.2508 H   0  0  0  0  0  0  0  0  0  0  0  0
   -3.8017   -2.9334   -0.1867 H   0  0  0  0  0  0  0  0  0  0  0  0
   -2.0785   -2.2089    0.8776 C   0  0  0  0  0  0  0  0  0  0  0  0
   -1.2391   -2.8055    1.5311 O   0  0  0  0  0  0  0  0  0  0  0  0
   -1.7377   -1.0673    0.1831 N   0  0  0  0  0  0  0  0  0  0  0  0
   -2.4935   -0.5480   -0.2605 H   0  0  0  0  0  0  0  0  0  0  0  0
   -0.4133   -0.4262    0.2096 C   0  0  1  0  0  0  0  0  0  0  0  0
    0.1504   -0.7850    1.0764 H   0  0  0  0  0  0  0  0  0  0  0  0
    0.3532   -0.7558   -1.0919 C   0  0  0  0  0  0  0  0  0  0  0  0
   -0.2683   -1.3719   -1.7499 H   0  0  0  0  0  0  0  0  0  0  0  0
    0.5693    0.1682   -1.6386 H   0  0  0  0  0  0  0  0  0  0  0  0
    1.6499   -1.4851   -0.8407 C   0  0  0  0  0  0  0  0  0  0  0  0
    2.8632   -1.2091   -1.4326 N   0  0  0  0  0  0  0  0  0  0  0  0
    3.0450   -0.4896   -2.1292 H   0  0  0  0  0  0  0  0  0  0  0  0
    3.8046   -2.0906   -0.9368 C   0  0  0  0  0  0  0  0  0  0  0  0
    4.8523   -2.1121   -1.2232 H   0  0  0  0  0  0  0  0  0  0  0  0
    3.2504   -2.8984   -0.0670 N   0  0  0  0  0  0  0  0  0  0  0  0
    1.9068   -2.5392    0.0014 C   0  0  0  0  0  0  0  0  0  0  0  0
    1.1716   -3.0260    0.6344 H   0  0  0  0  0  0  0  0  0  0  0  0
   -0.5491    1.0985    0.3735 C   0  0  0  0  0  0  0  0  0  0  0  0
   -1.3939    1.7070   -0.2740 O   0  0  0  0  0  0  0  0  0  0  0  0
    0.2537    1.7834    1.2667 N   0  0  0  0  0  0  0  0  0  0  0  0
    0.9121    1.2403    1.8198 H   0  0  0  0  0  0  0  0  0  0  0  0
    0.1512    3.2188    1.4989 C   0  0  0  0  0  0  0  0  0  0  0  0
   -0.8430    3.4751    1.8797 H   0  0  0  0  0  0  0  0  0  0  0  0
    0.8962    3.5376    2.2343 H   0  0  0  0  0  0  0  0  0  0  0  0
    0.3260    3.7706    0.5692 H   0  0  0  0  0  0  0  0  0  0  0  0
  1  2  1  0  0  0  0
  2  3  1  0  0  0  0
  2  4  1  0  0  0  0
  2  5  1  0  0  0  0
  5  6  2  0  0  0  0
  5  7  1  0  0  0  0
  7  8  1  0  0  0  0
  7  9  1  0  0  0  0
  9 10  1  0  0  0  0
  9 11  1  0  0  0  0
  9 22  1  0  0  0  0
 11 12  1  0  0  0  0
 11 13  1  0  0  0  0
 11 14  1  0  0  0  0
 14 15  1  0  0  0  0
 14 20  2  0  0  0  0
 15 16  1  0  0  0  0
 15 17  1  0  0  0  0
 17 18  1  0  0  0  0
 17 19  2  0  0  0  0
 19 20  1  0  0  0  0
 20 21  1  0  0  0  0
 22 23  2  0  0  0  0
 22 24  1  0  0  0  0
 24 25  1  0  0  0  0
 24 26  1  0  0  0  0
 26 27  1  0  0  0  0
 26 28  1  0  0  0  0
 26 29  1  0  0  0  0
M  END
$$$$

  -OEChem-04042215593D

 29 29  0     1  0  0  0  0  0999 V2000
   -3.5797   -3.6352    1.4486 H   0  0  0  0  0  0  0  0  0  0  0  0
   -3.4967   -2.7231    0.8510 C   0  0  0  0  0  0  0  0  0  0  0  0
   -4.1658   -1.9667    1.2678 H   0  0  0  0  0  0  0  0  0  0  0  0
   -3.8011   -2.9452   -0.1745 H   0  0  0  0  0  0  0  0  0  0  0  0
   -2.0675   -2.2160    0.8679 C   0  0  0  0  0  0  0  0  0  0  0  0
   -1.2147   -2.8192    1.4976 O   0  0  0  0  0  0  0  0  0  0  0  0
   -1.7400   -1.0691    0.1759 N   0  0  0  0  0  0  0  0  0  0  0  0
   -2.5037   -0.5468   -0.2504 H   0  0  0  0  0  0  0  0  0  0  0  0
   -0.4179   -0.4228    0.1935 C   0  0  1  0  0  0  0  0  0  0  0  0
    0.1537   -0.7875    1.0537 H   0  0  0  0  0  0  0  0  0  0  0  0
    0.3426   -0.7509   -1.1096 C   0  0  0  0  0  0  0  0  0  0  0  0
   -0.2759   -1.3836   -1.7547 H   0  0  0  0  0  0  0  0  0  0  0  0
    0.5507    0.1652   -1.6725 H   0  0  0  0  0  0  0  0  0  0  0  0
    1.6364   -1.4718   -0.8333 C   0  0  0  0  0  0  0  0  0  0  0  0
    2.9041   -1.0493   -1.1684 N   0  0  0  0  0  0  0  0  0  0  0  0
    3.1449   -0.1924   -1.6620 H   0  0  0  0  0  0  0  0  0  0  0  0
    3.8078   -2.0064   -0.7478 C   0  0  0  0  0  0  0  0  0  0  0  0
    4.8846   -1.9491   -0.8780 H   0  0  0  0  0  0  0  0  0  0  0  0
    3.1771   -2.9975   -0.1676 N   0  0  0  0  0  0  0  0  0  0  0  0
    1.8215   -2.6828   -0.2148 C   0  0  0  0  0  0  0  0  0  0  0  0
    1.0270   -3.3095    0.1789 H   0  0  0  0  0  0  0  0  0  0  0  0
   -0.5492    1.1007    0.3666 C   0  0  0  0  0  0  0  0  0  0  0  0
   -1.3984    1.7142   -0.2699 O   0  0  0  0  0  0  0  0  0  0  0  0
    0.2643    1.7788    1.2555 N   0  0  0  0  0  0  0  0  0  0  0  0
    0.9193    1.2290    1.8059 H   0  0  0  0  0  0  0  0  0  0  0  0
    0.1668    3.2130    1.4974 C   0  0  0  0  0  0  0  0  0  0  0  0
   -0.8216    3.4690    1.8932 H   0  0  0  0  0  0  0  0  0  0  0  0
    0.9224    3.5262    2.2243 H   0  0  0  0  0  0  0  0  0  0  0  0
    0.3298    3.7700    0.5689 H   0  0  0  0  0  0  0  0  0  0  0  0
  1  2  1  0  0  0  0
  2  3  1  0  0  0  0
  2  4  1  0  0  0  0
  2  5  1  0  0  0  0
  5  6  2  0  0  0  0
  5  7  1  0  0  0  0
  7  8  1  0  0  0  0
  7  9  1  0  0  0  0
  9 10  1  0  0  0  0
  9 11  1  0  0  0  0
  9 22  1  0  0  0  0
 11 12  1  0  0  0  0
 11 13  1  0  0  0  0
 11 14  1  0  0  0  0
 14 15  1  0  0  0  0
 14 20  2  0  0  0  0
 15 16  1  0  0  0  0
 15 17  1  0  0  0  0
 17 18  1  0  0  0  0
 17 19  2  0  0  0  0
 19 20  1  0  0  0  0
 20 21  1  0  0  0  0
 22 23  2  0  0  0  0
 22 24  1  0  0  0  0
 24 25  1  0  0  0  0
 24 26  1  0  0  0  0
 26 27  1  0  0  0  0
 26 28  1  0  0  0  0
 26 29  1  0  0  0  0
M  END
$$$$

  -OEChem-04042215593D

 29 29  0     1  0  0  0  0  0999 V2000
   -3.5691   -3.6334    1.4585 H   0  0  0  0  0  0  0  0  0  0  0  0
   -3.4921   -2.7221    0.8589 C   0  0  0  0  0  0  0  0  0  0  0  0
   -4.1513   -1.9627    1.2860 H   0  0  0  0  0  0  0  0  0  0  0  0
   -3.8140   -2.9435   -0.1614 H   0  0  0  0  0  0  0  0  0  0  0  0
   -2.0605   -2.2210    0.8525 C   0  0  0  0  0  0  0  0  0  0  0  0
   -1.1965   -2.8365    1.4547 O   0  0  0  0  0  0  0  0  0  0  0  0
   -1.7414   -1.0701    0.1628 N   0  0  0  0  0  0  0  0  0  0  0  0
   -2.5108   -0.5424   -0.2462 H   0  0  0  0  0  0  0  0  0  0  0  0
   -0.4205   -0.4218    0.1771 C   0  0  1  0  0  0  0  0  0  0  0  0
    0.1524   -0.7912    1.0349 H   0  0  0  0  0  0  0  0  0  0  0  0
    0.3371   -0.7546   -1.1245 C   0  0  0  0  0  0  0  0  0  0  0  0
   -0.2806   -1.3985   -1.7594 H   0  0  0  0  0  0  0  0  0  0  0  0
    0.5438    0.1535   -1.7007 H   0  0  0  0  0  0  0  0  0  0  0  0
    1.6267   -1.4712   -0.8266 C   0  0  0  0  0  0  0  0  0  0  0  0
    2.9015   -0.9527   -0.8836 N   0  0  0  0  0  0  0  0  0  0  0  0
    3.1580   -0.0059   -1.1547 H   0  0  0  0  0  0  0  0  0  0  0  0
    3.7926   -1.9567   -0.5535 C   0  0  0  0  0  0  0  0  0  0  0  0
    4.8727   -1.8465   -0.5184 H   0  0  0  0  0  0  0  0  0  0  0  0
    3.1460   -3.0658   -0.2903 N   0  0  0  0  0  0  0  0  0  0  0  0
    1.7930   -2.7806   -0.4549 C   0  0  0  0  0  0  0  0  0  0  0  0
    0.9858   -3.4932   -0.3118 H   0  0  0  0  0  0  0  0  0  0  0  0
   -0.5465    1.1007    0.3570 C   0  0  0  0  0  0  0  0  0  0  0  0
   -1.3956    1.7200   -0.2739 O   0  0  0  0  0  0  0  0  0  0  0  0
    0.2737    1.7723    1.2448 N   0  0  0  0  0  0  0  0  0  0  0  0
    0.9163    1.2154    1.8028 H   0  0  0  0  0  0  0  0  0  0  0  0
    0.1743    3.2042    1.4995 C   0  0  0  0  0  0  0  0  0  0  0  0
   -0.8112    3.4537    1.9066 H   0  0  0  0  0  0  0  0  0  0  0  0
    0.9359    3.5141    2.2214 H   0  0  0  0  0  0  0  0  0  0  0  0
    0.3266    3.7690    0.5737 H   0  0  0  0  0  0  0  0  0  0  0  0
  1  2  1  0  0  0  0
  2  3  1  0  0  0  0
  2  4  1  0  0  0  0
  2  5  1  0  0  0  0
  5  6  2  0  0  0  0
  5  7  1  0  0  0  0
  7  8  1  0  0  0  0
  7  9  1  0  0  0  0
  9 10  1  0  0  0  0
  9 11  1  0  0  0  0
  9 22  1  0  0  0  0
 11 12  1  0  0  0  0
 11 13  1  0  0  0  0
 11 14  1  0  0  0  0
 14 15  1  0  0  0  0
 14 20  2  0  0  0  0
 15 16  1  0  0  0  0
 15 17  1  0  0  0  0
 17 18  1  0  0  0  0
 17 19  2  0  0  0  0
 19 20  1  0  0  0  0
 20 21  1  0  0  0  0
 22 23  2  0  0  0  0
 22 24  1  0  0  0  0
 24 25  1  0  0  0  0
 24 26  1  0  0  0  0
 26 27  1  0  0  0  0
 26 28  1  0  0  0  0
 26 29  1  0  0  0  0
M  END
$$$$

  -OEChem-04042215593D

 29 29  0     1  0  0  0  0  0999 V2000
   -3.5747   -3.6352    1.4509 H   0  0  0  0  0  0  0  0  0  0  0  0
   -3.4966   -2.7232    0.8525 C   0  0  0  0  0  0  0  0  0  0  0  0
   -4.1628   -1.9669    1.2745 H   0  0  0  0  0  0  0  0  0  0  0  0
   -3.8088   -2.9455   -0.1708 H   0  0  0  0  0  0  0  0  0  0  0  0
   -2.0670   -2.2163    0.8585 C   0  0  0  0  0  0  0  0  0  0  0  0
   -1.2076   -2.8256    1.4734 O   0  0  0  0  0  0  0  0  0  0  0  0
   -1.7453   -1.0678    0.1660 N   0  0  0  0  0  0  0  0  0  0  0  0
   -2.5114   -0.5462   -0.2565 H   0  0  0  0  0  0  0  0  0  0  0  0
   -0.4226   -0.4230    0.1780 C   0  0  1  0  0  0  0  0  0  0  0  0
    0.1497   -0.7946    1.0351 H   0  0  0  0  0  0  0  0  0  0  0  0
    0.3318   -0.7631   -1.1231 C   0  0  0  0  0  0  0  0  0  0  0  0
   -0.2899   -1.4070   -1.7540 H   0  0  0  0  0  0  0  0  0  0  0  0
    0.5431    0.1408   -1.7043 H   0  0  0  0  0  0  0  0  0  0  0  0
    1.6180   -1.4822   -0.8191 C   0  0  0  0  0  0  0  0  0  0  0  0
    2.8568   -0.9220   -0.5974 N   0  0  0  0  0  0  0  0  0  0  0  0
    3.0883    0.0684   -0.6309 H   0  0  0  0  0  0  0  0  0  0  0  0
    3.7610   -1.9450   -0.3792 C   0  0  0  0  0  0  0  0  0  0  0  0
    4.8210   -1.8107   -0.1830 H   0  0  0  0  0  0  0  0  0  0  0  0
    3.1562   -3.1056   -0.4481 N   0  0  0  0  0  0  0  0  0  0  0  0
    1.8178   -2.8344   -0.7189 C   0  0  0  0  0  0  0  0  0  0  0  0
    1.0435   -3.5866   -0.8376 H   0  0  0  0  0  0  0  0  0  0  0  0
   -0.5416    1.1004    0.3545 C   0  0  0  0  0  0  0  0  0  0  0  0
   -1.3825    1.7239   -0.2827 O   0  0  0  0  0  0  0  0  0  0  0  0
    0.2829    1.7691    1.2406 N   0  0  0  0  0  0  0  0  0  0  0  0
    0.9007    1.2063    1.8197 H   0  0  0  0  0  0  0  0  0  0  0  0
    0.1845    3.2006    1.4982 C   0  0  0  0  0  0  0  0  0  0  0  0
   -0.7993    3.4493    1.9098 H   0  0  0  0  0  0  0  0  0  0  0  0
    0.9495    3.5095    2.2172 H   0  0  0  0  0  0  0  0  0  0  0  0
    0.3322    3.7668    0.5725 H   0  0  0  0  0  0  0  0  0  0  0  0
  1  2  1  0  0  0  0
  2  3  1  0  0  0  0
  2  4  1  0  0  0  0
  2  5  1  0  0  0  0
  5  6  2  0  0  0  0
  5  7  1  0  0  0  0
  7  8  1  0  0  0  0
  7  9  1  0  0  0  0
  9 10  1  0  0  0  0
  9 11  1  0  0  0  0
  9 22  1  0  0  0  0
 11 12  1  0  0  0  0
 11 13  1  0  0  0  0
 11 14  1  0  0  0  0
 14 15  1  0  0  0  0
 14 20  2  0  0  0  0
 15 16  1  0  0  0  0
 15 17  1  0  0  0  0
 17 18  1  0  0  0  0
 17 19  2  0  0  0  0
 19 20  1  0  0  0  0
 20 21  1  0  0  0  0
 22 23  2  0  0  0  0
 22 24  1  0  0  0  0
 24 25  1  0  0  0  0
 24 26  1  0  0  0  0
 26 27  1  0  0  0  0
 26 28  1  0  0  0  0
 26 29  1  0  0  0  0
M  END
$$$$

  -OEChem-04042215593D

 29 29  0     1  0  0  0  0  0999 V2000
   -3.5900   -3.6331    1.4385 H   0  0  0  0  0  0  0  0  0  0  0  0
   -3.5049   -2.7199    0.8428 C   0  0  0  0  0  0  0  0  0  0  0  0
   -4.1804   -1.9662    1.2543 H   0  0  0  0  0  0  0  0  0  0  0  0
   -3.7998   -2.9420   -0.1855 H   0  0  0  0  0  0  0  0  0  0  0  0
   -2.0771   -2.2084    0.8734 C   0  0  0  0  0  0  0  0  0  0  0  0
   -1.2303   -2.8045    1.5181 O   0  0  0  0  0  0  0  0  0  0  0  0
   -1.7457   -1.0650    0.1767 N   0  0  0  0  0  0  0  0  0  0  0  0
   -2.5039   -0.5521   -0.2699 H   0  0  0  0  0  0  0  0  0  0  0  0
   -0.4200   -0.4262    0.1891 C   0  0  1  0  0  0  0  0  0  0  0  0
    0.1520   -0.7977    1.0461 H   0  0  0  0  0  0  0  0  0  0  0  0
    0.3308   -0.7726   -1.1135 C   0  0  0  0  0  0  0  0  0  0  0  0
   -0.2988   -1.4063   -1.7470 H   0  0  0  0  0  0  0  0  0  0  0  0
    0.5506    0.1324   -1.6899 H   0  0  0  0  0  0  0  0  0  0  0  0
    1.6159   -1.4997   -0.8196 C   0  0  0  0  0  0  0  0  0  0  0  0
    2.7883   -0.9658   -0.3305 N   0  0  0  0  0  0  0  0  0  0  0  0
    2.9677    0.0143   -0.1245 H   0  0  0  0  0  0  0  0  0  0  0  0
    3.7190   -1.9836   -0.2316 C   0  0  0  0  0  0  0  0  0  0  0  0
    4.7405   -1.8638    0.1179 H   0  0  0  0  0  0  0  0  0  0  0  0
    3.1940   -3.1172   -0.6279 N   0  0  0  0  0  0  0  0  0  0  0  0
    1.8811   -2.8330   -0.9920 C   0  0  0  0  0  0  0  0  0  0  0  0
    1.1699   -3.5638   -1.3652 H   0  0  0  0  0  0  0  0  0  0  0  0
   -0.5365    1.0985    0.3577 C   0  0  0  0  0  0  0  0  0  0  0  0
   -1.3680    1.7221   -0.2914 O   0  0  0  0  0  0  0  0  0  0  0  0
    0.2869    1.7696    1.2435 N   0  0  0  0  0  0  0  0  0  0  0  0
    0.8722    1.2051    1.8535 H   0  0  0  0  0  0  0  0  0  0  0  0
    0.1831    3.2017    1.4966 C   0  0  0  0  0  0  0  0  0  0  0  0
   -0.8004    3.4476    1.9107 H   0  0  0  0  0  0  0  0  0  0  0  0
    0.9492    3.5166    2.2117 H   0  0  0  0  0  0  0  0  0  0  0  0
    0.3259    3.7658    0.5688 H   0  0  0  0  0  0  0  0  0  0  0  0
  1  2  1  0  0  0  0
  2  3  1  0  0  0  0
  2  4  1  0  0  0  0
  2  5  1  0  0  0  0
  5  6  2  0  0  0  0
  5  7  1  0  0  0  0
  7  8  1  0  0  0  0
  7  9  1  0  0  0  0
  9 10  1  0  0  0  0
  9 11  1  0  0  0  0
  9 22  1  0  0  0  0
 11 12  1  0  0  0  0
 11 13  1  0  0  0  0
 11 14  1  0  0  0  0
 14 15  1  0  0  0  0
 14 20  2  0  0  0  0
 15 16  1  0  0  0  0
 15 17  1  0  0  0  0
 17 18  1  0  0  0  0
 17 19  2  0  0  0  0
 19 20  1  0  0  0  0
 20 21  1  0  0  0  0
 22 23  2  0  0  0  0
 22 24  1  0  0  0  0
 24 25  1  0  0  0  0
 24 26  1  0  0  0  0
 26 27  1  0  0  0  0
 26 28  1  0  0  0  0
 26 29  1  0  0  0  0
M  END
$$$$

  -OEChem-04042215593D

 29 29  0     1  0  0  0  0  0999 V2000
   -3.5941   -3.6374    1.4240 H   0  0  0  0  0  0  0  0  0  0  0  0
   -3.5054   -2.7222    0.8319 C   0  0  0  0  0  0  0  0  0  0  0  0
   -4.1934   -1.9746    1.2336 H   0  0  0  0  0  0  0  0  0  0  0  0
   -3.7811   -2.9442   -0.2018 H   0  0  0  0  0  0  0  0  0  0  0  0
   -2.0822   -2.2004    0.8875 C   0  0  0  0  0  0  0  0  0  0  0  0
   -1.2473   -2.7806    1.5616 O   0  0  0  0  0  0  0  0  0  0  0  0
   -1.7431   -1.0614    0.1872 N   0  0  0  0  0  0  0  0  0  0  0  0
   -2.4941   -0.5574   -0.2813 H   0  0  0  0  0  0  0  0  0  0  0  0
   -0.4153   -0.4270    0.2042 C   0  0  1  0  0  0  0  0  0  0  0  0
    0.1542   -0.7985    1.0624 H   0  0  0  0  0  0  0  0  0  0  0  0
    0.3333   -0.7754   -1.1010 C   0  0  0  0  0  0  0  0  0  0  0  0
   -0.3023   -1.3938   -1.7439 H   0  0  0  0  0  0  0  0  0  0  0  0
    0.5617    0.1352   -1.6654 H   0  0  0  0  0  0  0  0  0  0  0  0
    1.6193   -1.5113   -0.8264 C   0  0  0  0  0  0  0  0  0  0  0  0
    2.7056   -1.0806   -0.0952 N   0  0  0  0  0  0  0  0  0  0  0  0
    2.8187   -0.1697    0.3423 H   0  0  0  0  0  0  0  0  0  0  0  0
    3.6620   -2.0792   -0.1093 C   0  0  0  0  0  0  0  0  0  0  0  0
    4.6313   -2.0226    0.3776 H   0  0  0  0  0  0  0  0  0  0  0  0
    3.2349   -3.1053   -0.8036 N   0  0  0  0  0  0  0  0  0  0  0  0
    1.9608   -2.7692   -1.2498 C   0  0  0  0  0  0  0  0  0  0  0  0
    1.3283   -3.4127   -1.8542 H   0  0  0  0  0  0  0  0  0  0  0  0
   -0.5352    1.0990    0.3655 C   0  0  0  0  0  0  0  0  0  0  0  0
   -1.3591    1.7187   -0.2970 O   0  0  0  0  0  0  0  0  0  0  0  0
    0.2806    1.7775    1.2532 N   0  0  0  0  0  0  0  0  0  0  0  0
    0.8425    1.2178    1.8885 H   0  0  0  0  0  0  0  0  0  0  0  0
    0.1718    3.2120    1.4935 C   0  0  0  0  0  0  0  0  0  0  0  0
   -0.8136    3.4593    1.9020 H   0  0  0  0  0  0  0  0  0  0  0  0
    0.9348    3.5353    2.2081 H   0  0  0  0  0  0  0  0  0  0  0  0
    0.3160    3.7685    0.5613 H   0  0  0  0  0  0  0  0  0  0  0  0
  1  2  1  0  0  0  0
  2  3  1  0  0  0  0
  2  4  1  0  0  0  0
  2  5  1  0  0  0  0
  5  6  2  0  0  0  0
  5  7  1  0  0  0  0
  7  8  1  0  0  0  0
  7  9  1  0  0  0  0
  9 10  1  0  0  0  0
  9 11  1  0  0  0  0
  9 22  1  0  0  0  0
 11 12  1  0  0  0  0
 11 13  1  0  0  0  0
 11 14  1  0  0  0  0
 14 15  1  0  0  0  0
 14 20  2  0  0  0  0
 15 16  1  0  0  0  0
 15 17  1  0  0  0  0
 17 18  1  0  0  0  0
 17 19  2  0  0  0  0
 19 20  1  0  0  0  0
 20 21  1  0  0  0  0
 22 23  2  0  0  0  0
 22 24  1  0  0  0  0
 24 25  1  0  0  0  0
 24 26  1  0  0  0  0
 26 27  1  0  0  0  0
 26 28  1  0  0  0  0
 26 29  1  0  0  0  0
M  END
$$$$

  -OEChem-04042215593D

 29 29  0     1  0  0  0  0  0999 V2000
   -3.6006   -3.6345    1.4121 H   0  0  0  0  0  0  0  0  0  0  0  0
   -3.5066   -2.7180    0.8229 C   0  0  0  0  0  0  0  0  0  0  0  0
   -4.2038   -1.9735    1.2149 H   0  0  0  0  0  0  0  0  0  0  0  0
   -3.7652   -2.9399   -0.2154 H   0  0  0  0  0  0  0  0  0  0  0  0
   -2.0866   -2.1904    0.9015 C   0  0  0  0  0  0  0  0  0  0  0  0
   -1.2640   -2.7571    1.6024 O   0  0  0  0  0  0  0  0  0  0  0  0
   -1.7376   -1.0572    0.1966 N   0  0  0  0  0  0  0  0  0  0  0  0
   -2.4791   -0.5603   -0.2941 H   0  0  0  0  0  0  0  0  0  0  0  0
   -0.4081   -0.4272    0.2244 C   0  0  1  0  0  0  0  0  0  0  0  0
    0.1541   -0.7940    1.0886 H   0  0  0  0  0  0  0  0  0  0  0  0
    0.3460   -0.7758   -1.0793 C   0  0  0  0  0  0  0  0  0  0  0  0
   -0.2932   -1.3776   -1.7341 H   0  0  0  0  0  0  0  0  0  0  0  0
    0.5841    0.1414   -1.6293 H   0  0  0  0  0  0  0  0  0  0  0  0
    1.6334   -1.5212   -0.8262 C   0  0  0  0  0  0  0  0  0  0  0  0
    2.6198   -1.2650    0.1035 N   0  0  0  0  0  0  0  0  0  0  0  0
    2.6412   -0.4978    0.7695 H   0  0  0  0  0  0  0  0  0  0  0  0
    3.6046   -2.2266   -0.0284 C   0  0  0  0  0  0  0  0  0  0  0  0
    4.5098   -2.2798    0.5697 H   0  0  0  0  0  0  0  0  0  0  0  0
    3.2928   -3.0654   -0.9855 N   0  0  0  0  0  0  0  0  0  0  0  0
    2.0641   -2.6448   -1.4830 C   0  0  0  0  0  0  0  0  0  0  0  0
    1.5223   -3.1385   -2.2843 H   0  0  0  0  0  0  0  0  0  0  0  0
   -0.5394    1.0999    0.3749 C   0  0  0  0  0  0  0  0  0  0  0  0
   -1.3624    1.7084   -0.2994 O   0  0  0  0  0  0  0  0  0  0  0  0
    0.2592    1.7928    1.2670 N   0  0  0  0  0  0  0  0  0  0  0  0
    0.8259    1.2466    1.9088 H   0  0  0  0  0  0  0  0  0  0  0  0
    0.1422    3.2300    1.4854 C   0  0  0  0  0  0  0  0  0  0  0  0
   -0.8484    3.4783    1.8809 H   0  0  0  0  0  0  0  0  0  0  0  0
    0.8970    3.5672    2.2024 H   0  0  0  0  0  0  0  0  0  0  0  0
    0.2932    3.7735    0.5465 H   0  0  0  0  0  0  0  0  0  0  0  0
  1  2  1  0  0  0  0
  2  3  1  0  0  0  0
  2  4  1  0  0  0  0
  2  5  1  0  0  0  0
  5  6  2  0  0  0  0
  5  7  1  0  0  0  0
  7  8  1  0  0  0  0
  7  9  1  0  0  0  0
  9 10  1  0  0  0  0
  9 11  1  0  0  0  0
  9 22  1  0  0  0  0
 11 12  1  0  0  0  0
 11 13  1  0  0  0  0
 11 14  1  0  0  0  0
 14 15  1  0  0  0  0
 14 20  2  0  0  0  0
 15 16  1  0  0  0  0
 15 17  1  0  0  0  0
 17 18  1  0  0  0  0
 17 19  2  0  0  0  0
 19 20  1  0  0  0  0
 20 21  1  0  0  0  0
 22 23  2  0  0  0  0
 22 24  1  0  0  0  0
 24 25  1  0  0  0  0
 24 26  1  0  0  0  0
 26 27  1  0  0  0  0
 26 28  1  0  0  0  0
 26 29  1  0  0  0  0
M  END
$$$$

  -OEChem-04042215593D

 29 29  0     1  0  0  0  0  0999 V2000
   -3.6228   -3.6095    1.4259 H   0  0  0  0  0  0  0  0  0  0  0  0
   -3.5193   -2.7008    0.8265 C   0  0  0  0  0  0  0  0  0  0  0  0
   -4.2130   -1.9468    1.2058 H   0  0  0  0  0  0  0  0  0  0  0  0
   -3.7741   -2.9326   -0.2102 H   0  0  0  0  0  0  0  0  0  0  0  0
   -2.0961   -2.1820    0.9061 C   0  0  0  0  0  0  0  0  0  0  0  0
   -1.2795   -2.7479    1.6153 O   0  0  0  0  0  0  0  0  0  0  0  0
   -1.7367   -1.0552    0.1960 N   0  0  0  0  0  0  0  0  0  0  0  0
   -2.4729   -0.5534   -0.2981 H   0  0  0  0  0  0  0  0  0  0  0  0
   -0.4046   -0.4318    0.2347 C   0  0  1  0  0  0  0  0  0  0  0  0
    0.1455   -0.7919    1.1083 H   0  0  0  0  0  0  0  0  0  0  0  0
    0.3615   -0.7825   -1.0625 C   0  0  0  0  0  0  0  0  0  0  0  0
   -0.2766   -1.3745   -1.7270 H   0  0  0  0  0  0  0  0  0  0  0  0
    0.6081    0.1376   -1.6039 H   0  0  0  0  0  0  0  0  0  0  0  0
    1.6482   -1.5363   -0.8197 C   0  0  0  0  0  0  0  0  0  0  0  0
    2.5129   -1.4948    0.2552 N   0  0  0  0  0  0  0  0  0  0  0  0
    2.3962   -0.9526    1.1064 H   0  0  0  0  0  0  0  0  0  0  0  0
    3.5456   -2.3838    0.0222 C   0  0  0  0  0  0  0  0  0  0  0  0
    4.3739   -2.5704    0.6997 H   0  0  0  0  0  0  0  0  0  0  0  0
    3.3833   -2.9716   -1.1373 N   0  0  0  0  0  0  0  0  0  0  0  0
    2.2026   -2.4619   -1.6659 C   0  0  0  0  0  0  0  0  0  0  0  0
    1.7793   -2.7571   -2.6213 H   0  0  0  0  0  0  0  0  0  0  0  0
   -0.5419    1.0971    0.3734 C   0  0  0  0  0  0  0  0  0  0  0  0
   -1.3714    1.6950   -0.3027 O   0  0  0  0  0  0  0  0  0  0  0  0
    0.2419    1.8026    1.2687 N   0  0  0  0  0  0  0  0  0  0  0  0
    0.8502    1.2711    1.8835 H   0  0  0  0  0  0  0  0  0  0  0  0
    0.1134    3.2399    1.4807 C   0  0  0  0  0  0  0  0  0  0  0  0
   -0.8860    3.4842    1.8560 H   0  0  0  0  0  0  0  0  0  0  0  0
    0.8514    3.5821    2.2126 H   0  0  0  0  0  0  0  0  0  0  0  0
    0.2808    3.7824    0.5441 H   0  0  0  0  0  0  0  0  0  0  0  0
  1  2  1  0  0  0  0
  2  3  1  0  0  0  0
  2  4  1  0  0  0  0
  2  5  1  0  0  0  0
  5  6  2  0  0  0  0
  5  7  1  0  0  0  0
  7  8  1  0  0  0  0
  7  9  1  0  0  0  0
  9 10  1  0  0  0  0
  9 11  1  0  0  0  0
  9 22  1  0  0  0  0
 11 12  1  0  0  0  0
 11 13  1  0  0  0  0
 11 14  1  0  0  0  0
 14 15  1  0  0  0  0
 14 20  2  0  0  0  0
 15 16  1  0  0  0  0
 15 17  1  0  0  0  0
 17 18  1  0  0  0  0
 17 19  2  0  0  0  0
 19 20  1  0  0  0  0
 20 21  1  0  0  0  0
 22 23  2  0  0  0  0
 22 24  1  0  0  0  0
 24 25  1  0  0  0  0
 24 26  1  0  0  0  0
 26 27  1  0  0  0  0
 26 28  1  0  0  0  0
 26 29  1  0  0  0  0
M  END
$$$$

  -OEChem-04042215593D

 29 29  0     1  0  0  0  0  0999 V2000
   -3.6451   -3.6022    1.4374 H   0  0  0  0  0  0  0  0  0  0  0  0
   -3.5406   -2.6942    0.8366 C   0  0  0  0  0  0  0  0  0  0  0  0
   -4.2260   -1.9353    1.2213 H   0  0  0  0  0  0  0  0  0  0  0  0
   -3.8057   -2.9246   -0.1982 H   0  0  0  0  0  0  0  0  0  0  0  0
   -2.1135   -2.1846    0.9037 C   0  0  0  0  0  0  0  0  0  0  0  0
   -1.2919   -2.7587    1.6016 O   0  0  0  0  0  0  0  0  0  0  0  0
   -1.7529   -1.0593    0.1920 N   0  0  0  0  0  0  0  0  0  0  0  0
   -2.4903   -0.5455   -0.2881 H   0  0  0  0  0  0  0  0  0  0  0  0
   -0.4185   -0.4429    0.2349 C   0  0  1  0  0  0  0  0  0  0  0  0
    0.1207   -0.7982    1.1159 H   0  0  0  0  0  0  0  0  0  0  0  0
    0.3594   -0.7903   -1.0560 C   0  0  0  0  0  0  0  0  0  0  0  0
   -0.2747   -1.3839   -1.7232 H   0  0  0  0  0  0  0  0  0  0  0  0
    0.6070    0.1297   -1.5973 H   0  0  0  0  0  0  0  0  0  0  0  0
    1.6440   -1.5487   -0.8114 C   0  0  0  0  0  0  0  0  0  0  0  0
    2.3642   -1.7409    0.3506 N   0  0  0  0  0  0  0  0  0  0  0  0
    2.0712   -1.4858    1.2906 H   0  0  0  0  0  0  0  0  0  0  0  0
    3.4736   -2.5110    0.0566 C   0  0  0  0  0  0  0  0  0  0  0  0
    4.2135   -2.8411    0.7801 H   0  0  0  0  0  0  0  0  0  0  0  0
    3.5034   -2.7916   -1.2229 N   0  0  0  0  0  0  0  0  0  0  0  0
    2.3688   -2.2053   -1.7721 C   0  0  0  0  0  0  0  0  0  0  0  0
    2.0962   -2.2590   -2.8219 H   0  0  0  0  0  0  0  0  0  0  0  0
   -0.5490    1.0868    0.3730 C   0  0  0  0  0  0  0  0  0  0  0  0
   -1.3889    1.6852   -0.2899 O   0  0  0  0  0  0  0  0  0  0  0  0
    0.2356    1.7889    1.2701 N   0  0  0  0  0  0  0  0  0  0  0  0
    0.9004    1.2647    1.8307 H   0  0  0  0  0  0  0  0  0  0  0  0
    0.1329    3.2304    1.4647 C   0  0  0  0  0  0  0  0  0  0  0  0
   -0.8664    3.4981    1.8236 H   0  0  0  0  0  0  0  0  0  0  0  0
    0.8671    3.5662    2.2032 H   0  0  0  0  0  0  0  0  0  0  0  0
    0.3232    3.7588    0.5245 H   0  0  0  0  0  0  0  0  0  0  0  0
  1  2  1  0  0  0  0
  2  3  1  0  0  0  0
  2  4  1  0  0  0  0
  2  5  1  0  0  0  0
  5  6  2  0  0  0  0
  5  7  1  0  0  0  0
  7  8  1  0  0  0  0
  7  9  1  0  0  0  0
  9 10  1  0  0  0  0
  9 11  1  0  0  0  0
  9 22  1  0  0  0  0
 11 12  1  0  0  0  0
 11 13  1  0  0  0  0
 11 14  1  0  0  0  0
 14 15  1  0  0  0  0
 14 20  2  0  0  0  0
 15 16  1  0  0  0  0
 15 17  1  0  0  0  0
 17 18  1  0  0  0  0
 17 19  2  0  0  0  0
 19 20  1  0  0  0  0
 20 21  1  0  0  0  0
 22 23  2  0  0  0  0
 22 24  1  0  0  0  0
 24 25  1  0  0  0  0
 24 26  1  0  0  0  0
 26 27  1  0  0  0  0
 26 28  1  0  0  0  0
 26 29  1  0  0  0  0
M  END
$$$$

  -OEChem-04042215593D

 29 29  0     1  0  0  0  0  0999 V2000
   -3.6574   -3.5894    1.4669 H   0  0  0  0  0  0  0  0  0  0  0  0
   -3.5570   -2.6852    0.8600 C   0  0  0  0  0  0  0  0  0  0  0  0
   -4.2243   -1.9171    1.2586 H   0  0  0  0  0  0  0  0  0  0  0  0
   -3.8504   -2.9164   -0.1669 H   0  0  0  0  0  0  0  0  0  0  0  0
   -2.1224   -2.1927    0.8894 C   0  0  0  0  0  0  0  0  0  0  0  0
   -1.2840   -2.7863    1.5519 O   0  0  0  0  0  0  0  0  0  0  0  0
   -1.7681   -1.0643    0.1795 N   0  0  0  0  0  0  0  0  0  0  0  0
   -2.5114   -0.5327   -0.2713 H   0  0  0  0  0  0  0  0  0  0  0  0
   -0.4304   -0.4560    0.2170 C   0  0  1  0  0  0  0  0  0  0  0  0
    0.1076   -0.8103    1.0986 H   0  0  0  0  0  0  0  0  0  0  0  0
    0.3466   -0.7986   -1.0758 C   0  0  0  0  0  0  0  0  0  0  0  0
   -0.2889   -1.3996   -1.7346 H   0  0  0  0  0  0  0  0  0  0  0  0
    0.5885    0.1182   -1.6248 H   0  0  0  0  0  0  0  0  0  0  0  0
    1.6273   -1.5631   -0.8290 C   0  0  0  0  0  0  0  0  0  0  0  0
    2.1898   -1.9933    0.3559 N   0  0  0  0  0  0  0  0  0  0  0  0
    1.7283   -2.0123    1.2641 H   0  0  0  0  0  0  0  0  0  0  0  0
    3.3880   -2.6198    0.0710 C   0  0  0  0  0  0  0  0  0  0  0  0
    4.0387   -3.0863    0.8051 H   0  0  0  0  0  0  0  0  0  0  0  0
    3.6248   -2.5772   -1.2173 N   0  0  0  0  0  0  0  0  0  0  0  0
    2.5379   -1.9243   -1.7880 C   0  0  0  0  0  0  0  0  0  0  0  0
    2.4299   -1.7227   -2.8495 H   0  0  0  0  0  0  0  0  0  0  0  0
   -0.5490    1.0732    0.3656 C   0  0  0  0  0  0  0  0  0  0  0  0
   -1.3999    1.6794   -0.2759 O   0  0  0  0  0  0  0  0  0  0  0  0
    0.2478    1.7624    1.2616 N   0  0  0  0  0  0  0  0  0  0  0  0
    0.9430    1.2340    1.7809 H   0  0  0  0  0  0  0  0  0  0  0  0
    0.1662    3.2047    1.4589 C   0  0  0  0  0  0  0  0  0  0  0  0
   -0.8290    3.4867    1.8185 H   0  0  0  0  0  0  0  0  0  0  0  0
    0.9052    3.5280    2.1984 H   0  0  0  0  0  0  0  0  0  0  0  0
    0.3641    3.7320    0.5196 H   0  0  0  0  0  0  0  0  0  0  0  0
  1  2  1  0  0  0  0
  2  3  1  0  0  0  0
  2  4  1  0  0  0  0
  2  5  1  0  0  0  0
  5  6  2  0  0  0  0
  5  7  1  0  0  0  0
  7  8  1  0  0  0  0
  7  9  1  0  0  0  0
  9 10  1  0  0  0  0
  9 11  1  0  0  0  0
  9 22  1  0  0  0  0
 11 12  1  0  0  0  0
 11 13  1  0  0  0  0
 11 14  1  0  0  0  0
 14 15  1  0  0  0  0
 14 20  2  0  0  0  0
 15 16  1  0  0  0  0
 15 17  1  0  0  0  0
 17 18  1  0  0  0  0
 17 19  2  0  0  0  0
 19 20  1  0  0  0  0
 20 21  1  0  0  0  0
 22 23  2  0  0  0  0
 22 24  1  0  0  0  0
 24 25  1  0  0  0  0
 24 26  1  0  0  0  0
 26 27  1  0  0  0  0
 26 28  1  0  0  0  0
 26 29  1  0  0  0  0
M  END
$$$$

  -OEChem-04042215593D

 29 29  0     1  0  0  0  0  0999 V2000
   -3.6227   -3.5936    1.4965 H   0  0  0  0  0  0  0  0  0  0  0  0
   -3.5402   -2.6900    0.8861 C   0  0  0  0  0  0  0  0  0  0  0  0
   -4.1869   -1.9179    1.3095 H   0  0  0  0  0  0  0  0  0  0  0  0
   -3.8735   -2.9188   -0.1290 H   0  0  0  0  0  0  0  0  0  0  0  0
   -2.1030   -2.2060    0.8610 C   0  0  0  0  0  0  0  0  0  0  0  0
   -1.2355   -2.8233    1.4638 O   0  0  0  0  0  0  0  0  0  0  0  0
   -1.7722   -1.0670    0.1563 N   0  0  0  0  0  0  0  0  0  0  0  0
   -2.5300   -0.5160   -0.2448 H   0  0  0  0  0  0  0  0  0  0  0  0
   -0.4346   -0.4598    0.1828 C   0  0  1  0  0  0  0  0  0  0  0  0
    0.1133   -0.8160    1.0577 H   0  0  0  0  0  0  0  0  0  0  0  0
    0.3279   -0.7933   -1.1198 C   0  0  0  0  0  0  0  0  0  0  0  0
   -0.3113   -1.4004   -1.7694 H   0  0  0  0  0  0  0  0  0  0  0  0
    0.5628    0.1225   -1.6736 H   0  0  0  0  0  0  0  0  0  0  0  0
    1.6048   -1.5602   -0.8688 C   0  0  0  0  0  0  0  0  0  0  0  0
    2.0056   -2.2210    0.2746 N   0  0  0  0  0  0  0  0  0  0  0  0
    1.4073   -2.4487    1.0707 H   0  0  0  0  0  0  0  0  0  0  0  0
    3.2716   -2.7323    0.0641 C   0  0  0  0  0  0  0  0  0  0  0  0
    3.8304   -3.3303    0.7784 H   0  0  0  0  0  0  0  0  0  0  0  0
    3.7003   -2.3963   -1.1289 N   0  0  0  0  0  0  0  0  0  0  0  0
    2.6745   -1.6651   -1.7186 C   0  0  0  0  0  0  0  0  0  0  0  0
    2.7200   -1.2299   -2.7125 H   0  0  0  0  0  0  0  0  0  0  0  0
   -0.5454    1.0672    0.3530 C   0  0  0  0  0  0  0  0  0  0  0  0
   -1.4097    1.6841   -0.2597 O   0  0  0  0  0  0  0  0  0  0  0  0
    0.2681    1.7393    1.2467 N   0  0  0  0  0  0  0  0  0  0  0  0
    0.9827    1.2026    1.7307 H   0  0  0  0  0  0  0  0  0  0  0  0
    0.1968    3.1785    1.4679 C   0  0  0  0  0  0  0  0  0  0  0  0
   -0.7929    3.4598    1.8426 H   0  0  0  0  0  0  0  0  0  0  0  0
    0.9450    3.4857    2.2050 H   0  0  0  0  0  0  0  0  0  0  0  0
    0.3881    3.7195    0.5353 H   0  0  0  0  0  0  0  0  0  0  0  0
  1  2  1  0  0  0  0
  2  3  1  0  0  0  0
  2  4  1  0  0  0  0
  2  5  1  0  0  0  0
  5  6  2  0  0  0  0
  5  7  1  0  0  0  0
  7  8  1  0  0  0  0
  7  9  1  0  0  0  0
  9 10  1  0  0  0  0
  9 11  1  0  0  0  0
  9 22  1  0  0  0  0
 11 12  1  0  0  0  0
 11 13  1  0  0  0  0
 11 14  1  0  0  0  0
 14 15  1  0  0  0  0
 14 20  2  0  0  0  0
 15 16  1  0  0  0  0
 15 17  1  0  0  0  0
 17 18  1  0  0  0  0
 17 19  2  0  0  0  0
 19 20  1  0  0  0  0
 20 21  1  0  0  0  0
 22 23  2  0  0  0  0
 22 24  1  0  0  0  0
 24 25  1  0  0  0  0
 24 26  1  0  0  0  0
 26 27  1  0  0  0  0
 26 28  1  0  0  0  0
 26 29  1  0  0  0  0
M  END
$$$$

  -OEChem-04042215593D

 29 29  0     1  0  0  0  0  0999 V2000
   -3.5553   -3.6104    1.5221 H   0  0  0  0  0  0  0  0  0  0  0  0
   -3.4981   -2.7072    0.9083 C   0  0  0  0  0  0  0  0  0  0  0  0
   -4.1215   -1.9331    1.3622 H   0  0  0  0  0  0  0  0  0  0  0  0
   -3.8802   -2.9346   -0.0898 H   0  0  0  0  0  0  0  0  0  0  0  0
   -2.0621   -2.2285    0.8146 C   0  0  0  0  0  0  0  0  0  0  0  0
   -1.1610   -2.8761    1.3327 O   0  0  0  0  0  0  0  0  0  0  0  0
   -1.7647   -1.0713    0.1245 N   0  0  0  0  0  0  0  0  0  0  0  0
   -2.5412   -0.5015   -0.2092 H   0  0  0  0  0  0  0  0  0  0  0  0
   -0.4324   -0.4528    0.1397 C   0  0  1  0  0  0  0  0  0  0  0  0
    0.1307   -0.8167    1.0026 H   0  0  0  0  0  0  0  0  0  0  0  0
    0.3127   -0.7729   -1.1744 C   0  0  0  0  0  0  0  0  0  0  0  0
   -0.3249   -1.3860   -1.8195 H   0  0  0  0  0  0  0  0  0  0  0  0
    0.5374    0.1460   -1.7274 H   0  0  0  0  0  0  0  0  0  0  0  0
    1.5899   -1.5307   -0.9103 C   0  0  0  0  0  0  0  0  0  0  0  0
    1.8387   -2.4025    0.1295 N   0  0  0  0  0  0  0  0  0  0  0  0
    1.1419   -2.7566    0.7909 H   0  0  0  0  0  0  0  0  0  0  0  0
    3.1435   -2.8432    0.0276 C   0  0  0  0  0  0  0  0  0  0  0  0
    3.6155   -3.5583    0.6953 H   0  0  0  0  0  0  0  0  0  0  0  0
    3.7313   -2.2731   -0.9980 N   0  0  0  0  0  0  0  0  0  0  0  0
    2.7758   -1.4531   -1.5907 C   0  0  0  0  0  0  0  0  0  0  0  0
    2.9503   -0.8326   -2.4646 H   0  0  0  0  0  0  0  0  0  0  0  0
   -0.5447    1.0695    0.3428 C   0  0  0  0  0  0  0  0  0  0  0  0
   -1.4272    1.6941   -0.2348 O   0  0  0  0  0  0  0  0  0  0  0  0
    0.2840    1.7245    1.2349 N   0  0  0  0  0  0  0  0  0  0  0  0
    1.0130    1.1795    1.6877 H   0  0  0  0  0  0  0  0  0  0  0  0
    0.2154    3.1586    1.4879 C   0  0  0  0  0  0  0  0  0  0  0  0
   -0.7704    3.4326    1.8783 H   0  0  0  0  0  0  0  0  0  0  0  0
    0.9711    3.4487    2.2243 H   0  0  0  0  0  0  0  0  0  0  0  0
    0.3980    3.7197    0.5653 H   0  0  0  0  0  0  0  0  0  0  0  0
  1  2  1  0  0  0  0
  2  3  1  0  0  0  0
  2  4  1  0  0  0  0
  2  5  1  0  0  0  0
  5  6  2  0  0  0  0
  5  7  1  0  0  0  0
  7  8  1  0  0  0  0
  7  9  1  0  0  0  0
  9 10  1  0  0  0  0
  9 11  1  0  0  0  0
  9 22  1  0  0  0  0
 11 12  1  0  0  0  0
 11 13  1  0  0  0  0
 11 14  1  0  0  0  0
 14 15  1  0  0  0  0
 14 20  2  0  0  0  0
 15 16  1  0  0  0  0
 15 17  1  0  0  0  0
 17 18  1  0  0  0  0
 17 19  2  0  0  0  0
 19 20  1  0  0  0  0
 20 21  1  0  0  0  0
 22 23  2  0  0  0  0
 22 24  1  0  0  0  0
 24 25  1  0  0  0  0
 24 26  1  0  0  0  0
 26 27  1  0  0  0  0
 26 28  1  0  0  0  0
 26 29  1  0  0  0  0
M  END
$$$$

  -OEChem-04042215593D

 29 29  0     1  0  0  0  0  0999 V2000
   -3.4964   -3.6309    1.5285 H   0  0  0  0  0  0  0  0  0  0  0  0
   -3.4595   -2.7261    0.9154 C   0  0  0  0  0  0  0  0  0  0  0  0
   -4.0619   -1.9511    1.3955 H   0  0  0  0  0  0  0  0  0  0  0  0
   -3.8807   -2.9484   -0.0680 H   0  0  0  0  0  0  0  0  0  0  0  0
   -2.0264   -2.2517    0.7677 C   0  0  0  0  0  0  0  0  0  0  0  0
   -1.1051   -2.9261    1.2110 O   0  0  0  0  0  0  0  0  0  0  0  0
   -1.7550   -1.0775    0.0958 N   0  0  0  0  0  0  0  0  0  0  0  0
   -2.5463   -0.4994   -0.1851 H   0  0  0  0  0  0  0  0  0  0  0  0
   -0.4307   -0.4402    0.1019 C   0  0  1  0  0  0  0  0  0  0  0  0
    0.1450   -0.8153    0.9534 H   0  0  0  0  0  0  0  0  0  0  0  0
    0.3039   -0.7545   -1.2172 C   0  0  0  0  0  0  0  0  0  0  0  0
   -0.3250   -1.3783   -1.8610 H   0  0  0  0  0  0  0  0  0  0  0  0
    0.5199    0.1659   -1.7708 H   0  0  0  0  0  0  0  0  0  0  0  0
    1.5843   -1.4924   -0.9296 C   0  0  0  0  0  0  0  0  0  0  0  0
    1.7239   -2.5464   -0.0526 N   0  0  0  0  0  0  0  0  0  0  0  0
    0.9692   -2.9791    0.4898 H   0  0  0  0  0  0  0  0  0  0  0  0
    3.0479   -2.9378   -0.0505 C   0  0  0  0  0  0  0  0  0  0  0  0
    3.4576   -3.7499    0.5431 H   0  0  0  0  0  0  0  0  0  0  0  0
    3.7415   -2.1807   -0.8692 N   0  0  0  0  0  0  0  0  0  0  0  0
    2.8413   -1.2777   -1.4277 C   0  0  0  0  0  0  0  0  0  0  0  0
    3.1014   -0.5084   -2.1488 H   0  0  0  0  0  0  0  0  0  0  0  0
   -0.5453    1.0771    0.3341 C   0  0  0  0  0  0  0  0  0  0  0  0
   -1.4449    1.7064   -0.2109 O   0  0  0  0  0  0  0  0  0  0  0  0
    0.2967    1.7181    1.2240 N   0  0  0  0  0  0  0  0  0  0  0  0
    1.0339    1.1663    1.6553 H   0  0  0  0  0  0  0  0  0  0  0  0
    0.2251    3.1457    1.5102 C   0  0  0  0  0  0  0  0  0  0  0  0
   -0.7591    3.4073    1.9130 H   0  0  0  0  0  0  0  0  0  0  0  0
    0.9843    3.4217    2.2484 H   0  0  0  0  0  0  0  0  0  0  0  0
    0.3999    3.7285    0.5997 H   0  0  0  0  0  0  0  0  0  0  0  0
  1  2  1  0  0  0  0
  2  3  1  0  0  0  0
  2  4  1  0  0  0  0
  2  5  1  0  0  0  0
  5  6  2  0  0  0  0
  5  7  1  0  0  0  0
  7  8  1  0  0  0  0
  7  9  1  0  0  0  0
  9 10  1  0  0  0  0
  9 11  1  0  0  0  0
  9 22  1  0  0  0  0
 11 12  1  0  0  0  0
 11 13  1  0  0  0  0
 11 14  1  0  0  0  0
 14 15  1  0  0  0  0
 14 20  2  0  0  0  0
 15 16  1  0  0  0  0
 15 17  1  0  0  0  0
 17 18  1  0  0  0  0
 17 19  2  0  0  0  0
 19 20  1  0  0  0  0
 20 21  1  0  0  0  0
 22 23  2  0  0  0  0
 22 24  1  0  0  0  0
 24 25  1  0  0  0  0
 24 26  1  0  0  0  0
 26 27  1  0  0  0  0
 26 28  1  0  0  0  0
 26 29  1  0  0  0  0
M  END
$$$$

  -OEChem-04042215593D

 29 29  0     1  0  0  0  0  0999 V2000
   -3.4644   -3.6442    1.5171 H   0  0  0  0  0  0  0  0  0  0  0  0
   -3.4380   -2.7352    0.9100 C   0  0  0  0  0  0  0  0  0  0  0  0
   -4.0244   -1.9610    1.4108 H   0  0  0  0  0  0  0  0  0  0  0  0
   -3.8848   -2.9481   -0.0641 H   0  0  0  0  0  0  0  0  0  0  0  0
   -2.0064   -2.2673    0.7305 C   0  0  0  0  0  0  0  0  0  0  0  0
   -1.0781   -2.9646    1.1191 O   0  0  0  0  0  0  0  0  0  0  0  0
   -1.7474   -1.0815    0.0745 N   0  0  0  0  0  0  0  0  0  0  0  0
   -2.5466   -0.4989   -0.1723 H   0  0  0  0  0  0  0  0  0  0  0  0
   -0.4299   -0.4286    0.0773 C   0  0  1  0  0  0  0  0  0  0  0  0
    0.1510   -0.8153    0.9213 H   0  0  0  0  0  0  0  0  0  0  0  0
    0.3017   -0.7443   -1.2405 C   0  0  0  0  0  0  0  0  0  0  0  0
   -0.3168   -1.3773   -1.8856 H   0  0  0  0  0  0  0  0  0  0  0  0
    0.5131    0.1767   -1.7948 H   0  0  0  0  0  0  0  0  0  0  0  0
    1.5842   -1.4631   -0.9267 C   0  0  0  0  0  0  0  0  0  0  0  0
    1.6723   -2.6665   -0.2639 N   0  0  0  0  0  0  0  0  0  0  0  0
    0.8907   -3.1720    0.1647 H   0  0  0  0  0  0  0  0  0  0  0  0
    3.0060   -3.0116   -0.1696 C   0  0  0  0  0  0  0  0  0  0  0  0
    3.3870   -3.9036    0.3195 H   0  0  0  0  0  0  0  0  0  0  0  0
    3.7495   -2.0974   -0.7502 N   0  0  0  0  0  0  0  0  0  0  0  0
    2.8750   -1.1304   -1.2369 C   0  0  0  0  0  0  0  0  0  0  0  0
    3.1753   -0.2385   -1.7787 H   0  0  0  0  0  0  0  0  0  0  0  0
   -0.5465    1.0849    0.3291 C   0  0  0  0  0  0  0  0  0  0  0  0
   -1.4554    1.7167   -0.1969 O   0  0  0  0  0  0  0  0  0  0  0  0
    0.3028    1.7173    1.2182 N   0  0  0  0  0  0  0  0  0  0  0  0
    1.0460    1.1624    1.6353 H   0  0  0  0  0  0  0  0  0  0  0  0
    0.2257    3.1396    1.5280 C   0  0  0  0  0  0  0  0  0  0  0  0
   -0.7578    3.3902    1.9390 H   0  0  0  0  0  0  0  0  0  0  0  0
    0.9864    3.4067    2.2678 H   0  0  0  0  0  0  0  0  0  0  0  0
    0.3944    3.7378    0.6266 H   0  0  0  0  0  0  0  0  0  0  0  0
  1  2  1  0  0  0  0
  2  3  1  0  0  0  0
  2  4  1  0  0  0  0
  2  5  1  0  0  0  0
  5  6  2  0  0  0  0
  5  7  1  0  0  0  0
  7  8  1  0  0  0  0
  7  9  1  0  0  0  0
  9 10  1  0  0  0  0
  9 11  1  0  0  0  0
  9 22  1  0  0  0  0
 11 12  1  0  0  0  0
 11 13  1  0  0  0  0
 11 14  1  0  0  0  0
 14 15  1  0  0  0  0
 14 20  2  0  0  0  0
 15 16  1  0  0  0  0
 15 17  1  0  0  0  0
 17 18  1  0  0  0  0
 17 19  2  0  0  0  0
 19 20  1  0  0  0  0
 20 21  1  0  0  0  0
 22 23  2  0  0  0  0
 22 24  1  0  0  0  0
 24 25  1  0  0  0  0
 24 26  1  0  0  0  0
 26 27  1  0  0  0  0
 26 28  1  0  0  0  0
 26 29  1  0  0  0  0
M  END
$$$$

  -OEChem-04042215593D

 29 29  0     1  0  0  0  0  0999 V2000
   -3.4695   -3.6427    1.4975 H   0  0  0  0  0  0  0  0  0  0  0  0
   -3.4428   -2.7258    0.9024 C   0  0  0  0  0  0  0  0  0  0  0  0
   -4.0129   -1.9527    1.4234 H   0  0  0  0  0  0  0  0  0  0  0  0
   -3.9075   -2.9206   -0.0672 H   0  0  0  0  0  0  0  0  0  0  0  0
   -2.0090   -2.2707    0.7073 C   0  0  0  0  0  0  0  0  0  0  0  0
   -1.0844   -2.9848    1.0701 O   0  0  0  0  0  0  0  0  0  0  0  0
   -1.7472   -1.0811    0.0599 N   0  0  0  0  0  0  0  0  0  0  0  0
   -2.5473   -0.4945   -0.1741 H   0  0  0  0  0  0  0  0  0  0  0  0
   -0.4319   -0.4224    0.0667 C   0  0  1  0  0  0  0  0  0  0  0  0
    0.1450   -0.8153    0.9114 H   0  0  0  0  0  0  0  0  0  0  0  0
    0.3071   -0.7461   -1.2431 C   0  0  0  0  0  0  0  0  0  0  0  0
   -0.3030   -1.3825   -1.8925 H   0  0  0  0  0  0  0  0  0  0  0  0
    0.5211    0.1742   -1.7976 H   0  0  0  0  0  0  0  0  0  0  0  0
    1.5896   -1.4547   -0.9097 C   0  0  0  0  0  0  0  0  0  0  0  0
    1.6926   -2.7637   -0.5001 N   0  0  0  0  0  0  0  0  0  0  0  0
    0.9123   -3.3626   -0.2202 H   0  0  0  0  0  0  0  0  0  0  0  0
    3.0312   -3.0573   -0.3274 C   0  0  0  0  0  0  0  0  0  0  0  0
    3.4208   -4.0084    0.0240 H   0  0  0  0  0  0  0  0  0  0  0  0
    3.7662   -2.0143   -0.6386 N   0  0  0  0  0  0  0  0  0  0  0  0
    2.8800   -1.0117   -1.0190 C   0  0  0  0  0  0  0  0  0  0  0  0
    3.1711   -0.0200   -1.3524 H   0  0  0  0  0  0  0  0  0  0  0  0
   -0.5477    1.0894    0.3251 C   0  0  0  0  0  0  0  0  0  0  0  0
   -1.4583    1.7233   -0.1954 O   0  0  0  0  0  0  0  0  0  0  0  0
    0.3020    1.7173    1.2170 N   0  0  0  0  0  0  0  0  0  0  0  0
    1.0402    1.1584    1.6380 H   0  0  0  0  0  0  0  0  0  0  0  0
    0.2200    3.1366    1.5392 C   0  0  0  0  0  0  0  0  0  0  0  0
   -0.7627    3.3798    1.9570 H   0  0  0  0  0  0  0  0  0  0  0  0
    0.9833    3.4016    2.2772 H   0  0  0  0  0  0  0  0  0  0  0  0
    0.3808    3.7426    0.6415 H   0  0  0  0  0  0  0  0  0  0  0  0
  1  2  1  0  0  0  0
  2  3  1  0  0  0  0
  2  4  1  0  0  0  0
  2  5  1  0  0  0  0
  5  6  2  0  0  0  0
  5  7  1  0  0  0  0
  7  8  1  0  0  0  0
  7  9  1  0  0  0  0
  9 10  1  0  0  0  0
  9 11  1  0  0  0  0
  9 22  1  0  0  0  0
 11 12  1  0  0  0  0
 11 13  1  0  0  0  0
 11 14  1  0  0  0  0
 14 15  1  0  0  0  0
 14 20  2  0  0  0  0
 15 16  1  0  0  0  0
 15 17  1  0  0  0  0
 17 18  1  0  0  0  0
 17 19  2  0  0  0  0
 19 20  1  0  0  0  0
 20 21  1  0  0  0  0
 22 23  2  0  0  0  0
 22 24  1  0  0  0  0
 24 25  1  0  0  0  0
 24 26  1  0  0  0  0
 26 27  1  0  0  0  0
 26 28  1  0  0  0  0
 26 29  1  0  0  0  0
M  END
$$$$

  -OEChem-04042215593D

 29 29  0     1  0  0  0  0  0999 V2000
   -3.5192   -3.6255    1.4887 H   0  0  0  0  0  0  0  0  0  0  0  0
   -3.4702   -2.7149    0.8852 C   0  0  0  0  0  0  0  0  0  0  0  0
   -4.0575   -1.9355    1.3769 H   0  0  0  0  0  0  0  0  0  0  0  0
   -3.8998   -2.9193   -0.0985 H   0  0  0  0  0  0  0  0  0  0  0  0
   -2.0300   -2.2629    0.7365 C   0  0  0  0  0  0  0  0  0  0  0  0
   -1.1227   -2.9679    1.1517 O   0  0  0  0  0  0  0  0  0  0  0  0
   -1.7477   -1.0816    0.0831 N   0  0  0  0  0  0  0  0  0  0  0  0
   -2.5407   -0.5010   -0.1865 H   0  0  0  0  0  0  0  0  0  0  0  0
   -0.4297   -0.4279    0.0904 C   0  0  1  0  0  0  0  0  0  0  0  0
    0.1473   -0.8224    0.9345 H   0  0  0  0  0  0  0  0  0  0  0  0
    0.3104   -0.7506   -1.2199 C   0  0  0  0  0  0  0  0  0  0  0  0
   -0.3036   -1.3755   -1.8766 H   0  0  0  0  0  0  0  0  0  0  0  0
    0.5284    0.1735   -1.7665 H   0  0  0  0  0  0  0  0  0  0  0  0
    1.5951   -1.4637   -0.9011 C   0  0  0  0  0  0  0  0  0  0  0  0
    1.7676   -2.8226   -0.7807 N   0  0  0  0  0  0  0  0  0  0  0  0
    1.0221   -3.5170   -0.7351 H   0  0  0  0  0  0  0  0  0  0  0  0
    3.1039   -3.0682   -0.5298 C   0  0  0  0  0  0  0  0  0  0  0  0
    3.5353   -4.0493   -0.3530 H   0  0  0  0  0  0  0  0  0  0  0  0
    3.7782   -1.9417   -0.5269 N   0  0  0  0  0  0  0  0  0  0  0  0
    2.8515   -0.9348   -0.7733 C   0  0  0  0  0  0  0  0  0  0  0  0
    3.0912    0.1213   -0.8528 H   0  0  0  0  0  0  0  0  0  0  0  0
   -0.5450    1.0864    0.3343 C   0  0  0  0  0  0  0  0  0  0  0  0
   -1.4406    1.7202   -0.2116 O   0  0  0  0  0  0  0  0  0  0  0  0
    0.3004    1.7212    1.2253 N   0  0  0  0  0  0  0  0  0  0  0  0
    1.0157    1.1590    1.6798 H   0  0  0  0  0  0  0  0  0  0  0  0
    0.2189    3.1435    1.5337 C   0  0  0  0  0  0  0  0  0  0  0  0
   -0.7647    3.3908    1.9468 H   0  0  0  0  0  0  0  0  0  0  0  0
    0.9808    3.4149    2.2707 H   0  0  0  0  0  0  0  0  0  0  0  0
    0.3828    3.7411    0.6307 H   0  0  0  0  0  0  0  0  0  0  0  0
  1  2  1  0  0  0  0
  2  3  1  0  0  0  0
  2  4  1  0  0  0  0
  2  5  1  0  0  0  0
  5  6  2  0  0  0  0
  5  7  1  0  0  0  0
  7  8  1  0  0  0  0
  7  9  1  0  0  0  0
  9 10  1  0  0  0  0
  9 11  1  0  0  0  0
  9 22  1  0  0  0  0
 11 12  1  0  0  0  0
 11 13  1  0  0  0  0
 11 14  1  0  0  0  0
 14 15  1  0  0  0  0
 14 20  2  0  0  0  0
 15 16  1  0  0  0  0
 15 17  1  0  0  0  0
 17 18  1  0  0  0  0
 17 19  2  0  0  0  0
 19 20  1  0  0  0  0
 20 21  1  0  0  0  0
 22 23  2  0  0  0  0
 22 24  1  0  0  0  0
 24 25  1  0  0  0  0
 24 26  1  0  0  0  0
 26 27  1  0  0  0  0
 26 28  1  0  0  0  0
 26 29  1  0  0  0  0
M  END
$$$$

  -OEChem-04042215593D

 29 29  0     1  0  0  0  0  0999 V2000
   -3.5583   -3.6205    1.4728 H   0  0  0  0  0  0  0  0  0  0  0  0
   -3.4913   -2.7085    0.8730 C   0  0  0  0  0  0  0  0  0  0  0  0
   -4.0998   -1.9327    1.3437 H   0  0  0  0  0  0  0  0  0  0  0  0
   -3.8828   -2.9135   -0.1262 H   0  0  0  0  0  0  0  0  0  0  0  0
   -2.0485   -2.2498    0.7786 C   0  0  0  0  0  0  0  0  0  0  0  0
   -1.1604   -2.9293    1.2677 O   0  0  0  0  0  0  0  0  0  0  0  0
   -1.7459   -1.0798    0.1141 N   0  0  0  0  0  0  0  0  0  0  0  0
   -2.5295   -0.5112   -0.2036 H   0  0  0  0  0  0  0  0  0  0  0  0
   -0.4236   -0.4341    0.1183 C   0  0  1  0  0  0  0  0  0  0  0  0
    0.1556   -0.8265    0.9618 H   0  0  0  0  0  0  0  0  0  0  0  0
    0.3140   -0.7538   -1.1965 C   0  0  0  0  0  0  0  0  0  0  0  0
   -0.3096   -1.3693   -1.8528 H   0  0  0  0  0  0  0  0  0  0  0  0
    0.5329    0.1718   -1.7402 H   0  0  0  0  0  0  0  0  0  0  0  0
    1.6023   -1.4755   -0.9072 C   0  0  0  0  0  0  0  0  0  0  0  0
    1.8683   -2.8143   -1.0784 N   0  0  0  0  0  0  0  0  0  0  0  0
    1.1906   -3.5349   -1.3200 H   0  0  0  0  0  0  0  0  0  0  0  0
    3.1866   -3.0426   -0.7313 C   0  0  0  0  0  0  0  0  0  0  0  0
    3.6748   -4.0128   -0.7384 H   0  0  0  0  0  0  0  0  0  0  0  0
    3.7657   -1.9163   -0.3876 N   0  0  0  0  0  0  0  0  0  0  0  0
    2.7926   -0.9308   -0.5041 C   0  0  0  0  0  0  0  0  0  0  0  0
    2.9545    0.1242   -0.3040 H   0  0  0  0  0  0  0  0  0  0  0  0
   -0.5406    1.0836    0.3434 C   0  0  0  0  0  0  0  0  0  0  0  0
   -1.4230    1.7140   -0.2278 O   0  0  0  0  0  0  0  0  0  0  0  0
    0.3003    1.7295    1.2309 N   0  0  0  0  0  0  0  0  0  0  0  0
    0.9906    1.1669    1.7218 H   0  0  0  0  0  0  0  0  0  0  0  0
    0.2147    3.1547    1.5244 C   0  0  0  0  0  0  0  0  0  0  0  0
   -0.7681    3.4027    1.9390 H   0  0  0  0  0  0  0  0  0  0  0  0
    0.9790    3.4365    2.2551 H   0  0  0  0  0  0  0  0  0  0  0  0
    0.3728    3.7435    0.6147 H   0  0  0  0  0  0  0  0  0  0  0  0
  1  2  1  0  0  0  0
  2  3  1  0  0  0  0
  2  4  1  0  0  0  0
  2  5  1  0  0  0  0
  5  6  2  0  0  0  0
  5  7  1  0  0  0  0
  7  8  1  0  0  0  0
  7  9  1  0  0  0  0
  9 10  1  0  0  0  0
  9 11  1  0  0  0  0
  9 22  1  0  0  0  0
 11 12  1  0  0  0  0
 11 13  1  0  0  0  0
 11 14  1  0  0  0  0
 14 15  1  0  0  0  0
 14 20  2  0  0  0  0
 15 16  1  0  0  0  0
 15 17  1  0  0  0  0
 17 18  1  0  0  0  0
 17 19  2  0  0  0  0
 19 20  1  0  0  0  0
 20 21  1  0  0  0  0
 22 23  2  0  0  0  0
 22 24  1  0  0  0  0
 24 25  1  0  0  0  0
 24 26  1  0  0  0  0
 26 27  1  0  0  0  0
 26 28  1  0  0  0  0
 26 29  1  0  0  0  0
M  END
$$$$

  -OEChem-04042215593D

 29 29  0     1  0  0  0  0  0999 V2000
   -3.5670   -3.6242    1.4630 H   0  0  0  0  0  0  0  0  0  0  0  0
   -3.4925   -2.7114    0.8654 C   0  0  0  0  0  0  0  0  0  0  0  0
   -4.1215   -1.9418    1.3191 H   0  0  0  0  0  0  0  0  0  0  0  0
   -3.8543   -2.9205   -0.1440 H   0  0  0  0  0  0  0  0  0  0  0  0
   -2.0520   -2.2387    0.8111 C   0  0  0  0  0  0  0  0  0  0  0  0
   -1.1769   -2.8921    1.3550 O   0  0  0  0  0  0  0  0  0  0  0  0
   -1.7398   -1.0761    0.1379 N   0  0  0  0  0  0  0  0  0  0  0  0
   -2.5171   -0.5218   -0.2181 H   0  0  0  0  0  0  0  0  0  0  0  0
   -0.4163   -0.4320    0.1429 C   0  0  1  0  0  0  0  0  0  0  0  0
    0.1627   -0.8200    0.9880 H   0  0  0  0  0  0  0  0  0  0  0  0
    0.3217   -0.7491   -1.1749 C   0  0  0  0  0  0  0  0  0  0  0  0
   -0.3108   -1.3647   -1.8224 H   0  0  0  0  0  0  0  0  0  0  0  0
    0.5340    0.1747   -1.7243 H   0  0  0  0  0  0  0  0  0  0  0  0
    1.6163   -1.4751   -0.9157 C   0  0  0  0  0  0  0  0  0  0  0  0
    1.9809   -2.7257   -1.3608 N   0  0  0  0  0  0  0  0  0  0  0  0
    1.3935   -3.3761   -1.8782 H   0  0  0  0  0  0  0  0  0  0  0  0
    3.2616   -2.9911   -0.9133 C   0  0  0  0  0  0  0  0  0  0  0  0
    3.8073   -3.9129   -1.0941 H   0  0  0  0  0  0  0  0  0  0  0  0
    3.7262   -1.9675   -0.2370 N   0  0  0  0  0  0  0  0  0  0  0  0
    2.7132   -1.0163   -0.2342 C   0  0  0  0  0  0  0  0  0  0  0  0
    2.7840   -0.0417    0.2393 H   0  0  0  0  0  0  0  0  0  0  0  0
   -0.5394    1.0874    0.3529 C   0  0  0  0  0  0  0  0  0  0  0  0
   -1.4126    1.7113   -0.2390 O   0  0  0  0  0  0  0  0  0  0  0  0
    0.2933    1.7454    1.2392 N   0  0  0  0  0  0  0  0  0  0  0  0
    0.9678    1.1876    1.7567 H   0  0  0  0  0  0  0  0  0  0  0  0
    0.2000    3.1738    1.5152 C   0  0  0  0  0  0  0  0  0  0  0  0
   -0.7841    3.4217    1.9270 H   0  0  0  0  0  0  0  0  0  0  0  0
    0.9631    3.4693    2.2418 H   0  0  0  0  0  0  0  0  0  0  0  0
    0.3545    3.7517    0.5979 H   0  0  0  0  0  0  0  0  0  0  0  0
  1  2  1  0  0  0  0
  2  3  1  0  0  0  0
  2  4  1  0  0  0  0
  2  5  1  0  0  0  0
  5  6  2  0  0  0  0
  5  7  1  0  0  0  0
  7  8  1  0  0  0  0
  7  9  1  0  0  0  0
  9 10  1  0  0  0  0
  9 11  1  0  0  0  0
  9 22  1  0  0  0  0
 11 12  1  0  0  0  0
 11 13  1  0  0  0  0
 11 14  1  0  0  0  0
 14 15  1  0  0  0  0
 14 20  2  0  0  0  0
 15 16  1  0  0  0  0
 15 17  1  0  0  0  0
 17 18  1  0  0  0  0
 17 19  2  0  0  0  0
 19 20  1  0  0  0  0
 20 21  1  0  0  0  0
 22 23  2  0  0  0  0
 22 24  1  0  0  0  0
 24 25  1  0  0  0  0
 24 26  1  0  0  0  0
 26 27  1  0  0  0  0
 26 28  1  0  0  0  0
 26 29  1  0  0  0  0
M  END
$$$$

  -OEChem-04042215593D

 29 29  0     1  0  0  0  0  0999 V2000
   -3.5687   -3.6284    1.4526 H   0  0  0  0  0  0  0  0  0  0  0  0
   -3.4892   -2.7147    0.8569 C   0  0  0  0  0  0  0  0  0  0  0  0
   -4.1371   -1.9515    1.2949 H   0  0  0  0  0  0  0  0  0  0  0  0
   -3.8244   -2.9277   -0.1610 H   0  0  0  0  0  0  0  0  0  0  0  0
   -2.0526   -2.2267    0.8376 C   0  0  0  0  0  0  0  0  0  0  0  0
   -1.1888   -2.8573    1.4244 O   0  0  0  0  0  0  0  0  0  0  0  0
   -1.7324   -1.0713    0.1558 N   0  0  0  0  0  0  0  0  0  0  0  0
   -2.5038   -0.5292   -0.2303 H   0  0  0  0  0  0  0  0  0  0  0  0
   -0.4099   -0.4254    0.1700 C   0  0  1  0  0  0  0  0  0  0  0  0
    0.1598   -0.8043    1.0243 H   0  0  0  0  0  0  0  0  0  0  0  0
    0.3404   -0.7438   -1.1435 C   0  0  0  0  0  0  0  0  0  0  0  0
   -0.2945   -1.3667   -1.7818 H   0  0  0  0  0  0  0  0  0  0  0  0
    0.5439    0.1760   -1.7027 H   0  0  0  0  0  0  0  0  0  0  0  0
    1.6427   -1.4700   -0.9096 C   0  0  0  0  0  0  0  0  0  0  0  0
    2.1116   -2.5679   -1.5965 N   0  0  0  0  0  0  0  0  0  0  0  0
    1.6256   -3.0676   -2.3379 H   0  0  0  0  0  0  0  0  0  0  0  0
    3.3445   -2.9166   -1.0772 C   0  0  0  0  0  0  0  0  0  0  0  0
    3.9515   -3.7511   -1.4163 H   0  0  0  0  0  0  0  0  0  0  0  0
    3.6797   -2.0914   -0.1150 N   0  0  0  0  0  0  0  0  0  0  0  0
    2.6281   -1.1907    0.0027 C   0  0  0  0  0  0  0  0  0  0  0  0
    2.5981   -0.3728    0.7160 H   0  0  0  0  0  0  0  0  0  0  0  0
   -0.5445    1.0960    0.3623 C   0  0  0  0  0  0  0  0  0  0  0  0
   -1.4112    1.7089   -0.2507 O   0  0  0  0  0  0  0  0  0  0  0  0
    0.2721    1.7699    1.2518 N   0  0  0  0  0  0  0  0  0  0  0  0
    0.9409    1.2228    1.7873 H   0  0  0  0  0  0  0  0  0  0  0  0
    0.1703    3.2019    1.5053 C   0  0  0  0  0  0  0  0  0  0  0  0
   -0.8182    3.4514    1.9051 H   0  0  0  0  0  0  0  0  0  0  0  0
    0.9263    3.5116    2.2334 H   0  0  0  0  0  0  0  0  0  0  0  0
    0.3300    3.7668    0.5808 H   0  0  0  0  0  0  0  0  0  0  0  0
  1  2  1  0  0  0  0
  2  3  1  0  0  0  0
  2  4  1  0  0  0  0
  2  5  1  0  0  0  0
  5  6  2  0  0  0  0
  5  7  1  0  0  0  0
  7  8  1  0  0  0  0
  7  9  1  0  0  0  0
  9 10  1  0  0  0  0
  9 11  1  0  0  0  0
  9 22  1  0  0  0  0
 11 12  1  0  0  0  0
 11 13  1  0  0  0  0
 11 14  1  0  0  0  0
 14 15  1  0  0  0  0
 14 20  2  0  0  0  0
 15 16  1  0  0  0  0
 15 17  1  0  0  0  0
 17 18  1  0  0  0  0
 17 19  2  0  0  0  0
 19 20  1  0  0  0  0
 20 21  1  0  0  0  0
 22 23  2  0  0  0  0
 22 24  1  0  0  0  0
 24 25  1  0  0  0  0
 24 26  1  0  0  0  0
 26 27  1  0  0  0  0
 26 28  1  0  0  0  0
 26 29  1  0  0  0  0
M  END
$$$$

  -OEChem-04042215593D

 29 29  0     1  0  0  0  0  0999 V2000
   -3.5810   -3.6258    1.4400 H   0  0  0  0  0  0  0  0  0  0  0  0
   -3.4944   -2.7117    0.8459 C   0  0  0  0  0  0  0  0  0  0  0  0
   -4.1563   -1.9524    1.2694 H   0  0  0  0  0  0  0  0  0  0  0  0
   -3.8058   -2.9272   -0.1790 H   0  0  0  0  0  0  0  0  0  0  0  0
   -2.0609   -2.2151    0.8581 C   0  0  0  0  0  0  0  0  0  0  0  0
   -1.2106   -2.8266    1.4835 O   0  0  0  0  0  0  0  0  0  0  0  0
   -1.7295   -1.0676    0.1681 N   0  0  0  0  0  0  0  0  0  0  0  0
   -2.4925   -0.5372   -0.2498 H   0  0  0  0  0  0  0  0  0  0  0  0
   -0.4079   -0.4203    0.1975 C   0  0  1  0  0  0  0  0  0  0  0  0
    0.1444   -0.7882    1.0664 H   0  0  0  0  0  0  0  0  0  0  0  0
    0.3634   -0.7451   -1.1043 C   0  0  0  0  0  0  0  0  0  0  0  0
   -0.2673   -1.3739   -1.7410 H   0  0  0  0  0  0  0  0  0  0  0  0
    0.5639    0.1722   -1.6686 H   0  0  0  0  0  0  0  0  0  0  0  0
    1.6712   -1.4704   -0.8824 C   0  0  0  0  0  0  0  0  0  0  0  0
    2.2546   -2.3618   -1.7563 N   0  0  0  0  0  0  0  0  0  0  0  0
    1.8758   -2.6628   -2.6517 H   0  0  0  0  0  0  0  0  0  0  0  0
    3.4406   -2.8094   -1.2055 C   0  0  0  0  0  0  0  0  0  0  0  0
    4.1155   -3.5228   -1.6700 H   0  0  0  0  0  0  0  0  0  0  0  0
    3.6380   -2.2443   -0.0397 N   0  0  0  0  0  0  0  0  0  0  0  0
    2.5415   -1.4187    0.1784 C   0  0  0  0  0  0  0  0  0  0  0  0
    2.4067   -0.8081    1.0655 H   0  0  0  0  0  0  0  0  0  0  0  0
   -0.5513    1.1030    0.3696 C   0  0  0  0  0  0  0  0  0  0  0  0
   -1.4089    1.7056   -0.2664 O   0  0  0  0  0  0  0  0  0  0  0  0
    0.2468    1.7911    1.2651 N   0  0  0  0  0  0  0  0  0  0  0  0
    0.9173    1.2554    1.8098 H   0  0  0  0  0  0  0  0  0  0  0  0
    0.1377    3.2262    1.4973 C   0  0  0  0  0  0  0  0  0  0  0  0
   -0.8576    3.4784    1.8780 H   0  0  0  0  0  0  0  0  0  0  0  0
    0.8811    3.5476    2.2332 H   0  0  0  0  0  0  0  0  0  0  0  0
    0.3109    3.7793    0.5681 H   0  0  0  0  0  0  0  0  0  0  0  0
  1  2  1  0  0  0  0
  2  3  1  0  0  0  0
  2  4  1  0  0  0  0
  2  5  1  0  0  0  0
  5  6  2  0  0  0  0
  5  7  1  0  0  0  0
  7  8  1  0  0  0  0
  7  9  1  0  0  0  0
  9 10  1  0  0  0  0
  9 11  1  0  0  0  0
  9 22  1  0  0  0  0
 11 12  1  0  0  0  0
 11 13  1  0  0  0  0
 11 14  1  0  0  0  0
 14 15  1  0  0  0  0
 14 20  2  0  0  0  0
 15 16  1  0  0  0  0
 15 17  1  0  0  0  0
 17 18  1  0  0  0  0
 17 19  2  0  0  0  0
 19 20  1  0  0  0  0
 20 21  1  0  0  0  0
 22 23  2  0  0  0  0
 22 24  1  0  0  0  0
 24 25  1  0  0  0  0
 24 26  1  0  0  0  0
 26 27  1  0  0  0  0
 26 28  1  0  0  0  0
 26 29  1  0  0  0  0
M  END
$$$$

  -OEChem-04042215593D

 29 29  0     1  0  0  0  0  0999 V2000
   -3.5971   -3.6194    1.4292 H   0  0  0  0  0  0  0  0  0  0  0  0
   -3.5036   -2.7060    0.8351 C   0  0  0  0  0  0  0  0  0  0  0  0
   -4.1756   -1.9484    1.2454 H   0  0  0  0  0  0  0  0  0  0  0  0
   -3.7964   -2.9244   -0.1946 H   0  0  0  0  0  0  0  0  0  0  0  0
   -2.0727   -2.2035    0.8715 C   0  0  0  0  0  0  0  0  0  0  0  0
   -1.2339   -2.8000    1.5263 O   0  0  0  0  0  0  0  0  0  0  0  0
   -1.7301   -1.0636    0.1745 N   0  0  0  0  0  0  0  0  0  0  0  0
   -2.4852   -0.5388   -0.2639 H   0  0  0  0  0  0  0  0  0  0  0  0
   -0.4086   -0.4177    0.2207 C   0  0  1  0  0  0  0  0  0  0  0  0
    0.1259   -0.7721    1.1044 H   0  0  0  0  0  0  0  0  0  0  0  0
    0.3828   -0.7513   -1.0679 C   0  0  0  0  0  0  0  0  0  0  0  0
   -0.2418   -1.3783   -1.7123 H   0  0  0  0  0  0  0  0  0  0  0  0
    0.5894    0.1666   -1.6291 H   0  0  0  0  0  0  0  0  0  0  0  0
    1.6919   -1.4789   -0.8489 C   0  0  0  0  0  0  0  0  0  0  0  0
    2.4020   -2.1252   -1.8379 N   0  0  0  0  0  0  0  0  0  0  0  0
    2.1353   -2.2015   -2.8172 H   0  0  0  0  0  0  0  0  0  0  0  0
    3.5423   -2.6727   -1.2822 C   0  0  0  0  0  0  0  0  0  0  0  0
    4.2940   -3.2372   -1.8264 H   0  0  0  0  0  0  0  0  0  0  0  0
    3.5890   -2.4084   -0.0002 N   0  0  0  0  0  0  0  0  0  0  0  0
    2.4394   -1.6809    0.2869 C   0  0  0  0  0  0  0  0  0  0  0  0
    2.1884   -1.3174    1.2782 H   0  0  0  0  0  0  0  0  0  0  0  0
   -0.5560    1.1076    0.3743 C   0  0  0  0  0  0  0  0  0  0  0  0
   -1.4031    1.7028   -0.2825 O   0  0  0  0  0  0  0  0  0  0  0  0
    0.2253    1.8056    1.2768 N   0  0  0  0  0  0  0  0  0  0  0  0
    0.8930    1.2771    1.8322 H   0  0  0  0  0  0  0  0  0  0  0  0
    0.1135    3.2436    1.4894 C   0  0  0  0  0  0  0  0  0  0  0  0
   -0.8877    3.5014    1.8504 H   0  0  0  0  0  0  0  0  0  0  0  0
    0.8449    3.5739    2.2333 H   0  0  0  0  0  0  0  0  0  0  0  0
    0.3021    3.7849    0.5563 H   0  0  0  0  0  0  0  0  0  0  0  0
  1  2  1  0  0  0  0
  2  3  1  0  0  0  0
  2  4  1  0  0  0  0
  2  5  1  0  0  0  0
  5  6  2  0  0  0  0
  5  7  1  0  0  0  0
  7  8  1  0  0  0  0
  7  9  1  0  0  0  0
  9 10  1  0  0  0  0
  9 11  1  0  0  0  0
  9 22  1  0  0  0  0
 11 12  1  0  0  0  0
 11 13  1  0  0  0  0
 11 14  1  0  0  0  0
 14 15  1  0  0  0  0
 14 20  2  0  0  0  0
 15 16  1  0  0  0  0
 15 17  1  0  0  0  0
 17 18  1  0  0  0  0
 17 19  2  0  0  0  0
 19 20  1  0  0  0  0
 20 21  1  0  0  0  0
 22 23  2  0  0  0  0
 22 24  1  0  0  0  0
 24 25  1  0  0  0  0
 24 26  1  0  0  0  0
 26 27  1  0  0  0  0
 26 28  1  0  0  0  0
 26 29  1  0  0  0  0
M  END
$$$$

  -OEChem-04042215593D

 29 29  0     1  0  0  0  0  0999 V2000
   -3.6035   -3.5974    1.4378 H   0  0  0  0  0  0  0  0  0  0  0  0
   -3.4957   -2.6900    0.8371 C   0  0  0  0  0  0  0  0  0  0  0  0
   -4.1881   -1.9333    1.2136 H   0  0  0  0  0  0  0  0  0  0  0  0
   -3.7486   -2.9227   -0.1999 H   0  0  0  0  0  0  0  0  0  0  0  0
   -2.0709   -2.1759    0.9195 C   0  0  0  0  0  0  0  0  0  0  0  0
   -1.2584   -2.7406    1.6333 O   0  0  0  0  0  0  0  0  0  0  0  0
   -1.7048   -1.0556    0.2038 N   0  0  0  0  0  0  0  0  0  0  0  0
   -2.4396   -0.5507   -0.2891 H   0  0  0  0  0  0  0  0  0  0  0  0
   -0.3769   -0.4253    0.2587 C   0  0  1  0  0  0  0  0  0  0  0  0
    0.1705   -0.7505    1.1467 H   0  0  0  0  0  0  0  0  0  0  0  0
    0.4078   -0.7639   -1.0304 C   0  0  0  0  0  0  0  0  0  0  0  0
   -0.2889   -1.1012   -1.8049 H   0  0  0  0  0  0  0  0  0  0  0  0
    0.8858    0.1455   -1.4102 H   0  0  0  0  0  0  0  0  0  0  0  0
    1.4961   -1.8014   -0.8624 C   0  0  0  0  0  0  0  0  0  0  0  0
    2.3120   -2.2453   -1.8809 N   0  0  0  0  0  0  0  0  0  0  0  0
    2.2881   -1.9341   -2.8495 H   0  0  0  0  0  0  0  0  0  0  0  0
    3.1744   -3.1994   -1.3767 C   0  0  0  0  0  0  0  0  0  0  0  0
    3.9365   -3.7196   -1.9503 H   0  0  0  0  0  0  0  0  0  0  0  0
    2.9425   -3.3850   -0.1015 N   0  0  0  0  0  0  0  0  0  0  0  0
    1.8889   -2.5383    0.2308 C   0  0  0  0  0  0  0  0  0  0  0  0
    1.4499   -2.4793    1.2217 H   0  0  0  0  0  0  0  0  0  0  0  0
   -0.5370    1.1024    0.3780 C   0  0  0  0  0  0  0  0  0  0  0  0
   -1.3614    1.6836   -0.3192 O   0  0  0  0  0  0  0  0  0  0  0  0
    0.2240    1.8220    1.2807 N   0  0  0  0  0  0  0  0  0  0  0  0
    0.8637    1.3033    1.8771 H   0  0  0  0  0  0  0  0  0  0  0  0
    0.0891    3.2606    1.4750 C   0  0  0  0  0  0  0  0  0  0  0  0
   -0.9216    3.5080    1.8162 H   0  0  0  0  0  0  0  0  0  0  0  0
    0.8033    3.6091    2.2274 H   0  0  0  0  0  0  0  0  0  0  0  0
    0.2860    3.7945    0.5393 H   0  0  0  0  0  0  0  0  0  0  0  0
  1  2  1  0  0  0  0
  2  3  1  0  0  0  0
  2  4  1  0  0  0  0
  2  5  1  0  0  0  0
  5  6  2  0  0  0  0
  5  7  1  0  0  0  0
  7  8  1  0  0  0  0
  7  9  1  0  0  0  0
  9 10  1  0  0  0  0
  9 11  1  0  0  0  0
  9 22  1  0  0  0  0
 11 12  1  0  0  0  0
 11 13  1  0  0  0  0
 11 14  1  0  0  0  0
 14 15  1  0  0  0  0
 14 20  2  0  0  0  0
 15 16  1  0  0  0  0
 15 17  1  0  0  0  0
 17 18  1  0  0  0  0
 17 19  2  0  0  0  0
 19 20  1  0  0  0  0
 20 21  1  0  0  0  0
 22 23  2  0  0  0  0
 22 24  1  0  0  0  0
 24 25  1  0  0  0  0
 24 26  1  0  0  0  0
 26 27  1  0  0  0  0
 26 28  1  0  0  0  0
 26 29  1  0  0  0  0
M  END
$$$$

  -OEChem-04042215593D

 29 29  0     1  0  0  0  0  0999 V2000
   -3.6382   -3.6010    1.4166 H   0  0  0  0  0  0  0  0  0  0  0  0
   -3.5195   -2.6914    0.8210 C   0  0  0  0  0  0  0  0  0  0  0  0
   -4.2183   -1.9357    1.1877 H   0  0  0  0  0  0  0  0  0  0  0  0
   -3.7540   -2.9204   -0.2212 H   0  0  0  0  0  0  0  0  0  0  0  0
   -2.0966   -2.1773    0.9309 C   0  0  0  0  0  0  0  0  0  0  0  0
   -1.3036   -2.7354    1.6702 O   0  0  0  0  0  0  0  0  0  0  0  0
   -1.7159   -1.0600    0.2183 N   0  0  0  0  0  0  0  0  0  0  0  0
   -2.4421   -0.5623   -0.2939 H   0  0  0  0  0  0  0  0  0  0  0  0
   -0.3845   -0.4348    0.2680 C   0  0  1  0  0  0  0  0  0  0  0  0
    0.1694   -0.7690    1.1501 H   0  0  0  0  0  0  0  0  0  0  0  0
    0.3925   -0.7736   -1.0263 C   0  0  0  0  0  0  0  0  0  0  0  0
   -0.3049   -1.1036   -1.8031 H   0  0  0  0  0  0  0  0  0  0  0  0
    0.8737    0.1363   -1.4009 H   0  0  0  0  0  0  0  0  0  0  0  0
    1.4773   -1.8142   -0.8627 C   0  0  0  0  0  0  0  0  0  0  0  0
    2.4749   -2.0560   -1.7828 N   0  0  0  0  0  0  0  0  0  0  0  0
    2.5944   -1.5871   -2.6781 H   0  0  0  0  0  0  0  0  0  0  0  0
    3.2937   -3.0571   -1.2975 C   0  0  0  0  0  0  0  0  0  0  0  0
    4.1647   -3.4562   -1.8095 H   0  0  0  0  0  0  0  0  0  0  0  0
    2.8689   -3.4553   -0.1249 N   0  0  0  0  0  0  0  0  0  0  0  0
    1.7360   -2.6978    0.1585 C   0  0  0  0  0  0  0  0  0  0  0  0
    1.1543   -2.7955    1.0687 H   0  0  0  0  0  0  0  0  0  0  0  0
   -0.5360    1.0941    0.3868 C   0  0  0  0  0  0  0  0  0  0  0  0
   -1.3540    1.6804   -0.3138 O   0  0  0  0  0  0  0  0  0  0  0  0
    0.2324    1.8097    1.2865 N   0  0  0  0  0  0  0  0  0  0  0  0
    0.8635    1.2860    1.8875 H   0  0  0  0  0  0  0  0  0  0  0  0
    0.1116    3.2501    1.4764 C   0  0  0  0  0  0  0  0  0  0  0  0
   -0.8938    3.5076    1.8257 H   0  0  0  0  0  0  0  0  0  0  0  0
    0.8358    3.5952    2.2207 H   0  0  0  0  0  0  0  0  0  0  0  0
    0.3044    3.7783    0.5368 H   0  0  0  0  0  0  0  0  0  0  0  0
  1  2  1  0  0  0  0
  2  3  1  0  0  0  0
  2  4  1  0  0  0  0
  2  5  1  0  0  0  0
  5  6  2  0  0  0  0
  5  7  1  0  0  0  0
  7  8  1  0  0  0  0
  7  9  1  0  0  0  0
  9 10  1  0  0  0  0
  9 11  1  0  0  0  0
  9 22  1  0  0  0  0
 11 12  1  0  0  0  0
 11 13  1  0  0  0  0
 11 14  1  0  0  0  0
 14 15  1  0  0  0  0
 14 20  2  0  0  0  0
 15 16  1  0  0  0  0
 15 17  1  0  0  0  0
 17 18  1  0  0  0  0
 17 19  2  0  0  0  0
 19 20  1  0  0  0  0
 20 21  1  0  0  0  0
 22 23  2  0  0  0  0
 22 24  1  0  0  0  0
 24 25  1  0  0  0  0
 24 26  1  0  0  0  0
 26 27  1  0  0  0  0
 26 28  1  0  0  0  0
 26 29  1  0  0  0  0
M  END
$$$$

  -OEChem-04042215593D

 29 29  0     1  0  0  0  0  0999 V2000
   -3.6575   -3.6107    1.4011 H   0  0  0  0  0  0  0  0  0  0  0  0
   -3.5324   -2.7004    0.8081 C   0  0  0  0  0  0  0  0  0  0  0  0
   -4.2464   -1.9508    1.1576 H   0  0  0  0  0  0  0  0  0  0  0  0
   -3.7398   -2.9322   -0.2392 H   0  0  0  0  0  0  0  0  0  0  0  0
   -2.1169   -2.1743    0.9520 C   0  0  0  0  0  0  0  0  0  0  0  0
   -1.3478   -2.7077    1.7329 O   0  0  0  0  0  0  0  0  0  0  0  0
   -1.7249   -1.0620    0.2377 N   0  0  0  0  0  0  0  0  0  0  0  0
   -2.4401   -0.5828   -0.3067 H   0  0  0  0  0  0  0  0  0  0  0  0
   -0.3895   -0.4423    0.2765 C   0  0  1  0  0  0  0  0  0  0  0  0
    0.1743   -0.7863    1.1495 H   0  0  0  0  0  0  0  0  0  0  0  0
    0.3798   -0.7742   -1.0246 C   0  0  0  0  0  0  0  0  0  0  0  0
   -0.3196   -1.0966   -1.8028 H   0  0  0  0  0  0  0  0  0  0  0  0
    0.8612    0.1377   -1.3942 H   0  0  0  0  0  0  0  0  0  0  0  0
    1.4628   -1.8164   -0.8679 C   0  0  0  0  0  0  0  0  0  0  0  0
    2.6154   -1.8736   -1.6224 N   0  0  0  0  0  0  0  0  0  0  0  0
    2.8663   -1.2503   -2.3867 H   0  0  0  0  0  0  0  0  0  0  0  0
    3.3827   -2.9341   -1.1812 C   0  0  0  0  0  0  0  0  0  0  0  0
    4.3444   -3.2255   -1.5936 H   0  0  0  0  0  0  0  0  0  0  0  0
    2.7816   -3.5394   -0.1882 N   0  0  0  0  0  0  0  0  0  0  0  0
    1.5862   -2.8572    0.0208 C   0  0  0  0  0  0  0  0  0  0  0  0
    0.8665   -3.1187    0.7874 H   0  0  0  0  0  0  0  0  0  0  0  0
   -0.5337    1.0873    0.3923 C   0  0  0  0  0  0  0  0  0  0  0  0
   -1.3464    1.6776   -0.3110 O   0  0  0  0  0  0  0  0  0  0  0  0
    0.2448    1.7999    1.2855 N   0  0  0  0  0  0  0  0  0  0  0  0
    0.8691    1.2718    1.8899 H   0  0  0  0  0  0  0  0  0  0  0  0
    0.1324    3.2409    1.4761 C   0  0  0  0  0  0  0  0  0  0  0  0
   -0.8683    3.5033    1.8353 H   0  0  0  0  0  0  0  0  0  0  0  0
    0.8653    3.5826    2.2135 H   0  0  0  0  0  0  0  0  0  0  0  0
    0.3190    3.7685    0.5348 H   0  0  0  0  0  0  0  0  0  0  0  0
  1  2  1  0  0  0  0
  2  3  1  0  0  0  0
  2  4  1  0  0  0  0
  2  5  1  0  0  0  0
  5  6  2  0  0  0  0
  5  7  1  0  0  0  0
  7  8  1  0  0  0  0
  7  9  1  0  0  0  0
  9 10  1  0  0  0  0
  9 11  1  0  0  0  0
  9 22  1  0  0  0  0
 11 12  1  0  0  0  0
 11 13  1  0  0  0  0
 11 14  1  0  0  0  0
 14 15  1  0  0  0  0
 14 20  2  0  0  0  0
 15 16  1  0  0  0  0
 15 17  1  0  0  0  0
 17 18  1  0  0  0  0
 17 19  2  0  0  0  0
 19 20  1  0  0  0  0
 20 21  1  0  0  0  0
 22 23  2  0  0  0  0
 22 24  1  0  0  0  0
 24 25  1  0  0  0  0
 24 26  1  0  0  0  0
 26 27  1  0  0  0  0
 26 28  1  0  0  0  0
 26 29  1  0  0  0  0
M  END
$$$$

  -OEChem-04042215593D

 29 29  0     1  0  0  0  0  0999 V2000
   -3.6295   -3.6243    1.4147 H   0  0  0  0  0  0  0  0  0  0  0  0
   -3.5152   -2.7144    0.8187 C   0  0  0  0  0  0  0  0  0  0  0  0
   -4.2339   -1.9700    1.1696 H   0  0  0  0  0  0  0  0  0  0  0  0
   -3.7253   -2.9507   -0.2271 H   0  0  0  0  0  0  0  0  0  0  0  0
   -2.1037   -2.1764    0.9551 C   0  0  0  0  0  0  0  0  0  0  0  0
   -1.3258   -2.7040    1.7315 O   0  0  0  0  0  0  0  0  0  0  0  0
   -1.7243   -1.0606    0.2396 N   0  0  0  0  0  0  0  0  0  0  0  0
   -2.4448   -0.5854   -0.3010 H   0  0  0  0  0  0  0  0  0  0  0  0
   -0.3903   -0.4381    0.2684 C   0  0  1  0  0  0  0  0  0  0  0  0
    0.1832   -0.7877    1.1335 H   0  0  0  0  0  0  0  0  0  0  0  0
    0.3737   -0.7603   -1.0374 C   0  0  0  0  0  0  0  0  0  0  0  0
   -0.3262   -1.0914   -1.8118 H   0  0  0  0  0  0  0  0  0  0  0  0
    0.8490    0.1520   -1.4138 H   0  0  0  0  0  0  0  0  0  0  0  0
    1.4548   -1.7993   -0.8658 C   0  0  0  0  0  0  0  0  0  0  0  0
    2.7320   -1.7220   -1.3788 N   0  0  0  0  0  0  0  0  0  0  0  0
    3.1095   -0.9661   -1.9459 H   0  0  0  0  0  0  0  0  0  0  0  0
    3.4241   -2.8601   -1.0123 C   0  0  0  0  0  0  0  0  0  0  0  0
    4.4554   -3.0773   -1.2757 H   0  0  0  0  0  0  0  0  0  0  0  0
    2.6543   -3.6434   -0.2992 N   0  0  0  0  0  0  0  0  0  0  0  0
    1.4242   -2.9991   -0.1989 C   0  0  0  0  0  0  0  0  0  0  0  0
    0.5656   -3.4042    0.3238 H   0  0  0  0  0  0  0  0  0  0  0  0
   -0.5346    1.0906    0.3912 C   0  0  0  0  0  0  0  0  0  0  0  0
   -1.3512    1.6843   -0.3046 O   0  0  0  0  0  0  0  0  0  0  0  0
    0.2522    1.7996    1.2801 N   0  0  0  0  0  0  0  0  0  0  0  0
    0.8750    1.2678    1.8827 H   0  0  0  0  0  0  0  0  0  0  0  0
    0.1390    3.2395    1.4783 C   0  0  0  0  0  0  0  0  0  0  0  0
   -0.8591    3.4985    1.8470 H   0  0  0  0  0  0  0  0  0  0  0  0
    0.8778    3.5794    2.2107 H   0  0  0  0  0  0  0  0  0  0  0  0
    0.3165    3.7711    0.5374 H   0  0  0  0  0  0  0  0  0  0  0  0
  1  2  1  0  0  0  0
  2  3  1  0  0  0  0
  2  4  1  0  0  0  0
  2  5  1  0  0  0  0
  5  6  2  0  0  0  0
  5  7  1  0  0  0  0
  7  8  1  0  0  0  0
  7  9  1  0  0  0  0
  9 10  1  0  0  0  0
  9 11  1  0  0  0  0
  9 22  1  0  0  0  0
 11 12  1  0  0  0  0
 11 13  1  0  0  0  0
 11 14  1  0  0  0  0
 14 15  1  0  0  0  0
 14 20  2  0  0  0  0
 15 16  1  0  0  0  0
 15 17  1  0  0  0  0
 17 18  1  0  0  0  0
 17 19  2  0  0  0  0
 19 20  1  0  0  0  0
 20 21  1  0  0  0  0
 22 23  2  0  0  0  0
 22 24  1  0  0  0  0
 24 25  1  0  0  0  0
 24 26  1  0  0  0  0
 26 27  1  0  0  0  0
 26 28  1  0  0  0  0
 26 29  1  0  0  0  0
M  END
$$$$

  -OEChem-04042215593D

 29 29  0     1  0  0  0  0  0999 V2000
   -3.5965   -3.6289    1.4365 H   0  0  0  0  0  0  0  0  0  0  0  0
   -3.4961   -2.7186    0.8387 C   0  0  0  0  0  0  0  0  0  0  0  0
   -4.1968   -1.9699    1.2158 H   0  0  0  0  0  0  0  0  0  0  0  0
   -3.7438   -2.9507   -0.1999 H   0  0  0  0  0  0  0  0  0  0  0  0
   -2.0767   -2.1911    0.9267 C   0  0  0  0  0  0  0  0  0  0  0  0
   -1.2634   -2.7508    1.6424 O   0  0  0  0  0  0  0  0  0  0  0  0
   -1.7195   -1.0638    0.2176 N   0  0  0  0  0  0  0  0  0  0  0  0
   -2.4591   -0.5685   -0.2776 H   0  0  0  0  0  0  0  0  0  0  0  0
   -0.3905   -0.4310    0.2423 C   0  0  1  0  0  0  0  0  0  0  0  0
    0.1883   -0.7839    1.1027 H   0  0  0  0  0  0  0  0  0  0  0  0
    0.3671   -0.7527   -1.0641 C   0  0  0  0  0  0  0  0  0  0  0  0
   -0.3342   -1.1060   -1.8273 H   0  0  0  0  0  0  0  0  0  0  0  0
    0.8334    0.1555   -1.4605 H   0  0  0  0  0  0  0  0  0  0  0  0
    1.4453   -1.7857   -0.8595 C   0  0  0  0  0  0  0  0  0  0  0  0
    2.7945   -1.6242   -1.0896 N   0  0  0  0  0  0  0  0  0  0  0  0
    3.2530   -0.7829   -1.4321 H   0  0  0  0  0  0  0  0  0  0  0  0
    3.4318   -2.8176   -0.8079 C   0  0  0  0  0  0  0  0  0  0  0  0
    4.4999   -2.9928   -0.8998 H   0  0  0  0  0  0  0  0  0  0  0  0
    2.5593   -3.7127   -0.4163 N   0  0  0  0  0  0  0  0  0  0  0  0
    1.3162   -3.0861   -0.4415 C   0  0  0  0  0  0  0  0  0  0  0  0
    0.3787   -3.5678   -0.1832 H   0  0  0  0  0  0  0  0  0  0  0  0
   -0.5371    1.0955    0.3820 C   0  0  0  0  0  0  0  0  0  0  0  0
   -1.3651    1.6927   -0.2969 O   0  0  0  0  0  0  0  0  0  0  0  0
    0.2550    1.7981    1.2712 N   0  0  0  0  0  0  0  0  0  0  0  0
    0.8786    1.2613    1.8686 H   0  0  0  0  0  0  0  0  0  0  0  0
    0.1374    3.2354    1.4854 C   0  0  0  0  0  0  0  0  0  0  0  0
   -0.8583    3.4862    1.8657 H   0  0  0  0  0  0  0  0  0  0  0  0
    0.8813    3.5709    2.2143 H   0  0  0  0  0  0  0  0  0  0  0  0
    0.3037    3.7776    0.5486 H   0  0  0  0  0  0  0  0  0  0  0  0
  1  2  1  0  0  0  0
  2  3  1  0  0  0  0
  2  4  1  0  0  0  0
  2  5  1  0  0  0  0
  5  6  2  0  0  0  0
  5  7  1  0  0  0  0
  7  8  1  0  0  0  0
  7  9  1  0  0  0  0
  9 10  1  0  0  0  0
  9 11  1  0  0  0  0
  9 22  1  0  0  0  0
 11 12  1  0  0  0  0
 11 13  1  0  0  0  0
 11 14  1  0  0  0  0
 14 15  1  0  0  0  0
 14 20  2  0  0  0  0
 15 16  1  0  0  0  0
 15 17  1  0  0  0  0
 17 18  1  0  0  0  0
 17 19  2  0  0  0  0
 19 20  1  0  0  0  0
 20 21  1  0  0  0  0
 22 23  2  0  0  0  0
 22 24  1  0  0  0  0
 24 25  1  0  0  0  0
 24 26  1  0  0  0  0
 26 27  1  0  0  0  0
 26 28  1  0  0  0  0
 26 29  1  0  0  0  0
M  END
$$$$

  -OEChem-04042215593D

 29 29  0     1  0  0  0  0  0999 V2000
   -3.5788   -3.6259    1.4479 H   0  0  0  0  0  0  0  0  0  0  0  0
   -3.4864   -2.7147    0.8502 C   0  0  0  0  0  0  0  0  0  0  0  0
   -4.1701   -1.9611    1.2485 H   0  0  0  0  0  0  0  0  0  0  0  0
   -3.7645   -2.9414   -0.1818 H   0  0  0  0  0  0  0  0  0  0  0  0
   -2.0603   -2.1997    0.9004 C   0  0  0  0  0  0  0  0  0  0  0  0
   -1.2250   -2.7850    1.5689 O   0  0  0  0  0  0  0  0  0  0  0  0
   -1.7172   -1.0647    0.1962 N   0  0  0  0  0  0  0  0  0  0  0  0
   -2.4688   -0.5560   -0.2663 H   0  0  0  0  0  0  0  0  0  0  0  0
   -0.3909   -0.4267    0.2183 C   0  0  1  0  0  0  0  0  0  0  0  0
    0.1890   -0.7833    1.0767 H   0  0  0  0  0  0  0  0  0  0  0  0
    0.3605   -0.7554   -1.0878 C   0  0  0  0  0  0  0  0  0  0  0  0
   -0.3432   -1.1244   -1.8413 H   0  0  0  0  0  0  0  0  0  0  0  0
    0.8236    0.1463   -1.5023 H   0  0  0  0  0  0  0  0  0  0  0  0
    1.4340   -1.7856   -0.8565 C   0  0  0  0  0  0  0  0  0  0  0  0
    2.7945   -1.5762   -0.7967 N   0  0  0  0  0  0  0  0  0  0  0  0
    3.2754   -0.6863   -0.9057 H   0  0  0  0  0  0  0  0  0  0  0  0
    3.4137   -2.7973   -0.6046 C   0  0  0  0  0  0  0  0  0  0  0  0
    4.4864   -2.9486   -0.5238 H   0  0  0  0  0  0  0  0  0  0  0  0
    2.5193   -3.7524   -0.5395 N   0  0  0  0  0  0  0  0  0  0  0  0
    1.2790   -3.1377   -0.6886 C   0  0  0  0  0  0  0  0  0  0  0  0
    0.3256   -3.6575   -0.6838 H   0  0  0  0  0  0  0  0  0  0  0  0
   -0.5354    1.0985    0.3699 C   0  0  0  0  0  0  0  0  0  0  0  0
   -1.3681    1.7009   -0.2982 O   0  0  0  0  0  0  0  0  0  0  0  0
    0.2624    1.7947    1.2593 N   0  0  0  0  0  0  0  0  0  0  0  0
    0.8805    1.2521    1.8568 H   0  0  0  0  0  0  0  0  0  0  0  0
    0.1351    3.2280    1.4943 C   0  0  0  0  0  0  0  0  0  0  0  0
   -0.8596    3.4652    1.8861 H   0  0  0  0  0  0  0  0  0  0  0  0
    0.8821    3.5598    2.2218 H   0  0  0  0  0  0  0  0  0  0  0  0
    0.2894    3.7847    0.5639 H   0  0  0  0  0  0  0  0  0  0  0  0
  1  2  1  0  0  0  0
  2  3  1  0  0  0  0
  2  4  1  0  0  0  0
  2  5  1  0  0  0  0
  5  6  2  0  0  0  0
  5  7  1  0  0  0  0
  7  8  1  0  0  0  0
  7  9  1  0  0  0  0
  9 10  1  0  0  0  0
  9 11  1  0  0  0  0
  9 22  1  0  0  0  0
 11 12  1  0  0  0  0
 11 13  1  0  0  0  0
 11 14  1  0  0  0  0
 14 15  1  0  0  0  0
 14 20  2  0  0  0  0
 15 16  1  0  0  0  0
 15 17  1  0  0  0  0
 17 18  1  0  0  0  0
 17 19  2  0  0  0  0
 19 20  1  0  0  0  0
 20 21  1  0  0  0  0
 22 23  2  0  0  0  0
 22 24  1  0  0  0  0
 24 25  1  0  0  0  0
 24 26  1  0  0  0  0
 26 27  1  0  0  0  0
 26 28  1  0  0  0  0
 26 29  1  0  0  0  0
M  END
$$$$

  -OEChem-04042215593D

 29 29  0     1  0  0  0  0  0999 V2000
   -3.5735   -3.6368    1.4376 H   0  0  0  0  0  0  0  0  0  0  0  0
   -3.4854   -2.7218    0.8452 C   0  0  0  0  0  0  0  0  0  0  0  0
   -4.1731   -1.9739    1.2469 H   0  0  0  0  0  0  0  0  0  0  0  0
   -3.7613   -2.9444   -0.1883 H   0  0  0  0  0  0  0  0  0  0  0  0
   -2.0624   -2.1996    0.9003 C   0  0  0  0  0  0  0  0  0  0  0  0
   -1.2271   -2.7785    1.5746 O   0  0  0  0  0  0  0  0  0  0  0  0
   -1.7225   -1.0637    0.1959 N   0  0  0  0  0  0  0  0  0  0  0  0
   -2.4736   -0.5580   -0.2705 H   0  0  0  0  0  0  0  0  0  0  0  0
   -0.3958   -0.4270    0.2176 C   0  0  1  0  0  0  0  0  0  0  0  0
    0.1843   -0.7854    1.0749 H   0  0  0  0  0  0  0  0  0  0  0  0
    0.3512   -0.7596   -1.0896 C   0  0  0  0  0  0  0  0  0  0  0  0
   -0.3561   -1.1276   -1.8404 H   0  0  0  0  0  0  0  0  0  0  0  0
    0.8190    0.1380   -1.5078 H   0  0  0  0  0  0  0  0  0  0  0  0
    1.4199   -1.7921   -0.8504 C   0  0  0  0  0  0  0  0  0  0  0  0
    2.7366   -1.5762   -0.5074 N   0  0  0  0  0  0  0  0  0  0  0  0
    3.1861   -0.6744   -0.3681 H   0  0  0  0  0  0  0  0  0  0  0  0
    3.3695   -2.8028   -0.4252 C   0  0  0  0  0  0  0  0  0  0  0  0
    4.4166   -2.9492   -0.1763 H   0  0  0  0  0  0  0  0  0  0  0  0
    2.5257   -3.7673   -0.6991 N   0  0  0  0  0  0  0  0  0  0  0  0
    1.3037   -3.1535   -0.9588 C   0  0  0  0  0  0  0  0  0  0  0  0
    0.3900   -3.6789   -1.2204 H   0  0  0  0  0  0  0  0  0  0  0  0
   -0.5362    1.0980    0.3712 C   0  0  0  0  0  0  0  0  0  0  0  0
   -1.3656    1.7037   -0.2979 O   0  0  0  0  0  0  0  0  0  0  0  0
    0.2645    1.7908    1.2609 N   0  0  0  0  0  0  0  0  0  0  0  0
    0.8709    1.2452    1.8674 H   0  0  0  0  0  0  0  0  0  0  0  0
    0.1490    3.2264    1.4876 C   0  0  0  0  0  0  0  0  0  0  0  0
   -0.8421    3.4736    1.8823 H   0  0  0  0  0  0  0  0  0  0  0  0
    0.9021    3.5576    2.2090 H   0  0  0  0  0  0  0  0  0  0  0  0
    0.3031    3.7757    0.5527 H   0  0  0  0  0  0  0  0  0  0  0  0
  1  2  1  0  0  0  0
  2  3  1  0  0  0  0
  2  4  1  0  0  0  0
  2  5  1  0  0  0  0
  5  6  2  0  0  0  0
  5  7  1  0  0  0  0
  7  8  1  0  0  0  0
  7  9  1  0  0  0  0
  9 10  1  0  0  0  0
  9 11  1  0  0  0  0
  9 22  1  0  0  0  0
 11 12  1  0  0  0  0
 11 13  1  0  0  0  0
 11 14  1  0  0  0  0
 14 15  1  0  0  0  0
 14 20  2  0  0  0  0
 15 16  1  0  0  0  0
 15 17  1  0  0  0  0
 17 18  1  0  0  0  0
 17 19  2  0  0  0  0
 19 20  1  0  0  0  0
 20 21  1  0  0  0  0
 22 23  2  0  0  0  0
 22 24  1  0  0  0  0
 24 25  1  0  0  0  0
 24 26  1  0  0  0  0
 26 27  1  0  0  0  0
 26 28  1  0  0  0  0
 26 29  1  0  0  0  0
M  END
$$$$

  -OEChem-04042215593D

 29 29  0     1  0  0  0  0  0999 V2000
   -3.5819   -3.6281    1.4386 H   0  0  0  0  0  0  0  0  0  0  0  0
   -3.4889   -2.7156    0.8431 C   0  0  0  0  0  0  0  0  0  0  0  0
   -4.1847   -1.9680    1.2313 H   0  0  0  0  0  0  0  0  0  0  0  0
   -3.7495   -2.9439   -0.1930 H   0  0  0  0  0  0  0  0  0  0  0  0
   -2.0685   -2.1884    0.9149 C   0  0  0  0  0  0  0  0  0  0  0  0
   -1.2451   -2.7515    1.6171 O   0  0  0  0  0  0  0  0  0  0  0  0
   -1.7214   -1.0592    0.2033 N   0  0  0  0  0  0  0  0  0  0  0  0
   -2.4642   -0.5638   -0.2869 H   0  0  0  0  0  0  0  0  0  0  0  0
   -0.3917   -0.4301    0.2263 C   0  0  1  0  0  0  0  0  0  0  0  0
    0.1868   -0.7869    1.0850 H   0  0  0  0  0  0  0  0  0  0  0  0
    0.3520   -0.7672   -1.0823 C   0  0  0  0  0  0  0  0  0  0  0  0
   -0.3586   -1.1216   -1.8366 H   0  0  0  0  0  0  0  0  0  0  0  0
    0.8301    0.1285   -1.4932 H   0  0  0  0  0  0  0  0  0  0  0  0
    1.4162   -1.8074   -0.8523 C   0  0  0  0  0  0  0  0  0  0  0  0
    2.6449   -1.6460   -0.2496 N   0  0  0  0  0  0  0  0  0  0  0  0
    3.0222   -0.7844    0.1369 H   0  0  0  0  0  0  0  0  0  0  0  0
    3.3073   -2.8594   -0.2839 C   0  0  0  0  0  0  0  0  0  0  0  0
    4.3011   -3.0399    0.1158 H   0  0  0  0  0  0  0  0  0  0  0  0
    2.5668   -3.7634   -0.8773 N   0  0  0  0  0  0  0  0  0  0  0  0
    1.3825   -3.1242   -1.2300 C   0  0  0  0  0  0  0  0  0  0  0  0
    0.5523   -3.6009   -1.7426 H   0  0  0  0  0  0  0  0  0  0  0  0
   -0.5320    1.0962    0.3694 C   0  0  0  0  0  0  0  0  0  0  0  0
   -1.3538    1.6994   -0.3112 O   0  0  0  0  0  0  0  0  0  0  0  0
    0.2650    1.7939    1.2585 N   0  0  0  0  0  0  0  0  0  0  0  0
    0.8521    1.2497    1.8845 H   0  0  0  0  0  0  0  0  0  0  0  0
    0.1389    3.2288    1.4843 C   0  0  0  0  0  0  0  0  0  0  0  0
   -0.8539    3.4688    1.8793 H   0  0  0  0  0  0  0  0  0  0  0  0
    0.8898    3.5654    2.2055 H   0  0  0  0  0  0  0  0  0  0  0  0
    0.2893    3.7790    0.5494 H   0  0  0  0  0  0  0  0  0  0  0  0
  1  2  1  0  0  0  0
  2  3  1  0  0  0  0
  2  4  1  0  0  0  0
  2  5  1  0  0  0  0
  5  6  2  0  0  0  0
  5  7  1  0  0  0  0
  7  8  1  0  0  0  0
  7  9  1  0  0  0  0
  9 10  1  0  0  0  0
  9 11  1  0  0  0  0
  9 22  1  0  0  0  0
 11 12  1  0  0  0  0
 11 13  1  0  0  0  0
 11 14  1  0  0  0  0
 14 15  1  0  0  0  0
 14 20  2  0  0  0  0
 15 16  1  0  0  0  0
 15 17  1  0  0  0  0
 17 18  1  0  0  0  0
 17 19  2  0  0  0  0
 19 20  1  0  0  0  0
 20 21  1  0  0  0  0
 22 23  2  0  0  0  0
 22 24  1  0  0  0  0
 24 25  1  0  0  0  0
 24 26  1  0  0  0  0
 26 27  1  0  0  0  0
 26 28  1  0  0  0  0
 26 29  1  0  0  0  0
M  END
$$$$

  -OEChem-04042215593D

 29 29  0     1  0  0  0  0  0999 V2000
   -3.5818   -3.6412    1.4212 H   0  0  0  0  0  0  0  0  0  0  0  0
   -3.4899   -2.7233    0.8337 C   0  0  0  0  0  0  0  0  0  0  0  0
   -4.1966   -1.9847    1.2195 H   0  0  0  0  0  0  0  0  0  0  0  0
   -3.7372   -2.9458   -0.2071 H   0  0  0  0  0  0  0  0  0  0  0  0
   -2.0748   -2.1844    0.9251 C   0  0  0  0  0  0  0  0  0  0  0  0
   -1.2595   -2.7344    1.6475 O   0  0  0  0  0  0  0  0  0  0  0  0
   -1.7237   -1.0573    0.2113 N   0  0  0  0  0  0  0  0  0  0  0  0
   -2.4601   -0.5695   -0.2956 H   0  0  0  0  0  0  0  0  0  0  0  0
   -0.3926   -0.4318    0.2386 C   0  0  1  0  0  0  0  0  0  0  0  0
    0.1824   -0.7877    1.0994 H   0  0  0  0  0  0  0  0  0  0  0  0
    0.3512   -0.7679   -1.0715 C   0  0  0  0  0  0  0  0  0  0  0  0
   -0.3592   -1.1050   -1.8339 H   0  0  0  0  0  0  0  0  0  0  0  0
    0.8376    0.1298   -1.4679 H   0  0  0  0  0  0  0  0  0  0  0  0
    1.4156   -1.8134   -0.8576 C   0  0  0  0  0  0  0  0  0  0  0  0
    2.5188   -1.7627   -0.0320 N   0  0  0  0  0  0  0  0  0  0  0  0
    2.7849   -0.9952    0.5792 H   0  0  0  0  0  0  0  0  0  0  0  0
    3.2174   -2.9484   -0.1670 C   0  0  0  0  0  0  0  0  0  0  0  0
    4.1312   -3.1989    0.3641 H   0  0  0  0  0  0  0  0  0  0  0  0
    2.6225   -3.7291   -1.0354 N   0  0  0  0  0  0  0  0  0  0  0  0
    1.4951   -3.0385   -1.4666 C   0  0  0  0  0  0  0  0  0  0  0  0
    0.7803   -3.4171   -2.1910 H   0  0  0  0  0  0  0  0  0  0  0  0
   -0.5341    1.0955    0.3778 C   0  0  0  0  0  0  0  0  0  0  0  0
   -1.3519    1.6958   -0.3101 O   0  0  0  0  0  0  0  0  0  0  0  0
    0.2569    1.7988    1.2680 N   0  0  0  0  0  0  0  0  0  0  0  0
    0.8445    1.2610    1.8984 H   0  0  0  0  0  0  0  0  0  0  0  0
    0.1402    3.2379    1.4731 C   0  0  0  0  0  0  0  0  0  0  0  0
   -0.8523    3.4914    1.8605 H   0  0  0  0  0  0  0  0  0  0  0  0
    0.8910    3.5796    2.1922 H   0  0  0  0  0  0  0  0  0  0  0  0
    0.2977    3.7735    0.5308 H   0  0  0  0  0  0  0  0  0  0  0  0
  1  2  1  0  0  0  0
  2  3  1  0  0  0  0
  2  4  1  0  0  0  0
  2  5  1  0  0  0  0
  5  6  2  0  0  0  0
  5  7  1  0  0  0  0
  7  8  1  0  0  0  0
  7  9  1  0  0  0  0
  9 10  1  0  0  0  0
  9 11  1  0  0  0  0
  9 22  1  0  0  0  0
 11 12  1  0  0  0  0
 11 13  1  0  0  0  0
 11 14  1  0  0  0  0
 14 15  1  0  0  0  0
 14 20  2  0  0  0  0
 15 16  1  0  0  0  0
 15 17  1  0  0  0  0
 17 18  1  0  0  0  0
 17 19  2  0  0  0  0
 19 20  1  0  0  0  0
 20 21  1  0  0  0  0
 22 23  2  0  0  0  0
 22 24  1  0  0  0  0
 24 25  1  0  0  0  0
 24 26  1  0  0  0  0
 26 27  1  0  0  0  0
 26 28  1  0  0  0  0
 26 29  1  0  0  0  0
M  END
$$$$

  -OEChem-04042215593D

 29 29  0     1  0  0  0  0  0999 V2000
   -3.5898   -3.6337    1.4193 H   0  0  0  0  0  0  0  0  0  0  0  0
   -3.4947   -2.7170    0.8307 C   0  0  0  0  0  0  0  0  0  0  0  0
   -4.2048   -1.9783    1.2099 H   0  0  0  0  0  0  0  0  0  0  0  0
   -3.7341   -2.9423   -0.2114 H   0  0  0  0  0  0  0  0  0  0  0  0
   -2.0811   -2.1764    0.9319 C   0  0  0  0  0  0  0  0  0  0  0  0
   -1.2723   -2.7187    1.6682 O   0  0  0  0  0  0  0  0  0  0  0  0
   -1.7240   -1.0540    0.2141 N   0  0  0  0  0  0  0  0  0  0  0  0
   -2.4552   -0.5689   -0.3032 H   0  0  0  0  0  0  0  0  0  0  0  0
   -0.3914   -0.4333    0.2491 C   0  0  1  0  0  0  0  0  0  0  0  0
    0.1748   -0.7833    1.1171 H   0  0  0  0  0  0  0  0  0  0  0  0
    0.3595   -0.7725   -1.0569 C   0  0  0  0  0  0  0  0  0  0  0  0
   -0.3474   -1.0948   -1.8290 H   0  0  0  0  0  0  0  0  0  0  0  0
    0.8557    0.1265   -1.4384 H   0  0  0  0  0  0  0  0  0  0  0  0
    1.4244   -1.8227   -0.8578 C   0  0  0  0  0  0  0  0  0  0  0  0
    2.3717   -1.9320    0.1389 N   0  0  0  0  0  0  0  0  0  0  0  0
    2.4828   -1.3169    0.9403 H   0  0  0  0  0  0  0  0  0  0  0  0
    3.1212   -3.0701   -0.0939 C   0  0  0  0  0  0  0  0  0  0  0  0
    3.9373   -3.4184    0.5326 H   0  0  0  0  0  0  0  0  0  0  0  0
    2.7084   -3.6695   -1.1838 N   0  0  0  0  0  0  0  0  0  0  0  0
    1.6467   -2.9098   -1.6623 C   0  0  0  0  0  0  0  0  0  0  0  0
    1.0737   -3.1457   -2.5540 H   0  0  0  0  0  0  0  0  0  0  0  0
   -0.5364    1.0953    0.3798 C   0  0  0  0  0  0  0  0  0  0  0  0
   -1.3557    1.6896   -0.3117 O   0  0  0  0  0  0  0  0  0  0  0  0
    0.2451    1.8061    1.2726 N   0  0  0  0  0  0  0  0  0  0  0  0
    0.8494    1.2773    1.8945 H   0  0  0  0  0  0  0  0  0  0  0  0
    0.1271    3.2468    1.4650 C   0  0  0  0  0  0  0  0  0  0  0  0
   -0.8689    3.5028    1.8413 H   0  0  0  0  0  0  0  0  0  0  0  0
    0.8710    3.5945    2.1882 H   0  0  0  0  0  0  0  0  0  0  0  0
    0.2936    3.7746    0.5198 H   0  0  0  0  0  0  0  0  0  0  0  0
  1  2  1  0  0  0  0
  2  3  1  0  0  0  0
  2  4  1  0  0  0  0
  2  5  1  0  0  0  0
  5  6  2  0  0  0  0
  5  7  1  0  0  0  0
  7  8  1  0  0  0  0
  7  9  1  0  0  0  0
  9 10  1  0  0  0  0
  9 11  1  0  0  0  0
  9 22  1  0  0  0  0
 11 12  1  0  0  0  0
 11 13  1  0  0  0  0
 11 14  1  0  0  0  0
 14 15  1  0  0  0  0
 14 20  2  0  0  0  0
 15 16  1  0  0  0  0
 15 17  1  0  0  0  0
 17 18  1  0  0  0  0
 17 19  2  0  0  0  0
 19 20  1  0  0  0  0
 20 21  1  0  0  0  0
 22 23  2  0  0  0  0
 22 24  1  0  0  0  0
 24 25  1  0  0  0  0
 24 26  1  0  0  0  0
 26 27  1  0  0  0  0
 26 28  1  0  0  0  0
 26 29  1  0  0  0  0
M  END
$$$$

  -OEChem-04042215593D

 29 29  0     1  0  0  0  0  0999 V2000
   -3.6081   -3.6205    1.4267 H   0  0  0  0  0  0  0  0  0  0  0  0
   -3.5084   -2.7056    0.8359 C   0  0  0  0  0  0  0  0  0  0  0  0
   -4.2145   -1.9622    1.2134 H   0  0  0  0  0  0  0  0  0  0  0  0
   -3.7493   -2.9321   -0.2055 H   0  0  0  0  0  0  0  0  0  0  0  0
   -2.0921   -2.1715    0.9349 C   0  0  0  0  0  0  0  0  0  0  0  0
   -1.2829   -2.7162    1.6702 O   0  0  0  0  0  0  0  0  0  0  0  0
   -1.7296   -1.0529    0.2139 N   0  0  0  0  0  0  0  0  0  0  0  0
   -2.4576   -0.5628   -0.3034 H   0  0  0  0  0  0  0  0  0  0  0  0
   -0.3952   -0.4379    0.2569 C   0  0  1  0  0  0  0  0  0  0  0  0
    0.1611   -0.7806    1.1330 H   0  0  0  0  0  0  0  0  0  0  0  0
    0.3667   -0.7783   -1.0429 C   0  0  0  0  0  0  0  0  0  0  0  0
   -0.3342   -1.0910   -1.8242 H   0  0  0  0  0  0  0  0  0  0  0  0
    0.8697    0.1220   -1.4125 H   0  0  0  0  0  0  0  0  0  0  0  0
    1.4313   -1.8329   -0.8523 C   0  0  0  0  0  0  0  0  0  0  0  0
    2.1977   -2.1333    0.2554 N   0  0  0  0  0  0  0  0  0  0  0  0
    2.1022   -1.7292    1.1836 H   0  0  0  0  0  0  0  0  0  0  0  0
    3.0219   -3.1979   -0.0583 C   0  0  0  0  0  0  0  0  0  0  0  0
    3.7258   -3.6652    0.6244 H   0  0  0  0  0  0  0  0  0  0  0  0
    2.8317   -3.5674   -1.3012 N   0  0  0  0  0  0  0  0  0  0  0  0
    1.8386   -2.7334   -1.8020 C   0  0  0  0  0  0  0  0  0  0  0  0
    1.4402   -2.7890   -2.8105 H   0  0  0  0  0  0  0  0  0  0  0  0
   -0.5409    1.0916    0.3811 C   0  0  0  0  0  0  0  0  0  0  0  0
   -1.3636    1.6815   -0.3104 O   0  0  0  0  0  0  0  0  0  0  0  0
    0.2330    1.8069    1.2768 N   0  0  0  0  0  0  0  0  0  0  0  0
    0.8669    1.2866    1.8760 H   0  0  0  0  0  0  0  0  0  0  0  0
    0.1223    3.2502    1.4536 C   0  0  0  0  0  0  0  0  0  0  0  0
   -0.8754    3.5165    1.8180 H   0  0  0  0  0  0  0  0  0  0  0  0
    0.8616    3.6005    2.1804 H   0  0  0  0  0  0  0  0  0  0  0  0
    0.3006    3.7673    0.5047 H   0  0  0  0  0  0  0  0  0  0  0  0
  1  2  1  0  0  0  0
  2  3  1  0  0  0  0
  2  4  1  0  0  0  0
  2  5  1  0  0  0  0
  5  6  2  0  0  0  0
  5  7  1  0  0  0  0
  7  8  1  0  0  0  0
  7  9  1  0  0  0  0
  9 10  1  0  0  0  0
  9 11  1  0  0  0  0
  9 22  1  0  0  0  0
 11 12  1  0  0  0  0
 11 13  1  0  0  0  0
 11 14  1  0  0  0  0
 14 15  1  0  0  0  0
 14 20  2  0  0  0  0
 15 16  1  0  0  0  0
 15 17  1  0  0  0  0
 17 18  1  0  0  0  0
 17 19  2  0  0  0  0
 19 20  1  0  0  0  0
 20 21  1  0  0  0  0
 22 23  2  0  0  0  0
 22 24  1  0  0  0  0
 24 25  1  0  0  0  0
 24 26  1  0  0  0  0
 26 27  1  0  0  0  0
 26 28  1  0  0  0  0
 26 29  1  0  0  0  0
M  END
$$$$

  -OEChem-04042215593D

 29 29  0     1  0  0  0  0  0999 V2000
   -3.6262   -3.5877    1.4752 H   0  0  0  0  0  0  0  0  0  0  0  0
   -3.5251   -2.6863    0.8643 C   0  0  0  0  0  0  0  0  0  0  0  0
   -4.2107   -1.9247    1.2435 H   0  0  0  0  0  0  0  0  0  0  0  0
   -3.7940   -2.9284   -0.1667 H   0  0  0  0  0  0  0  0  0  0  0  0
   -2.0985   -2.1739    0.9199 C   0  0  0  0  0  0  0  0  0  0  0  0
   -1.2709   -2.7396    1.6199 O   0  0  0  0  0  0  0  0  0  0  0  0
   -1.7411   -1.0542    0.1977 N   0  0  0  0  0  0  0  0  0  0  0  0
   -2.4768   -0.5417   -0.2863 H   0  0  0  0  0  0  0  0  0  0  0  0
   -0.4035   -0.4480    0.2412 C   0  0  1  0  0  0  0  0  0  0  0  0
    0.1478   -0.7859    1.1215 H   0  0  0  0  0  0  0  0  0  0  0  0
    0.3647   -0.7853   -1.0558 C   0  0  0  0  0  0  0  0  0  0  0  0
   -0.3339   -1.0978   -1.8394 H   0  0  0  0  0  0  0  0  0  0  0  0
    0.8705    0.1144   -1.4235 H   0  0  0  0  0  0  0  0  0  0  0  0
    1.4233   -1.8458   -0.8628 C   0  0  0  0  0  0  0  0  0  0  0  0
    1.9808   -2.3412    0.2983 N   0  0  0  0  0  0  0  0  0  0  0  0
    1.6341   -2.1816    1.2428 H   0  0  0  0  0  0  0  0  0  0  0  0
    2.9132   -3.3031   -0.0402 C   0  0  0  0  0  0  0  0  0  0  0  0
    3.4910   -3.8881    0.6696 H   0  0  0  0  0  0  0  0  0  0  0  0
    2.9954   -3.4158   -1.3436 N   0  0  0  0  0  0  0  0  0  0  0  0
    2.0697   -2.5198   -1.8661 C   0  0  0  0  0  0  0  0  0  0  0  0
    1.8866   -2.3731   -2.9264 H   0  0  0  0  0  0  0  0  0  0  0  0
   -0.5412    1.0820    0.3707 C   0  0  0  0  0  0  0  0  0  0  0  0
   -1.3753    1.6759   -0.3035 O   0  0  0  0  0  0  0  0  0  0  0  0
    0.2377    1.7900    1.2678 N   0  0  0  0  0  0  0  0  0  0  0  0
    0.9031    1.2692    1.8319 H   0  0  0  0  0  0  0  0  0  0  0  0
    0.1319    3.2322    1.4544 C   0  0  0  0  0  0  0  0  0  0  0  0
   -0.8699    3.5003    1.8062 H   0  0  0  0  0  0  0  0  0  0  0  0
    0.8613    3.5730    2.1956 H   0  0  0  0  0  0  0  0  0  0  0  0
    0.3268    3.7559    0.5125 H   0  0  0  0  0  0  0  0  0  0  0  0
  1  2  1  0  0  0  0
  2  3  1  0  0  0  0
  2  4  1  0  0  0  0
  2  5  1  0  0  0  0
  5  6  2  0  0  0  0
  5  7  1  0  0  0  0
  7  8  1  0  0  0  0
  7  9  1  0  0  0  0
  9 10  1  0  0  0  0
  9 11  1  0  0  0  0
  9 22  1  0  0  0  0
 11 12  1  0  0  0  0
 11 13  1  0  0  0  0
 11 14  1  0  0  0  0
 14 15  1  0  0  0  0
 14 20  2  0  0  0  0
 15 16  1  0  0  0  0
 15 17  1  0  0  0  0
 17 18  1  0  0  0  0
 17 19  2  0  0  0  0
 19 20  1  0  0  0  0
 20 21  1  0  0  0  0
 22 23  2  0  0  0  0
 22 24  1  0  0  0  0
 24 25  1  0  0  0  0
 24 26  1  0  0  0  0
 26 27  1  0  0  0  0
 26 28  1  0  0  0  0
 26 29  1  0  0  0  0
M  END
$$$$

  -OEChem-04042215593D

 29 29  0     1  0  0  0  0  0999 V2000
   -3.6155   -3.5779    1.5093 H   0  0  0  0  0  0  0  0  0  0  0  0
   -3.5273   -2.6781    0.8940 C   0  0  0  0  0  0  0  0  0  0  0  0
   -4.1849   -1.9062    1.3012 H   0  0  0  0  0  0  0  0  0  0  0  0
   -3.8422   -2.9156   -0.1250 H   0  0  0  0  0  0  0  0  0  0  0  0
   -2.0924   -2.1871    0.8897 C   0  0  0  0  0  0  0  0  0  0  0  0
   -1.2345   -2.7856    1.5257 O   0  0  0  0  0  0  0  0  0  0  0  0
   -1.7528   -1.0581    0.1734 N   0  0  0  0  0  0  0  0  0  0  0  0
   -2.5024   -0.5178   -0.2567 H   0  0  0  0  0  0  0  0  0  0  0  0
   -0.4136   -0.4567    0.2093 C   0  0  1  0  0  0  0  0  0  0  0  0
    0.1433   -0.7965    1.0856 H   0  0  0  0  0  0  0  0  0  0  0  0
    0.3474   -0.7863   -1.0931 C   0  0  0  0  0  0  0  0  0  0  0  0
   -0.3573   -1.1087   -1.8666 H   0  0  0  0  0  0  0  0  0  0  0  0
    0.8464    0.1125   -1.4718 H   0  0  0  0  0  0  0  0  0  0  0  0
    1.3992   -1.8524   -0.8943 C   0  0  0  0  0  0  0  0  0  0  0  0
    1.7393   -2.5358    0.2557 N   0  0  0  0  0  0  0  0  0  0  0  0
    1.1716   -2.5842    1.1043 H   0  0  0  0  0  0  0  0  0  0  0  0
    2.7877   -3.3867   -0.0361 C   0  0  0  0  0  0  0  0  0  0  0  0
    3.2423   -4.0800    0.6659 H   0  0  0  0  0  0  0  0  0  0  0  0
    3.1495   -3.2454   -1.2888 N   0  0  0  0  0  0  0  0  0  0  0  0
    2.2936   -2.2942   -1.8336 C   0  0  0  0  0  0  0  0  0  0  0  0
    2.3341   -1.9454   -2.8612 H   0  0  0  0  0  0  0  0  0  0  0  0
   -0.5427    1.0716    0.3601 C   0  0  0  0  0  0  0  0  0  0  0  0
   -1.3913    1.6762   -0.2859 O   0  0  0  0  0  0  0  0  0  0  0  0
    0.2510    1.7623    1.2575 N   0  0  0  0  0  0  0  0  0  0  0  0
    0.9373    1.2325    1.7878 H   0  0  0  0  0  0  0  0  0  0  0  0
    0.1595    3.2027    1.4634 C   0  0  0  0  0  0  0  0  0  0  0  0
   -0.8373    3.4754    1.8258 H   0  0  0  0  0  0  0  0  0  0  0  0
    0.8971    3.5266    2.2041 H   0  0  0  0  0  0  0  0  0  0  0  0
    0.3528    3.7370    0.5271 H   0  0  0  0  0  0  0  0  0  0  0  0
  1  2  1  0  0  0  0
  2  3  1  0  0  0  0
  2  4  1  0  0  0  0
  2  5  1  0  0  0  0
  5  6  2  0  0  0  0
  5  7  1  0  0  0  0
  7  8  1  0  0  0  0
  7  9  1  0  0  0  0
  9 10  1  0  0  0  0
  9 11  1  0  0  0  0
  9 22  1  0  0  0  0
 11 12  1  0  0  0  0
 11 13  1  0  0  0  0
 11 14  1  0  0  0  0
 14 15  1  0  0  0  0
 14 20  2  0  0  0  0
 15 16  1  0  0  0  0
 15 17  1  0  0  0  0
 17 18  1  0  0  0  0
 17 19  2  0  0  0  0
 19 20  1  0  0  0  0
 20 21  1  0  0  0  0
 22 23  2  0  0  0  0
 22 24  1  0  0  0  0
 24 25  1  0  0  0  0
 24 26  1  0  0  0  0
 26 27  1  0  0  0  0
 26 28  1  0  0  0  0
 26 29  1  0  0  0  0
M  END
$$$$

  -OEChem-04042215593D

 29 29  0     1  0  0  0  0  0999 V2000
   -3.5939   -3.5884    1.5168 H   0  0  0  0  0  0  0  0  0  0  0  0
   -3.5152   -2.6865    0.9034 C   0  0  0  0  0  0  0  0  0  0  0  0
   -4.1531   -1.9108    1.3342 H   0  0  0  0  0  0  0  0  0  0  0  0
   -3.8635   -2.9160   -0.1067 H   0  0  0  0  0  0  0  0  0  0  0  0
   -2.0766   -2.2086    0.8575 C   0  0  0  0  0  0  0  0  0  0  0  0
   -1.1989   -2.8393    1.4337 O   0  0  0  0  0  0  0  0  0  0  0  0
   -1.7522   -1.0663    0.1555 N   0  0  0  0  0  0  0  0  0  0  0  0
   -2.5138   -0.5077   -0.2275 H   0  0  0  0  0  0  0  0  0  0  0  0
   -0.4148   -0.4586    0.1798 C   0  0  1  0  0  0  0  0  0  0  0  0
    0.1553   -0.8086    1.0447 H   0  0  0  0  0  0  0  0  0  0  0  0
    0.3318   -0.7764   -1.1335 C   0  0  0  0  0  0  0  0  0  0  0  0
   -0.3813   -1.1109   -1.8942 H   0  0  0  0  0  0  0  0  0  0  0  0
    0.8172    0.1251   -1.5238 H   0  0  0  0  0  0  0  0  0  0  0  0
    1.3854   -1.8391   -0.9333 C   0  0  0  0  0  0  0  0  0  0  0  0
    1.5289   -2.7000    0.1353 N   0  0  0  0  0  0  0  0  0  0  0  0
    0.8278   -2.8628    0.8656 H   0  0  0  0  0  0  0  0  0  0  0  0
    2.6557   -3.4706   -0.0712 C   0  0  0  0  0  0  0  0  0  0  0  0
    3.0023   -4.2594    0.5903 H   0  0  0  0  0  0  0  0  0  0  0  0
    3.2452   -3.1158   -1.1886 N   0  0  0  0  0  0  0  0  0  0  0  0
    2.4662   -2.0998   -1.7334 C   0  0  0  0  0  0  0  0  0  0  0  0
    2.6894   -1.5809   -2.6608 H   0  0  0  0  0  0  0  0  0  0  0  0
   -0.5423    1.0665    0.3573 C   0  0  0  0  0  0  0  0  0  0  0  0
   -1.4064    1.6792   -0.2597 O   0  0  0  0  0  0  0  0  0  0  0  0
    0.2658    1.7429    1.2526 N   0  0  0  0  0  0  0  0  0  0  0  0
    0.9658    1.2051    1.7568 H   0  0  0  0  0  0  0  0  0  0  0  0
    0.1823    3.1807    1.4797 C   0  0  0  0  0  0  0  0  0  0  0  0
   -0.8086    3.4525    1.8585 H   0  0  0  0  0  0  0  0  0  0  0  0
    0.9305    3.4913    2.2153 H   0  0  0  0  0  0  0  0  0  0  0  0
    0.3657    3.7270    0.5485 H   0  0  0  0  0  0  0  0  0  0  0  0
  1  2  1  0  0  0  0
  2  3  1  0  0  0  0
  2  4  1  0  0  0  0
  2  5  1  0  0  0  0
  5  6  2  0  0  0  0
  5  7  1  0  0  0  0
  7  8  1  0  0  0  0
  7  9  1  0  0  0  0
  9 10  1  0  0  0  0
  9 11  1  0  0  0  0
  9 22  1  0  0  0  0
 11 12  1  0  0  0  0
 11 13  1  0  0  0  0
 11 14  1  0  0  0  0
 14 15  1  0  0  0  0
 14 20  2  0  0  0  0
 15 16  1  0  0  0  0
 15 17  1  0  0  0  0
 17 18  1  0  0  0  0
 17 19  2  0  0  0  0
 19 20  1  0  0  0  0
 20 21  1  0  0  0  0
 22 23  2  0  0  0  0
 22 24  1  0  0  0  0
 24 25  1  0  0  0  0
 24 26  1  0  0  0  0
 26 27  1  0  0  0  0
 26 28  1  0  0  0  0
 26 29  1  0  0  0  0
M  END
$$$$

  -OEChem-04042215593D

 29 29  0     1  0  0  0  0  0999 V2000
   -3.5922   -3.5989    1.5045 H   0  0  0  0  0  0  0  0  0  0  0  0
   -3.5113   -2.6933    0.8968 C   0  0  0  0  0  0  0  0  0  0  0  0
   -4.1344   -1.9140    1.3422 H   0  0  0  0  0  0  0  0  0  0  0  0
   -3.8760   -2.9107   -0.1100 H   0  0  0  0  0  0  0  0  0  0  0  0
   -2.0683   -2.2307    0.8342 C   0  0  0  0  0  0  0  0  0  0  0  0
   -1.1884   -2.8901    1.3716 O   0  0  0  0  0  0  0  0  0  0  0  0
   -1.7453   -1.0785    0.1481 N   0  0  0  0  0  0  0  0  0  0  0  0
   -2.5139   -0.5135   -0.2111 H   0  0  0  0  0  0  0  0  0  0  0  0
   -0.4117   -0.4575    0.1603 C   0  0  1  0  0  0  0  0  0  0  0  0
    0.1705   -0.8212    1.0125 H   0  0  0  0  0  0  0  0  0  0  0  0
    0.3253   -0.7667   -1.1599 C   0  0  0  0  0  0  0  0  0  0  0  0
   -0.3894   -1.1145   -1.9130 H   0  0  0  0  0  0  0  0  0  0  0  0
    0.7953    0.1395   -1.5578 H   0  0  0  0  0  0  0  0  0  0  0  0
    1.3892   -1.8166   -0.9566 C   0  0  0  0  0  0  0  0  0  0  0  0
    1.3813   -2.8428   -0.0364 N   0  0  0  0  0  0  0  0  0  0  0  0
    0.6089   -3.0738    0.5988 H   0  0  0  0  0  0  0  0  0  0  0  0
    2.5598   -3.5509   -0.1575 C   0  0  0  0  0  0  0  0  0  0  0  0
    2.8275   -4.4222    0.4330 H   0  0  0  0  0  0  0  0  0  0  0  0
    3.3114   -3.0155   -1.0911 N   0  0  0  0  0  0  0  0  0  0  0  0
    2.5949   -1.9347   -1.5959 C   0  0  0  0  0  0  0  0  0  0  0  0
    2.9476   -1.2730   -2.3812 H   0  0  0  0  0  0  0  0  0  0  0  0
   -0.5408    1.0645    0.3565 C   0  0  0  0  0  0  0  0  0  0  0  0
   -1.4195    1.6796   -0.2369 O   0  0  0  0  0  0  0  0  0  0  0  0
    0.2791    1.7330    1.2469 N   0  0  0  0  0  0  0  0  0  0  0  0
    0.9884    1.1916    1.7341 H   0  0  0  0  0  0  0  0  0  0  0  0
    0.1917    3.1670    1.4957 C   0  0  0  0  0  0  0  0  0  0  0  0
   -0.7975    3.4293    1.8854 H   0  0  0  0  0  0  0  0  0  0  0  0
    0.9437    3.4700    2.2307 H   0  0  0  0  0  0  0  0  0  0  0  0
    0.3664    3.7280    0.5716 H   0  0  0  0  0  0  0  0  0  0  0  0
  1  2  1  0  0  0  0
  2  3  1  0  0  0  0
  2  4  1  0  0  0  0
  2  5  1  0  0  0  0
  5  6  2  0  0  0  0
  5  7  1  0  0  0  0
  7  8  1  0  0  0  0
  7  9  1  0  0  0  0
  9 10  1  0  0  0  0
  9 11  1  0  0  0  0
  9 22  1  0  0  0  0
 11 12  1  0  0  0  0
 11 13  1  0  0  0  0
 11 14  1  0  0  0  0
 14 15  1  0  0  0  0
 14 20  2  0  0  0  0
 15 16  1  0  0  0  0
 15 17  1  0  0  0  0
 17 18  1  0  0  0  0
 17 19  2  0  0  0  0
 19 20  1  0  0  0  0
 20 21  1  0  0  0  0
 22 23  2  0  0  0  0
 22 24  1  0  0  0  0
 24 25  1  0  0  0  0
 24 26  1  0  0  0  0
 26 27  1  0  0  0  0
 26 28  1  0  0  0  0
 26 29  1  0  0  0  0
M  END
$$$$

  -OEChem-04042215593D

 29 29  0     1  0  0  0  0  0999 V2000
   -3.5877   -3.6054    1.4886 H   0  0  0  0  0  0  0  0  0  0  0  0
   -3.5054   -2.6967    0.8857 C   0  0  0  0  0  0  0  0  0  0  0  0
   -4.1124   -1.9134    1.3464 H   0  0  0  0  0  0  0  0  0  0  0  0
   -3.8885   -2.9028   -0.1168 H   0  0  0  0  0  0  0  0  0  0  0  0
   -2.0579   -2.2507    0.8043 C   0  0  0  0  0  0  0  0  0  0  0  0
   -1.1766   -2.9385    1.3001 O   0  0  0  0  0  0  0  0  0  0  0  0
   -1.7370   -1.0888    0.1345 N   0  0  0  0  0  0  0  0  0  0  0  0
   -2.5122   -0.5174   -0.1999 H   0  0  0  0  0  0  0  0  0  0  0  0
   -0.4095   -0.4518    0.1426 C   0  0  1  0  0  0  0  0  0  0  0  0
    0.1781   -0.8267    0.9874 H   0  0  0  0  0  0  0  0  0  0  0  0
    0.3258   -0.7577   -1.1781 C   0  0  0  0  0  0  0  0  0  0  0  0
   -0.3838   -1.1196   -1.9295 H   0  0  0  0  0  0  0  0  0  0  0  0
    0.7844    0.1525   -1.5801 H   0  0  0  0  0  0  0  0  0  0  0  0
    1.3993   -1.7920   -0.9590 C   0  0  0  0  0  0  0  0  0  0  0  0
    1.2848   -2.9593   -0.2379 N   0  0  0  0  0  0  0  0  0  0  0  0
    0.4642   -3.2521    0.3036 H   0  0  0  0  0  0  0  0  0  0  0  0
    2.4967   -3.6189   -0.2765 C   0  0  0  0  0  0  0  0  0  0  0  0
    2.7089   -4.5635    0.2160 H   0  0  0  0  0  0  0  0  0  0  0  0
    3.3594   -2.9328   -0.9897 N   0  0  0  0  0  0  0  0  0  0  0  0
    2.6873   -1.7947   -1.4244 C   0  0  0  0  0  0  0  0  0  0  0  0
    3.1255   -1.0167   -2.0422 H   0  0  0  0  0  0  0  0  0  0  0  0
   -0.5429    1.0669    0.3554 C   0  0  0  0  0  0  0  0  0  0  0  0
   -1.4307    1.6837   -0.2224 O   0  0  0  0  0  0  0  0  0  0  0  0
    0.2833    1.7279    1.2454 N   0  0  0  0  0  0  0  0  0  0  0  0
    0.9987    1.1829    1.7198 H   0  0  0  0  0  0  0  0  0  0  0  0
    0.1928    3.1582    1.5126 C   0  0  0  0  0  0  0  0  0  0  0  0
   -0.7956    3.4129    1.9094 H   0  0  0  0  0  0  0  0  0  0  0  0
    0.9468    3.4536    2.2485 H   0  0  0  0  0  0  0  0  0  0  0  0
    0.3625    3.7308    0.5947 H   0  0  0  0  0  0  0  0  0  0  0  0
  1  2  1  0  0  0  0
  2  3  1  0  0  0  0
  2  4  1  0  0  0  0
  2  5  1  0  0  0  0
  5  6  2  0  0  0  0
  5  7  1  0  0  0  0
  7  8  1  0  0  0  0
  7  9  1  0  0  0  0
  9 10  1  0  0  0  0
  9 11  1  0  0  0  0
  9 22  1  0  0  0  0
 11 12  1  0  0  0  0
 11 13  1  0  0  0  0
 11 14  1  0  0  0  0
 14 15  1  0  0  0  0
 14 20  2  0  0  0  0
 15 16  1  0  0  0  0
 15 17  1  0  0  0  0
 17 18  1  0  0  0  0
 17 19  2  0  0  0  0
 19 20  1  0  0  0  0
 20 21  1  0  0  0  0
 22 23  2  0  0  0  0
 22 24  1  0  0  0  0
 24 25  1  0  0  0  0
 24 26  1  0  0  0  0
 26 27  1  0  0  0  0
 26 28  1  0  0  0  0
 26 29  1  0  0  0  0
M  END
$$$$

  -OEChem-04042215593D

 29 29  0     1  0  0  0  0  0999 V2000
   -3.5682   -3.6062    1.4841 H   0  0  0  0  0  0  0  0  0  0  0  0
   -3.4933   -2.6953    0.8835 C   0  0  0  0  0  0  0  0  0  0  0  0
   -4.0775   -1.9077    1.3657 H   0  0  0  0  0  0  0  0  0  0  0  0
   -3.9076   -2.8910   -0.1085 H   0  0  0  0  0  0  0  0  0  0  0  0
   -2.0439   -2.2650    0.7624 C   0  0  0  0  0  0  0  0  0  0  0  0
   -1.1560   -2.9835    1.1975 O   0  0  0  0  0  0  0  0  0  0  0  0
   -1.7318   -1.0927    0.1070 N   0  0  0  0  0  0  0  0  0  0  0  0
   -2.5144   -0.5096   -0.1877 H   0  0  0  0  0  0  0  0  0  0  0  0
   -0.4094   -0.4437    0.1181 C   0  0  1  0  0  0  0  0  0  0  0  0
    0.1762   -0.8264    0.9613 H   0  0  0  0  0  0  0  0  0  0  0  0
    0.3304   -0.7512   -1.1979 C   0  0  0  0  0  0  0  0  0  0  0  0
   -0.3687   -1.1224   -1.9543 H   0  0  0  0  0  0  0  0  0  0  0  0
    0.7861    0.1609   -1.5987 H   0  0  0  0  0  0  0  0  0  0  0  0
    1.4075   -1.7738   -0.9533 C   0  0  0  0  0  0  0  0  0  0  0  0
    1.2304   -3.0493   -0.4694 N   0  0  0  0  0  0  0  0  0  0  0  0
    0.3694   -3.4091   -0.0456 H   0  0  0  0  0  0  0  0  0  0  0  0
    2.4636   -3.6674   -0.4109 C   0  0  0  0  0  0  0  0  0  0  0  0
    2.6404   -4.6708   -0.0342 H   0  0  0  0  0  0  0  0  0  0  0  0
    3.3951   -2.8605   -0.8640 N   0  0  0  0  0  0  0  0  0  0  0  0
    2.7485   -1.6799   -1.2142 C   0  0  0  0  0  0  0  0  0  0  0  0
    3.2400   -0.8068   -1.6328 H   0  0  0  0  0  0  0  0  0  0  0  0
   -0.5452    1.0715    0.3482 C   0  0  0  0  0  0  0  0  0  0  0  0
   -1.4418    1.6905   -0.2129 O   0  0  0  0  0  0  0  0  0  0  0  0
    0.2834    1.7243    1.2420 N   0  0  0  0  0  0  0  0  0  0  0  0
    1.0035    1.1760    1.7055 H   0  0  0  0  0  0  0  0  0  0  0  0
    0.1868    3.1500    1.5309 C   0  0  0  0  0  0  0  0  0  0  0  0
   -0.8027    3.3944    1.9314 H   0  0  0  0  0  0  0  0  0  0  0  0
    0.9395    3.4375    2.2714 H   0  0  0  0  0  0  0  0  0  0  0  0
    0.3542    3.7373    0.6218 H   0  0  0  0  0  0  0  0  0  0  0  0
  1  2  1  0  0  0  0
  2  3  1  0  0  0  0
  2  4  1  0  0  0  0
  2  5  1  0  0  0  0
  5  6  2  0  0  0  0
  5  7  1  0  0  0  0
  7  8  1  0  0  0  0
  7  9  1  0  0  0  0
  9 10  1  0  0  0  0
  9 11  1  0  0  0  0
  9 22  1  0  0  0  0
 11 12  1  0  0  0  0
 11 13  1  0  0  0  0
 11 14  1  0  0  0  0
 14 15  1  0  0  0  0
 14 20  2  0  0  0  0
 15 16  1  0  0  0  0
 15 17  1  0  0  0  0
 17 18  1  0  0  0  0
 17 19  2  0  0  0  0
 19 20  1  0  0  0  0
 20 21  1  0  0  0  0
 22 23  2  0  0  0  0
 22 24  1  0  0  0  0
 24 25  1  0  0  0  0
 24 26  1  0  0  0  0
 26 27  1  0  0  0  0
 26 28  1  0  0  0  0
 26 29  1  0  0  0  0
M  END
$$$$

  -OEChem-04042215593D

 29 29  0     1  0  0  0  0  0999 V2000
   -3.5465   -3.6132    1.4546 H   0  0  0  0  0  0  0  0  0  0  0  0
   -3.4815   -2.6816    0.8855 C   0  0  0  0  0  0  0  0  0  0  0  0
   -4.0386   -1.9060    1.4170 H   0  0  0  0  0  0  0  0  0  0  0  0
   -3.9329   -2.8363   -0.0975 H   0  0  0  0  0  0  0  0  0  0  0  0
   -2.0315   -2.2643    0.7298 C   0  0  0  0  0  0  0  0  0  0  0  0
   -1.1400   -3.0009    1.1235 O   0  0  0  0  0  0  0  0  0  0  0  0
   -1.7249   -1.0878    0.0799 N   0  0  0  0  0  0  0  0  0  0  0  0
   -2.5107   -0.4962   -0.1881 H   0  0  0  0  0  0  0  0  0  0  0  0
   -0.4046   -0.4350    0.0996 C   0  0  1  0  0  0  0  0  0  0  0  0
    0.1741   -0.8201    0.9468 H   0  0  0  0  0  0  0  0  0  0  0  0
    0.3421   -0.7518   -1.2085 C   0  0  0  0  0  0  0  0  0  0  0  0
   -0.3475   -1.1236   -1.9734 H   0  0  0  0  0  0  0  0  0  0  0  0
    0.8054    0.1581   -1.6056 H   0  0  0  0  0  0  0  0  0  0  0  0
    1.4160   -1.7711   -0.9388 C   0  0  0  0  0  0  0  0  0  0  0  0
    1.2310   -3.1155   -0.7170 N   0  0  0  0  0  0  0  0  0  0  0  0
    0.3428   -3.5520   -0.4603 H   0  0  0  0  0  0  0  0  0  0  0  0
    2.4716   -3.7038   -0.5667 C   0  0  0  0  0  0  0  0  0  0  0  0
    2.6398   -4.7516   -0.3353 H   0  0  0  0  0  0  0  0  0  0  0  0
    3.4201   -2.8108   -0.7301 N   0  0  0  0  0  0  0  0  0  0  0  0
    2.7748   -1.6040   -0.9759 C   0  0  0  0  0  0  0  0  0  0  0  0
    3.2794   -0.6629   -1.1735 H   0  0  0  0  0  0  0  0  0  0  0  0
   -0.5425    1.0792    0.3358 C   0  0  0  0  0  0  0  0  0  0  0  0
   -1.4429    1.6977   -0.2197 O   0  0  0  0  0  0  0  0  0  0  0  0
    0.2813    1.7301    1.2355 N   0  0  0  0  0  0  0  0  0  0  0  0
    0.9930    1.1791    1.7085 H   0  0  0  0  0  0  0  0  0  0  0  0
    0.1643    3.1494    1.5475 C   0  0  0  0  0  0  0  0  0  0  0  0
   -0.8245    3.3706    1.9630 H   0  0  0  0  0  0  0  0  0  0  0  0
    0.9206    3.4385    2.2837 H   0  0  0  0  0  0  0  0  0  0  0  0
    0.3109    3.7533    0.6458 H   0  0  0  0  0  0  0  0  0  0  0  0
  1  2  1  0  0  0  0
  2  3  1  0  0  0  0
  2  4  1  0  0  0  0
  2  5  1  0  0  0  0
  5  6  2  0  0  0  0
  5  7  1  0  0  0  0
  7  8  1  0  0  0  0
  7  9  1  0  0  0  0
  9 10  1  0  0  0  0
  9 11  1  0  0  0  0
  9 22  1  0  0  0  0
 11 12  1  0  0  0  0
 11 13  1  0  0  0  0
 11 14  1  0  0  0  0
 14 15  1  0  0  0  0
 14 20  2  0  0  0  0
 15 16  1  0  0  0  0
 15 17  1  0  0  0  0
 17 18  1  0  0  0  0
 17 19  2  0  0  0  0
 19 20  1  0  0  0  0
 20 21  1  0  0  0  0
 22 23  2  0  0  0  0
 22 24  1  0  0  0  0
 24 25  1  0  0  0  0
 24 26  1  0  0  0  0
 26 27  1  0  0  0  0
 26 28  1  0  0  0  0
 26 29  1  0  0  0  0
M  END
$$$$

  -OEChem-04042215593D

 29 29  0     1  0  0  0  0  0999 V2000
   -3.5572   -3.6031    1.4684 H   0  0  0  0  0  0  0  0  0  0  0  0
   -3.4841   -2.6874    0.8750 C   0  0  0  0  0  0  0  0  0  0  0  0
   -4.0667   -1.9038    1.3654 H   0  0  0  0  0  0  0  0  0  0  0  0
   -3.9013   -2.8750   -0.1172 H   0  0  0  0  0  0  0  0  0  0  0  0
   -2.0348   -2.2562    0.7539 C   0  0  0  0  0  0  0  0  0  0  0  0
   -1.1492   -2.9678    1.2000 O   0  0  0  0  0  0  0  0  0  0  0  0
   -1.7242   -1.0847    0.0970 N   0  0  0  0  0  0  0  0  0  0  0  0
   -2.5070   -0.5020   -0.1971 H   0  0  0  0  0  0  0  0  0  0  0  0
   -0.4026   -0.4364    0.1165 C   0  0  1  0  0  0  0  0  0  0  0  0
    0.1788   -0.8206    0.9621 H   0  0  0  0  0  0  0  0  0  0  0  0
    0.3394   -0.7487   -1.1955 C   0  0  0  0  0  0  0  0  0  0  0  0
   -0.3523   -1.1050   -1.9657 H   0  0  0  0  0  0  0  0  0  0  0  0
    0.8095    0.1620   -1.5823 H   0  0  0  0  0  0  0  0  0  0  0  0
    1.4111   -1.7729   -0.9383 C   0  0  0  0  0  0  0  0  0  0  0  0
    1.2862   -3.1408   -1.0054 N   0  0  0  0  0  0  0  0  0  0  0  0
    0.4085   -3.6563   -1.0509 H   0  0  0  0  0  0  0  0  0  0  0  0
    2.5228   -3.7016   -0.7490 C   0  0  0  0  0  0  0  0  0  0  0  0
    2.7239   -4.7675   -0.6926 H   0  0  0  0  0  0  0  0  0  0  0  0
    3.4211   -2.7603   -0.5761 N   0  0  0  0  0  0  0  0  0  0  0  0
    2.7427   -1.5539   -0.7036 C   0  0  0  0  0  0  0  0  0  0  0  0
    3.2061   -0.5746   -0.6303 H   0  0  0  0  0  0  0  0  0  0  0  0
   -0.5410    1.0791    0.3440 C   0  0  0  0  0  0  0  0  0  0  0  0
   -1.4293    1.6988   -0.2295 O   0  0  0  0  0  0  0  0  0  0  0  0
    0.2805    1.7336    1.2432 N   0  0  0  0  0  0  0  0  0  0  0  0
    0.9808    1.1813    1.7317 H   0  0  0  0  0  0  0  0  0  0  0  0
    0.1705    3.1565    1.5407 C   0  0  0  0  0  0  0  0  0  0  0  0
   -0.8211    3.3891    1.9431 H   0  0  0  0  0  0  0  0  0  0  0  0
    0.9210    3.4471    2.2822 H   0  0  0  0  0  0  0  0  0  0  0  0
    0.3315    3.7504    0.6348 H   0  0  0  0  0  0  0  0  0  0  0  0
  1  2  1  0  0  0  0
  2  3  1  0  0  0  0
  2  4  1  0  0  0  0
  2  5  1  0  0  0  0
  5  6  2  0  0  0  0
  5  7  1  0  0  0  0
  7  8  1  0  0  0  0
  7  9  1  0  0  0  0
  9 10  1  0  0  0  0
  9 11  1  0  0  0  0
  9 22  1  0  0  0  0
 11 12  1  0  0  0  0
 11 13  1  0  0  0  0
 11 14  1  0  0  0  0
 14 15  1  0  0  0  0
 14 20  2  0  0  0  0
 15 16  1  0  0  0  0
 15 17  1  0  0  0  0
 17 18  1  0  0  0  0
 17 19  2  0  0  0  0
 19 20  1  0  0  0  0
 20 21  1  0  0  0  0
 22 23  2  0  0  0  0
 22 24  1  0  0  0  0
 24 25  1  0  0  0  0
 24 26  1  0  0  0  0
 26 27  1  0  0  0  0
 26 28  1  0  0  0  0
 26 29  1  0  0  0  0
M  END
$$$$

  -OEChem-04042215593D

 29 29  0     1  0  0  0  0  0999 V2000
   -3.5704   -3.6115    1.4549 H   0  0  0  0  0  0  0  0  0  0  0  0
   -3.4872   -2.6971    0.8610 C   0  0  0  0  0  0  0  0  0  0  0  0
   -4.1078   -1.9231    1.3188 H   0  0  0  0  0  0  0  0  0  0  0  0
   -3.8528   -2.8984   -0.1488 H   0  0  0  0  0  0  0  0  0  0  0  0
   -2.0422   -2.2387    0.8071 C   0  0  0  0  0  0  0  0  0  0  0  0
   -1.1737   -2.9032    1.3477 O   0  0  0  0  0  0  0  0  0  0  0  0
   -1.7196   -1.0795    0.1338 N   0  0  0  0  0  0  0  0  0  0  0  0
   -2.4926   -0.5171   -0.2188 H   0  0  0  0  0  0  0  0  0  0  0  0
   -0.3946   -0.4397    0.1513 C   0  0  1  0  0  0  0  0  0  0  0  0
    0.1901   -0.8195    0.9961 H   0  0  0  0  0  0  0  0  0  0  0  0
    0.3409   -0.7473   -1.1673 C   0  0  0  0  0  0  0  0  0  0  0  0
   -0.3600   -1.0858   -1.9372 H   0  0  0  0  0  0  0  0  0  0  0  0
    0.8164    0.1637   -1.5470 H   0  0  0  0  0  0  0  0  0  0  0  0
    1.4131   -1.7798   -0.9435 C   0  0  0  0  0  0  0  0  0  0  0  0
    1.3870   -3.1094   -1.2969 N   0  0  0  0  0  0  0  0  0  0  0  0
    0.5848   -3.6186   -1.6613 H   0  0  0  0  0  0  0  0  0  0  0  0
    2.5981   -3.6761   -0.9459 C   0  0  0  0  0  0  0  0  0  0  0  0
    2.8588   -4.7223   -1.0777 H   0  0  0  0  0  0  0  0  0  0  0  0
    3.3916   -2.7676   -0.4300 N   0  0  0  0  0  0  0  0  0  0  0  0
    2.6672   -1.5815   -0.4287 C   0  0  0  0  0  0  0  0  0  0  0  0
    3.0464   -0.6281   -0.0736 H   0  0  0  0  0  0  0  0  0  0  0  0
   -0.5346    1.0793    0.3559 C   0  0  0  0  0  0  0  0  0  0  0  0
   -1.4062    1.6942   -0.2480 O   0  0  0  0  0  0  0  0  0  0  0  0
    0.2805    1.7475    1.2508 N   0  0  0  0  0  0  0  0  0  0  0  0
    0.9566    1.1980    1.7752 H   0  0  0  0  0  0  0  0  0  0  0  0
    0.1676    3.1748    1.5243 C   0  0  0  0  0  0  0  0  0  0  0  0
   -0.8247    3.4115    1.9224 H   0  0  0  0  0  0  0  0  0  0  0  0
    0.9173    3.4794    2.2608 H   0  0  0  0  0  0  0  0  0  0  0  0
    0.3278    3.7537    0.6086 H   0  0  0  0  0  0  0  0  0  0  0  0
  1  2  1  0  0  0  0
  2  3  1  0  0  0  0
  2  4  1  0  0  0  0
  2  5  1  0  0  0  0
  5  6  2  0  0  0  0
  5  7  1  0  0  0  0
  7  8  1  0  0  0  0
  7  9  1  0  0  0  0
  9 10  1  0  0  0  0
  9 11  1  0  0  0  0
  9 22  1  0  0  0  0
 11 12  1  0  0  0  0
 11 13  1  0  0  0  0
 11 14  1  0  0  0  0
 14 15  1  0  0  0  0
 14 20  2  0  0  0  0
 15 16  1  0  0  0  0
 15 17  1  0  0  0  0
 17 18  1  0  0  0  0
 17 19  2  0  0  0  0
 19 20  1  0  0  0  0
 20 21  1  0  0  0  0
 22 23  2  0  0  0  0
 22 24  1  0  0  0  0
 24 25  1  0  0  0  0
 24 26  1  0  0  0  0
 26 27  1  0  0  0  0
 26 28  1  0  0  0  0
 26 29  1  0  0  0  0
M  END
$$$$

  -OEChem-04042215593D

 29 29  0     1  0  0  0  0  0999 V2000
   -3.5625   -3.6290    1.4463 H   0  0  0  0  0  0  0  0  0  0  0  0
   -3.4790   -2.7154    0.8510 C   0  0  0  0  0  0  0  0  0  0  0  0
   -4.1332   -1.9535    1.2817 H   0  0  0  0  0  0  0  0  0  0  0  0
   -3.8026   -2.9296   -0.1702 H   0  0  0  0  0  0  0  0  0  0  0  0
   -2.0435   -2.2249    0.8467 C   0  0  0  0  0  0  0  0  0  0  0  0
   -1.1874   -2.8489    1.4512 O   0  0  0  0  0  0  0  0  0  0  0  0
   -1.7167   -1.0738    0.1610 N   0  0  0  0  0  0  0  0  0  0  0  0
   -2.4833   -0.5326   -0.2354 H   0  0  0  0  0  0  0  0  0  0  0  0
   -0.3911   -0.4354    0.1788 C   0  0  1  0  0  0  0  0  0  0  0  0
    0.1911   -0.8073    1.0282 H   0  0  0  0  0  0  0  0  0  0  0  0
    0.3473   -0.7421   -1.1413 C   0  0  0  0  0  0  0  0  0  0  0  0
   -0.3621   -1.0803   -1.9034 H   0  0  0  0  0  0  0  0  0  0  0  0
    0.8176    0.1688   -1.5280 H   0  0  0  0  0  0  0  0  0  0  0  0
    1.4269   -1.7756   -0.9472 C   0  0  0  0  0  0  0  0  0  0  0  0
    1.5269   -3.0046   -1.5590 N   0  0  0  0  0  0  0  0  0  0  0  0
    0.8477   -3.4187   -2.1934 H   0  0  0  0  0  0  0  0  0  0  0  0
    2.6825   -3.6203   -1.1151 C   0  0  0  0  0  0  0  0  0  0  0  0
    3.0182   -4.6085   -1.4159 H   0  0  0  0  0  0  0  0  0  0  0  0
    3.3213   -2.8368   -0.2796 N   0  0  0  0  0  0  0  0  0  0  0  0
    2.5485   -1.6873   -0.1640 C   0  0  0  0  0  0  0  0  0  0  0  0
    2.8039   -0.8333    0.4559 H   0  0  0  0  0  0  0  0  0  0  0  0
   -0.5355    1.0859    0.3656 C   0  0  0  0  0  0  0  0  0  0  0  0
   -1.3947    1.6956   -0.2611 O   0  0  0  0  0  0  0  0  0  0  0  0
    0.2730    1.7652    1.2581 N   0  0  0  0  0  0  0  0  0  0  0  0
    0.9358    1.2205    1.8036 H   0  0  0  0  0  0  0  0  0  0  0  0
    0.1642    3.1973    1.5074 C   0  0  0  0  0  0  0  0  0  0  0  0
   -0.8287    3.4443    1.8977 H   0  0  0  0  0  0  0  0  0  0  0  0
    0.9125    3.5114    2.2415 H   0  0  0  0  0  0  0  0  0  0  0  0
    0.3303    3.7602    0.5828 H   0  0  0  0  0  0  0  0  0  0  0  0
  1  2  1  0  0  0  0
  2  3  1  0  0  0  0
  2  4  1  0  0  0  0
  2  5  1  0  0  0  0
  5  6  2  0  0  0  0
  5  7  1  0  0  0  0
  7  8  1  0  0  0  0
  7  9  1  0  0  0  0
  9 10  1  0  0  0  0
  9 11  1  0  0  0  0
  9 22  1  0  0  0  0
 11 12  1  0  0  0  0
 11 13  1  0  0  0  0
 11 14  1  0  0  0  0
 14 15  1  0  0  0  0
 14 20  2  0  0  0  0
 15 16  1  0  0  0  0
 15 17  1  0  0  0  0
 17 18  1  0  0  0  0
 17 19  2  0  0  0  0
 19 20  1  0  0  0  0
 20 21  1  0  0  0  0
 22 23  2  0  0  0  0
 22 24  1  0  0  0  0
 24 25  1  0  0  0  0
 24 26  1  0  0  0  0
 26 27  1  0  0  0  0
 26 28  1  0  0  0  0
 26 29  1  0  0  0  0
M  END
$$$$

  -OEChem-04042215593D

 29 29  0     1  0  0  0  0  0999 V2000
   -3.5639   -3.6358    1.4381 H   0  0  0  0  0  0  0  0  0  0  0  0
   -3.4771   -2.7207    0.8456 C   0  0  0  0  0  0  0  0  0  0  0  0
   -4.1515   -1.9675    1.2600 H   0  0  0  0  0  0  0  0  0  0  0  0
   -3.7722   -2.9384   -0.1835 H   0  0  0  0  0  0  0  0  0  0  0  0
   -2.0483   -2.2117    0.8772 C   0  0  0  0  0  0  0  0  0  0  0  0
   -1.2063   -2.8068    1.5288 O   0  0  0  0  0  0  0  0  0  0  0  0
   -1.7129   -1.0696    0.1801 N   0  0  0  0  0  0  0  0  0  0  0  0
   -2.4701   -0.5479   -0.2581 H   0  0  0  0  0  0  0  0  0  0  0  0
   -0.3877   -0.4303    0.2066 C   0  0  1  0  0  0  0  0  0  0  0  0
    0.1832   -0.7891    1.0680 H   0  0  0  0  0  0  0  0  0  0  0  0
    0.3652   -0.7410   -1.1066 C   0  0  0  0  0  0  0  0  0  0  0  0
   -0.3466   -1.0852   -1.8636 H   0  0  0  0  0  0  0  0  0  0  0  0
    0.8282    0.1703   -1.5008 H   0  0  0  0  0  0  0  0  0  0  0  0
    1.4543   -1.7722   -0.9337 C   0  0  0  0  0  0  0  0  0  0  0  0
    1.7068   -2.8451   -1.7601 N   0  0  0  0  0  0  0  0  0  0  0  0
    1.1772   -3.1051   -2.5891 H   0  0  0  0  0  0  0  0  0  0  0  0
    2.7909   -3.5407   -1.2583 C   0  0  0  0  0  0  0  0  0  0  0  0
    3.2163   -4.4372   -1.6997 H   0  0  0  0  0  0  0  0  0  0  0  0
    3.2380   -2.9593   -0.1721 N   0  0  0  0  0  0  0  0  0  0  0  0
    2.4087   -1.8656    0.0479 C   0  0  0  0  0  0  0  0  0  0  0  0
    2.5145   -1.1750    0.8789 H   0  0  0  0  0  0  0  0  0  0  0  0
   -0.5382    1.0931    0.3714 C   0  0  0  0  0  0  0  0  0  0  0  0
   -1.3868    1.6932   -0.2789 O   0  0  0  0  0  0  0  0  0  0  0  0
    0.2570    1.7859    1.2656 N   0  0  0  0  0  0  0  0  0  0  0  0
    0.9161    1.2503    1.8246 H   0  0  0  0  0  0  0  0  0  0  0  0
    0.1451    3.2217    1.4917 C   0  0  0  0  0  0  0  0  0  0  0  0
   -0.8505    3.4733    1.8719 H   0  0  0  0  0  0  0  0  0  0  0  0
    0.8885    3.5475    2.2257 H   0  0  0  0  0  0  0  0  0  0  0  0
    0.3165    3.7715    0.5602 H   0  0  0  0  0  0  0  0  0  0  0  0
  1  2  1  0  0  0  0
  2  3  1  0  0  0  0
  2  4  1  0  0  0  0
  2  5  1  0  0  0  0
  5  6  2  0  0  0  0
  5  7  1  0  0  0  0
  7  8  1  0  0  0  0
  7  9  1  0  0  0  0
  9 10  1  0  0  0  0
  9 11  1  0  0  0  0
  9 22  1  0  0  0  0
 11 12  1  0  0  0  0
 11 13  1  0  0  0  0
 11 14  1  0  0  0  0
 14 15  1  0  0  0  0
 14 20  2  0  0  0  0
 15 16  1  0  0  0  0
 15 17  1  0  0  0  0
 17 18  1  0  0  0  0
 17 19  2  0  0  0  0
 19 20  1  0  0  0  0
 20 21  1  0  0  0  0
 22 23  2  0  0  0  0
 22 24  1  0  0  0  0
 24 25  1  0  0  0  0
 24 26  1  0  0  0  0
 26 27  1  0  0  0  0
 26 28  1  0  0  0  0
 26 29  1  0  0  0  0
M  END
$$$$

  -OEChem-04042215593D

 29 29  0     1  0  0  0  0  0999 V2000
   -3.5737   -3.6247    1.4339 H   0  0  0  0  0  0  0  0  0  0  0  0
   -3.4797   -2.7106    0.8408 C   0  0  0  0  0  0  0  0  0  0  0  0
   -4.1646   -1.9590    1.2407 H   0  0  0  0  0  0  0  0  0  0  0  0
   -3.7542   -2.9324   -0.1933 H   0  0  0  0  0  0  0  0  0  0  0  0
   -2.0540   -2.1957    0.8988 C   0  0  0  0  0  0  0  0  0  0  0  0
   -1.2263   -2.7714    1.5854 O   0  0  0  0  0  0  0  0  0  0  0  0
   -1.7061   -1.0640    0.1916 N   0  0  0  0  0  0  0  0  0  0  0  0
   -2.4536   -0.5523   -0.2744 H   0  0  0  0  0  0  0  0  0  0  0  0
   -0.3813   -0.4262    0.2354 C   0  0  1  0  0  0  0  0  0  0  0  0
    0.1723   -0.7688    1.1131 H   0  0  0  0  0  0  0  0  0  0  0  0
    0.3919   -0.7488   -1.0649 C   0  0  0  0  0  0  0  0  0  0  0  0
   -0.3158   -1.0966   -1.8246 H   0  0  0  0  0  0  0  0  0  0  0  0
    0.8548    0.1617   -1.4603 H   0  0  0  0  0  0  0  0  0  0  0  0
    1.4857   -1.7801   -0.9024 C   0  0  0  0  0  0  0  0  0  0  0  0
    1.9077   -2.6521   -1.8825 N   0  0  0  0  0  0  0  0  0  0  0  0
    1.5412   -2.7160   -2.8295 H   0  0  0  0  0  0  0  0  0  0  0  0
    2.9152   -3.4449   -1.3670 C   0  0  0  0  0  0  0  0  0  0  0  0
    3.4420   -4.2209   -1.9152 H   0  0  0  0  0  0  0  0  0  0  0  0
    3.1494   -3.1215   -0.1195 N   0  0  0  0  0  0  0  0  0  0  0  0
    2.2561   -2.1011    0.1890 C   0  0  0  0  0  0  0  0  0  0  0  0
    2.1961   -1.6206    1.1604 H   0  0  0  0  0  0  0  0  0  0  0  0
   -0.5404    1.0993    0.3761 C   0  0  0  0  0  0  0  0  0  0  0  0
   -1.3762    1.6874   -0.3014 O   0  0  0  0  0  0  0  0  0  0  0  0
    0.2332    1.8089    1.2762 N   0  0  0  0  0  0  0  0  0  0  0  0
    0.8834    1.2847    1.8559 H   0  0  0  0  0  0  0  0  0  0  0  0
    0.1118    3.2477    1.4771 C   0  0  0  0  0  0  0  0  0  0  0  0
   -0.8899    3.5007    1.8400 H   0  0  0  0  0  0  0  0  0  0  0  0
    0.8442    3.5897    2.2148 H   0  0  0  0  0  0  0  0  0  0  0  0
    0.2922    3.7824    0.5385 H   0  0  0  0  0  0  0  0  0  0  0  0
  1  2  1  0  0  0  0
  2  3  1  0  0  0  0
  2  4  1  0  0  0  0
  2  5  1  0  0  0  0
  5  6  2  0  0  0  0
  5  7  1  0  0  0  0
  7  8  1  0  0  0  0
  7  9  1  0  0  0  0
  9 10  1  0  0  0  0
  9 11  1  0  0  0  0
  9 22  1  0  0  0  0
 11 12  1  0  0  0  0
 11 13  1  0  0  0  0
 11 14  1  0  0  0  0
 14 15  1  0  0  0  0
 14 20  2  0  0  0  0
 15 16  1  0  0  0  0
 15 17  1  0  0  0  0
 17 18  1  0  0  0  0
 17 19  2  0  0  0  0
 19 20  1  0  0  0  0
 20 21  1  0  0  0  0
 22 23  2  0  0  0  0
 22 24  1  0  0  0  0
 24 25  1  0  0  0  0
 24 26  1  0  0  0  0
 26 27  1  0  0  0  0
 26 28  1  0  0  0  0
 26 29  1  0  0  0  0
M  END
$$$$

  -OEChem-04042215593D

 29 29  0     1  0  0  0  0  0999 V2000
   -3.5827   -3.6116    1.4364 H   0  0  0  0  0  0  0  0  0  0  0  0
   -3.4835   -2.7004    0.8398 C   0  0  0  0  0  0  0  0  0  0  0  0
   -4.1750   -1.9482    1.2270 H   0  0  0  0  0  0  0  0  0  0  0  0
   -3.7451   -2.9280   -0.1964 H   0  0  0  0  0  0  0  0  0  0  0  0
   -2.0595   -2.1822    0.9119 C   0  0  0  0  0  0  0  0  0  0  0  0
   -1.2390   -2.7494    1.6145 O   0  0  0  0  0  0  0  0  0  0  0  0
   -1.7021   -1.0578    0.1978 N   0  0  0  0  0  0  0  0  0  0  0  0
   -2.4424   -0.5486   -0.2821 H   0  0  0  0  0  0  0  0  0  0  0  0
   -0.3764   -0.4233    0.2534 C   0  0  1  0  0  0  0  0  0  0  0  0
    0.1679   -0.7519    1.1414 H   0  0  0  0  0  0  0  0  0  0  0  0
    0.4095   -0.7548   -1.0372 C   0  0  0  0  0  0  0  0  0  0  0  0
   -0.2912   -1.0991   -1.8048 H   0  0  0  0  0  0  0  0  0  0  0  0
    0.8795    0.1553   -1.4255 H   0  0  0  0  0  0  0  0  0  0  0  0
    1.5023   -1.7891   -0.8738 C   0  0  0  0  0  0  0  0  0  0  0  0
    2.1178   -2.4422   -1.9203 N   0  0  0  0  0  0  0  0  0  0  0  0
    1.9261   -2.3057   -2.9103 H   0  0  0  0  0  0  0  0  0  0  0  0
    3.0447   -3.3294   -1.4084 C   0  0  0  0  0  0  0  0  0  0  0  0
    3.6875   -3.9737   -2.0015 H   0  0  0  0  0  0  0  0  0  0  0  0
    3.0403   -3.2787   -0.1001 N   0  0  0  0  0  0  0  0  0  0  0  0
    2.0713   -2.3433    0.2492 C   0  0  0  0  0  0  0  0  0  0  0  0
    1.8168   -2.0939    1.2742 H   0  0  0  0  0  0  0  0  0  0  0  0
   -0.5402    1.1035    0.3779 C   0  0  0  0  0  0  0  0  0  0  0  0
   -1.3664    1.6842   -0.3176 O   0  0  0  0  0  0  0  0  0  0  0  0
    0.2193    1.8235    1.2818 N   0  0  0  0  0  0  0  0  0  0  0  0
    0.8622    1.3061    1.8757 H   0  0  0  0  0  0  0  0  0  0  0  0
    0.0907    3.2637    1.4689 C   0  0  0  0  0  0  0  0  0  0  0  0
   -0.9163    3.5168    1.8169 H   0  0  0  0  0  0  0  0  0  0  0  0
    0.8125    3.6143    2.2130 H   0  0  0  0  0  0  0  0  0  0  0  0
    0.2815    3.7910    0.5282 H   0  0  0  0  0  0  0  0  0  0  0  0
  1  2  1  0  0  0  0
  2  3  1  0  0  0  0
  2  4  1  0  0  0  0
  2  5  1  0  0  0  0
  5  6  2  0  0  0  0
  5  7  1  0  0  0  0
  7  8  1  0  0  0  0
  7  9  1  0  0  0  0
  9 10  1  0  0  0  0
  9 11  1  0  0  0  0
  9 22  1  0  0  0  0
 11 12  1  0  0  0  0
 11 13  1  0  0  0  0
 11 14  1  0  0  0  0
 14 15  1  0  0  0  0
 14 20  2  0  0  0  0
 15 16  1  0  0  0  0
 15 17  1  0  0  0  0
 17 18  1  0  0  0  0
 17 19  2  0  0  0  0
 19 20  1  0  0  0  0
 20 21  1  0  0  0  0
 22 23  2  0  0  0  0
 22 24  1  0  0  0  0
 24 25  1  0  0  0  0
 24 26  1  0  0  0  0
 26 27  1  0  0  0  0
 26 28  1  0  0  0  0
 26 29  1  0  0  0  0
M  END
$$$$

  -OEChem-04042215593D

 29 29  0     1  0  0  0  0  0999 V2000
   -3.6407   -3.6258    1.3918 H   0  0  0  0  0  0  0  0  0  0  0  0
   -3.5217   -2.7041    0.8153 C   0  0  0  0  0  0  0  0  0  0  0  0
   -4.2475   -1.9688    1.1707 H   0  0  0  0  0  0  0  0  0  0  0  0
   -3.7173   -2.9213   -0.2375 H   0  0  0  0  0  0  0  0  0  0  0  0
   -2.1139   -2.1641    0.9814 C   0  0  0  0  0  0  0  0  0  0  0  0
   -1.3616   -2.6722    1.7954 O   0  0  0  0  0  0  0  0  0  0  0  0
   -1.7107   -1.0651    0.2527 N   0  0  0  0  0  0  0  0  0  0  0  0
   -2.4111   -0.6062   -0.3268 H   0  0  0  0  0  0  0  0  0  0  0  0
   -0.3748   -0.4486    0.3046 C   0  0  1  0  0  0  0  0  0  0  0  0
    0.1830   -0.7789    1.1860 H   0  0  0  0  0  0  0  0  0  0  0  0
    0.4003   -0.7865   -0.9880 C   0  0  0  0  0  0  0  0  0  0  0  0
   -0.3026   -0.8435   -1.8257 H   0  0  0  0  0  0  0  0  0  0  0  0
    1.0946    0.0315   -1.2086 H   0  0  0  0  0  0  0  0  0  0  0  0
    1.2206   -2.0554   -0.9387 C   0  0  0  0  0  0  0  0  0  0  0  0
    1.9814   -2.5311   -1.9851 N   0  0  0  0  0  0  0  0  0  0  0  0
    2.0692   -2.1075   -2.9061 H   0  0  0  0  0  0  0  0  0  0  0  0
    2.6108   -3.6938   -1.5848 C   0  0  0  0  0  0  0  0  0  0  0  0
    3.2745   -4.2912   -2.2034 H   0  0  0  0  0  0  0  0  0  0  0  0
    2.2935   -3.9716   -0.3455 N   0  0  0  0  0  0  0  0  0  0  0  0
    1.4267   -2.9650    0.0716 C   0  0  0  0  0  0  0  0  0  0  0  0
    0.9992   -2.9092    1.0667 H   0  0  0  0  0  0  0  0  0  0  0  0
   -0.5197    1.0826    0.3910 C   0  0  0  0  0  0  0  0  0  0  0  0
   -1.3121    1.6621   -0.3438 O   0  0  0  0  0  0  0  0  0  0  0  0
    0.2427    1.8113    1.2852 N   0  0  0  0  0  0  0  0  0  0  0  0
    0.8461    1.2942    1.9195 H   0  0  0  0  0  0  0  0  0  0  0  0
    0.1313    3.2566    1.4404 C   0  0  0  0  0  0  0  0  0  0  0  0
   -0.8668    3.5268    1.8007 H   0  0  0  0  0  0  0  0  0  0  0  0
    0.8705    3.6174    2.1622 H   0  0  0  0  0  0  0  0  0  0  0  0
    0.3097    3.7607    0.4846 H   0  0  0  0  0  0  0  0  0  0  0  0
  1  2  1  0  0  0  0
  2  3  1  0  0  0  0
  2  4  1  0  0  0  0
  2  5  1  0  0  0  0
  5  6  2  0  0  0  0
  5  7  1  0  0  0  0
  7  8  1  0  0  0  0
  7  9  1  0  0  0  0
  9 10  1  0  0  0  0
  9 11  1  0  0  0  0
  9 22  1  0  0  0  0
 11 12  1  0  0  0  0
 11 13  1  0  0  0  0
 11 14  1  0  0  0  0
 14 15  1  0  0  0  0
 14 20  2  0  0  0  0
 15 16  1  0  0  0  0
 15 17  1  0  0  0  0
 17 18  1  0  0  0  0
 17 19  2  0  0  0  0
 19 20  1  0  0  0  0
 20 21  1  0  0  0  0
 22 23  2  0  0  0  0
 22 24  1  0  0  0  0
 24 25  1  0  0  0  0
 24 26  1  0  0  0  0
 26 27  1  0  0  0  0
 26 28  1  0  0  0  0
 26 29  1  0  0  0  0
M  END
$$$$

  -OEChem-04042215593D

 29 29  0     1  0  0  0  0  0999 V2000
   -3.7011   -3.5738    1.4385 H   0  0  0  0  0  0  0  0  0  0  0  0
   -3.5382   -2.7049    0.7948 C   0  0  0  0  0  0  0  0  0  0  0  0
   -4.2882   -1.9459    1.0298 H   0  0  0  0  0  0  0  0  0  0  0  0
   -3.6543   -3.0128   -0.2471 H   0  0  0  0  0  0  0  0  0  0  0  0
   -2.1464   -2.1448    1.0179 C   0  0  0  0  0  0  0  0  0  0  0  0
   -1.4378   -2.6099    1.8942 O   0  0  0  0  0  0  0  0  0  0  0  0
   -1.7205   -1.0592    0.2829 N   0  0  0  0  0  0  0  0  0  0  0  0
   -2.3958   -0.6321   -0.3480 H   0  0  0  0  0  0  0  0  0  0  0  0
   -0.3774   -0.4567    0.3304 C   0  0  1  0  0  0  0  0  0  0  0  0
    0.1846   -0.7951    1.2068 H   0  0  0  0  0  0  0  0  0  0  0  0
    0.3894   -0.7979   -0.9681 C   0  0  0  0  0  0  0  0  0  0  0  0
   -0.3136   -0.8370   -1.8068 H   0  0  0  0  0  0  0  0  0  0  0  0
    1.0911    0.0163   -1.1794 H   0  0  0  0  0  0  0  0  0  0  0  0
    1.2028   -2.0718   -0.9416 C   0  0  0  0  0  0  0  0  0  0  0  0
    2.1707   -2.3902   -1.8707 N   0  0  0  0  0  0  0  0  0  0  0  0
    2.4216   -1.8413   -2.6901 H   0  0  0  0  0  0  0  0  0  0  0  0
    2.7452   -3.5960   -1.5202 C   0  0  0  0  0  0  0  0  0  0  0  0
    3.5311   -4.0998   -2.0756 H   0  0  0  0  0  0  0  0  0  0  0  0
    2.2049   -4.0449   -0.4158 N   0  0  0  0  0  0  0  0  0  0  0  0
    1.2496   -3.1056   -0.0376 C   0  0  0  0  0  0  0  0  0  0  0  0
    0.6510   -3.1857    0.8607 H   0  0  0  0  0  0  0  0  0  0  0  0
   -0.5119    1.0768    0.4018 C   0  0  0  0  0  0  0  0  0  0  0  0
   -1.2884    1.6570   -0.3494 O   0  0  0  0  0  0  0  0  0  0  0  0
    0.2545    1.8079    1.2907 N   0  0  0  0  0  0  0  0  0  0  0  0
    0.8370    1.2903    1.9438 H   0  0  0  0  0  0  0  0  0  0  0  0
    0.1412    3.2534    1.4425 C   0  0  0  0  0  0  0  0  0  0  0  0
   -0.8686    3.5266    1.7659 H   0  0  0  0  0  0  0  0  0  0  0  0
    0.8536    3.6121    2.1917 H   0  0  0  0  0  0  0  0  0  0  0  0
    0.3560    3.7563    0.4937 H   0  0  0  0  0  0  0  0  0  0  0  0
  1  2  1  0  0  0  0
  2  3  1  0  0  0  0
  2  4  1  0  0  0  0
  2  5  1  0  0  0  0
  5  6  2  0  0  0  0
  5  7  1  0  0  0  0
  7  8  1  0  0  0  0
  7  9  1  0  0  0  0
  9 10  1  0  0  0  0
  9 11  1  0  0  0  0
  9 22  1  0  0  0  0
 11 12  1  0  0  0  0
 11 13  1  0  0  0  0
 11 14  1  0  0  0  0
 14 15  1  0  0  0  0
 14 20  2  0  0  0  0
 15 16  1  0  0  0  0
 15 17  1  0  0  0  0
 17 18  1  0  0  0  0
 17 19  2  0  0  0  0
 19 20  1  0  0  0  0
 20 21  1  0  0  0  0
 22 23  2  0  0  0  0
 22 24  1  0  0  0  0
 24 25  1  0  0  0  0
 24 26  1  0  0  0  0
 26 27  1  0  0  0  0
 26 28  1  0  0  0  0
 26 29  1  0  0  0  0
M  END
$$$$

  -OEChem-04042215593D

 29 29  0     1  0  0  0  0  0999 V2000
   -3.6817   -3.6191    1.3925 H   0  0  0  0  0  0  0  0  0  0  0  0
   -3.5478   -2.7062    0.8052 C   0  0  0  0  0  0  0  0  0  0  0  0
   -4.3029   -1.9768    1.1079 H   0  0  0  0  0  0  0  0  0  0  0  0
   -3.6847   -2.9463   -0.2520 H   0  0  0  0  0  0  0  0  0  0  0  0
   -2.1600   -2.1382    1.0326 C   0  0  0  0  0  0  0  0  0  0  0  0
   -1.4554   -2.5905    1.9194 O   0  0  0  0  0  0  0  0  0  0  0  0
   -1.7328   -1.0569    0.2918 N   0  0  0  0  0  0  0  0  0  0  0  0
   -2.4054   -0.6349   -0.3457 H   0  0  0  0  0  0  0  0  0  0  0  0
   -0.3865   -0.4615    0.3339 C   0  0  1  0  0  0  0  0  0  0  0  0
    0.1750   -0.8037    1.2095 H   0  0  0  0  0  0  0  0  0  0  0  0
    0.3904   -0.7935   -0.9616 C   0  0  0  0  0  0  0  0  0  0  0  0
   -0.3030   -0.8250   -1.8086 H   0  0  0  0  0  0  0  0  0  0  0  0
    1.0938    0.0229   -1.1580 H   0  0  0  0  0  0  0  0  0  0  0  0
    1.2048   -2.0662   -0.9375 C   0  0  0  0  0  0  0  0  0  0  0  0
    2.3645   -2.2600   -1.6581 N   0  0  0  0  0  0  0  0  0  0  0  0
    2.7923   -1.5961   -2.2999 H   0  0  0  0  0  0  0  0  0  0  0  0
    2.8538   -3.5221   -1.3838 C   0  0  0  0  0  0  0  0  0  0  0  0
    3.7539   -3.9519   -1.8142 H   0  0  0  0  0  0  0  0  0  0  0  0
    2.0716   -4.1282   -0.5271 N   0  0  0  0  0  0  0  0  0  0  0  0
    1.0452   -3.2346   -0.2336 C   0  0  0  0  0  0  0  0  0  0  0  0
    0.2375   -3.4524    0.4522 H   0  0  0  0  0  0  0  0  0  0  0  0
   -0.5154    1.0728    0.4018 C   0  0  0  0  0  0  0  0  0  0  0  0
   -1.2911    1.6552   -0.3486 O   0  0  0  0  0  0  0  0  0  0  0  0
    0.2569    1.8020    1.2871 N   0  0  0  0  0  0  0  0  0  0  0  0
    0.8355    1.2823    1.9421 H   0  0  0  0  0  0  0  0  0  0  0  0
    0.1548    3.2490    1.4330 C   0  0  0  0  0  0  0  0  0  0  0  0
   -0.8418    3.5281    1.7907 H   0  0  0  0  0  0  0  0  0  0  0  0
    0.8958    3.6094    2.1531 H   0  0  0  0  0  0  0  0  0  0  0  0
    0.3371    3.7459    0.4741 H   0  0  0  0  0  0  0  0  0  0  0  0
  1  2  1  0  0  0  0
  2  3  1  0  0  0  0
  2  4  1  0  0  0  0
  2  5  1  0  0  0  0
  5  6  2  0  0  0  0
  5  7  1  0  0  0  0
  7  8  1  0  0  0  0
  7  9  1  0  0  0  0
  9 10  1  0  0  0  0
  9 11  1  0  0  0  0
  9 22  1  0  0  0  0
 11 12  1  0  0  0  0
 11 13  1  0  0  0  0
 11 14  1  0  0  0  0
 14 15  1  0  0  0  0
 14 20  2  0  0  0  0
 15 16  1  0  0  0  0
 15 17  1  0  0  0  0
 17 18  1  0  0  0  0
 17 19  2  0  0  0  0
 19 20  1  0  0  0  0
 20 21  1  0  0  0  0
 22 23  2  0  0  0  0
 22 24  1  0  0  0  0
 24 25  1  0  0  0  0
 24 26  1  0  0  0  0
 26 27  1  0  0  0  0
 26 28  1  0  0  0  0
 26 29  1  0  0  0  0
M  END
$$$$

  -OEChem-04042215593D

 29 29  0     1  0  0  0  0  0999 V2000
   -3.6643   -3.6002    1.4511 H   0  0  0  0  0  0  0  0  0  0  0  0
   -3.5348   -2.7024    0.8400 C   0  0  0  0  0  0  0  0  0  0  0  0
   -4.2671   -1.9540    1.1521 H   0  0  0  0  0  0  0  0  0  0  0  0
   -3.7107   -2.9619   -0.2068 H   0  0  0  0  0  0  0  0  0  0  0  0
   -2.1306   -2.1547    1.0089 C   0  0  0  0  0  0  0  0  0  0  0  0
   -1.3790   -2.6505    1.8319 O   0  0  0  0  0  0  0  0  0  0  0  0
   -1.7274   -1.0610    0.2724 N   0  0  0  0  0  0  0  0  0  0  0  0
   -2.4262   -0.6071   -0.3131 H   0  0  0  0  0  0  0  0  0  0  0  0
   -0.3850   -0.4569    0.3067 C   0  0  1  0  0  0  0  0  0  0  0  0
    0.1830   -0.8019    1.1773 H   0  0  0  0  0  0  0  0  0  0  0  0
    0.3941   -0.7786   -0.9887 C   0  0  0  0  0  0  0  0  0  0  0  0
   -0.2985   -0.8249   -1.8356 H   0  0  0  0  0  0  0  0  0  0  0  0
    1.0901    0.0420   -1.1930 H   0  0  0  0  0  0  0  0  0  0  0  0
    1.2087   -2.0489   -0.9351 C   0  0  0  0  0  0  0  0  0  0  0  0
    2.5070   -2.1830   -1.3799 N   0  0  0  0  0  0  0  0  0  0  0  0
    3.0824   -1.4510   -1.7905 H   0  0  0  0  0  0  0  0  0  0  0  0
    2.9057   -3.4924   -1.1928 C   0  0  0  0  0  0  0  0  0  0  0  0
    3.8824   -3.8920   -1.4504 H   0  0  0  0  0  0  0  0  0  0  0  0
    1.9309   -4.1868   -0.6621 N   0  0  0  0  0  0  0  0  0  0  0  0
    0.8680   -3.3035   -0.4936 C   0  0  0  0  0  0  0  0  0  0  0  0
   -0.0988   -3.5879   -0.0957 H   0  0  0  0  0  0  0  0  0  0  0  0
   -0.5213    1.0755    0.3935 C   0  0  0  0  0  0  0  0  0  0  0  0
   -1.3149    1.6609   -0.3352 O   0  0  0  0  0  0  0  0  0  0  0  0
    0.2566    1.7995    1.2783 N   0  0  0  0  0  0  0  0  0  0  0  0
    0.8470    1.2757    1.9191 H   0  0  0  0  0  0  0  0  0  0  0  0
    0.1422    3.2433    1.4478 C   0  0  0  0  0  0  0  0  0  0  0  0
   -0.8578    3.5089    1.8064 H   0  0  0  0  0  0  0  0  0  0  0  0
    0.8772    3.5975    2.1771 H   0  0  0  0  0  0  0  0  0  0  0  0
    0.3241    3.7578    0.4983 H   0  0  0  0  0  0  0  0  0  0  0  0
  1  2  1  0  0  0  0
  2  3  1  0  0  0  0
  2  4  1  0  0  0  0
  2  5  1  0  0  0  0
  5  6  2  0  0  0  0
  5  7  1  0  0  0  0
  7  8  1  0  0  0  0
  7  9  1  0  0  0  0
  9 10  1  0  0  0  0
  9 11  1  0  0  0  0
  9 22  1  0  0  0  0
 11 12  1  0  0  0  0
 11 13  1  0  0  0  0
 11 14  1  0  0  0  0
 14 15  1  0  0  0  0
 14 20  2  0  0  0  0
 15 16  1  0  0  0  0
 15 17  1  0  0  0  0
 17 18  1  0  0  0  0
 17 19  2  0  0  0  0
 19 20  1  0  0  0  0
 20 21  1  0  0  0  0
 22 23  2  0  0  0  0
 22 24  1  0  0  0  0
 24 25  1  0  0  0  0
 24 26  1  0  0  0  0
 26 27  1  0  0  0  0
 26 28  1  0  0  0  0
 26 29  1  0  0  0  0
M  END
$$$$

  -OEChem-04042215593D

 29 29  0     1  0  0  0  0  0999 V2000
   -3.6239   -3.6075    1.4617 H   0  0  0  0  0  0  0  0  0  0  0  0
   -3.5089   -2.7063    0.8530 C   0  0  0  0  0  0  0  0  0  0  0  0
   -4.2201   -1.9529    1.2000 H   0  0  0  0  0  0  0  0  0  0  0  0
   -3.7288   -2.9550   -0.1879 H   0  0  0  0  0  0  0  0  0  0  0  0
   -2.0931   -2.1750    0.9697 C   0  0  0  0  0  0  0  0  0  0  0  0
   -1.3018   -2.7120    1.7265 O   0  0  0  0  0  0  0  0  0  0  0  0
   -1.7158   -1.0649    0.2439 N   0  0  0  0  0  0  0  0  0  0  0  0
   -2.4389   -0.5851   -0.2893 H   0  0  0  0  0  0  0  0  0  0  0  0
   -0.3803   -0.4458    0.2726 C   0  0  1  0  0  0  0  0  0  0  0  0
    0.1957   -0.7939    1.1367 H   0  0  0  0  0  0  0  0  0  0  0  0
    0.3871   -0.7673   -1.0267 C   0  0  0  0  0  0  0  0  0  0  0  0
   -0.3159   -0.8406   -1.8631 H   0  0  0  0  0  0  0  0  0  0  0  0
    1.0736    0.0537   -1.2593 H   0  0  0  0  0  0  0  0  0  0  0  0
    1.1972   -2.0359   -0.9333 C   0  0  0  0  0  0  0  0  0  0  0  0
    2.5624   -2.1516   -1.0834 N   0  0  0  0  0  0  0  0  0  0  0  0
    3.2169   -1.3937   -1.2634 H   0  0  0  0  0  0  0  0  0  0  0  0
    2.9041   -3.4864   -0.9731 C   0  0  0  0  0  0  0  0  0  0  0  0
    3.9131   -3.8819   -1.0484 H   0  0  0  0  0  0  0  0  0  0  0  0
    1.8320   -4.2111   -0.7707 N   0  0  0  0  0  0  0  0  0  0  0  0
    0.7614   -3.3221   -0.7390 C   0  0  0  0  0  0  0  0  0  0  0  0
   -0.2746   -3.6148   -0.6037 H   0  0  0  0  0  0  0  0  0  0  0  0
   -0.5247    1.0836    0.3833 C   0  0  0  0  0  0  0  0  0  0  0  0
   -1.3384    1.6726   -0.3197 O   0  0  0  0  0  0  0  0  0  0  0  0
    0.2586    1.7999    1.2698 N   0  0  0  0  0  0  0  0  0  0  0  0
    0.8625    1.2710    1.8937 H   0  0  0  0  0  0  0  0  0  0  0  0
    0.1303    3.2387    1.4676 C   0  0  0  0  0  0  0  0  0  0  0  0
   -0.8704    3.4871    1.8363 H   0  0  0  0  0  0  0  0  0  0  0  0
    0.8654    3.5866    2.1995 H   0  0  0  0  0  0  0  0  0  0  0  0
    0.3019    3.7723    0.5268 H   0  0  0  0  0  0  0  0  0  0  0  0
  1  2  1  0  0  0  0
  2  3  1  0  0  0  0
  2  4  1  0  0  0  0
  2  5  1  0  0  0  0
  5  6  2  0  0  0  0
  5  7  1  0  0  0  0
  7  8  1  0  0  0  0
  7  9  1  0  0  0  0
  9 10  1  0  0  0  0
  9 11  1  0  0  0  0
  9 22  1  0  0  0  0
 11 12  1  0  0  0  0
 11 13  1  0  0  0  0
 11 14  1  0  0  0  0
 14 15  1  0  0  0  0
 14 20  2  0  0  0  0
 15 16  1  0  0  0  0
 15 17  1  0  0  0  0
 17 18  1  0  0  0  0
 17 19  2  0  0  0  0
 19 20  1  0  0  0  0
 20 21  1  0  0  0  0
 22 23  2  0  0  0  0
 22 24  1  0  0  0  0
 24 25  1  0  0  0  0
 24 26  1  0  0  0  0
 26 27  1  0  0  0  0
 26 28  1  0  0  0  0
 26 29  1  0  0  0  0
M  END
$$$$

  -OEChem-04042215593D

 29 29  0     1  0  0  0  0  0999 V2000
   -3.5846   -3.6327    1.4455 H   0  0  0  0  0  0  0  0  0  0  0  0
   -3.4842   -2.7224    0.8477 C   0  0  0  0  0  0  0  0  0  0  0  0
   -4.1932   -1.9776    1.2167 H   0  0  0  0  0  0  0  0  0  0  0  0
   -3.7209   -2.9577   -0.1928 H   0  0  0  0  0  0  0  0  0  0  0  0
   -2.0692   -2.1856    0.9482 C   0  0  0  0  0  0  0  0  0  0  0  0
   -1.2614   -2.7316    1.6808 O   0  0  0  0  0  0  0  0  0  0  0  0
   -1.7096   -1.0655    0.2286 N   0  0  0  0  0  0  0  0  0  0  0  0
   -2.4433   -0.5812   -0.2854 H   0  0  0  0  0  0  0  0  0  0  0  0
   -0.3796   -0.4364    0.2560 C   0  0  1  0  0  0  0  0  0  0  0  0
    0.2026   -0.7869    1.1152 H   0  0  0  0  0  0  0  0  0  0  0  0
    0.3730   -0.7619   -1.0480 C   0  0  0  0  0  0  0  0  0  0  0  0
   -0.3412   -0.8501   -1.8738 H   0  0  0  0  0  0  0  0  0  0  0  0
    1.0568    0.0548   -1.3024 H   0  0  0  0  0  0  0  0  0  0  0  0
    1.1757   -2.0307   -0.9270 C   0  0  0  0  0  0  0  0  0  0  0  0
    2.5412   -2.1477   -0.7861 N   0  0  0  0  0  0  0  0  0  0  0  0
    3.2110   -1.3845   -0.7246 H   0  0  0  0  0  0  0  0  0  0  0  0
    2.8631   -3.4922   -0.7670 C   0  0  0  0  0  0  0  0  0  0  0  0
    3.8681   -3.8925   -0.6670 H   0  0  0  0  0  0  0  0  0  0  0  0
    1.7804   -4.2190   -0.8962 N   0  0  0  0  0  0  0  0  0  0  0  0
    0.7202   -3.3223   -0.9902 C   0  0  0  0  0  0  0  0  0  0  0  0
   -0.3203   -3.6071   -1.1135 H   0  0  0  0  0  0  0  0  0  0  0  0
   -0.5259    1.0912    0.3802 C   0  0  0  0  0  0  0  0  0  0  0  0
   -1.3427    1.6842   -0.3155 O   0  0  0  0  0  0  0  0  0  0  0  0
    0.2608    1.8017    1.2683 N   0  0  0  0  0  0  0  0  0  0  0  0
    0.8616    1.2684    1.8912 H   0  0  0  0  0  0  0  0  0  0  0  0
    0.1353    3.2398    1.4731 C   0  0  0  0  0  0  0  0  0  0  0  0
   -0.8617    3.4876    1.8522 H   0  0  0  0  0  0  0  0  0  0  0  0
    0.8775    3.5841    2.1995 H   0  0  0  0  0  0  0  0  0  0  0  0
    0.2989    3.7771    0.5330 H   0  0  0  0  0  0  0  0  0  0  0  0
  1  2  1  0  0  0  0
  2  3  1  0  0  0  0
  2  4  1  0  0  0  0
  2  5  1  0  0  0  0
  5  6  2  0  0  0  0
  5  7  1  0  0  0  0
  7  8  1  0  0  0  0
  7  9  1  0  0  0  0
  9 10  1  0  0  0  0
  9 11  1  0  0  0  0
  9 22  1  0  0  0  0
 11 12  1  0  0  0  0
 11 13  1  0  0  0  0
 11 14  1  0  0  0  0
 14 15  1  0  0  0  0
 14 20  2  0  0  0  0
 15 16  1  0  0  0  0
 15 17  1  0  0  0  0
 17 18  1  0  0  0  0
 17 19  2  0  0  0  0
 19 20  1  0  0  0  0
 20 21  1  0  0  0  0
 22 23  2  0  0  0  0
 22 24  1  0  0  0  0
 24 25  1  0  0  0  0
 24 26  1  0  0  0  0
 26 27  1  0  0  0  0
 26 28  1  0  0  0  0
 26 29  1  0  0  0  0
M  END
$$$$

  -OEChem-04042215593D

 29 29  0     1  0  0  0  0  0999 V2000
   -3.5614   -3.6548    1.4289 H   0  0  0  0  0  0  0  0  0  0  0  0
   -3.4725   -2.7364    0.8421 C   0  0  0  0  0  0  0  0  0  0  0  0
   -4.1883   -2.0038    1.2219 H   0  0  0  0  0  0  0  0  0  0  0  0
   -3.7087   -2.9615   -0.2005 H   0  0  0  0  0  0  0  0  0  0  0  0
   -2.0630   -2.1862    0.9456 C   0  0  0  0  0  0  0  0  0  0  0  0
   -1.2529   -2.7228    1.6833 O   0  0  0  0  0  0  0  0  0  0  0  0
   -1.7119   -1.0631    0.2260 N   0  0  0  0  0  0  0  0  0  0  0  0
   -2.4465   -0.5855   -0.2931 H   0  0  0  0  0  0  0  0  0  0  0  0
   -0.3824   -0.4336    0.2513 C   0  0  1  0  0  0  0  0  0  0  0  0
    0.2029   -0.7862    1.1073 H   0  0  0  0  0  0  0  0  0  0  0  0
    0.3607   -0.7601   -1.0569 C   0  0  0  0  0  0  0  0  0  0  0  0
   -0.3576   -0.8469   -1.8793 H   0  0  0  0  0  0  0  0  0  0  0  0
    1.0493    0.0510   -1.3165 H   0  0  0  0  0  0  0  0  0  0  0  0
    1.1553   -2.0321   -0.9251 C   0  0  0  0  0  0  0  0  0  0  0  0
    2.4597   -2.1770   -0.5060 N   0  0  0  0  0  0  0  0  0  0  0  0
    3.0815   -1.4361   -0.1919 H   0  0  0  0  0  0  0  0  0  0  0  0
    2.7946   -3.5163   -0.5857 C   0  0  0  0  0  0  0  0  0  0  0  0
    3.7593   -3.9356   -0.3148 H   0  0  0  0  0  0  0  0  0  0  0  0
    1.7820   -4.2107   -1.0441 N   0  0  0  0  0  0  0  0  0  0  0  0
    0.7520   -3.2997   -1.2540 C   0  0  0  0  0  0  0  0  0  0  0  0
   -0.2306   -3.5567   -1.6376 H   0  0  0  0  0  0  0  0  0  0  0  0
   -0.5269    1.0937    0.3805 C   0  0  0  0  0  0  0  0  0  0  0  0
   -1.3428    1.6896   -0.3135 O   0  0  0  0  0  0  0  0  0  0  0  0
    0.2628    1.8014    1.2680 N   0  0  0  0  0  0  0  0  0  0  0  0
    0.8617    1.2665    1.8910 H   0  0  0  0  0  0  0  0  0  0  0  0
    0.1464    3.2409    1.4685 C   0  0  0  0  0  0  0  0  0  0  0  0
   -0.8469    3.4959    1.8526 H   0  0  0  0  0  0  0  0  0  0  0  0
    0.8953    3.5839    2.1889 H   0  0  0  0  0  0  0  0  0  0  0  0
    0.3069    3.7736    0.5252 H   0  0  0  0  0  0  0  0  0  0  0  0
  1  2  1  0  0  0  0
  2  3  1  0  0  0  0
  2  4  1  0  0  0  0
  2  5  1  0  0  0  0
  5  6  2  0  0  0  0
  5  7  1  0  0  0  0
  7  8  1  0  0  0  0
  7  9  1  0  0  0  0
  9 10  1  0  0  0  0
  9 11  1  0  0  0  0
  9 22  1  0  0  0  0
 11 12  1  0  0  0  0
 11 13  1  0  0  0  0
 11 14  1  0  0  0  0
 14 15  1  0  0  0  0
 14 20  2  0  0  0  0
 15 16  1  0  0  0  0
 15 17  1  0  0  0  0
 17 18  1  0  0  0  0
 17 19  2  0  0  0  0
 19 20  1  0  0  0  0
 20 21  1  0  0  0  0
 22 23  2  0  0  0  0
 22 24  1  0  0  0  0
 24 25  1  0  0  0  0
 24 26  1  0  0  0  0
 26 27  1  0  0  0  0
 26 28  1  0  0  0  0
 26 29  1  0  0  0  0
M  END
$$$$

  -OEChem-04042215593D

 29 29  0     1  0  0  0  0  0999 V2000
   -3.5582   -3.6559    1.4261 H   0  0  0  0  0  0  0  0  0  0  0  0
   -3.4698   -2.7373    0.8394 C   0  0  0  0  0  0  0  0  0  0  0  0
   -4.1919   -2.0082    1.2139 H   0  0  0  0  0  0  0  0  0  0  0  0
   -3.6979   -2.9644   -0.2046 H   0  0  0  0  0  0  0  0  0  0  0  0
   -2.0638   -2.1797    0.9523 C   0  0  0  0  0  0  0  0  0  0  0  0
   -1.2590   -2.7055    1.7042 O   0  0  0  0  0  0  0  0  0  0  0  0
   -1.7114   -1.0592    0.2290 N   0  0  0  0  0  0  0  0  0  0  0  0
   -2.4411   -0.5891   -0.3036 H   0  0  0  0  0  0  0  0  0  0  0  0
   -0.3799   -0.4350    0.2550 C   0  0  1  0  0  0  0  0  0  0  0  0
    0.2048   -0.7872    1.1111 H   0  0  0  0  0  0  0  0  0  0  0  0
    0.3574   -0.7638   -1.0560 C   0  0  0  0  0  0  0  0  0  0  0  0
   -0.3610   -0.8379   -1.8797 H   0  0  0  0  0  0  0  0  0  0  0  0
    1.0543    0.0423   -1.3091 H   0  0  0  0  0  0  0  0  0  0  0  0
    1.1452   -2.0409   -0.9295 C   0  0  0  0  0  0  0  0  0  0  0  0
    2.3330   -2.2524   -0.2639 N   0  0  0  0  0  0  0  0  0  0  0  0
    2.8508   -1.5705    0.2846 H   0  0  0  0  0  0  0  0  0  0  0  0
    2.7025   -3.5727   -0.4453 C   0  0  0  0  0  0  0  0  0  0  0  0
    3.5928   -4.0347   -0.0287 H   0  0  0  0  0  0  0  0  0  0  0  0
    1.8269   -4.1895   -1.2010 N   0  0  0  0  0  0  0  0  0  0  0  0
    0.8491   -3.2487   -1.5045 C   0  0  0  0  0  0  0  0  0  0  0  0
   -0.0232   -3.4435   -2.1206 H   0  0  0  0  0  0  0  0  0  0  0  0
   -0.5236    1.0931    0.3809 C   0  0  0  0  0  0  0  0  0  0  0  0
   -1.3362    1.6880   -0.3181 O   0  0  0  0  0  0  0  0  0  0  0  0
    0.2641    1.8043    1.2679 N   0  0  0  0  0  0  0  0  0  0  0  0
    0.8570    1.2725    1.8990 H   0  0  0  0  0  0  0  0  0  0  0  0
    0.1439    3.2445    1.4627 C   0  0  0  0  0  0  0  0  0  0  0  0
   -0.8501    3.4982    1.8457 H   0  0  0  0  0  0  0  0  0  0  0  0
    0.8919    3.5928    2.1815 H   0  0  0  0  0  0  0  0  0  0  0  0
    0.3026    3.7738    0.5171 H   0  0  0  0  0  0  0  0  0  0  0  0
  1  2  1  0  0  0  0
  2  3  1  0  0  0  0
  2  4  1  0  0  0  0
  2  5  1  0  0  0  0
  5  6  2  0  0  0  0
  5  7  1  0  0  0  0
  7  8  1  0  0  0  0
  7  9  1  0  0  0  0
  9 10  1  0  0  0  0
  9 11  1  0  0  0  0
  9 22  1  0  0  0  0
 11 12  1  0  0  0  0
 11 13  1  0  0  0  0
 11 14  1  0  0  0  0
 14 15  1  0  0  0  0
 14 20  2  0  0  0  0
 15 16  1  0  0  0  0
 15 17  1  0  0  0  0
 17 18  1  0  0  0  0
 17 19  2  0  0  0  0
 19 20  1  0  0  0  0
 20 21  1  0  0  0  0
 22 23  2  0  0  0  0
 22 24  1  0  0  0  0
 24 25  1  0  0  0  0
 24 26  1  0  0  0  0
 26 27  1  0  0  0  0
 26 28  1  0  0  0  0
 26 29  1  0  0  0  0
M  END
$$$$

  -OEChem-04042215593D

 29 29  0     1  0  0  0  0  0999 V2000
   -3.5586   -3.6549    1.4212 H   0  0  0  0  0  0  0  0  0  0  0  0
   -3.4703   -2.7360    0.8350 C   0  0  0  0  0  0  0  0  0  0  0  0
   -4.1947   -2.0078    1.2074 H   0  0  0  0  0  0  0  0  0  0  0  0
   -3.6951   -2.9631   -0.2099 H   0  0  0  0  0  0  0  0  0  0  0  0
   -2.0657   -2.1761    0.9516 C   0  0  0  0  0  0  0  0  0  0  0  0
   -1.2615   -2.6990    1.7071 O   0  0  0  0  0  0  0  0  0  0  0  0
   -1.7135   -1.0563    0.2272 N   0  0  0  0  0  0  0  0  0  0  0  0
   -2.4412   -0.5891   -0.3105 H   0  0  0  0  0  0  0  0  0  0  0  0
   -0.3814   -0.4349    0.2542 C   0  0  1  0  0  0  0  0  0  0  0  0
    0.2005   -0.7853    1.1122 H   0  0  0  0  0  0  0  0  0  0  0  0
    0.3546   -0.7669   -1.0569 C   0  0  0  0  0  0  0  0  0  0  0  0
   -0.3602   -0.8302   -1.8844 H   0  0  0  0  0  0  0  0  0  0  0  0
    1.0577    0.0370   -1.3001 H   0  0  0  0  0  0  0  0  0  0  0  0
    1.1424   -2.0461   -0.9398 C   0  0  0  0  0  0  0  0  0  0  0  0
    2.1681   -2.3525   -0.0713 N   0  0  0  0  0  0  0  0  0  0  0  0
    2.5288   -1.7621    0.6736 H   0  0  0  0  0  0  0  0  0  0  0  0
    2.5877   -3.6437   -0.3330 C   0  0  0  0  0  0  0  0  0  0  0  0
    3.3757   -4.1646    0.2034 H   0  0  0  0  0  0  0  0  0  0  0  0
    1.9013   -4.1514   -1.3278 N   0  0  0  0  0  0  0  0  0  0  0  0
    0.9937   -3.1699   -1.7095 C   0  0  0  0  0  0  0  0  0  0  0  0
    0.2685   -3.2799   -2.5101 H   0  0  0  0  0  0  0  0  0  0  0  0
   -0.5237    1.0937    0.3795 C   0  0  0  0  0  0  0  0  0  0  0  0
   -1.3379    1.6889   -0.3172 O   0  0  0  0  0  0  0  0  0  0  0  0
    0.2637    1.8044    1.2670 N   0  0  0  0  0  0  0  0  0  0  0  0
    0.8640    1.2737    1.8916 H   0  0  0  0  0  0  0  0  0  0  0  0
    0.1460    3.2449    1.4611 C   0  0  0  0  0  0  0  0  0  0  0  0
   -0.8489    3.5009    1.8402 H   0  0  0  0  0  0  0  0  0  0  0  0
    0.8919    3.5913    2.1831 H   0  0  0  0  0  0  0  0  0  0  0  0
    0.3099    3.7739    0.5163 H   0  0  0  0  0  0  0  0  0  0  0  0
  1  2  1  0  0  0  0
  2  3  1  0  0  0  0
  2  4  1  0  0  0  0
  2  5  1  0  0  0  0
  5  6  2  0  0  0  0
  5  7  1  0  0  0  0
  7  8  1  0  0  0  0
  7  9  1  0  0  0  0
  9 10  1  0  0  0  0
  9 11  1  0  0  0  0
  9 22  1  0  0  0  0
 11 12  1  0  0  0  0
 11 13  1  0  0  0  0
 11 14  1  0  0  0  0
 14 15  1  0  0  0  0
 14 20  2  0  0  0  0
 15 16  1  0  0  0  0
 15 17  1  0  0  0  0
 17 18  1  0  0  0  0
 17 19  2  0  0  0  0
 19 20  1  0  0  0  0
 20 21  1  0  0  0  0
 22 23  2  0  0  0  0
 22 24  1  0  0  0  0
 24 25  1  0  0  0  0
 24 26  1  0  0  0  0
 26 27  1  0  0  0  0
 26 28  1  0  0  0  0
 26 29  1  0  0  0  0
M  END
$$$$

  -OEChem-04042215593D

 29 29  0     1  0  0  0  0  0999 V2000
   -3.5684   -3.6380    1.4409 H   0  0  0  0  0  0  0  0  0  0  0  0
   -3.4769   -2.7271    0.8428 C   0  0  0  0  0  0  0  0  0  0  0  0
   -4.1986   -1.9919    1.2063 H   0  0  0  0  0  0  0  0  0  0  0  0
   -3.7036   -2.9671   -0.1988 H   0  0  0  0  0  0  0  0  0  0  0  0
   -2.0700   -2.1709    0.9518 C   0  0  0  0  0  0  0  0  0  0  0  0
   -1.2634   -2.6951    1.7050 O   0  0  0  0  0  0  0  0  0  0  0  0
   -1.7152   -1.0536    0.2242 N   0  0  0  0  0  0  0  0  0  0  0  0
   -2.4412   -0.5823   -0.3124 H   0  0  0  0  0  0  0  0  0  0  0  0
   -0.3811   -0.4380    0.2574 C   0  0  1  0  0  0  0  0  0  0  0  0
    0.1941   -0.7830    1.1213 H   0  0  0  0  0  0  0  0  0  0  0  0
    0.3616   -0.7705   -1.0504 C   0  0  0  0  0  0  0  0  0  0  0  0
   -0.3448   -0.8188   -1.8863 H   0  0  0  0  0  0  0  0  0  0  0  0
    1.0727    0.0315   -1.2759 H   0  0  0  0  0  0  0  0  0  0  0  0
    1.1483   -2.0533   -0.9454 C   0  0  0  0  0  0  0  0  0  0  0  0
    1.9702   -2.4927    0.0707 N   0  0  0  0  0  0  0  0  0  0  0  0
    2.1098   -2.0428    0.9719 H   0  0  0  0  0  0  0  0  0  0  0  0
    2.4604   -3.7386   -0.2729 C   0  0  0  0  0  0  0  0  0  0  0  0
    3.1188   -4.3421    0.3455 H   0  0  0  0  0  0  0  0  0  0  0  0
    2.0157   -4.0911   -1.4548 N   0  0  0  0  0  0  0  0  0  0  0  0
    1.1919   -3.0549   -1.8797 C   0  0  0  0  0  0  0  0  0  0  0  0
    0.6564   -3.0429   -2.8243 H   0  0  0  0  0  0  0  0  0  0  0  0
   -0.5240    1.0914    0.3785 C   0  0  0  0  0  0  0  0  0  0  0  0
   -1.3391    1.6836   -0.3198 O   0  0  0  0  0  0  0  0  0  0  0  0
    0.2573    1.8063    1.2683 N   0  0  0  0  0  0  0  0  0  0  0  0
    0.8729    1.2815    1.8829 H   0  0  0  0  0  0  0  0  0  0  0  0
    0.1393    3.2477    1.4550 C   0  0  0  0  0  0  0  0  0  0  0  0
   -0.8586    3.5059    1.8246 H   0  0  0  0  0  0  0  0  0  0  0  0
    0.8789    3.5970    2.1818 H   0  0  0  0  0  0  0  0  0  0  0  0
    0.3118    3.7726    0.5094 H   0  0  0  0  0  0  0  0  0  0  0  0
  1  2  1  0  0  0  0
  2  3  1  0  0  0  0
  2  4  1  0  0  0  0
  2  5  1  0  0  0  0
  5  6  2  0  0  0  0
  5  7  1  0  0  0  0
  7  8  1  0  0  0  0
  7  9  1  0  0  0  0
  9 10  1  0  0  0  0
  9 11  1  0  0  0  0
  9 22  1  0  0  0  0
 11 12  1  0  0  0  0
 11 13  1  0  0  0  0
 11 14  1  0  0  0  0
 14 15  1  0  0  0  0
 14 20  2  0  0  0  0
 15 16  1  0  0  0  0
 15 17  1  0  0  0  0
 17 18  1  0  0  0  0
 17 19  2  0  0  0  0
 19 20  1  0  0  0  0
 20 21  1  0  0  0  0
 22 23  2  0  0  0  0
 22 24  1  0  0  0  0
 24 25  1  0  0  0  0
 24 26  1  0  0  0  0
 26 27  1  0  0  0  0
 26 28  1  0  0  0  0
 26 29  1  0  0  0  0
M  END
$$$$

  -OEChem-04042215593D

 29 29  0     1  0  0  0  0  0999 V2000
   -3.5922   -3.6060    1.4784 H   0  0  0  0  0  0  0  0  0  0  0  0
   -3.4927   -2.7075    0.8631 C   0  0  0  0  0  0  0  0  0  0  0  0
   -4.1964   -1.9533    1.2229 H   0  0  0  0  0  0  0  0  0  0  0  0
   -3.7373   -2.9610   -0.1712 H   0  0  0  0  0  0  0  0  0  0  0  0
   -2.0758   -2.1728    0.9429 C   0  0  0  0  0  0  0  0  0  0  0  0
   -1.2564   -2.7140    1.6718 O   0  0  0  0  0  0  0  0  0  0  0  0
   -1.7225   -1.0557    0.2146 N   0  0  0  0  0  0  0  0  0  0  0  0
   -2.4532   -0.5679   -0.3009 H   0  0  0  0  0  0  0  0  0  0  0  0
   -0.3872   -0.4449    0.2524 C   0  0  1  0  0  0  0  0  0  0  0  0
    0.1817   -0.7841    1.1220 H   0  0  0  0  0  0  0  0  0  0  0  0
    0.3651   -0.7763   -1.0500 C   0  0  0  0  0  0  0  0  0  0  0  0
   -0.3324   -0.8180   -1.8936 H   0  0  0  0  0  0  0  0  0  0  0  0
    1.0807    0.0251   -1.2626 H   0  0  0  0  0  0  0  0  0  0  0  0
    1.1512   -2.0609   -0.9497 C   0  0  0  0  0  0  0  0  0  0  0  0
    1.7403   -2.6465    0.1515 N   0  0  0  0  0  0  0  0  0  0  0  0
    1.5982   -2.3738    1.1222 H   0  0  0  0  0  0  0  0  0  0  0  0
    2.3348   -3.8277   -0.2493 C   0  0  0  0  0  0  0  0  0  0  0  0
    2.8494   -4.5211    0.4099 H   0  0  0  0  0  0  0  0  0  0  0  0
    2.1819   -3.9981   -1.5404 N   0  0  0  0  0  0  0  0  0  0  0  0
    1.4405   -2.9097   -1.9857 C   0  0  0  0  0  0  0  0  0  0  0  0
    1.1323   -2.7552   -3.0154 H   0  0  0  0  0  0  0  0  0  0  0  0
   -0.5280    1.0848    0.3745 C   0  0  0  0  0  0  0  0  0  0  0  0
   -1.3514    1.6768   -0.3142 O   0  0  0  0  0  0  0  0  0  0  0  0
    0.2516    1.7978    1.2671 N   0  0  0  0  0  0  0  0  0  0  0  0
    0.8908    1.2756    1.8595 H   0  0  0  0  0  0  0  0  0  0  0  0
    0.1402    3.2401    1.4506 C   0  0  0  0  0  0  0  0  0  0  0  0
   -0.8604    3.5046    1.8089 H   0  0  0  0  0  0  0  0  0  0  0  0
    0.8736    3.5862    2.1854 H   0  0  0  0  0  0  0  0  0  0  0  0
    0.3259    3.7625    0.5060 H   0  0  0  0  0  0  0  0  0  0  0  0
  1  2  1  0  0  0  0
  2  3  1  0  0  0  0
  2  4  1  0  0  0  0
  2  5  1  0  0  0  0
  5  6  2  0  0  0  0
  5  7  1  0  0  0  0
  7  8  1  0  0  0  0
  7  9  1  0  0  0  0
  9 10  1  0  0  0  0
  9 11  1  0  0  0  0
  9 22  1  0  0  0  0
 11 12  1  0  0  0  0
 11 13  1  0  0  0  0
 11 14  1  0  0  0  0
 14 15  1  0  0  0  0
 14 20  2  0  0  0  0
 15 16  1  0  0  0  0
 15 17  1  0  0  0  0
 17 18  1  0  0  0  0
 17 19  2  0  0  0  0
 19 20  1  0  0  0  0
 20 21  1  0  0  0  0
 22 23  2  0  0  0  0
 22 24  1  0  0  0  0
 24 25  1  0  0  0  0
 24 26  1  0  0  0  0
 26 27  1  0  0  0  0
 26 28  1  0  0  0  0
 26 29  1  0  0  0  0
M  END
$$$$

  -OEChem-04042215593D

 29 29  0     1  0  0  0  0  0999 V2000
   -3.6018   -3.5897    1.5065 H   0  0  0  0  0  0  0  0  0  0  0  0
   -3.5078   -2.6924    0.8886 C   0  0  0  0  0  0  0  0  0  0  0  0
   -4.1914   -1.9293    1.2684 H   0  0  0  0  0  0  0  0  0  0  0  0
   -3.7848   -2.9420   -0.1385 H   0  0  0  0  0  0  0  0  0  0  0  0
   -2.0819   -2.1772    0.9282 C   0  0  0  0  0  0  0  0  0  0  0  0
   -1.2414   -2.7457    1.6132 O   0  0  0  0  0  0  0  0  0  0  0  0
   -1.7348   -1.0565    0.2022 N   0  0  0  0  0  0  0  0  0  0  0  0
   -2.4745   -0.5439   -0.2755 H   0  0  0  0  0  0  0  0  0  0  0  0
   -0.3963   -0.4531    0.2358 C   0  0  1  0  0  0  0  0  0  0  0  0
    0.1742   -0.7912    1.1049 H   0  0  0  0  0  0  0  0  0  0  0  0
    0.3568   -0.7801   -1.0676 C   0  0  0  0  0  0  0  0  0  0  0  0
   -0.3425   -0.8232   -1.9094 H   0  0  0  0  0  0  0  0  0  0  0  0
    1.0725    0.0211   -1.2816 H   0  0  0  0  0  0  0  0  0  0  0  0
    1.1370   -2.0690   -0.9686 C   0  0  0  0  0  0  0  0  0  0  0  0
    1.4748   -2.7964    0.1538 N   0  0  0  0  0  0  0  0  0  0  0  0
    1.0359   -2.7007    1.0717 H   0  0  0  0  0  0  0  0  0  0  0  0
    2.2046   -3.8984   -0.2471 C   0  0  0  0  0  0  0  0  0  0  0  0
    2.5724   -4.6759    0.4161 H   0  0  0  0  0  0  0  0  0  0  0  0
    2.3787   -3.8805   -1.5470 N   0  0  0  0  0  0  0  0  0  0  0  0
    1.7162   -2.7484   -2.0078 C   0  0  0  0  0  0  0  0  0  0  0  0
    1.6678   -2.4437   -3.0490 H   0  0  0  0  0  0  0  0  0  0  0  0
   -0.5310    1.0761    0.3685 C   0  0  0  0  0  0  0  0  0  0  0  0
   -1.3657    1.6737   -0.3017 O   0  0  0  0  0  0  0  0  0  0  0  0
    0.2569    1.7796    1.2611 N   0  0  0  0  0  0  0  0  0  0  0  0
    0.9165    1.2534    1.8276 H   0  0  0  0  0  0  0  0  0  0  0  0
    0.1547    3.2211    1.4540 C   0  0  0  0  0  0  0  0  0  0  0  0
   -0.8436    3.4891    1.8155 H   0  0  0  0  0  0  0  0  0  0  0  0
    0.8913    3.5578    2.1898 H   0  0  0  0  0  0  0  0  0  0  0  0
    0.3419    3.7478    0.5123 H   0  0  0  0  0  0  0  0  0  0  0  0
  1  2  1  0  0  0  0
  2  3  1  0  0  0  0
  2  4  1  0  0  0  0
  2  5  1  0  0  0  0
  5  6  2  0  0  0  0
  5  7  1  0  0  0  0
  7  8  1  0  0  0  0
  7  9  1  0  0  0  0
  9 10  1  0  0  0  0
  9 11  1  0  0  0  0
  9 22  1  0  0  0  0
 11 12  1  0  0  0  0
 11 13  1  0  0  0  0
 11 14  1  0  0  0  0
 14 15  1  0  0  0  0
 14 20  2  0  0  0  0
 15 16  1  0  0  0  0
 15 17  1  0  0  0  0
 17 18  1  0  0  0  0
 17 19  2  0  0  0  0
 19 20  1  0  0  0  0
 20 21  1  0  0  0  0
 22 23  2  0  0  0  0
 22 24  1  0  0  0  0
 24 25  1  0  0  0  0
 24 26  1  0  0  0  0
 26 27  1  0  0  0  0
 26 28  1  0  0  0  0
 26 29  1  0  0  0  0
M  END
$$$$

  -OEChem-04042215593D

 29 29  0     1  0  0  0  0  0999 V2000
   -3.6298   -3.5831    1.5033 H   0  0  0  0  0  0  0  0  0  0  0  0
   -3.5298   -2.6835    0.8898 C   0  0  0  0  0  0  0  0  0  0  0  0
   -4.1992   -1.9136    1.2815 H   0  0  0  0  0  0  0  0  0  0  0  0
   -3.8211   -2.9229   -0.1359 H   0  0  0  0  0  0  0  0  0  0  0  0
   -2.0965   -2.1884    0.9185 C   0  0  0  0  0  0  0  0  0  0  0  0
   -1.2551   -2.7820    1.5807 O   0  0  0  0  0  0  0  0  0  0  0  0
   -1.7427   -1.0642    0.2018 N   0  0  0  0  0  0  0  0  0  0  0  0
   -2.4845   -0.5406   -0.2609 H   0  0  0  0  0  0  0  0  0  0  0  0
   -0.4028   -0.4598    0.2255 C   0  0  1  0  0  0  0  0  0  0  0  0
    0.1747   -0.8063    1.0874 H   0  0  0  0  0  0  0  0  0  0  0  0
    0.3444   -0.7824   -1.0835 C   0  0  0  0  0  0  0  0  0  0  0  0
   -0.3663   -0.8366   -1.9150 H   0  0  0  0  0  0  0  0  0  0  0  0
    1.0497    0.0241   -1.3124 H   0  0  0  0  0  0  0  0  0  0  0  0
    1.1299   -2.0685   -0.9931 C   0  0  0  0  0  0  0  0  0  0  0  0
    1.2407   -2.9370    0.0724 N   0  0  0  0  0  0  0  0  0  0  0  0
    0.6380   -2.9387    0.9019 H   0  0  0  0  0  0  0  0  0  0  0  0
    2.0874   -3.9663   -0.2878 C   0  0  0  0  0  0  0  0  0  0  0  0
    2.3365   -4.8174    0.3398 H   0  0  0  0  0  0  0  0  0  0  0  0
    2.5398   -3.7737   -1.5044 N   0  0  0  0  0  0  0  0  0  0  0  0
    1.9516   -2.5961   -1.9538 C   0  0  0  0  0  0  0  0  0  0  0  0
    2.1239   -2.1545   -2.9308 H   0  0  0  0  0  0  0  0  0  0  0  0
   -0.5325    1.0683    0.3689 C   0  0  0  0  0  0  0  0  0  0  0  0
   -1.3766    1.6709   -0.2847 O   0  0  0  0  0  0  0  0  0  0  0  0
    0.2669    1.7633    1.2578 N   0  0  0  0  0  0  0  0  0  0  0  0
    0.9357    1.2315    1.8083 H   0  0  0  0  0  0  0  0  0  0  0  0
    0.1724    3.2038    1.4619 C   0  0  0  0  0  0  0  0  0  0  0  0
   -0.8214    3.4737    1.8342 H   0  0  0  0  0  0  0  0  0  0  0  0
    0.9168    3.5317    2.1939 H   0  0  0  0  0  0  0  0  0  0  0  0
    0.3538    3.7371    0.5228 H   0  0  0  0  0  0  0  0  0  0  0  0
  1  2  1  0  0  0  0
  2  3  1  0  0  0  0
  2  4  1  0  0  0  0
  2  5  1  0  0  0  0
  5  6  2  0  0  0  0
  5  7  1  0  0  0  0
  7  8  1  0  0  0  0
  7  9  1  0  0  0  0
  9 10  1  0  0  0  0
  9 11  1  0  0  0  0
  9 22  1  0  0  0  0
 11 12  1  0  0  0  0
 11 13  1  0  0  0  0
 11 14  1  0  0  0  0
 14 15  1  0  0  0  0
 14 20  2  0  0  0  0
 15 16  1  0  0  0  0
 15 17  1  0  0  0  0
 17 18  1  0  0  0  0
 17 19  2  0  0  0  0
 19 20  1  0  0  0  0
 20 21  1  0  0  0  0
 22 23  2  0  0  0  0
 22 24  1  0  0  0  0
 24 25  1  0  0  0  0
 24 26  1  0  0  0  0
 26 27  1  0  0  0  0
 26 28  1  0  0  0  0
 26 29  1  0  0  0  0
M  END
$$$$

  -OEChem-04042215593D

 29 29  0     1  0  0  0  0  0999 V2000
   -3.6736   -3.5730    1.4884 H   0  0  0  0  0  0  0  0  0  0  0  0
   -3.5564   -2.6718    0.8803 C   0  0  0  0  0  0  0  0  0  0  0  0
   -4.2131   -1.8928    1.2751 H   0  0  0  0  0  0  0  0  0  0  0  0
   -3.8495   -2.9001   -0.1473 H   0  0  0  0  0  0  0  0  0  0  0  0
   -2.1150   -2.2009    0.9143 C   0  0  0  0  0  0  0  0  0  0  0  0
   -1.2849   -2.8191    1.5659 O   0  0  0  0  0  0  0  0  0  0  0  0
   -1.7451   -1.0759    0.2078 N   0  0  0  0  0  0  0  0  0  0  0  0
   -2.4860   -0.5454   -0.2487 H   0  0  0  0  0  0  0  0  0  0  0  0
   -0.4042   -0.4675    0.2217 C   0  0  1  0  0  0  0  0  0  0  0  0
    0.1795   -0.8250    1.0758 H   0  0  0  0  0  0  0  0  0  0  0  0
    0.3386   -0.7845   -1.0922 C   0  0  0  0  0  0  0  0  0  0  0  0
   -0.3829   -0.8508   -1.9134 H   0  0  0  0  0  0  0  0  0  0  0  0
    1.0296    0.0304   -1.3341 H   0  0  0  0  0  0  0  0  0  0  0  0
    1.1352   -2.0641   -1.0145 C   0  0  0  0  0  0  0  0  0  0  0  0
    1.0517   -3.0721   -0.0789 N   0  0  0  0  0  0  0  0  0  0  0  0
    0.3622   -3.1347    0.6780 H   0  0  0  0  0  0  0  0  0  0  0  0
    1.9919   -4.0360   -0.3812 C   0  0  0  0  0  0  0  0  0  0  0  0
    2.1457   -4.9543    0.1781 H   0  0  0  0  0  0  0  0  0  0  0  0
    2.6724   -3.6808   -1.4455 N   0  0  0  0  0  0  0  0  0  0  0  0
    2.1503   -2.4554   -1.8475 C   0  0  0  0  0  0  0  0  0  0  0  0
    2.5035   -1.8855   -2.7017 H   0  0  0  0  0  0  0  0  0  0  0  0
   -0.5318    1.0602    0.3710 C   0  0  0  0  0  0  0  0  0  0  0  0
   -1.3853    1.6639   -0.2692 O   0  0  0  0  0  0  0  0  0  0  0  0
    0.2761    1.7521    1.2546 N   0  0  0  0  0  0  0  0  0  0  0  0
    0.9524    1.2186    1.7944 H   0  0  0  0  0  0  0  0  0  0  0  0
    0.1807    3.1912    1.4686 C   0  0  0  0  0  0  0  0  0  0  0  0
   -0.8113    3.4575    1.8482 H   0  0  0  0  0  0  0  0  0  0  0  0
    0.9286    3.5157    2.1986 H   0  0  0  0  0  0  0  0  0  0  0  0
    0.3562    3.7304    0.5317 H   0  0  0  0  0  0  0  0  0  0  0  0
  1  2  1  0  0  0  0
  2  3  1  0  0  0  0
  2  4  1  0  0  0  0
  2  5  1  0  0  0  0
  5  6  2  0  0  0  0
  5  7  1  0  0  0  0
  7  8  1  0  0  0  0
  7  9  1  0  0  0  0
  9 10  1  0  0  0  0
  9 11  1  0  0  0  0
  9 22  1  0  0  0  0
 11 12  1  0  0  0  0
 11 13  1  0  0  0  0
 11 14  1  0  0  0  0
 14 15  1  0  0  0  0
 14 20  2  0  0  0  0
 15 16  1  0  0  0  0
 15 17  1  0  0  0  0
 17 18  1  0  0  0  0
 17 19  2  0  0  0  0
 19 20  1  0  0  0  0
 20 21  1  0  0  0  0
 22 23  2  0  0  0  0
 22 24  1  0  0  0  0
 24 25  1  0  0  0  0
 24 26  1  0  0  0  0
 26 27  1  0  0  0  0
 26 28  1  0  0  0  0
 26 29  1  0  0  0  0
M  END
$$$$

  -OEChem-04042215593D

 29 29  0     1  0  0  0  0  0999 V2000
   -3.7054   -3.5580    1.4816 H   0  0  0  0  0  0  0  0  0  0  0  0
   -3.5755   -2.6566    0.8762 C   0  0  0  0  0  0  0  0  0  0  0  0
   -4.2096   -1.8652    1.2834 H   0  0  0  0  0  0  0  0  0  0  0  0
   -3.8865   -2.8727   -0.1488 H   0  0  0  0  0  0  0  0  0  0  0  0
   -2.1238   -2.2176    0.8944 C   0  0  0  0  0  0  0  0  0  0  0  0
   -1.2967   -2.8717    1.5120 O   0  0  0  0  0  0  0  0  0  0  0  0
   -1.7437   -1.0886    0.2010 N   0  0  0  0  0  0  0  0  0  0  0  0
   -2.4876   -0.5416   -0.2308 H   0  0  0  0  0  0  0  0  0  0  0  0
   -0.4044   -0.4732    0.2143 C   0  0  1  0  0  0  0  0  0  0  0  0
    0.1802   -0.8409    1.0642 H   0  0  0  0  0  0  0  0  0  0  0  0
    0.3427   -0.7823   -1.0993 C   0  0  0  0  0  0  0  0  0  0  0  0
   -0.3803   -0.8576   -1.9181 H   0  0  0  0  0  0  0  0  0  0  0  0
    1.0226    0.0408   -1.3449 H   0  0  0  0  0  0  0  0  0  0  0  0
    1.1508   -2.0542   -1.0249 C   0  0  0  0  0  0  0  0  0  0  0  0
    0.9068   -3.1851   -0.2784 N   0  0  0  0  0  0  0  0  0  0  0  0
    0.1426   -3.3091    0.3936 H   0  0  0  0  0  0  0  0  0  0  0  0
    1.9180   -4.0955   -0.5098 C   0  0  0  0  0  0  0  0  0  0  0  0
    1.9922   -5.0761   -0.0486 H   0  0  0  0  0  0  0  0  0  0  0  0
    2.7812   -3.6002   -1.3650 N   0  0  0  0  0  0  0  0  0  0  0  0
    2.3153   -2.3310   -1.6920 C   0  0  0  0  0  0  0  0  0  0  0  0
    2.8104   -1.6521   -2.3798 H   0  0  0  0  0  0  0  0  0  0  0  0
   -0.5360    1.0528    0.3731 C   0  0  0  0  0  0  0  0  0  0  0  0
   -1.3935    1.6568   -0.2616 O   0  0  0  0  0  0  0  0  0  0  0  0
    0.2729    1.7412    1.2581 N   0  0  0  0  0  0  0  0  0  0  0  0
    0.9496    1.2054    1.7954 H   0  0  0  0  0  0  0  0  0  0  0  0
    0.1814    3.1802    1.4741 C   0  0  0  0  0  0  0  0  0  0  0  0
   -0.8077    3.4482    1.8600 H   0  0  0  0  0  0  0  0  0  0  0  0
    0.9347    3.5022    2.1996 H   0  0  0  0  0  0  0  0  0  0  0  0
    0.3523    3.7201    0.5367 H   0  0  0  0  0  0  0  0  0  0  0  0
  1  2  1  0  0  0  0
  2  3  1  0  0  0  0
  2  4  1  0  0  0  0
  2  5  1  0  0  0  0
  5  6  2  0  0  0  0
  5  7  1  0  0  0  0
  7  8  1  0  0  0  0
  7  9  1  0  0  0  0
  9 10  1  0  0  0  0
  9 11  1  0  0  0  0
  9 22  1  0  0  0  0
 11 12  1  0  0  0  0
 11 13  1  0  0  0  0
 11 14  1  0  0  0  0
 14 15  1  0  0  0  0
 14 20  2  0  0  0  0
 15 16  1  0  0  0  0
 15 17  1  0  0  0  0
 17 18  1  0  0  0  0
 17 19  2  0  0  0  0
 19 20  1  0  0  0  0
 20 21  1  0  0  0  0
 22 23  2  0  0  0  0
 22 24  1  0  0  0  0
 24 25  1  0  0  0  0
 24 26  1  0  0  0  0
 26 27  1  0  0  0  0
 26 28  1  0  0  0  0
 26 29  1  0  0  0  0
M  END
$$$$

  -OEChem-04042215593D

 29 29  0     1  0  0  0  0  0999 V2000
   -3.7033   -3.5533    1.4738 H   0  0  0  0  0  0  0  0  0  0  0  0
   -3.5735   -2.6472    0.8752 C   0  0  0  0  0  0  0  0  0  0  0  0
   -4.1828   -1.8499    1.3078 H   0  0  0  0  0  0  0  0  0  0  0  0
   -3.9159   -2.8454   -0.1434 H   0  0  0  0  0  0  0  0  0  0  0  0
   -2.1143   -2.2335    0.8591 C   0  0  0  0  0  0  0  0  0  0  0  0
   -1.2800   -2.9253    1.4213 O   0  0  0  0  0  0  0  0  0  0  0  0
   -1.7375   -1.0959    0.1787 N   0  0  0  0  0  0  0  0  0  0  0  0
   -2.4894   -0.5312   -0.2147 H   0  0  0  0  0  0  0  0  0  0  0  0
   -0.4017   -0.4712    0.1904 C   0  0  1  0  0  0  0  0  0  0  0  0
    0.1834   -0.8461    1.0370 H   0  0  0  0  0  0  0  0  0  0  0  0
    0.3481   -0.7765   -1.1220 C   0  0  0  0  0  0  0  0  0  0  0  0
   -0.3709   -0.8599   -1.9438 H   0  0  0  0  0  0  0  0  0  0  0  0
    1.0223    0.0516   -1.3667 H   0  0  0  0  0  0  0  0  0  0  0  0
    1.1629   -2.0425   -1.0324 C   0  0  0  0  0  0  0  0  0  0  0  0
    0.7963   -3.2608   -0.5086 N   0  0  0  0  0  0  0  0  0  0  0  0
   -0.0403   -3.4381    0.0551 H   0  0  0  0  0  0  0  0  0  0  0  0
    1.8568   -4.1344   -0.6406 C   0  0  0  0  0  0  0  0  0  0  0  0
    1.8665   -5.1615   -0.2870 H   0  0  0  0  0  0  0  0  0  0  0  0
    2.8585   -3.5393   -1.2439 N   0  0  0  0  0  0  0  0  0  0  0  0
    2.4376   -2.2381   -1.4954 C   0  0  0  0  0  0  0  0  0  0  0  0
    3.0394   -1.4808   -1.9885 H   0  0  0  0  0  0  0  0  0  0  0  0
   -0.5365    1.0526    0.3650 C   0  0  0  0  0  0  0  0  0  0  0  0
   -1.4056    1.6588   -0.2511 O   0  0  0  0  0  0  0  0  0  0  0  0
    0.2762    1.7344    1.2518 N   0  0  0  0  0  0  0  0  0  0  0  0
    0.9629    1.1960    1.7733 H   0  0  0  0  0  0  0  0  0  0  0  0
    0.1725    3.1682    1.4947 C   0  0  0  0  0  0  0  0  0  0  0  0
   -0.8191    3.4201    1.8849 H   0  0  0  0  0  0  0  0  0  0  0  0
    0.9221    3.4827    2.2271 H   0  0  0  0  0  0  0  0  0  0  0  0
    0.3397    3.7270    0.5680 H   0  0  0  0  0  0  0  0  0  0  0  0
  1  2  1  0  0  0  0
  2  3  1  0  0  0  0
  2  4  1  0  0  0  0
  2  5  1  0  0  0  0
  5  6  2  0  0  0  0
  5  7  1  0  0  0  0
  7  8  1  0  0  0  0
  7  9  1  0  0  0  0
  9 10  1  0  0  0  0
  9 11  1  0  0  0  0
  9 22  1  0  0  0  0
 11 12  1  0  0  0  0
 11 13  1  0  0  0  0
 11 14  1  0  0  0  0
 14 15  1  0  0  0  0
 14 20  2  0  0  0  0
 15 16  1  0  0  0  0
 15 17  1  0  0  0  0
 17 18  1  0  0  0  0
 17 19  2  0  0  0  0
 19 20  1  0  0  0  0
 20 21  1  0  0  0  0
 22 23  2  0  0  0  0
 22 24  1  0  0  0  0
 24 25  1  0  0  0  0
 24 26  1  0  0  0  0
 26 27  1  0  0  0  0
 26 28  1  0  0  0  0
 26 29  1  0  0  0  0
M  END
$$$$

  -OEChem-04042215593D

 29 29  0     1  0  0  0  0  0999 V2000
   -3.6786   -3.5538    1.4733 H   0  0  0  0  0  0  0  0  0  0  0  0
   -3.5589   -2.6449    0.8767 C   0  0  0  0  0  0  0  0  0  0  0  0
   -4.1419   -1.8435    1.3370 H   0  0  0  0  0  0  0  0  0  0  0  0
   -3.9400   -2.8307   -0.1303 H   0  0  0  0  0  0  0  0  0  0  0  0
   -2.0961   -2.2492    0.8124 C   0  0  0  0  0  0  0  0  0  0  0  0
   -1.2502   -2.9733    1.3115 O   0  0  0  0  0  0  0  0  0  0  0  0
   -1.7313   -1.0998    0.1455 N   0  0  0  0  0  0  0  0  0  0  0  0
   -2.4925   -0.5185   -0.2040 H   0  0  0  0  0  0  0  0  0  0  0  0
   -0.4000   -0.4652    0.1653 C   0  0  1  0  0  0  0  0  0  0  0  0
    0.1814   -0.8456    1.0123 H   0  0  0  0  0  0  0  0  0  0  0  0
    0.3574   -0.7669   -1.1417 C   0  0  0  0  0  0  0  0  0  0  0  0
   -0.3505   -0.8547   -1.9725 H   0  0  0  0  0  0  0  0  0  0  0  0
    1.0320    0.0633   -1.3782 H   0  0  0  0  0  0  0  0  0  0  0  0
    1.1743   -2.0283   -1.0280 C   0  0  0  0  0  0  0  0  0  0  0  0
    0.7339   -3.3032   -0.7583 N   0  0  0  0  0  0  0  0  0  0  0  0
   -0.1710   -3.5346   -0.3421 H   0  0  0  0  0  0  0  0  0  0  0  0
    1.8211   -4.1543   -0.7822 C   0  0  0  0  0  0  0  0  0  0  0  0
    1.7851   -5.2165   -0.5577 H   0  0  0  0  0  0  0  0  0  0  0  0
    2.9087   -3.4922   -1.0993 N   0  0  0  0  0  0  0  0  0  0  0  0
    2.5171   -2.1684   -1.2615 C   0  0  0  0  0  0  0  0  0  0  0  0
    3.1853   -1.3580   -1.5371 H   0  0  0  0  0  0  0  0  0  0  0  0
   -0.5403    1.0552    0.3586 C   0  0  0  0  0  0  0  0  0  0  0  0
   -1.4182    1.6635   -0.2427 O   0  0  0  0  0  0  0  0  0  0  0  0
    0.2700    1.7293    1.2533 N   0  0  0  0  0  0  0  0  0  0  0  0
    0.9604    1.1873    1.7662 H   0  0  0  0  0  0  0  0  0  0  0  0
    0.1627    3.1601    1.5122 C   0  0  0  0  0  0  0  0  0  0  0  0
   -0.8295    3.4056    1.9051 H   0  0  0  0  0  0  0  0  0  0  0  0
    0.9117    3.4681    2.2481 H   0  0  0  0  0  0  0  0  0  0  0  0
    0.3288    3.7296    0.5917 H   0  0  0  0  0  0  0  0  0  0  0  0
  1  2  1  0  0  0  0
  2  3  1  0  0  0  0
  2  4  1  0  0  0  0
  2  5  1  0  0  0  0
  5  6  2  0  0  0  0
  5  7  1  0  0  0  0
  7  8  1  0  0  0  0
  7  9  1  0  0  0  0
  9 10  1  0  0  0  0
  9 11  1  0  0  0  0
  9 22  1  0  0  0  0
 11 12  1  0  0  0  0
 11 13  1  0  0  0  0
 11 14  1  0  0  0  0
 14 15  1  0  0  0  0
 14 20  2  0  0  0  0
 15 16  1  0  0  0  0
 15 17  1  0  0  0  0
 17 18  1  0  0  0  0
 17 19  2  0  0  0  0
 19 20  1  0  0  0  0
 20 21  1  0  0  0  0
 22 23  2  0  0  0  0
 22 24  1  0  0  0  0
 24 25  1  0  0  0  0
 24 26  1  0  0  0  0
 26 27  1  0  0  0  0
 26 28  1  0  0  0  0
 26 29  1  0  0  0  0
M  END
$$$$

  -OEChem-04042215593D

 29 29  0     1  0  0  0  0  0999 V2000
   -3.6402   -3.5640    1.4780 H   0  0  0  0  0  0  0  0  0  0  0  0
   -3.5339   -2.6566    0.8766 C   0  0  0  0  0  0  0  0  0  0  0  0
   -4.1154   -1.8571    1.3422 H   0  0  0  0  0  0  0  0  0  0  0  0
   -3.9273   -2.8484   -0.1246 H   0  0  0  0  0  0  0  0  0  0  0  0
   -2.0739   -2.2532    0.7919 C   0  0  0  0  0  0  0  0  0  0  0  0
   -1.2177   -2.9738    1.2769 O   0  0  0  0  0  0  0  0  0  0  0  0
   -1.7245   -1.0972    0.1278 N   0  0  0  0  0  0  0  0  0  0  0  0
   -2.4916   -0.5127   -0.2022 H   0  0  0  0  0  0  0  0  0  0  0  0
   -0.3964   -0.4588    0.1542 C   0  0  1  0  0  0  0  0  0  0  0  0
    0.1837   -0.8417    1.0011 H   0  0  0  0  0  0  0  0  0  0  0  0
    0.3614   -0.7565   -1.1520 C   0  0  0  0  0  0  0  0  0  0  0  0
   -0.3380   -0.8385   -1.9905 H   0  0  0  0  0  0  0  0  0  0  0  0
    1.0415    0.0718   -1.3781 H   0  0  0  0  0  0  0  0  0  0  0  0
    1.1738   -2.0182   -1.0250 C   0  0  0  0  0  0  0  0  0  0  0  0
    0.7225   -3.3173   -1.0316 N   0  0  0  0  0  0  0  0  0  0  0  0
   -0.2437   -3.6059   -0.8854 H   0  0  0  0  0  0  0  0  0  0  0  0
    1.8151   -4.1572   -0.9351 C   0  0  0  0  0  0  0  0  0  0  0  0
    1.7637   -5.2402   -0.8692 H   0  0  0  0  0  0  0  0  0  0  0  0
    2.9260   -3.4591   -0.9241 N   0  0  0  0  0  0  0  0  0  0  0  0
    2.5393   -2.1256   -0.9870 C   0  0  0  0  0  0  0  0  0  0  0  0
    3.2269   -1.2855   -1.0061 H   0  0  0  0  0  0  0  0  0  0  0  0
   -0.5405    1.0602    0.3565 C   0  0  0  0  0  0  0  0  0  0  0  0
   -1.4185    1.6702   -0.2430 O   0  0  0  0  0  0  0  0  0  0  0  0
    0.2666    1.7309    1.2567 N   0  0  0  0  0  0  0  0  0  0  0  0
    0.9567    1.1877    1.7691 H   0  0  0  0  0  0  0  0  0  0  0  0
    0.1580    3.1607    1.5199 C   0  0  0  0  0  0  0  0  0  0  0  0
   -0.8356    3.4047    1.9103 H   0  0  0  0  0  0  0  0  0  0  0  0
    0.9047    3.4672    2.2589 H   0  0  0  0  0  0  0  0  0  0  0  0
    0.3266    3.7327    0.6013 H   0  0  0  0  0  0  0  0  0  0  0  0
  1  2  1  0  0  0  0
  2  3  1  0  0  0  0
  2  4  1  0  0  0  0
  2  5  1  0  0  0  0
  5  6  2  0  0  0  0
  5  7  1  0  0  0  0
  7  8  1  0  0  0  0
  7  9  1  0  0  0  0
  9 10  1  0  0  0  0
  9 11  1  0  0  0  0
  9 22  1  0  0  0  0
 11 12  1  0  0  0  0
 11 13  1  0  0  0  0
 11 14  1  0  0  0  0
 14 15  1  0  0  0  0
 14 20  2  0  0  0  0
 15 16  1  0  0  0  0
 15 17  1  0  0  0  0
 17 18  1  0  0  0  0
 17 19  2  0  0  0  0
 19 20  1  0  0  0  0
 20 21  1  0  0  0  0
 22 23  2  0  0  0  0
 22 24  1  0  0  0  0
 24 25  1  0  0  0  0
 24 26  1  0  0  0  0
 26 27  1  0  0  0  0
 26 28  1  0  0  0  0
 26 29  1  0  0  0  0
M  END
$$$$

  -OEChem-04042215593D

 29 29  0     1  0  0  0  0  0999 V2000
   -3.5900   -3.6111    1.4490 H   0  0  0  0  0  0  0  0  0  0  0  0
   -3.4959   -2.6976    0.8550 C   0  0  0  0  0  0  0  0  0  0  0  0
   -4.1253   -1.9230    1.2998 H   0  0  0  0  0  0  0  0  0  0  0  0
   -3.8421   -2.9007   -0.1611 H   0  0  0  0  0  0  0  0  0  0  0  0
   -2.0503   -2.2386    0.8279 C   0  0  0  0  0  0  0  0  0  0  0  0
   -1.1959   -2.8987    1.3947 O   0  0  0  0  0  0  0  0  0  0  0  0
   -1.7129   -1.0868    0.1488 N   0  0  0  0  0  0  0  0  0  0  0  0
   -2.4787   -0.5278   -0.2249 H   0  0  0  0  0  0  0  0  0  0  0  0
   -0.3856   -0.4498    0.1722 C   0  0  1  0  0  0  0  0  0  0  0  0
    0.2025   -0.8268    1.0162 H   0  0  0  0  0  0  0  0  0  0  0  0
    0.3564   -0.7461   -1.1431 C   0  0  0  0  0  0  0  0  0  0  0  0
   -0.3465   -0.8132   -1.9800 H   0  0  0  0  0  0  0  0  0  0  0  0
    1.0456    0.0761   -1.3651 H   0  0  0  0  0  0  0  0  0  0  0  0
    1.1609   -2.0128   -1.0248 C   0  0  0  0  0  0  0  0  0  0  0  0
    0.7544   -3.2962   -1.3086 N   0  0  0  0  0  0  0  0  0  0  0  0
   -0.1960   -3.5912   -1.5192 H   0  0  0  0  0  0  0  0  0  0  0  0
    1.8232   -4.1470   -1.1000 C   0  0  0  0  0  0  0  0  0  0  0  0
    1.7919   -5.2268   -1.2135 H   0  0  0  0  0  0  0  0  0  0  0  0
    2.8853   -3.4634   -0.7457 N   0  0  0  0  0  0  0  0  0  0  0  0
    2.4864   -2.1327   -0.6989 C   0  0  0  0  0  0  0  0  0  0  0  0
    3.1388   -1.3031   -0.4436 H   0  0  0  0  0  0  0  0  0  0  0  0
   -0.5315    1.0707    0.3622 C   0  0  0  0  0  0  0  0  0  0  0  0
   -1.3954    1.6794   -0.2589 O   0  0  0  0  0  0  0  0  0  0  0  0
    0.2734    1.7488    1.2590 N   0  0  0  0  0  0  0  0  0  0  0  0
    0.9435    1.2052    1.7967 H   0  0  0  0  0  0  0  0  0  0  0  0
    0.1611    3.1799    1.5133 C   0  0  0  0  0  0  0  0  0  0  0  0
   -0.8335    3.4241    1.9009 H   0  0  0  0  0  0  0  0  0  0  0  0
    0.9060    3.4925    2.2515 H   0  0  0  0  0  0  0  0  0  0  0  0
    0.3296    3.7472    0.5919 H   0  0  0  0  0  0  0  0  0  0  0  0
  1  2  1  0  0  0  0
  2  3  1  0  0  0  0
  2  4  1  0  0  0  0
  2  5  1  0  0  0  0
  5  6  2  0  0  0  0
  5  7  1  0  0  0  0
  7  8  1  0  0  0  0
  7  9  1  0  0  0  0
  9 10  1  0  0  0  0
  9 11  1  0  0  0  0
  9 22  1  0  0  0  0
 11 12  1  0  0  0  0
 11 13  1  0  0  0  0
 11 14  1  0  0  0  0
 14 15  1  0  0  0  0
 14 20  2  0  0  0  0
 15 16  1  0  0  0  0
 15 17  1  0  0  0  0
 17 18  1  0  0  0  0
 17 19  2  0  0  0  0
 19 20  1  0  0  0  0
 20 21  1  0  0  0  0
 22 23  2  0  0  0  0
 22 24  1  0  0  0  0
 24 25  1  0  0  0  0
 24 26  1  0  0  0  0
 26 27  1  0  0  0  0
 26 28  1  0  0  0  0
 26 29  1  0  0  0  0
M  END
$$$$

  -OEChem-04042215593D

 29 29  0     1  0  0  0  0  0999 V2000
   -3.5734   -3.6269    1.4335 H   0  0  0  0  0  0  0  0  0  0  0  0
   -3.4801   -2.7110    0.8431 C   0  0  0  0  0  0  0  0  0  0  0  0
   -4.1360   -1.9484    1.2697 H   0  0  0  0  0  0  0  0  0  0  0  0
   -3.7925   -2.9193   -0.1828 H   0  0  0  0  0  0  0  0  0  0  0  0
   -2.0433   -2.2250    0.8573 C   0  0  0  0  0  0  0  0  0  0  0  0
   -1.2006   -2.8434    1.4854 O   0  0  0  0  0  0  0  0  0  0  0  0
   -1.7046   -1.0803    0.1670 N   0  0  0  0  0  0  0  0  0  0  0  0
   -2.4643   -0.5412   -0.2453 H   0  0  0  0  0  0  0  0  0  0  0  0
   -0.3769   -0.4464    0.1905 C   0  0  1  0  0  0  0  0  0  0  0  0
    0.2127   -0.8175    1.0356 H   0  0  0  0  0  0  0  0  0  0  0  0
    0.3581   -0.7461   -1.1281 C   0  0  0  0  0  0  0  0  0  0  0  0
   -0.3499   -0.8050   -1.9610 H   0  0  0  0  0  0  0  0  0  0  0  0
    1.0506    0.0728   -1.3517 H   0  0  0  0  0  0  0  0  0  0  0  0
    1.1607   -2.0158   -1.0237 C   0  0  0  0  0  0  0  0  0  0  0  0
    0.8640   -3.2450   -1.5675 N   0  0  0  0  0  0  0  0  0  0  0  0
    0.0096   -3.4961   -2.0588 H   0  0  0  0  0  0  0  0  0  0  0  0
    1.8949   -4.1148   -1.2645 C   0  0  0  0  0  0  0  0  0  0  0  0
    1.9298   -5.1631   -1.5467 H   0  0  0  0  0  0  0  0  0  0  0  0
    2.8319   -3.4914   -0.5910 N   0  0  0  0  0  0  0  0  0  0  0  0
    2.3857   -2.1844   -0.4330 C   0  0  0  0  0  0  0  0  0  0  0  0
    2.9380   -1.4025    0.0794 H   0  0  0  0  0  0  0  0  0  0  0  0
   -0.5249    1.0757    0.3659 C   0  0  0  0  0  0  0  0  0  0  0  0
   -1.3792    1.6801   -0.2727 O   0  0  0  0  0  0  0  0  0  0  0  0
    0.2751    1.7622    1.2607 N   0  0  0  0  0  0  0  0  0  0  0  0
    0.9289    1.2207    1.8201 H   0  0  0  0  0  0  0  0  0  0  0  0
    0.1552    3.1941    1.5071 C   0  0  0  0  0  0  0  0  0  0  0  0
   -0.8409    3.4352    1.8932 H   0  0  0  0  0  0  0  0  0  0  0  0
    0.8984    3.5143    2.2438 H   0  0  0  0  0  0  0  0  0  0  0  0
    0.3212    3.7572    0.5826 H   0  0  0  0  0  0  0  0  0  0  0  0
  1  2  1  0  0  0  0
  2  3  1  0  0  0  0
  2  4  1  0  0  0  0
  2  5  1  0  0  0  0
  5  6  2  0  0  0  0
  5  7  1  0  0  0  0
  7  8  1  0  0  0  0
  7  9  1  0  0  0  0
  9 10  1  0  0  0  0
  9 11  1  0  0  0  0
  9 22  1  0  0  0  0
 11 12  1  0  0  0  0
 11 13  1  0  0  0  0
 11 14  1  0  0  0  0
 14 15  1  0  0  0  0
 14 20  2  0  0  0  0
 15 16  1  0  0  0  0
 15 17  1  0  0  0  0
 17 18  1  0  0  0  0
 17 19  2  0  0  0  0
 19 20  1  0  0  0  0
 20 21  1  0  0  0  0
 22 23  2  0  0  0  0
 22 24  1  0  0  0  0
 24 25  1  0  0  0  0
 24 26  1  0  0  0  0
 26 27  1  0  0  0  0
 26 28  1  0  0  0  0
 26 29  1  0  0  0  0
M  END
$$$$

  -OEChem-04042215593D

 29 29  0     1  0  0  0  0  0999 V2000
   -3.5554   -3.6477    1.4247 H   0  0  0  0  0  0  0  0  0  0  0  0
   -3.4660   -2.7306    0.8355 C   0  0  0  0  0  0  0  0  0  0  0  0
   -4.1483   -1.9813    1.2441 H   0  0  0  0  0  0  0  0  0  0  0  0
   -3.7480   -2.9468   -0.1976 H   0  0  0  0  0  0  0  0  0  0  0  0
   -2.0402   -2.2152    0.8852 C   0  0  0  0  0  0  0  0  0  0  0  0
   -1.2072   -2.7990    1.5582 O   0  0  0  0  0  0  0  0  0  0  0  0
   -1.7012   -1.0761    0.1854 N   0  0  0  0  0  0  0  0  0  0  0  0
   -2.4546   -0.5602   -0.2657 H   0  0  0  0  0  0  0  0  0  0  0  0
   -0.3746   -0.4406    0.2104 C   0  0  1  0  0  0  0  0  0  0  0  0
    0.2122   -0.8022    1.0609 H   0  0  0  0  0  0  0  0  0  0  0  0
    0.3625   -0.7426   -1.1080 C   0  0  0  0  0  0  0  0  0  0  0  0
   -0.3535   -0.8031   -1.9340 H   0  0  0  0  0  0  0  0  0  0  0  0
    1.0507    0.0775   -1.3395 H   0  0  0  0  0  0  0  0  0  0  0  0
    1.1732   -2.0103   -1.0229 C   0  0  0  0  0  0  0  0  0  0  0  0
    1.0365   -3.1404   -1.7976 N   0  0  0  0  0  0  0  0  0  0  0  0
    0.3367   -3.2960   -2.5191 H   0  0  0  0  0  0  0  0  0  0  0  0
    1.9943   -4.0569   -1.4056 C   0  0  0  0  0  0  0  0  0  0  0  0
    2.1232   -5.0468   -1.8338 H   0  0  0  0  0  0  0  0  0  0  0  0
    2.7328   -3.5578   -0.4443 N   0  0  0  0  0  0  0  0  0  0  0  0
    2.2256   -2.2886   -0.1890 C   0  0  0  0  0  0  0  0  0  0  0  0
    2.6187   -1.6083    0.5605 H   0  0  0  0  0  0  0  0  0  0  0  0
   -0.5250    1.0830    0.3716 C   0  0  0  0  0  0  0  0  0  0  0  0
   -1.3677    1.6837   -0.2858 O   0  0  0  0  0  0  0  0  0  0  0  0
    0.2705    1.7766    1.2650 N   0  0  0  0  0  0  0  0  0  0  0  0
    0.9194    1.2388    1.8336 H   0  0  0  0  0  0  0  0  0  0  0  0
    0.1560    3.2118    1.4938 C   0  0  0  0  0  0  0  0  0  0  0  0
   -0.8399    3.4612    1.8747 H   0  0  0  0  0  0  0  0  0  0  0  0
    0.8990    3.5371    2.2284 H   0  0  0  0  0  0  0  0  0  0  0  0
    0.3263    3.7637    0.5634 H   0  0  0  0  0  0  0  0  0  0  0  0
  1  2  1  0  0  0  0
  2  3  1  0  0  0  0
  2  4  1  0  0  0  0
  2  5  1  0  0  0  0
  5  6  2  0  0  0  0
  5  7  1  0  0  0  0
  7  8  1  0  0  0  0
  7  9  1  0  0  0  0
  9 10  1  0  0  0  0
  9 11  1  0  0  0  0
  9 22  1  0  0  0  0
 11 12  1  0  0  0  0
 11 13  1  0  0  0  0
 11 14  1  0  0  0  0
 14 15  1  0  0  0  0
 14 20  2  0  0  0  0
 15 16  1  0  0  0  0
 15 17  1  0  0  0  0
 17 18  1  0  0  0  0
 17 19  2  0  0  0  0
 19 20  1  0  0  0  0
 20 21  1  0  0  0  0
 22 23  2  0  0  0  0
 22 24  1  0  0  0  0
 24 25  1  0  0  0  0
 24 26  1  0  0  0  0
 26 27  1  0  0  0  0
 26 28  1  0  0  0  0
 26 29  1  0  0  0  0
M  END
$$$$

  -OEChem-04042215593D

 29 29  0     1  0  0  0  0  0999 V2000
   -3.5454   -3.6499    1.4264 H   0  0  0  0  0  0  0  0  0  0  0  0
   -3.4557   -2.7329    0.8373 C   0  0  0  0  0  0  0  0  0  0  0  0
   -4.1529   -1.9902    1.2323 H   0  0  0  0  0  0  0  0  0  0  0  0
   -3.7174   -2.9543   -0.2000 H   0  0  0  0  0  0  0  0  0  0  0  0
   -2.0368   -2.2021    0.9112 C   0  0  0  0  0  0  0  0  0  0  0  0
   -1.2148   -2.7594    1.6195 O   0  0  0  0  0  0  0  0  0  0  0  0
   -1.6919   -1.0718    0.2003 N   0  0  0  0  0  0  0  0  0  0  0  0
   -2.4368   -0.5723   -0.2821 H   0  0  0  0  0  0  0  0  0  0  0  0
   -0.3665   -0.4356    0.2349 C   0  0  1  0  0  0  0  0  0  0  0  0
    0.2098   -0.7816    1.0979 H   0  0  0  0  0  0  0  0  0  0  0  0
    0.3843   -0.7446   -1.0759 C   0  0  0  0  0  0  0  0  0  0  0  0
   -0.3349   -0.8119   -1.8986 H   0  0  0  0  0  0  0  0  0  0  0  0
    1.0670    0.0783   -1.3142 H   0  0  0  0  0  0  0  0  0  0  0  0
    1.2049   -2.0100   -1.0065 C   0  0  0  0  0  0  0  0  0  0  0  0
    1.2636   -2.9951   -1.9677 N   0  0  0  0  0  0  0  0  0  0  0  0
    0.7601   -3.0054   -2.8516 H   0  0  0  0  0  0  0  0  0  0  0  0
    2.1180   -3.9885   -1.5279 C   0  0  0  0  0  0  0  0  0  0  0  0
    2.3618   -4.8919   -2.0797 H   0  0  0  0  0  0  0  0  0  0  0  0
    2.5990   -3.6817   -0.3485 N   0  0  0  0  0  0  0  0  0  0  0  0
    2.0243   -2.4633   -0.0025 C   0  0  0  0  0  0  0  0  0  0  0  0
    2.2124   -1.9413    0.9306 H   0  0  0  0  0  0  0  0  0  0  0  0
   -0.5244    1.0894    0.3748 C   0  0  0  0  0  0  0  0  0  0  0  0
   -1.3565    1.6796   -0.3055 O   0  0  0  0  0  0  0  0  0  0  0  0
    0.2562    1.7971    1.2699 N   0  0  0  0  0  0  0  0  0  0  0  0
    0.8978    1.2689    1.8554 H   0  0  0  0  0  0  0  0  0  0  0  0
    0.1361    3.2352    1.4751 C   0  0  0  0  0  0  0  0  0  0  0  0
   -0.8625    3.4869    1.8472 H   0  0  0  0  0  0  0  0  0  0  0  0
    0.8749    3.5750    2.2074 H   0  0  0  0  0  0  0  0  0  0  0  0
    0.3088    3.7727    0.5366 H   0  0  0  0  0  0  0  0  0  0  0  0
  1  2  1  0  0  0  0
  2  3  1  0  0  0  0
  2  4  1  0  0  0  0
  2  5  1  0  0  0  0
  5  6  2  0  0  0  0
  5  7  1  0  0  0  0
  7  8  1  0  0  0  0
  7  9  1  0  0  0  0
  9 10  1  0  0  0  0
  9 11  1  0  0  0  0
  9 22  1  0  0  0  0
 11 12  1  0  0  0  0
 11 13  1  0  0  0  0
 11 14  1  0  0  0  0
 14 15  1  0  0  0  0
 14 20  2  0  0  0  0
 15 16  1  0  0  0  0
 15 17  1  0  0  0  0
 17 18  1  0  0  0  0
 17 19  2  0  0  0  0
 19 20  1  0  0  0  0
 20 21  1  0  0  0  0
 22 23  2  0  0  0  0
 22 24  1  0  0  0  0
 24 25  1  0  0  0  0
 24 26  1  0  0  0  0
 26 27  1  0  0  0  0
 26 28  1  0  0  0  0
 26 29  1  0  0  0  0
M  END
$$$$

  -OEChem-04042215593D

 29 29  0     1  0  0  0  0  0999 V2000
   -3.5533   -3.6419    1.4288 H   0  0  0  0  0  0  0  0  0  0  0  0
   -3.4583   -2.7258    0.8389 C   0  0  0  0  0  0  0  0  0  0  0  0
   -4.1652   -1.9853    1.2206 H   0  0  0  0  0  0  0  0  0  0  0  0
   -3.7022   -2.9512   -0.2019 H   0  0  0  0  0  0  0  0  0  0  0  0
   -2.0431   -2.1882    0.9348 C   0  0  0  0  0  0  0  0  0  0  0  0
   -1.2354   -2.7279    1.6731 O   0  0  0  0  0  0  0  0  0  0  0  0
   -1.6849   -1.0680    0.2146 N   0  0  0  0  0  0  0  0  0  0  0  0
   -2.4179   -0.5811   -0.2981 H   0  0  0  0  0  0  0  0  0  0  0  0
   -0.3586   -0.4344    0.2633 C   0  0  1  0  0  0  0  0  0  0  0  0
    0.2056   -0.7657    1.1393 H   0  0  0  0  0  0  0  0  0  0  0  0
    0.4084   -0.7531   -1.0369 C   0  0  0  0  0  0  0  0  0  0  0  0
   -0.3059   -0.8218   -1.8641 H   0  0  0  0  0  0  0  0  0  0  0  0
    1.0917    0.0700   -1.2719 H   0  0  0  0  0  0  0  0  0  0  0  0
    1.2332   -2.0184   -0.9753 C   0  0  0  0  0  0  0  0  0  0  0  0
    1.5181   -2.8313   -2.0511 N   0  0  0  0  0  0  0  0  0  0  0  0
    1.2290   -2.6777   -3.0144 H   0  0  0  0  0  0  0  0  0  0  0  0
    2.2639   -3.9068   -1.6088 C   0  0  0  0  0  0  0  0  0  0  0  0
    2.6392   -4.7084   -2.2383 H   0  0  0  0  0  0  0  0  0  0  0  0
    2.4580   -3.8190   -0.3168 N   0  0  0  0  0  0  0  0  0  0  0  0
    1.8030   -2.6629    0.0967 C   0  0  0  0  0  0  0  0  0  0  0  0
    1.7609   -2.3237    1.1270 H   0  0  0  0  0  0  0  0  0  0  0  0
   -0.5219    1.0924    0.3807 C   0  0  0  0  0  0  0  0  0  0  0  0
   -1.3397    1.6719   -0.3254 O   0  0  0  0  0  0  0  0  0  0  0  0
    0.2402    1.8163    1.2791 N   0  0  0  0  0  0  0  0  0  0  0  0
    0.8716    1.2998    1.8859 H   0  0  0  0  0  0  0  0  0  0  0  0
    0.1150    3.2581    1.4552 C   0  0  0  0  0  0  0  0  0  0  0  0
   -0.8867    3.5146    1.8157 H   0  0  0  0  0  0  0  0  0  0  0  0
    0.8481    3.6151    2.1851 H   0  0  0  0  0  0  0  0  0  0  0  0
    0.2923    3.7774    0.5073 H   0  0  0  0  0  0  0  0  0  0  0  0
  1  2  1  0  0  0  0
  2  3  1  0  0  0  0
  2  4  1  0  0  0  0
  2  5  1  0  0  0  0
  5  6  2  0  0  0  0
  5  7  1  0  0  0  0
  7  8  1  0  0  0  0
  7  9  1  0  0  0  0
  9 10  1  0  0  0  0
  9 11  1  0  0  0  0
  9 22  1  0  0  0  0
 11 12  1  0  0  0  0
 11 13  1  0  0  0  0
 11 14  1  0  0  0  0
 14 15  1  0  0  0  0
 14 20  2  0  0  0  0
 15 16  1  0  0  0  0
 15 17  1  0  0  0  0
 17 18  1  0  0  0  0
 17 19  2  0  0  0  0
 19 20  1  0  0  0  0
 20 21  1  0  0  0  0
 22 23  2  0  0  0  0
 22 24  1  0  0  0  0
 24 25  1  0  0  0  0
 24 26  1  0  0  0  0
 26 27  1  0  0  0  0
 26 28  1  0  0  0  0
 26 29  1  0  0  0  0
M  END
$$$$

  -OEChem-04042215593D

 29 29  0     1  0  0  0  0  0999 V2000
   -3.5837   -3.6352    1.4168 H   0  0  0  0  0  0  0  0  0  0  0  0
   -3.4809   -2.7165    0.8326 C   0  0  0  0  0  0  0  0  0  0  0  0
   -4.1959   -1.9789    1.2047 H   0  0  0  0  0  0  0  0  0  0  0  0
   -3.7058   -2.9383   -0.2133 H   0  0  0  0  0  0  0  0  0  0  0  0
   -2.0689   -2.1764    0.9555 C   0  0  0  0  0  0  0  0  0  0  0  0
   -1.2801   -2.7040    1.7220 O   0  0  0  0  0  0  0  0  0  0  0  0
   -1.6937   -1.0653    0.2299 N   0  0  0  0  0  0  0  0  0  0  0  0
   -2.4139   -0.5894   -0.3105 H   0  0  0  0  0  0  0  0  0  0  0  0
   -0.3644   -0.4375    0.2833 C   0  0  1  0  0  0  0  0  0  0  0  0
    0.1945   -0.7633    1.1647 H   0  0  0  0  0  0  0  0  0  0  0  0
    0.4107   -0.7672   -1.0098 C   0  0  0  0  0  0  0  0  0  0  0  0
   -0.2965   -0.8338   -1.8433 H   0  0  0  0  0  0  0  0  0  0  0  0
    1.0987    0.0537   -1.2386 H   0  0  0  0  0  0  0  0  0  0  0  0
    1.2348   -2.0333   -0.9492 C   0  0  0  0  0  0  0  0  0  0  0  0
    1.7630   -2.6763   -2.0479 N   0  0  0  0  0  0  0  0  0  0  0  0
    1.6765   -2.3800   -3.0176 H   0  0  0  0  0  0  0  0  0  0  0  0
    2.4352   -3.8048   -1.6207 C   0  0  0  0  0  0  0  0  0  0  0  0
    2.9578   -4.5036   -2.2675 H   0  0  0  0  0  0  0  0  0  0  0  0
    2.3538   -3.9103   -0.3183 N   0  0  0  0  0  0  0  0  0  0  0  0
    1.5947   -2.8267    0.1146 C   0  0  0  0  0  0  0  0  0  0  0  0
    1.3365   -2.6427    1.1528 H   0  0  0  0  0  0  0  0  0  0  0  0
   -0.5220    1.0912    0.3850 C   0  0  0  0  0  0  0  0  0  0  0  0
   -1.3268    1.6693   -0.3372 O   0  0  0  0  0  0  0  0  0  0  0  0
    0.2367    1.8191    1.2831 N   0  0  0  0  0  0  0  0  0  0  0  0
    0.8556    1.3036    1.9036 H   0  0  0  0  0  0  0  0  0  0  0  0
    0.1181    3.2630    1.4457 C   0  0  0  0  0  0  0  0  0  0  0  0
   -0.8821    3.5273    1.8046 H   0  0  0  0  0  0  0  0  0  0  0  0
    0.8534    3.6233    2.1715 H   0  0  0  0  0  0  0  0  0  0  0  0
    0.2970    3.7726    0.4929 H   0  0  0  0  0  0  0  0  0  0  0  0
  1  2  1  0  0  0  0
  2  3  1  0  0  0  0
  2  4  1  0  0  0  0
  2  5  1  0  0  0  0
  5  6  2  0  0  0  0
  5  7  1  0  0  0  0
  7  8  1  0  0  0  0
  7  9  1  0  0  0  0
  9 10  1  0  0  0  0
  9 11  1  0  0  0  0
  9 22  1  0  0  0  0
 11 12  1  0  0  0  0
 11 13  1  0  0  0  0
 11 14  1  0  0  0  0
 14 15  1  0  0  0  0
 14 20  2  0  0  0  0
 15 16  1  0  0  0  0
 15 17  1  0  0  0  0
 17 18  1  0  0  0  0
 17 19  2  0  0  0  0
 19 20  1  0  0  0  0
 20 21  1  0  0  0  0
 22 23  2  0  0  0  0
 22 24  1  0  0  0  0
 24 25  1  0  0  0  0
 24 26  1  0  0  0  0
 26 27  1  0  0  0  0
 26 28  1  0  0  0  0
 26 29  1  0  0  0  0
M  END
$$$$

  -OEChem-04042215593D

 29 29  0     1  0  0  0  0  0999 V2000
   -3.7112   -3.5943    1.4649 H   0  0  0  0  0  0  0  0  0  0  0  0
   -3.5451   -2.7340    0.8104 C   0  0  0  0  0  0  0  0  0  0  0  0
   -4.3190   -1.9877    1.0055 H   0  0  0  0  0  0  0  0  0  0  0  0
   -3.6181   -3.0644   -0.2284 H   0  0  0  0  0  0  0  0  0  0  0  0
   -2.1742   -2.1380    1.0675 C   0  0  0  0  0  0  0  0  0  0  0  0
   -1.4912   -2.5573    1.9868 O   0  0  0  0  0  0  0  0  0  0  0  0
   -1.7421   -1.0658    0.3159 N   0  0  0  0  0  0  0  0  0  0  0  0
   -2.3978   -0.6807   -0.3607 H   0  0  0  0  0  0  0  0  0  0  0  0
   -0.3954   -0.4699    0.3556 C   0  0  1  0  0  0  0  0  0  0  0  0
    0.1650   -0.8108    1.2323 H   0  0  0  0  0  0  0  0  0  0  0  0
    0.3761   -0.8144   -0.9380 C   0  0  0  0  0  0  0  0  0  0  0  0
   -0.2735   -0.6102   -1.7958 H   0  0  0  0  0  0  0  0  0  0  0  0
    1.2375   -0.1425   -1.0184 H   0  0  0  0  0  0  0  0  0  0  0  0
    0.9023   -2.2259   -1.0604 C   0  0  0  0  0  0  0  0  0  0  0  0
    1.6076   -2.6941   -2.1486 N   0  0  0  0  0  0  0  0  0  0  0  0
    1.8202   -2.1733   -2.9967 H   0  0  0  0  0  0  0  0  0  0  0  0
    1.9787   -4.0028   -1.9099 C   0  0  0  0  0  0  0  0  0  0  0  0
    2.5366   -4.6309   -2.5986 H   0  0  0  0  0  0  0  0  0  0  0  0
    1.5612   -4.3773   -0.7272 N   0  0  0  0  0  0  0  0  0  0  0  0
    0.9009   -3.2805   -0.1802 C   0  0  0  0  0  0  0  0  0  0  0  0
    0.4793   -3.2682    0.8167 H   0  0  0  0  0  0  0  0  0  0  0  0
   -0.5085    1.0661    0.4048 C   0  0  0  0  0  0  0  0  0  0  0  0
   -1.2675    1.6484   -0.3625 O   0  0  0  0  0  0  0  0  0  0  0  0
    0.2680    1.7990    1.2833 N   0  0  0  0  0  0  0  0  0  0  0  0
    0.8345    1.2835    1.9519 H   0  0  0  0  0  0  0  0  0  0  0  0
    0.1932    3.2508    1.3952 C   0  0  0  0  0  0  0  0  0  0  0  0
   -0.8055    3.5589    1.7219 H   0  0  0  0  0  0  0  0  0  0  0  0
    0.9238    3.6120    2.1253 H   0  0  0  0  0  0  0  0  0  0  0  0
    0.4093    3.7219    0.4305 H   0  0  0  0  0  0  0  0  0  0  0  0
  1  2  1  0  0  0  0
  2  3  1  0  0  0  0
  2  4  1  0  0  0  0
  2  5  1  0  0  0  0
  5  6  2  0  0  0  0
  5  7  1  0  0  0  0
  7  8  1  0  0  0  0
  7  9  1  0  0  0  0
  9 10  1  0  0  0  0
  9 11  1  0  0  0  0
  9 22  1  0  0  0  0
 11 12  1  0  0  0  0
 11 13  1  0  0  0  0
 11 14  1  0  0  0  0
 14 15  1  0  0  0  0
 14 20  2  0  0  0  0
 15 16  1  0  0  0  0
 15 17  1  0  0  0  0
 17 18  1  0  0  0  0
 17 19  2  0  0  0  0
 19 20  1  0  0  0  0
 20 21  1  0  0  0  0
 22 23  2  0  0  0  0
 22 24  1  0  0  0  0
 24 25  1  0  0  0  0
 24 26  1  0  0  0  0
 26 27  1  0  0  0  0
 26 28  1  0  0  0  0
 26 29  1  0  0  0  0
M  END
$$$$

  -OEChem-04042215593D

 29 29  0     1  0  0  0  0  0999 V2000
   -3.7589   -3.5605    1.4967 H   0  0  0  0  0  0  0  0  0  0  0  0
   -3.5882   -2.7023    0.8407 C   0  0  0  0  0  0  0  0  0  0  0  0
   -4.3534   -1.9481    1.0391 H   0  0  0  0  0  0  0  0  0  0  0  0
   -3.6706   -3.0322   -0.1977 H   0  0  0  0  0  0  0  0  0  0  0  0
   -2.2103   -2.1203    1.0920 C   0  0  0  0  0  0  0  0  0  0  0  0
   -1.5371   -2.5296    2.0236 O   0  0  0  0  0  0  0  0  0  0  0  0
   -1.7622   -1.0627    0.3295 N   0  0  0  0  0  0  0  0  0  0  0  0
   -2.4089   -0.6789   -0.3565 H   0  0  0  0  0  0  0  0  0  0  0  0
   -0.4079   -0.4844    0.3675 C   0  0  1  0  0  0  0  0  0  0  0  0
    0.1446   -0.8256    1.2489 H   0  0  0  0  0  0  0  0  0  0  0  0
    0.3787   -0.8317   -0.9182 C   0  0  0  0  0  0  0  0  0  0  0  0
   -0.2524   -0.6123   -1.7862 H   0  0  0  0  0  0  0  0  0  0  0  0
    1.2446   -0.1629   -0.9728 H   0  0  0  0  0  0  0  0  0  0  0  0
    0.9094   -2.2407   -1.0615 C   0  0  0  0  0  0  0  0  0  0  0  0
    1.8619   -2.6009   -1.9919 N   0  0  0  0  0  0  0  0  0  0  0  0
    2.2765   -1.9917   -2.6939 H   0  0  0  0  0  0  0  0  0  0  0  0
    2.1610   -3.9393   -1.8326 C   0  0  0  0  0  0  0  0  0  0  0  0
    2.8709   -4.4988   -2.4353 H   0  0  0  0  0  0  0  0  0  0  0  0
    1.4615   -4.4379   -0.8456 N   0  0  0  0  0  0  0  0  0  0  0  0
    0.6902   -3.3925   -0.3459 C   0  0  0  0  0  0  0  0  0  0  0  0
    0.0264   -3.4957    0.5004 H   0  0  0  0  0  0  0  0  0  0  0  0
   -0.5092    1.0531    0.4001 C   0  0  0  0  0  0  0  0  0  0  0  0
   -1.2602    1.6348   -0.3756 O   0  0  0  0  0  0  0  0  0  0  0  0
    0.2710    1.7868    1.2748 N   0  0  0  0  0  0  0  0  0  0  0  0
    0.8159    1.2711    1.9610 H   0  0  0  0  0  0  0  0  0  0  0  0
    0.1989    3.2390    1.3826 C   0  0  0  0  0  0  0  0  0  0  0  0
   -0.7981    3.5490    1.7127 H   0  0  0  0  0  0  0  0  0  0  0  0
    0.9332    3.6014    2.1086 H   0  0  0  0  0  0  0  0  0  0  0  0
    0.4115    3.7065    0.4153 H   0  0  0  0  0  0  0  0  0  0  0  0
  1  2  1  0  0  0  0
  2  3  1  0  0  0  0
  2  4  1  0  0  0  0
  2  5  1  0  0  0  0
  5  6  2  0  0  0  0
  5  7  1  0  0  0  0
  7  8  1  0  0  0  0
  7  9  1  0  0  0  0
  9 10  1  0  0  0  0
  9 11  1  0  0  0  0
  9 22  1  0  0  0  0
 11 12  1  0  0  0  0
 11 13  1  0  0  0  0
 11 14  1  0  0  0  0
 14 15  1  0  0  0  0
 14 20  2  0  0  0  0
 15 16  1  0  0  0  0
 15 17  1  0  0  0  0
 17 18  1  0  0  0  0
 17 19  2  0  0  0  0
 19 20  1  0  0  0  0
 20 21  1  0  0  0  0
 22 23  2  0  0  0  0
 22 24  1  0  0  0  0
 24 25  1  0  0  0  0
 24 26  1  0  0  0  0
 26 27  1  0  0  0  0
 26 28  1  0  0  0  0
 26 29  1  0  0  0  0
M  END
$$$$

  -OEChem-04042215593D

 29 29  0     1  0  0  0  0  0999 V2000
   -3.7822   -3.5333    1.5164 H   0  0  0  0  0  0  0  0  0  0  0  0
   -3.6181   -2.6624    0.8757 C   0  0  0  0  0  0  0  0  0  0  0  0
   -4.3507   -1.8930    1.1306 H   0  0  0  0  0  0  0  0  0  0  0  0
   -3.7590   -2.9608   -0.1659 H   0  0  0  0  0  0  0  0  0  0  0  0
   -2.2137   -2.1263    1.0757 C   0  0  0  0  0  0  0  0  0  0  0  0
   -1.5020   -2.5916    1.9510 O   0  0  0  0  0  0  0  0  0  0  0  0
   -1.7685   -1.0657    0.3155 N   0  0  0  0  0  0  0  0  0  0  0  0
   -2.4356   -0.6371   -0.3233 H   0  0  0  0  0  0  0  0  0  0  0  0
   -0.4119   -0.4931    0.3513 C   0  0  1  0  0  0  0  0  0  0  0  0
    0.1365   -0.8367    1.2344 H   0  0  0  0  0  0  0  0  0  0  0  0
    0.3942   -0.8319   -0.9246 C   0  0  0  0  0  0  0  0  0  0  0  0
   -0.2195   -0.6079   -1.8036 H   0  0  0  0  0  0  0  0  0  0  0  0
    1.2587   -0.1603   -0.9583 H   0  0  0  0  0  0  0  0  0  0  0  0
    0.9300   -2.2401   -1.0624 C   0  0  0  0  0  0  0  0  0  0  0  0
    2.0859   -2.5534   -1.7472 N   0  0  0  0  0  0  0  0  0  0  0  0
    2.6901   -1.8981   -2.2380 H   0  0  0  0  0  0  0  0  0  0  0  0
    2.2921   -3.9171   -1.6781 C   0  0  0  0  0  0  0  0  0  0  0  0
    3.1234   -4.4486   -2.1323 H   0  0  0  0  0  0  0  0  0  0  0  0
    1.3346   -4.4791   -0.9858 N   0  0  0  0  0  0  0  0  0  0  0  0
    0.4852   -3.4504   -0.5885 C   0  0  0  0  0  0  0  0  0  0  0  0
   -0.4092   -3.6123   -0.0032 H   0  0  0  0  0  0  0  0  0  0  0  0
   -0.5139    1.0441    0.3927 C   0  0  0  0  0  0  0  0  0  0  0  0
   -1.2769    1.6291   -0.3685 O   0  0  0  0  0  0  0  0  0  0  0  0
    0.2693    1.7734    1.2684 N   0  0  0  0  0  0  0  0  0  0  0  0
    0.8221    1.2537    1.9453 H   0  0  0  0  0  0  0  0  0  0  0  0
    0.1857    3.2234    1.3947 C   0  0  0  0  0  0  0  0  0  0  0  0
   -0.8103    3.5206    1.7391 H   0  0  0  0  0  0  0  0  0  0  0  0
    0.9246    3.5835    2.1169 H   0  0  0  0  0  0  0  0  0  0  0  0
    0.3838    3.7046    0.4312 H   0  0  0  0  0  0  0  0  0  0  0  0
  1  2  1  0  0  0  0
  2  3  1  0  0  0  0
  2  4  1  0  0  0  0
  2  5  1  0  0  0  0
  5  6  2  0  0  0  0
  5  7  1  0  0  0  0
  7  8  1  0  0  0  0
  7  9  1  0  0  0  0
  9 10  1  0  0  0  0
  9 11  1  0  0  0  0
  9 22  1  0  0  0  0
 11 12  1  0  0  0  0
 11 13  1  0  0  0  0
 11 14  1  0  0  0  0
 14 15  1  0  0  0  0
 14 20  2  0  0  0  0
 15 16  1  0  0  0  0
 15 17  1  0  0  0  0
 17 18  1  0  0  0  0
 17 19  2  0  0  0  0
 19 20  1  0  0  0  0
 20 21  1  0  0  0  0
 22 23  2  0  0  0  0
 22 24  1  0  0  0  0
 24 25  1  0  0  0  0
 24 26  1  0  0  0  0
 26 27  1  0  0  0  0
 26 28  1  0  0  0  0
 26 29  1  0  0  0  0
M  END
$$$$

  -OEChem-04042215593D

 29 29  0     1  0  0  0  0  0999 V2000
   -3.7255   -3.5597    1.5193 H   0  0  0  0  0  0  0  0  0  0  0  0
   -3.5895   -2.6683    0.9006 C   0  0  0  0  0  0  0  0  0  0  0  0
   -4.3012   -1.9039    1.2212 H   0  0  0  0  0  0  0  0  0  0  0  0
   -3.7888   -2.9302   -0.1413 H   0  0  0  0  0  0  0  0  0  0  0  0
   -2.1719   -2.1481    1.0411 C   0  0  0  0  0  0  0  0  0  0  0  0
   -1.4097   -2.6657    1.8406 O   0  0  0  0  0  0  0  0  0  0  0  0
   -1.7577   -1.0685    0.2891 N   0  0  0  0  0  0  0  0  0  0  0  0
   -2.4557   -0.6034   -0.2885 H   0  0  0  0  0  0  0  0  0  0  0  0
   -0.4082   -0.4801    0.3168 C   0  0  1  0  0  0  0  0  0  0  0  0
    0.1473   -0.8252    1.1949 H   0  0  0  0  0  0  0  0  0  0  0  0
    0.3969   -0.8122   -0.9589 C   0  0  0  0  0  0  0  0  0  0  0  0
   -0.2242   -0.6108   -1.8383 H   0  0  0  0  0  0  0  0  0  0  0  0
    1.2546   -0.1335   -1.0101 H   0  0  0  0  0  0  0  0  0  0  0  0
    0.9298   -2.2234   -1.0536 C   0  0  0  0  0  0  0  0  0  0  0  0
    2.2081   -2.5607   -1.4464 N   0  0  0  0  0  0  0  0  0  0  0  0
    2.9525   -1.9133   -1.6953 H   0  0  0  0  0  0  0  0  0  0  0  0
    2.3196   -3.9376   -1.4621 C   0  0  0  0  0  0  0  0  0  0  0  0
    3.2164   -4.4897   -1.7285 H   0  0  0  0  0  0  0  0  0  0  0  0
    1.1821   -4.4841   -1.1140 N   0  0  0  0  0  0  0  0  0  0  0  0
    0.3088   -3.4318   -0.8555 C   0  0  0  0  0  0  0  0  0  0  0  0
   -0.7286   -3.5663   -0.5745 H   0  0  0  0  0  0  0  0  0  0  0  0
   -0.5218    1.0547    0.3837 C   0  0  0  0  0  0  0  0  0  0  0  0
   -1.3108    1.6436   -0.3470 O   0  0  0  0  0  0  0  0  0  0  0  0
    0.2671    1.7766    1.2604 N   0  0  0  0  0  0  0  0  0  0  0  0
    0.8516    1.2515    1.9054 H   0  0  0  0  0  0  0  0  0  0  0  0
    0.1707    3.2228    1.4170 C   0  0  0  0  0  0  0  0  0  0  0  0
   -0.8228    3.5029    1.7827 H   0  0  0  0  0  0  0  0  0  0  0  0
    0.9171    3.5757    2.1354 H   0  0  0  0  0  0  0  0  0  0  0  0
    0.3491    3.7254    0.4604 H   0  0  0  0  0  0  0  0  0  0  0  0
  1  2  1  0  0  0  0
  2  3  1  0  0  0  0
  2  4  1  0  0  0  0
  2  5  1  0  0  0  0
  5  6  2  0  0  0  0
  5  7  1  0  0  0  0
  7  8  1  0  0  0  0
  7  9  1  0  0  0  0
  9 10  1  0  0  0  0
  9 11  1  0  0  0  0
  9 22  1  0  0  0  0
 11 12  1  0  0  0  0
 11 13  1  0  0  0  0
 11 14  1  0  0  0  0
 14 15  1  0  0  0  0
 14 20  2  0  0  0  0
 15 16  1  0  0  0  0
 15 17  1  0  0  0  0
 17 18  1  0  0  0  0
 17 19  2  0  0  0  0
 19 20  1  0  0  0  0
 20 21  1  0  0  0  0
 22 23  2  0  0  0  0
 22 24  1  0  0  0  0
 24 25  1  0  0  0  0
 24 26  1  0  0  0  0
 26 27  1  0  0  0  0
 26 28  1  0  0  0  0
 26 29  1  0  0  0  0
M  END
$$$$

  -OEChem-04042215593D

 29 29  0     1  0  0  0  0  0999 V2000
   -3.6530   -3.5971    1.5006 H   0  0  0  0  0  0  0  0  0  0  0  0
   -3.5340   -2.7003    0.8863 C   0  0  0  0  0  0  0  0  0  0  0  0
   -4.2475   -1.9445    1.2231 H   0  0  0  0  0  0  0  0  0  0  0  0
   -3.7474   -2.9564   -0.1542 H   0  0  0  0  0  0  0  0  0  0  0  0
   -2.1188   -2.1686    1.0085 C   0  0  0  0  0  0  0  0  0  0  0  0
   -1.3343   -2.6951    1.7801 O   0  0  0  0  0  0  0  0  0  0  0  0
   -1.7330   -1.0703    0.2681 N   0  0  0  0  0  0  0  0  0  0  0  0
   -2.4484   -0.5988   -0.2823 H   0  0  0  0  0  0  0  0  0  0  0  0
   -0.3926   -0.4620    0.2939 C   0  0  1  0  0  0  0  0  0  0  0  0
    0.1755   -0.8104    1.1629 H   0  0  0  0  0  0  0  0  0  0  0  0
    0.3918   -0.7902   -0.9924 C   0  0  0  0  0  0  0  0  0  0  0  0
   -0.2505   -0.6106   -1.8612 H   0  0  0  0  0  0  0  0  0  0  0  0
    1.2457   -0.1102   -1.0774 H   0  0  0  0  0  0  0  0  0  0  0  0
    0.9103   -2.2066   -1.0452 C   0  0  0  0  0  0  0  0  0  0  0  0
    2.2284   -2.5971   -1.1448 N   0  0  0  0  0  0  0  0  0  0  0  0
    3.0409   -1.9851   -1.1509 H   0  0  0  0  0  0  0  0  0  0  0  0
    2.2722   -3.9753   -1.2418 C   0  0  0  0  0  0  0  0  0  0  0  0
    3.1793   -4.5675   -1.3224 H   0  0  0  0  0  0  0  0  0  0  0  0
    1.0586   -4.4679   -1.2305 N   0  0  0  0  0  0  0  0  0  0  0  0
    0.2012   -3.3792   -1.1078 C   0  0  0  0  0  0  0  0  0  0  0  0
   -0.8813   -3.4524   -1.0945 H   0  0  0  0  0  0  0  0  0  0  0  0
   -0.5214    1.0699    0.3850 C   0  0  0  0  0  0  0  0  0  0  0  0
   -1.3260    1.6585   -0.3286 O   0  0  0  0  0  0  0  0  0  0  0  0
    0.2659    1.7900    1.2648 N   0  0  0  0  0  0  0  0  0  0  0  0
    0.8578    1.2642    1.9022 H   0  0  0  0  0  0  0  0  0  0  0  0
    0.1532    3.2331    1.4392 C   0  0  0  0  0  0  0  0  0  0  0  0
   -0.8429    3.4972    1.8095 H   0  0  0  0  0  0  0  0  0  0  0  0
    0.8962    3.5863    2.1608 H   0  0  0  0  0  0  0  0  0  0  0  0
    0.3245    3.7493    0.4887 H   0  0  0  0  0  0  0  0  0  0  0  0
  1  2  1  0  0  0  0
  2  3  1  0  0  0  0
  2  4  1  0  0  0  0
  2  5  1  0  0  0  0
  5  6  2  0  0  0  0
  5  7  1  0  0  0  0
  7  8  1  0  0  0  0
  7  9  1  0  0  0  0
  9 10  1  0  0  0  0
  9 11  1  0  0  0  0
  9 22  1  0  0  0  0
 11 12  1  0  0  0  0
 11 13  1  0  0  0  0
 11 14  1  0  0  0  0
 14 15  1  0  0  0  0
 14 20  2  0  0  0  0
 15 16  1  0  0  0  0
 15 17  1  0  0  0  0
 17 18  1  0  0  0  0
 17 19  2  0  0  0  0
 19 20  1  0  0  0  0
 20 21  1  0  0  0  0
 22 23  2  0  0  0  0
 22 24  1  0  0  0  0
 24 25  1  0  0  0  0
 24 26  1  0  0  0  0
 26 27  1  0  0  0  0
 26 28  1  0  0  0  0
 26 29  1  0  0  0  0
M  END
$$$$

  -OEChem-04042215593D

 29 29  0     1  0  0  0  0  0999 V2000
   -3.5802   -3.6579    1.4503 H   0  0  0  0  0  0  0  0  0  0  0  0
   -3.4892   -2.7405    0.8620 C   0  0  0  0  0  0  0  0  0  0  0  0
   -4.2172   -2.0124    1.2273 H   0  0  0  0  0  0  0  0  0  0  0  0
   -3.7060   -2.9712   -0.1836 H   0  0  0  0  0  0  0  0  0  0  0  0
   -2.0864   -2.1782    0.9878 C   0  0  0  0  0  0  0  0  0  0  0  0
   -1.2919   -2.6917    1.7584 O   0  0  0  0  0  0  0  0  0  0  0  0
   -1.7245   -1.0674    0.2537 N   0  0  0  0  0  0  0  0  0  0  0  0
   -2.4475   -0.6077   -0.2965 H   0  0  0  0  0  0  0  0  0  0  0  0
   -0.3906   -0.4457    0.2761 C   0  0  1  0  0  0  0  0  0  0  0  0
    0.1888   -0.7969    1.1363 H   0  0  0  0  0  0  0  0  0  0  0  0
    0.3730   -0.7731   -1.0196 C   0  0  0  0  0  0  0  0  0  0  0  0
   -0.2858   -0.6060   -1.8787 H   0  0  0  0  0  0  0  0  0  0  0  0
    1.2268   -0.0968   -1.1306 H   0  0  0  0  0  0  0  0  0  0  0  0
    0.8767   -2.1932   -1.0382 C   0  0  0  0  0  0  0  0  0  0  0  0
    2.1695   -2.6310   -0.8511 N   0  0  0  0  0  0  0  0  0  0  0  0
    2.9752   -2.0568   -0.6146 H   0  0  0  0  0  0  0  0  0  0  0  0
    2.1941   -4.0025   -1.0259 C   0  0  0  0  0  0  0  0  0  0  0  0
    3.0769   -4.6281   -0.9293 H   0  0  0  0  0  0  0  0  0  0  0  0
    0.9988   -4.4424   -1.3346 N   0  0  0  0  0  0  0  0  0  0  0  0
    0.1690   -3.3264   -1.3451 C   0  0  0  0  0  0  0  0  0  0  0  0
   -0.8900   -3.3491   -1.5832 H   0  0  0  0  0  0  0  0  0  0  0  0
   -0.5229    1.0842    0.3840 C   0  0  0  0  0  0  0  0  0  0  0  0
   -1.3305    1.6784   -0.3213 O   0  0  0  0  0  0  0  0  0  0  0  0
    0.2698    1.7961    1.2655 N   0  0  0  0  0  0  0  0  0  0  0  0
    0.8631    1.2639    1.8964 H   0  0  0  0  0  0  0  0  0  0  0  0
    0.1632    3.2385    1.4487 C   0  0  0  0  0  0  0  0  0  0  0  0
   -0.8277    3.5043    1.8314 H   0  0  0  0  0  0  0  0  0  0  0  0
    0.9156    3.5851    2.1635 H   0  0  0  0  0  0  0  0  0  0  0  0
    0.3254    3.7586    0.4988 H   0  0  0  0  0  0  0  0  0  0  0  0
  1  2  1  0  0  0  0
  2  3  1  0  0  0  0
  2  4  1  0  0  0  0
  2  5  1  0  0  0  0
  5  6  2  0  0  0  0
  5  7  1  0  0  0  0
  7  8  1  0  0  0  0
  7  9  1  0  0  0  0
  9 10  1  0  0  0  0
  9 11  1  0  0  0  0
  9 22  1  0  0  0  0
 11 12  1  0  0  0  0
 11 13  1  0  0  0  0
 11 14  1  0  0  0  0
 14 15  1  0  0  0  0
 14 20  2  0  0  0  0
 15 16  1  0  0  0  0
 15 17  1  0  0  0  0
 17 18  1  0  0  0  0
 17 19  2  0  0  0  0
 19 20  1  0  0  0  0
 20 21  1  0  0  0  0
 22 23  2  0  0  0  0
 22 24  1  0  0  0  0
 24 25  1  0  0  0  0
 24 26  1  0  0  0  0
 26 27  1  0  0  0  0
 26 28  1  0  0  0  0
 26 29  1  0  0  0  0
M  END
$$$$

  -OEChem-04042215593D

 29 29  0     1  0  0  0  0  0999 V2000
   -3.5503   -3.6733    1.4356 H   0  0  0  0  0  0  0  0  0  0  0  0
   -3.4665   -2.7546    0.8482 C   0  0  0  0  0  0  0  0  0  0  0  0
   -4.2024   -2.0338    1.2123 H   0  0  0  0  0  0  0  0  0  0  0  0
   -3.6783   -2.9866   -0.1982 H   0  0  0  0  0  0  0  0  0  0  0  0
   -2.0691   -2.1798    0.9780 C   0  0  0  0  0  0  0  0  0  0  0  0
   -1.2725   -2.6864    1.7517 O   0  0  0  0  0  0  0  0  0  0  0  0
   -1.7162   -1.0640    0.2467 N   0  0  0  0  0  0  0  0  0  0  0  0
   -2.4404   -0.6111   -0.3072 H   0  0  0  0  0  0  0  0  0  0  0  0
   -0.3840   -0.4398    0.2673 C   0  0  1  0  0  0  0  0  0  0  0  0
    0.2019   -0.7943    1.1216 H   0  0  0  0  0  0  0  0  0  0  0  0
    0.3618   -0.7683   -1.0370 C   0  0  0  0  0  0  0  0  0  0  0  0
   -0.3051   -0.5990   -1.8896 H   0  0  0  0  0  0  0  0  0  0  0  0
    1.2209   -0.1003   -1.1585 H   0  0  0  0  0  0  0  0  0  0  0  0
    0.8517   -2.1924   -1.0437 C   0  0  0  0  0  0  0  0  0  0  0  0
    2.0585   -2.6809   -0.5942 N   0  0  0  0  0  0  0  0  0  0  0  0
    2.7908   -2.1514   -0.1276 H   0  0  0  0  0  0  0  0  0  0  0  0
    2.0972   -4.0400   -0.8471 C   0  0  0  0  0  0  0  0  0  0  0  0
    2.9204   -4.6995   -0.5874 H   0  0  0  0  0  0  0  0  0  0  0  0
    0.9990   -4.4212   -1.4535 N   0  0  0  0  0  0  0  0  0  0  0  0
    0.2148   -3.2802   -1.5811 C   0  0  0  0  0  0  0  0  0  0  0  0
   -0.7632   -3.2541   -2.0522 H   0  0  0  0  0  0  0  0  0  0  0  0
   -0.5177    1.0896    0.3831 C   0  0  0  0  0  0  0  0  0  0  0  0
   -1.3270    1.6856   -0.3188 O   0  0  0  0  0  0  0  0  0  0  0  0
    0.2761    1.8008    1.2645 N   0  0  0  0  0  0  0  0  0  0  0  0
    0.8712    1.2689    1.8937 H   0  0  0  0  0  0  0  0  0  0  0  0
    0.1632    3.2422    1.4541 C   0  0  0  0  0  0  0  0  0  0  0  0
   -0.8288    3.5020    1.8385 H   0  0  0  0  0  0  0  0  0  0  0  0
    0.9143    3.5894    2.1700 H   0  0  0  0  0  0  0  0  0  0  0  0
    0.3224    3.7676    0.5064 H   0  0  0  0  0  0  0  0  0  0  0  0
  1  2  1  0  0  0  0
  2  3  1  0  0  0  0
  2  4  1  0  0  0  0
  2  5  1  0  0  0  0
  5  6  2  0  0  0  0
  5  7  1  0  0  0  0
  7  8  1  0  0  0  0
  7  9  1  0  0  0  0
  9 10  1  0  0  0  0
  9 11  1  0  0  0  0
  9 22  1  0  0  0  0
 11 12  1  0  0  0  0
 11 13  1  0  0  0  0
 11 14  1  0  0  0  0
 14 15  1  0  0  0  0
 14 20  2  0  0  0  0
 15 16  1  0  0  0  0
 15 17  1  0  0  0  0
 17 18  1  0  0  0  0
 17 19  2  0  0  0  0
 19 20  1  0  0  0  0
 20 21  1  0  0  0  0
 22 23  2  0  0  0  0
 22 24  1  0  0  0  0
 24 25  1  0  0  0  0
 24 26  1  0  0  0  0
 26 27  1  0  0  0  0
 26 28  1  0  0  0  0
 26 29  1  0  0  0  0
M  END
$$$$

  -OEChem-04042215593D

 29 29  0     1  0  0  0  0  0999 V2000
   -3.5385   -3.6786    1.4257 H   0  0  0  0  0  0  0  0  0  0  0  0
   -3.4570   -2.7592    0.8391 C   0  0  0  0  0  0  0  0  0  0  0  0
   -4.1960   -2.0413    1.2024 H   0  0  0  0  0  0  0  0  0  0  0  0
   -3.6670   -2.9915   -0.2077 H   0  0  0  0  0  0  0  0  0  0  0  0
   -2.0619   -2.1788    0.9699 C   0  0  0  0  0  0  0  0  0  0  0  0
   -1.2619   -2.6838    1.7423 O   0  0  0  0  0  0  0  0  0  0  0  0
   -1.7142   -1.0603    0.2404 N   0  0  0  0  0  0  0  0  0  0  0  0
   -2.4380   -0.6117   -0.3174 H   0  0  0  0  0  0  0  0  0  0  0  0
   -0.3821   -0.4372    0.2590 C   0  0  1  0  0  0  0  0  0  0  0  0
    0.2069   -0.7934    1.1102 H   0  0  0  0  0  0  0  0  0  0  0  0
    0.3528   -0.7667   -1.0505 C   0  0  0  0  0  0  0  0  0  0  0  0
   -0.3152   -0.5899   -1.9007 H   0  0  0  0  0  0  0  0  0  0  0  0
    1.2169   -0.1052   -1.1719 H   0  0  0  0  0  0  0  0  0  0  0  0
    0.8350   -2.1936   -1.0560 C   0  0  0  0  0  0  0  0  0  0  0  0
    1.8998   -2.7404   -0.3746 N   0  0  0  0  0  0  0  0  0  0  0  0
    2.4941   -2.2671    0.3013 H   0  0  0  0  0  0  0  0  0  0  0  0
    1.9791   -4.0821   -0.6992 C   0  0  0  0  0  0  0  0  0  0  0  0
    2.7096   -4.7787   -0.2977 H   0  0  0  0  0  0  0  0  0  0  0  0
    1.0474   -4.3960   -1.5670 N   0  0  0  0  0  0  0  0  0  0  0  0
    0.3272   -3.2290   -1.7959 C   0  0  0  0  0  0  0  0  0  0  0  0
   -0.5193   -3.1501   -2.4714 H   0  0  0  0  0  0  0  0  0  0  0  0
   -0.5145    1.0921    0.3808 C   0  0  0  0  0  0  0  0  0  0  0  0
   -1.3266    1.6903   -0.3158 O   0  0  0  0  0  0  0  0  0  0  0  0
    0.2822    1.8008    1.2617 N   0  0  0  0  0  0  0  0  0  0  0  0
    0.8809    1.2676    1.8861 H   0  0  0  0  0  0  0  0  0  0  0  0
    0.1680    3.2413    1.4579 C   0  0  0  0  0  0  0  0  0  0  0  0
   -0.8245    3.4981    1.8429 H   0  0  0  0  0  0  0  0  0  0  0  0
    0.9182    3.5859    2.1760 H   0  0  0  0  0  0  0  0  0  0  0  0
    0.3272    3.7713    0.5129 H   0  0  0  0  0  0  0  0  0  0  0  0
  1  2  1  0  0  0  0
  2  3  1  0  0  0  0
  2  4  1  0  0  0  0
  2  5  1  0  0  0  0
  5  6  2  0  0  0  0
  5  7  1  0  0  0  0
  7  8  1  0  0  0  0
  7  9  1  0  0  0  0
  9 10  1  0  0  0  0
  9 11  1  0  0  0  0
  9 22  1  0  0  0  0
 11 12  1  0  0  0  0
 11 13  1  0  0  0  0
 11 14  1  0  0  0  0
 14 15  1  0  0  0  0
 14 20  2  0  0  0  0
 15 16  1  0  0  0  0
 15 17  1  0  0  0  0
 17 18  1  0  0  0  0
 17 19  2  0  0  0  0
 19 20  1  0  0  0  0
 20 21  1  0  0  0  0
 22 23  2  0  0  0  0
 22 24  1  0  0  0  0
 24 25  1  0  0  0  0
 24 26  1  0  0  0  0
 26 27  1  0  0  0  0
 26 28  1  0  0  0  0
 26 29  1  0  0  0  0
M  END
$$$$

  -OEChem-04042215593D

 29 29  0     1  0  0  0  0  0999 V2000
   -3.5345   -3.6764    1.4245 H   0  0  0  0  0  0  0  0  0  0  0  0
   -3.4545   -2.7580    0.8364 C   0  0  0  0  0  0  0  0  0  0  0  0
   -4.1915   -2.0388    1.2015 H   0  0  0  0  0  0  0  0  0  0  0  0
   -3.6683   -2.9911   -0.2094 H   0  0  0  0  0  0  0  0  0  0  0  0
   -2.0586   -2.1786    0.9615 C   0  0  0  0  0  0  0  0  0  0  0  0
   -1.2528   -2.6881    1.7261 O   0  0  0  0  0  0  0  0  0  0  0  0
   -1.7151   -1.0578    0.2333 N   0  0  0  0  0  0  0  0  0  0  0  0
   -2.4403   -0.6090   -0.3225 H   0  0  0  0  0  0  0  0  0  0  0  0
   -0.3831   -0.4360    0.2518 C   0  0  1  0  0  0  0  0  0  0  0  0
    0.2050   -0.7916    1.1032 H   0  0  0  0  0  0  0  0  0  0  0  0
    0.3491   -0.7664   -1.0589 C   0  0  0  0  0  0  0  0  0  0  0  0
   -0.3130   -0.5814   -1.9119 H   0  0  0  0  0  0  0  0  0  0  0  0
    1.2181   -0.1096   -1.1710 H   0  0  0  0  0  0  0  0  0  0  0  0
    0.8297   -2.1946   -1.0686 C   0  0  0  0  0  0  0  0  0  0  0  0
    1.7009   -2.8153   -0.2001 N   0  0  0  0  0  0  0  0  0  0  0  0
    2.0918   -2.4181    0.6508 H   0  0  0  0  0  0  0  0  0  0  0  0
    1.8408   -4.1328   -0.5942 C   0  0  0  0  0  0  0  0  0  0  0  0
    2.4470   -4.8753   -0.0832 H   0  0  0  0  0  0  0  0  0  0  0  0
    1.1361   -4.3612   -1.6763 N   0  0  0  0  0  0  0  0  0  0  0  0
    0.4992   -3.1633   -1.9793 C   0  0  0  0  0  0  0  0  0  0  0  0
   -0.1705   -3.0184   -2.8216 H   0  0  0  0  0  0  0  0  0  0  0  0
   -0.5141    1.0932    0.3782 C   0  0  0  0  0  0  0  0  0  0  0  0
   -1.3306    1.6937   -0.3110 O   0  0  0  0  0  0  0  0  0  0  0  0
    0.2843    1.7988    1.2601 N   0  0  0  0  0  0  0  0  0  0  0  0
    0.8932    1.2650    1.8737 H   0  0  0  0  0  0  0  0  0  0  0  0
    0.1722    3.2387    1.4605 C   0  0  0  0  0  0  0  0  0  0  0  0
   -0.8208    3.4961    1.8438 H   0  0  0  0  0  0  0  0  0  0  0  0
    0.9213    3.5798    2.1816 H   0  0  0  0  0  0  0  0  0  0  0  0
    0.3345    3.7714    0.5174 H   0  0  0  0  0  0  0  0  0  0  0  0
  1  2  1  0  0  0  0
  2  3  1  0  0  0  0
  2  4  1  0  0  0  0
  2  5  1  0  0  0  0
  5  6  2  0  0  0  0
  5  7  1  0  0  0  0
  7  8  1  0  0  0  0
  7  9  1  0  0  0  0
  9 10  1  0  0  0  0
  9 11  1  0  0  0  0
  9 22  1  0  0  0  0
 11 12  1  0  0  0  0
 11 13  1  0  0  0  0
 11 14  1  0  0  0  0
 14 15  1  0  0  0  0
 14 20  2  0  0  0  0
 15 16  1  0  0  0  0
 15 17  1  0  0  0  0
 17 18  1  0  0  0  0
 17 19  2  0  0  0  0
 19 20  1  0  0  0  0
 20 21  1  0  0  0  0
 22 23  2  0  0  0  0
 22 24  1  0  0  0  0
 24 25  1  0  0  0  0
 24 26  1  0  0  0  0
 26 27  1  0  0  0  0
 26 28  1  0  0  0  0
 26 29  1  0  0  0  0
M  END
$$$$

  -OEChem-04042215593D

 29 29  0     1  0  0  0  0  0999 V2000
   -3.5425   -3.6668    1.4363 H   0  0  0  0  0  0  0  0  0  0  0  0
   -3.4611   -2.7512    0.8439 C   0  0  0  0  0  0  0  0  0  0  0  0
   -4.1930   -2.0269    1.2092 H   0  0  0  0  0  0  0  0  0  0  0  0
   -3.6819   -2.9879   -0.1998 H   0  0  0  0  0  0  0  0  0  0  0  0
   -2.0620   -2.1772    0.9591 C   0  0  0  0  0  0  0  0  0  0  0  0
   -1.2485   -2.6952    1.7114 O   0  0  0  0  0  0  0  0  0  0  0  0
   -1.7186   -1.0566    0.2305 N   0  0  0  0  0  0  0  0  0  0  0  0
   -2.4442   -0.6020   -0.3206 H   0  0  0  0  0  0  0  0  0  0  0  0
   -0.3855   -0.4384    0.2518 C   0  0  1  0  0  0  0  0  0  0  0  0
    0.1993   -0.7904    1.1065 H   0  0  0  0  0  0  0  0  0  0  0  0
    0.3506   -0.7695   -1.0567 C   0  0  0  0  0  0  0  0  0  0  0  0
   -0.3017   -0.5745   -1.9151 H   0  0  0  0  0  0  0  0  0  0  0  0
    1.2239   -0.1161   -1.1541 H   0  0  0  0  0  0  0  0  0  0  0  0
    0.8322   -2.1986   -1.0766 C   0  0  0  0  0  0  0  0  0  0  0  0
    1.4680   -2.9112   -0.0826 N   0  0  0  0  0  0  0  0  0  0  0  0
    1.5808   -2.6188    0.8859 H   0  0  0  0  0  0  0  0  0  0  0  0
    1.6963   -4.1930   -0.5457 C   0  0  0  0  0  0  0  0  0  0  0  0
    2.1544   -4.9915    0.0311 H   0  0  0  0  0  0  0  0  0  0  0  0
    1.2739   -4.3119   -1.7817 N   0  0  0  0  0  0  0  0  0  0  0  0
    0.7296   -3.0788   -2.1213 C   0  0  0  0  0  0  0  0  0  0  0  0
    0.2790   -2.8484   -3.0819 H   0  0  0  0  0  0  0  0  0  0  0  0
   -0.5146    1.0913    0.3785 C   0  0  0  0  0  0  0  0  0  0  0  0
   -1.3345    1.6913   -0.3071 O   0  0  0  0  0  0  0  0  0  0  0  0
    0.2820    1.7978    1.2615 N   0  0  0  0  0  0  0  0  0  0  0  0
    0.9063    1.2673    1.8625 H   0  0  0  0  0  0  0  0  0  0  0  0
    0.1742    3.2390    1.4564 C   0  0  0  0  0  0  0  0  0  0  0  0
   -0.8185    3.5014    1.8370 H   0  0  0  0  0  0  0  0  0  0  0  0
    0.9228    3.5806    2.1779 H   0  0  0  0  0  0  0  0  0  0  0  0
    0.3402    3.7674    0.5116 H   0  0  0  0  0  0  0  0  0  0  0  0
  1  2  1  0  0  0  0
  2  3  1  0  0  0  0
  2  4  1  0  0  0  0
  2  5  1  0  0  0  0
  5  6  2  0  0  0  0
  5  7  1  0  0  0  0
  7  8  1  0  0  0  0
  7  9  1  0  0  0  0
  9 10  1  0  0  0  0
  9 11  1  0  0  0  0
  9 22  1  0  0  0  0
 11 12  1  0  0  0  0
 11 13  1  0  0  0  0
 11 14  1  0  0  0  0
 14 15  1  0  0  0  0
 14 20  2  0  0  0  0
 15 16  1  0  0  0  0
 15 17  1  0  0  0  0
 17 18  1  0  0  0  0
 17 19  2  0  0  0  0
 19 20  1  0  0  0  0
 20 21  1  0  0  0  0
 22 23  2  0  0  0  0
 22 24  1  0  0  0  0
 24 25  1  0  0  0  0
 24 26  1  0  0  0  0
 26 27  1  0  0  0  0
 26 28  1  0  0  0  0
 26 29  1  0  0  0  0
M  END
$$$$

  -OEChem-04042215593D

 29 29  0     1  0  0  0  0  0999 V2000
   -3.5814   -3.6283    1.4873 H   0  0  0  0  0  0  0  0  0  0  0  0
   -3.4885   -2.7288    0.8723 C   0  0  0  0  0  0  0  0  0  0  0  0
   -4.2026   -1.9823    1.2282 H   0  0  0  0  0  0  0  0  0  0  0  0
   -3.7248   -2.9852   -0.1634 H   0  0  0  0  0  0  0  0  0  0  0  0
   -2.0777   -2.1792    0.9585 C   0  0  0  0  0  0  0  0  0  0  0  0
   -1.2528   -2.7182    1.6849 O   0  0  0  0  0  0  0  0  0  0  0  0
   -1.7314   -1.0602    0.2291 N   0  0  0  0  0  0  0  0  0  0  0  0
   -2.4620   -0.5868   -0.2996 H   0  0  0  0  0  0  0  0  0  0  0  0
   -0.3955   -0.4484    0.2501 C   0  0  1  0  0  0  0  0  0  0  0  0
    0.1865   -0.7972    1.1083 H   0  0  0  0  0  0  0  0  0  0  0  0
    0.3503   -0.7758   -1.0543 C   0  0  0  0  0  0  0  0  0  0  0  0
   -0.2932   -0.5739   -1.9176 H   0  0  0  0  0  0  0  0  0  0  0  0
    1.2252   -0.1223   -1.1367 H   0  0  0  0  0  0  0  0  0  0  0  0
    0.8354   -2.2041   -1.0876 C   0  0  0  0  0  0  0  0  0  0  0  0
    1.2075   -3.0148   -0.0365 N   0  0  0  0  0  0  0  0  0  0  0  0
    0.9879   -2.8450    0.9463 H   0  0  0  0  0  0  0  0  0  0  0  0
    1.5697   -4.2461   -0.5473 C   0  0  0  0  0  0  0  0  0  0  0  0
    1.8697   -5.1029    0.0492 H   0  0  0  0  0  0  0  0  0  0  0  0
    1.4849   -4.2393   -1.8563 N   0  0  0  0  0  0  0  0  0  0  0  0
    1.0253   -2.9743   -2.2043 C   0  0  0  0  0  0  0  0  0  0  0  0
    0.8391   -2.6444   -3.2221 H   0  0  0  0  0  0  0  0  0  0  0  0
   -0.5219    1.0814    0.3769 C   0  0  0  0  0  0  0  0  0  0  0  0
   -1.3472    1.6819   -0.3020 O   0  0  0  0  0  0  0  0  0  0  0  0
    0.2765    1.7854    1.2599 N   0  0  0  0  0  0  0  0  0  0  0  0
    0.9173    1.2554    1.8439 H   0  0  0  0  0  0  0  0  0  0  0  0
    0.1802    3.2280    1.4491 C   0  0  0  0  0  0  0  0  0  0  0  0
   -0.8117    3.4993    1.8253 H   0  0  0  0  0  0  0  0  0  0  0  0
    0.9293    3.5659    2.1717 H   0  0  0  0  0  0  0  0  0  0  0  0
    0.3537    3.7517    0.5030 H   0  0  0  0  0  0  0  0  0  0  0  0
  1  2  1  0  0  0  0
  2  3  1  0  0  0  0
  2  4  1  0  0  0  0
  2  5  1  0  0  0  0
  5  6  2  0  0  0  0
  5  7  1  0  0  0  0
  7  8  1  0  0  0  0
  7  9  1  0  0  0  0
  9 10  1  0  0  0  0
  9 11  1  0  0  0  0
  9 22  1  0  0  0  0
 11 12  1  0  0  0  0
 11 13  1  0  0  0  0
 11 14  1  0  0  0  0
 14 15  1  0  0  0  0
 14 20  2  0  0  0  0
 15 16  1  0  0  0  0
 15 17  1  0  0  0  0
 17 18  1  0  0  0  0
 17 19  2  0  0  0  0
 19 20  1  0  0  0  0
 20 21  1  0  0  0  0
 22 23  2  0  0  0  0
 22 24  1  0  0  0  0
 24 25  1  0  0  0  0
 24 26  1  0  0  0  0
 26 27  1  0  0  0  0
 26 28  1  0  0  0  0
 26 29  1  0  0  0  0
M  END
$$$$

  -OEChem-04042215593D

 29 29  0     1  0  0  0  0  0999 V2000
   -3.6391   -3.5974    1.5032 H   0  0  0  0  0  0  0  0  0  0  0  0
   -3.5305   -2.7020    0.8845 C   0  0  0  0  0  0  0  0  0  0  0  0
   -4.2296   -1.9406    1.2391 H   0  0  0  0  0  0  0  0  0  0  0  0
   -3.7737   -2.9571   -0.1499 H   0  0  0  0  0  0  0  0  0  0  0  0
   -2.1094   -2.1790    0.9665 C   0  0  0  0  0  0  0  0  0  0  0  0
   -1.2915   -2.7376    1.6859 O   0  0  0  0  0  0  0  0  0  0  0  0
   -1.7446   -1.0653    0.2387 N   0  0  0  0  0  0  0  0  0  0  0  0
   -2.4723   -0.5795   -0.2830 H   0  0  0  0  0  0  0  0  0  0  0  0
   -0.4045   -0.4587    0.2543 C   0  0  1  0  0  0  0  0  0  0  0  0
    0.1769   -0.8103    1.1120 H   0  0  0  0  0  0  0  0  0  0  0  0
    0.3451   -0.7866   -1.0498 C   0  0  0  0  0  0  0  0  0  0  0  0
   -0.3018   -0.5864   -1.9109 H   0  0  0  0  0  0  0  0  0  0  0  0
    1.2154   -0.1274   -1.1344 H   0  0  0  0  0  0  0  0  0  0  0  0
    0.8396   -2.2116   -1.1019 C   0  0  0  0  0  0  0  0  0  0  0  0
    0.9553   -3.1246   -0.0757 N   0  0  0  0  0  0  0  0  0  0  0  0
    0.5269   -3.0334    0.8507 H   0  0  0  0  0  0  0  0  0  0  0  0
    1.4569   -4.3024   -0.5930 C   0  0  0  0  0  0  0  0  0  0  0  0
    1.6229   -5.2121   -0.0230 H   0  0  0  0  0  0  0  0  0  0  0  0
    1.6909   -4.1693   -1.8771 N   0  0  0  0  0  0  0  0  0  0  0  0
    1.3088   -2.8731   -2.2057 C   0  0  0  0  0  0  0  0  0  0  0  0
    1.3738   -2.4448   -3.2015 H   0  0  0  0  0  0  0  0  0  0  0  0
   -0.5249    1.0719    0.3768 C   0  0  0  0  0  0  0  0  0  0  0  0
   -1.3549    1.6726   -0.2961 O   0  0  0  0  0  0  0  0  0  0  0  0
    0.2791    1.7744    1.2558 N   0  0  0  0  0  0  0  0  0  0  0  0
    0.9264    1.2436    1.8324 H   0  0  0  0  0  0  0  0  0  0  0  0
    0.1872    3.2173    1.4445 C   0  0  0  0  0  0  0  0  0  0  0  0
   -0.8036    3.4916    1.8217 H   0  0  0  0  0  0  0  0  0  0  0  0
    0.9378    3.5532    2.1663 H   0  0  0  0  0  0  0  0  0  0  0  0
    0.3613    3.7398    0.4980 H   0  0  0  0  0  0  0  0  0  0  0  0
  1  2  1  0  0  0  0
  2  3  1  0  0  0  0
  2  4  1  0  0  0  0
  2  5  1  0  0  0  0
  5  6  2  0  0  0  0
  5  7  1  0  0  0  0
  7  8  1  0  0  0  0
  7  9  1  0  0  0  0
  9 10  1  0  0  0  0
  9 11  1  0  0  0  0
  9 22  1  0  0  0  0
 11 12  1  0  0  0  0
 11 13  1  0  0  0  0
 11 14  1  0  0  0  0
 14 15  1  0  0  0  0
 14 20  2  0  0  0  0
 15 16  1  0  0  0  0
 15 17  1  0  0  0  0
 17 18  1  0  0  0  0
 17 19  2  0  0  0  0
 19 20  1  0  0  0  0
 20 21  1  0  0  0  0
 22 23  2  0  0  0  0
 22 24  1  0  0  0  0
 24 25  1  0  0  0  0
 24 26  1  0  0  0  0
 26 27  1  0  0  0  0
 26 28  1  0  0  0  0
 26 29  1  0  0  0  0
M  END
$$$$

  -OEChem-04042215593D

 29 29  0     1  0  0  0  0  0999 V2000
   -3.7163   -3.5580    1.5090 H   0  0  0  0  0  0  0  0  0  0  0  0
   -3.5821   -2.6673    0.8889 C   0  0  0  0  0  0  0  0  0  0  0  0
   -4.2617   -1.8874    1.2407 H   0  0  0  0  0  0  0  0  0  0  0  0
   -3.8301   -2.9180   -0.1454 H   0  0  0  0  0  0  0  0  0  0  0  0
   -2.1481   -2.1811    0.9737 C   0  0  0  0  0  0  0  0  0  0  0  0
   -1.3463   -2.7642    1.6898 O   0  0  0  0  0  0  0  0  0  0  0  0
   -1.7568   -1.0741    0.2508 N   0  0  0  0  0  0  0  0  0  0  0  0
   -2.4799   -0.5749   -0.2650 H   0  0  0  0  0  0  0  0  0  0  0  0
   -0.4127   -0.4712    0.2603 C   0  0  1  0  0  0  0  0  0  0  0  0
    0.1668   -0.8292    1.1172 H   0  0  0  0  0  0  0  0  0  0  0  0
    0.3428   -0.7989   -1.0437 C   0  0  0  0  0  0  0  0  0  0  0  0
   -0.3129   -0.6055   -1.8997 H   0  0  0  0  0  0  0  0  0  0  0  0
    1.2043   -0.1291   -1.1362 H   0  0  0  0  0  0  0  0  0  0  0  0
    0.8521   -2.2184   -1.1166 C   0  0  0  0  0  0  0  0  0  0  0  0
    0.7334   -3.2343   -0.1942 N   0  0  0  0  0  0  0  0  0  0  0  0
    0.1952   -3.1951    0.6775 H   0  0  0  0  0  0  0  0  0  0  0  0
    1.3627   -4.3585   -0.6883 C   0  0  0  0  0  0  0  0  0  0  0  0
    1.4179   -5.3167   -0.1797 H   0  0  0  0  0  0  0  0  0  0  0  0
    1.8808   -4.1017   -1.8660 N   0  0  0  0  0  0  0  0  0  0  0  0
    1.5694   -2.7745   -2.1433 C   0  0  0  0  0  0  0  0  0  0  0  0
    1.8573   -2.2513   -3.0503 H   0  0  0  0  0  0  0  0  0  0  0  0
   -0.5288    1.0601    0.3775 C   0  0  0  0  0  0  0  0  0  0  0  0
   -1.3640    1.6595   -0.2901 O   0  0  0  0  0  0  0  0  0  0  0  0
    0.2799    1.7628    1.2519 N   0  0  0  0  0  0  0  0  0  0  0  0
    0.9282    1.2315    1.8270 H   0  0  0  0  0  0  0  0  0  0  0  0
    0.1918    3.2060    1.4397 C   0  0  0  0  0  0  0  0  0  0  0  0
   -0.7976    3.4835    1.8183 H   0  0  0  0  0  0  0  0  0  0  0  0
    0.9443    3.5404    2.1604 H   0  0  0  0  0  0  0  0  0  0  0  0
    0.3660    3.7272    0.4924 H   0  0  0  0  0  0  0  0  0  0  0  0
  1  2  1  0  0  0  0
  2  3  1  0  0  0  0
  2  4  1  0  0  0  0
  2  5  1  0  0  0  0
  5  6  2  0  0  0  0
  5  7  1  0  0  0  0
  7  8  1  0  0  0  0
  7  9  1  0  0  0  0
  9 10  1  0  0  0  0
  9 11  1  0  0  0  0
  9 22  1  0  0  0  0
 11 12  1  0  0  0  0
 11 13  1  0  0  0  0
 11 14  1  0  0  0  0
 14 15  1  0  0  0  0
 14 20  2  0  0  0  0
 15 16  1  0  0  0  0
 15 17  1  0  0  0  0
 17 18  1  0  0  0  0
 17 19  2  0  0  0  0
 19 20  1  0  0  0  0
 20 21  1  0  0  0  0
 22 23  2  0  0  0  0
 22 24  1  0  0  0  0
 24 25  1  0  0  0  0
 24 26  1  0  0  0  0
 26 27  1  0  0  0  0
 26 28  1  0  0  0  0
 26 29  1  0  0  0  0
M  END
$$$$

  -OEChem-04042215593D

 29 29  0     1  0  0  0  0  0999 V2000
   -3.7806   -3.5192    1.5156 H   0  0  0  0  0  0  0  0  0  0  0  0
   -3.6273   -2.6298    0.8981 C   0  0  0  0  0  0  0  0  0  0  0  0
   -4.2794   -1.8321    1.2623 H   0  0  0  0  0  0  0  0  0  0  0  0
   -3.8955   -2.8674   -0.1342 H   0  0  0  0  0  0  0  0  0  0  0  0
   -2.1785   -2.1866    0.9677 C   0  0  0  0  0  0  0  0  0  0  0  0
   -1.3825   -2.8102    1.6537 O   0  0  0  0  0  0  0  0  0  0  0  0
   -1.7672   -1.0831    0.2518 N   0  0  0  0  0  0  0  0  0  0  0  0
   -2.4896   -0.5608   -0.2422 H   0  0  0  0  0  0  0  0  0  0  0  0
   -0.4197   -0.4839    0.2604 C   0  0  1  0  0  0  0  0  0  0  0  0
    0.1556   -0.8481    1.1177 H   0  0  0  0  0  0  0  0  0  0  0  0
    0.3446   -0.8085   -1.0406 C   0  0  0  0  0  0  0  0  0  0  0  0
   -0.3160   -0.6200   -1.8938 H   0  0  0  0  0  0  0  0  0  0  0  0
    1.1986   -0.1292   -1.1359 H   0  0  0  0  0  0  0  0  0  0  0  0
    0.8653   -2.2235   -1.1298 C   0  0  0  0  0  0  0  0  0  0  0  0
    0.5403   -3.3303   -0.3783 N   0  0  0  0  0  0  0  0  0  0  0  0
   -0.0980   -3.3466    0.4229 H   0  0  0  0  0  0  0  0  0  0  0  0
    1.2849   -4.4046   -0.8211 C   0  0  0  0  0  0  0  0  0  0  0  0
    1.2435   -5.4068   -0.4041 H   0  0  0  0  0  0  0  0  0  0  0  0
    2.0553   -4.0364   -1.8168 N   0  0  0  0  0  0  0  0  0  0  0  0
    1.8035   -2.6833   -2.0171 C   0  0  0  0  0  0  0  0  0  0  0  0
    2.2877   -2.0736   -2.7740 H   0  0  0  0  0  0  0  0  0  0  0  0
   -0.5327    1.0476    0.3776 C   0  0  0  0  0  0  0  0  0  0  0  0
   -1.3706    1.6471   -0.2865 O   0  0  0  0  0  0  0  0  0  0  0  0
    0.2774    1.7496    1.2512 N   0  0  0  0  0  0  0  0  0  0  0  0
    0.9284    1.2182    1.8233 H   0  0  0  0  0  0  0  0  0  0  0  0
    0.1934    3.1935    1.4357 C   0  0  0  0  0  0  0  0  0  0  0  0
   -0.7934    3.4743    1.8189 H   0  0  0  0  0  0  0  0  0  0  0  0
    0.9507    3.5285    2.1511 H   0  0  0  0  0  0  0  0  0  0  0  0
    0.3634    3.7119    0.4861 H   0  0  0  0  0  0  0  0  0  0  0  0
  1  2  1  0  0  0  0
  2  3  1  0  0  0  0
  2  4  1  0  0  0  0
  2  5  1  0  0  0  0
  5  6  2  0  0  0  0
  5  7  1  0  0  0  0
  7  8  1  0  0  0  0
  7  9  1  0  0  0  0
  9 10  1  0  0  0  0
  9 11  1  0  0  0  0
  9 22  1  0  0  0  0
 11 12  1  0  0  0  0
 11 13  1  0  0  0  0
 11 14  1  0  0  0  0
 14 15  1  0  0  0  0
 14 20  2  0  0  0  0
 15 16  1  0  0  0  0
 15 17  1  0  0  0  0
 17 18  1  0  0  0  0
 17 19  2  0  0  0  0
 19 20  1  0  0  0  0
 20 21  1  0  0  0  0
 22 23  2  0  0  0  0
 22 24  1  0  0  0  0
 24 25  1  0  0  0  0
 24 26  1  0  0  0  0
 26 27  1  0  0  0  0
 26 28  1  0  0  0  0
 26 29  1  0  0  0  0
M  END
$$$$

  -OEChem-04042215593D

 29 29  0     1  0  0  0  0  0999 V2000
   -3.8103   -3.4938    1.5177 H   0  0  0  0  0  0  0  0  0  0  0  0
   -3.6498   -2.6012    0.9065 C   0  0  0  0  0  0  0  0  0  0  0  0
   -4.2689   -1.7904    1.2983 H   0  0  0  0  0  0  0  0  0  0  0  0
   -3.9536   -2.8179   -0.1207 H   0  0  0  0  0  0  0  0  0  0  0  0
   -2.1880   -2.1983    0.9401 C   0  0  0  0  0  0  0  0  0  0  0  0
   -1.3866   -2.8707    1.5694 O   0  0  0  0  0  0  0  0  0  0  0  0
   -1.7714   -1.0904    0.2351 N   0  0  0  0  0  0  0  0  0  0  0  0
   -2.5011   -0.5391   -0.2153 H   0  0  0  0  0  0  0  0  0  0  0  0
   -0.4235   -0.4896    0.2410 C   0  0  1  0  0  0  0  0  0  0  0  0
    0.1494   -0.8602    1.0973 H   0  0  0  0  0  0  0  0  0  0  0  0
    0.3495   -0.8092   -1.0565 C   0  0  0  0  0  0  0  0  0  0  0  0
   -0.3129   -0.6288   -1.9101 H   0  0  0  0  0  0  0  0  0  0  0  0
    1.1957   -0.1202   -1.1529 H   0  0  0  0  0  0  0  0  0  0  0  0
    0.8797   -2.2207   -1.1451 C   0  0  0  0  0  0  0  0  0  0  0  0
    0.3853   -3.3849   -0.6032 N   0  0  0  0  0  0  0  0  0  0  0  0
   -0.3578   -3.4451    0.0977 H   0  0  0  0  0  0  0  0  0  0  0  0
    1.2167   -4.4282   -0.9568 C   0  0  0  0  0  0  0  0  0  0  0  0
    1.0879   -5.4608   -0.6452 H   0  0  0  0  0  0  0  0  0  0  0  0
    2.1932   -3.9889   -1.7140 N   0  0  0  0  0  0  0  0  0  0  0  0
    1.9939   -2.6185   -1.8378 C   0  0  0  0  0  0  0  0  0  0  0  0
    2.6372   -1.9538   -2.4064 H   0  0  0  0  0  0  0  0  0  0  0  0
   -0.5368    1.0407    0.3704 C   0  0  0  0  0  0  0  0  0  0  0  0
   -1.3883    1.6431   -0.2734 O   0  0  0  0  0  0  0  0  0  0  0  0
    0.2782    1.7354    1.2451 N   0  0  0  0  0  0  0  0  0  0  0  0
    0.9412    1.2002    1.7997 H   0  0  0  0  0  0  0  0  0  0  0  0
    0.1900    3.1765    1.4488 C   0  0  0  0  0  0  0  0  0  0  0  0
   -0.7972    3.4490    1.8364 H   0  0  0  0  0  0  0  0  0  0  0  0
    0.9467    3.5036    2.1683 H   0  0  0  0  0  0  0  0  0  0  0  0
    0.3579    3.7081    0.5062 H   0  0  0  0  0  0  0  0  0  0  0  0
  1  2  1  0  0  0  0
  2  3  1  0  0  0  0
  2  4  1  0  0  0  0
  2  5  1  0  0  0  0
  5  6  2  0  0  0  0
  5  7  1  0  0  0  0
  7  8  1  0  0  0  0
  7  9  1  0  0  0  0
  9 10  1  0  0  0  0
  9 11  1  0  0  0  0
  9 22  1  0  0  0  0
 11 12  1  0  0  0  0
 11 13  1  0  0  0  0
 11 14  1  0  0  0  0
 14 15  1  0  0  0  0
 14 20  2  0  0  0  0
 15 16  1  0  0  0  0
 15 17  1  0  0  0  0
 17 18  1  0  0  0  0
 17 19  2  0  0  0  0
 19 20  1  0  0  0  0
 20 21  1  0  0  0  0
 22 23  2  0  0  0  0
 22 24  1  0  0  0  0
 24 25  1  0  0  0  0
 24 26  1  0  0  0  0
 26 27  1  0  0  0  0
 26 28  1  0  0  0  0
 26 29  1  0  0  0  0
M  END
$$$$

  -OEChem-04042215593D

 29 29  0     1  0  0  0  0  0999 V2000
   -3.8030   -3.4893    1.5136 H   0  0  0  0  0  0  0  0  0  0  0  0
   -3.6474   -2.5905    0.9103 C   0  0  0  0  0  0  0  0  0  0  0  0
   -4.2374   -1.7753    1.3362 H   0  0  0  0  0  0  0  0  0  0  0  0
   -3.9910   -2.7857   -0.1084 H   0  0  0  0  0  0  0  0  0  0  0  0
   -2.1781   -2.2143    0.8986 C   0  0  0  0  0  0  0  0  0  0  0  0
   -1.3652   -2.9275    1.4626 O   0  0  0  0  0  0  0  0  0  0  0  0
   -1.7684   -1.0961    0.2063 N   0  0  0  0  0  0  0  0  0  0  0  0
   -2.5065   -0.5218   -0.2000 H   0  0  0  0  0  0  0  0  0  0  0  0
   -0.4227   -0.4894    0.2173 C   0  0  1  0  0  0  0  0  0  0  0  0
    0.1469   -0.8667    1.0732 H   0  0  0  0  0  0  0  0  0  0  0  0
    0.3590   -0.8010   -1.0755 C   0  0  0  0  0  0  0  0  0  0  0  0
   -0.2968   -0.6246   -1.9346 H   0  0  0  0  0  0  0  0  0  0  0  0
    1.2022   -0.1076   -1.1643 H   0  0  0  0  0  0  0  0  0  0  0  0
    0.8933   -2.2109   -1.1522 C   0  0  0  0  0  0  0  0  0  0  0  0
    0.2741   -3.4021   -0.8529 N   0  0  0  0  0  0  0  0  0  0  0  0
   -0.5731   -3.4955   -0.2896 H   0  0  0  0  0  0  0  0  0  0  0  0
    1.1593   -4.4326   -1.0991 C   0  0  0  0  0  0  0  0  0  0  0  0
    0.9589   -5.4833   -0.9112 H   0  0  0  0  0  0  0  0  0  0  0  0
    2.2845   -3.9590   -1.5778 N   0  0  0  0  0  0  0  0  0  0  0  0
    2.1296   -2.5784   -1.6166 C   0  0  0  0  0  0  0  0  0  0  0  0
    2.8877   -1.8855   -1.9694 H   0  0  0  0  0  0  0  0  0  0  0  0
   -0.5394    1.0384    0.3650 C   0  0  0  0  0  0  0  0  0  0  0  0
   -1.4017    1.6433   -0.2618 O   0  0  0  0  0  0  0  0  0  0  0  0
    0.2751    1.7256    1.2459 N   0  0  0  0  0  0  0  0  0  0  0  0
    0.9487    1.1879    1.7853 H   0  0  0  0  0  0  0  0  0  0  0  0
    0.1811    3.1637    1.4667 C   0  0  0  0  0  0  0  0  0  0  0  0
   -0.8068    3.4276    1.8584 H   0  0  0  0  0  0  0  0  0  0  0  0
    0.9371    3.4861    2.1892 H   0  0  0  0  0  0  0  0  0  0  0  0
    0.3453    3.7071    0.5301 H   0  0  0  0  0  0  0  0  0  0  0  0
  1  2  1  0  0  0  0
  2  3  1  0  0  0  0
  2  4  1  0  0  0  0
  2  5  1  0  0  0  0
  5  6  2  0  0  0  0
  5  7  1  0  0  0  0
  7  8  1  0  0  0  0
  7  9  1  0  0  0  0
  9 10  1  0  0  0  0
  9 11  1  0  0  0  0
  9 22  1  0  0  0  0
 11 12  1  0  0  0  0
 11 13  1  0  0  0  0
 11 14  1  0  0  0  0
 14 15  1  0  0  0  0
 14 20  2  0  0  0  0
 15 16  1  0  0  0  0
 15 17  1  0  0  0  0
 17 18  1  0  0  0  0
 17 19  2  0  0  0  0
 19 20  1  0  0  0  0
 20 21  1  0  0  0  0
 22 23  2  0  0  0  0
 22 24  1  0  0  0  0
 24 25  1  0  0  0  0
 24 26  1  0  0  0  0
 26 27  1  0  0  0  0
 26 28  1  0  0  0  0
 26 29  1  0  0  0  0
M  END
$$$$

  -OEChem-04042215593D

 29 29  0     1  0  0  0  0  0999 V2000
   -3.7410   -3.5240    1.5007 H   0  0  0  0  0  0  0  0  0  0  0  0
   -3.6060   -2.6172    0.9044 C   0  0  0  0  0  0  0  0  0  0  0  0
   -4.1985   -1.8137    1.3486 H   0  0  0  0  0  0  0  0  0  0  0  0
   -3.9639   -2.8059   -0.1105 H   0  0  0  0  0  0  0  0  0  0  0  0
   -2.1414   -2.2243    0.8740 C   0  0  0  0  0  0  0  0  0  0  0  0
   -1.3154   -2.9267    1.4307 O   0  0  0  0  0  0  0  0  0  0  0  0
   -1.7547   -1.0961    0.1838 N   0  0  0  0  0  0  0  0  0  0  0  0
   -2.5024   -0.5196   -0.2008 H   0  0  0  0  0  0  0  0  0  0  0  0
   -0.4138   -0.4819    0.1992 C   0  0  1  0  0  0  0  0  0  0  0  0
    0.1597   -0.8623    1.0514 H   0  0  0  0  0  0  0  0  0  0  0  0
    0.3641   -0.7827   -1.0969 C   0  0  0  0  0  0  0  0  0  0  0  0
   -0.2866   -0.6012   -1.9588 H   0  0  0  0  0  0  0  0  0  0  0  0
    1.2105   -0.0921   -1.1786 H   0  0  0  0  0  0  0  0  0  0  0  0
    0.8920   -2.1943   -1.1612 C   0  0  0  0  0  0  0  0  0  0  0  0
    0.1994   -3.3824   -1.1236 N   0  0  0  0  0  0  0  0  0  0  0  0
   -0.7694   -3.4903   -0.8306 H   0  0  0  0  0  0  0  0  0  0  0  0
    1.1029   -4.4208   -1.2371 C   0  0  0  0  0  0  0  0  0  0  0  0
    0.8477   -5.4758   -1.1954 H   0  0  0  0  0  0  0  0  0  0  0  0
    2.3170   -3.9502   -1.3936 N   0  0  0  0  0  0  0  0  0  0  0  0
    2.1977   -2.5663   -1.3494 C   0  0  0  0  0  0  0  0  0  0  0  0
    3.0284   -1.8747   -1.4521 H   0  0  0  0  0  0  0  0  0  0  0  0
   -0.5379    1.0440    0.3593 C   0  0  0  0  0  0  0  0  0  0  0  0
   -1.3996    1.6516   -0.2657 O   0  0  0  0  0  0  0  0  0  0  0  0
    0.2743    1.7266    1.2459 N   0  0  0  0  0  0  0  0  0  0  0  0
    0.9389    1.1839    1.7911 H   0  0  0  0  0  0  0  0  0  0  0  0
    0.1746    3.1616    1.4835 C   0  0  0  0  0  0  0  0  0  0  0  0
   -0.8145    3.4174    1.8776 H   0  0  0  0  0  0  0  0  0  0  0  0
    0.9289    3.4774    2.2108 H   0  0  0  0  0  0  0  0  0  0  0  0
    0.3387    3.7164    0.5537 H   0  0  0  0  0  0  0  0  0  0  0  0
  1  2  1  0  0  0  0
  2  3  1  0  0  0  0
  2  4  1  0  0  0  0
  2  5  1  0  0  0  0
  5  6  2  0  0  0  0
  5  7  1  0  0  0  0
  7  8  1  0  0  0  0
  7  9  1  0  0  0  0
  9 10  1  0  0  0  0
  9 11  1  0  0  0  0
  9 22  1  0  0  0  0
 11 12  1  0  0  0  0
 11 13  1  0  0  0  0
 11 14  1  0  0  0  0
 14 15  1  0  0  0  0
 14 20  2  0  0  0  0
 15 16  1  0  0  0  0
 15 17  1  0  0  0  0
 17 18  1  0  0  0  0
 17 19  2  0  0  0  0
 19 20  1  0  0  0  0
 20 21  1  0  0  0  0
 22 23  2  0  0  0  0
 22 24  1  0  0  0  0
 24 25  1  0  0  0  0
 24 26  1  0  0  0  0
 26 27  1  0  0  0  0
 26 28  1  0  0  0  0
 26 29  1  0  0  0  0
M  END
$$$$

  -OEChem-04042215593D

 29 29  0     1  0  0  0  0  0999 V2000
   -3.6611   -3.5807    1.4708 H   0  0  0  0  0  0  0  0  0  0  0  0
   -3.5463   -2.6676    0.8799 C   0  0  0  0  0  0  0  0  0  0  0  0
   -4.1719   -1.8852    1.3164 H   0  0  0  0  0  0  0  0  0  0  0  0
   -3.8803   -2.8641   -0.1416 H   0  0  0  0  0  0  0  0  0  0  0  0
   -2.0951   -2.2264    0.8764 C   0  0  0  0  0  0  0  0  0  0  0  0
   -1.2639   -2.8765    1.4866 O   0  0  0  0  0  0  0  0  0  0  0  0
   -1.7316   -1.0929    0.1808 N   0  0  0  0  0  0  0  0  0  0  0  0
   -2.4841   -0.5353   -0.2207 H   0  0  0  0  0  0  0  0  0  0  0  0
   -0.3961   -0.4716    0.2008 C   0  0  1  0  0  0  0  0  0  0  0  0
    0.1851   -0.8499    1.0488 H   0  0  0  0  0  0  0  0  0  0  0  0
    0.3675   -0.7647   -1.1031 C   0  0  0  0  0  0  0  0  0  0  0  0
   -0.2801   -0.5732   -1.9651 H   0  0  0  0  0  0  0  0  0  0  0  0
    1.2205   -0.0818   -1.1793 H   0  0  0  0  0  0  0  0  0  0  0  0
    0.8827   -2.1796   -1.1581 C   0  0  0  0  0  0  0  0  0  0  0  0
    0.1743   -3.3368   -1.3878 N   0  0  0  0  0  0  0  0  0  0  0  0
   -0.8374   -3.4182   -1.4430 H   0  0  0  0  0  0  0  0  0  0  0  0
    1.0579   -4.3990   -1.3801 C   0  0  0  0  0  0  0  0  0  0  0  0
    0.7807   -5.4415   -1.5062 H   0  0  0  0  0  0  0  0  0  0  0  0
    2.2835   -3.9680   -1.2005 N   0  0  0  0  0  0  0  0  0  0  0  0
    2.1870   -2.5884   -1.0603 C   0  0  0  0  0  0  0  0  0  0  0  0
    3.0324   -1.9262   -0.8996 H   0  0  0  0  0  0  0  0  0  0  0  0
   -0.5301    1.0532    0.3627 C   0  0  0  0  0  0  0  0  0  0  0  0
   -1.3852    1.6582   -0.2744 O   0  0  0  0  0  0  0  0  0  0  0  0
    0.2752    1.7396    1.2527 N   0  0  0  0  0  0  0  0  0  0  0  0
    0.9313    1.1981    1.8096 H   0  0  0  0  0  0  0  0  0  0  0  0
    0.1670    3.1743    1.4890 C   0  0  0  0  0  0  0  0  0  0  0  0
   -0.8241    3.4249    1.8817 H   0  0  0  0  0  0  0  0  0  0  0  0
    0.9188    3.4949    2.2167 H   0  0  0  0  0  0  0  0  0  0  0  0
    0.3287    3.7294    0.5589 H   0  0  0  0  0  0  0  0  0  0  0  0
  1  2  1  0  0  0  0
  2  3  1  0  0  0  0
  2  4  1  0  0  0  0
  2  5  1  0  0  0  0
  5  6  2  0  0  0  0
  5  7  1  0  0  0  0
  7  8  1  0  0  0  0
  7  9  1  0  0  0  0
  9 10  1  0  0  0  0
  9 11  1  0  0  0  0
  9 22  1  0  0  0  0
 11 12  1  0  0  0  0
 11 13  1  0  0  0  0
 11 14  1  0  0  0  0
 14 15  1  0  0  0  0
 14 20  2  0  0  0  0
 15 16  1  0  0  0  0
 15 17  1  0  0  0  0
 17 18  1  0  0  0  0
 17 19  2  0  0  0  0
 19 20  1  0  0  0  0
 20 21  1  0  0  0  0
 22 23  2  0  0  0  0
 22 24  1  0  0  0  0
 24 25  1  0  0  0  0
 24 26  1  0  0  0  0
 26 27  1  0  0  0  0
 26 28  1  0  0  0  0
 26 29  1  0  0  0  0
M  END
$$$$

  -OEChem-04042215593D

 29 29  0     1  0  0  0  0  0999 V2000
   -3.6014   -3.6278    1.4373 H   0  0  0  0  0  0  0  0  0  0  0  0
   -3.5013   -2.7113    0.8490 C   0  0  0  0  0  0  0  0  0  0  0  0
   -4.1636   -1.9500    1.2681 H   0  0  0  0  0  0  0  0  0  0  0  0
   -3.8012   -2.9192   -0.1806 H   0  0  0  0  0  0  0  0  0  0  0  0
   -2.0655   -2.2229    0.8826 C   0  0  0  0  0  0  0  0  0  0  0  0
   -1.2366   -2.8271    1.5418 O   0  0  0  0  0  0  0  0  0  0  0  0
   -1.7163   -1.0865    0.1835 N   0  0  0  0  0  0  0  0  0  0  0  0
   -2.4688   -0.5546   -0.2503 H   0  0  0  0  0  0  0  0  0  0  0  0
   -0.3849   -0.4585    0.2051 C   0  0  1  0  0  0  0  0  0  0  0  0
    0.2025   -0.8336    1.0500 H   0  0  0  0  0  0  0  0  0  0  0  0
    0.3649   -0.7543   -1.1047 C   0  0  0  0  0  0  0  0  0  0  0  0
   -0.2823   -0.5591   -1.9660 H   0  0  0  0  0  0  0  0  0  0  0  0
    1.2240   -0.0794   -1.1838 H   0  0  0  0  0  0  0  0  0  0  0  0
    0.8711   -2.1721   -1.1463 C   0  0  0  0  0  0  0  0  0  0  0  0
    0.2210   -3.2846   -1.6301 N   0  0  0  0  0  0  0  0  0  0  0  0
   -0.7363   -3.3212   -1.9702 H   0  0  0  0  0  0  0  0  0  0  0  0
    1.0695   -4.3696   -1.5147 C   0  0  0  0  0  0  0  0  0  0  0  0
    0.8220   -5.3881   -1.8002 H   0  0  0  0  0  0  0  0  0  0  0  0
    2.2231   -3.9923   -1.0180 N   0  0  0  0  0  0  0  0  0  0  0  0
    2.1114   -2.6265   -0.7821 C   0  0  0  0  0  0  0  0  0  0  0  0
    2.9030   -2.0046   -0.3753 H   0  0  0  0  0  0  0  0  0  0  0  0
   -0.5224    1.0660    0.3665 C   0  0  0  0  0  0  0  0  0  0  0  0
   -1.3697    1.6711   -0.2808 O   0  0  0  0  0  0  0  0  0  0  0  0
    0.2805    1.7547    1.2571 N   0  0  0  0  0  0  0  0  0  0  0  0
    0.9269    1.2130    1.8248 H   0  0  0  0  0  0  0  0  0  0  0  0
    0.1676    3.1890    1.4930 C   0  0  0  0  0  0  0  0  0  0  0  0
   -0.8258    3.4369    1.8815 H   0  0  0  0  0  0  0  0  0  0  0  0
    0.9153    3.5122    2.2237 H   0  0  0  0  0  0  0  0  0  0  0  0
    0.3315    3.7442    0.5634 H   0  0  0  0  0  0  0  0  0  0  0  0
  1  2  1  0  0  0  0
  2  3  1  0  0  0  0
  2  4  1  0  0  0  0
  2  5  1  0  0  0  0
  5  6  2  0  0  0  0
  5  7  1  0  0  0  0
  7  8  1  0  0  0  0
  7  9  1  0  0  0  0
  9 10  1  0  0  0  0
  9 11  1  0  0  0  0
  9 22  1  0  0  0  0
 11 12  1  0  0  0  0
 11 13  1  0  0  0  0
 11 14  1  0  0  0  0
 14 15  1  0  0  0  0
 14 20  2  0  0  0  0
 15 16  1  0  0  0  0
 15 17  1  0  0  0  0
 17 18  1  0  0  0  0
 17 19  2  0  0  0  0
 19 20  1  0  0  0  0
 20 21  1  0  0  0  0
 22 23  2  0  0  0  0
 22 24  1  0  0  0  0
 24 25  1  0  0  0  0
 24 26  1  0  0  0  0
 26 27  1  0  0  0  0
 26 28  1  0  0  0  0
 26 29  1  0  0  0  0
M  END
$$$$

  -OEChem-04042215593D

 29 29  0     1  0  0  0  0  0999 V2000
   -3.5648   -3.6569    1.4171 H   0  0  0  0  0  0  0  0  0  0  0  0
   -3.4734   -2.7385    0.8302 C   0  0  0  0  0  0  0  0  0  0  0  0
   -4.1624   -1.9924    1.2331 H   0  0  0  0  0  0  0  0  0  0  0  0
   -3.7447   -2.9543   -0.2057 H   0  0  0  0  0  0  0  0  0  0  0  0
   -2.0502   -2.2177    0.8947 C   0  0  0  0  0  0  0  0  0  0  0  0
   -1.2265   -2.7910    1.5877 O   0  0  0  0  0  0  0  0  0  0  0  0
   -1.7072   -1.0815    0.1920 N   0  0  0  0  0  0  0  0  0  0  0  0
   -2.4559   -0.5719   -0.2734 H   0  0  0  0  0  0  0  0  0  0  0  0
   -0.3783   -0.4500    0.2137 C   0  0  1  0  0  0  0  0  0  0  0  0
    0.2123   -0.8210    1.0580 H   0  0  0  0  0  0  0  0  0  0  0  0
    0.3622   -0.7486   -1.1004 C   0  0  0  0  0  0  0  0  0  0  0  0
   -0.2915   -0.5525   -1.9566 H   0  0  0  0  0  0  0  0  0  0  0  0
    1.2223   -0.0762   -1.1875 H   0  0  0  0  0  0  0  0  0  0  0  0
    0.8670   -2.1670   -1.1443 C   0  0  0  0  0  0  0  0  0  0  0  0
    0.3491   -3.2194   -1.8654 N   0  0  0  0  0  0  0  0  0  0  0  0
   -0.4847   -3.1998   -2.4474 H   0  0  0  0  0  0  0  0  0  0  0  0
    1.1423   -4.3300   -1.6444 C   0  0  0  0  0  0  0  0  0  0  0  0
    0.9733   -5.3133   -2.0741 H   0  0  0  0  0  0  0  0  0  0  0  0
    2.1370   -4.0259   -0.8463 N   0  0  0  0  0  0  0  0  0  0  0  0
    1.9730   -2.6838   -0.5212 C   0  0  0  0  0  0  0  0  0  0  0  0
    2.6384   -2.1215    0.1268 H   0  0  0  0  0  0  0  0  0  0  0  0
   -0.5182    1.0746    0.3716 C   0  0  0  0  0  0  0  0  0  0  0  0
   -1.3567    1.6794   -0.2875 O   0  0  0  0  0  0  0  0  0  0  0  0
    0.2826    1.7662    1.2618 N   0  0  0  0  0  0  0  0  0  0  0  0
    0.9206    1.2251    1.8395 H   0  0  0  0  0  0  0  0  0  0  0  0
    0.1715    3.2018    1.4902 C   0  0  0  0  0  0  0  0  0  0  0  0
   -0.8224    3.4532    1.8751 H   0  0  0  0  0  0  0  0  0  0  0  0
    0.9183    3.5269    2.2211 H   0  0  0  0  0  0  0  0  0  0  0  0
    0.3387    3.7526    0.5585 H   0  0  0  0  0  0  0  0  0  0  0  0
  1  2  1  0  0  0  0
  2  3  1  0  0  0  0
  2  4  1  0  0  0  0
  2  5  1  0  0  0  0
  5  6  2  0  0  0  0
  5  7  1  0  0  0  0
  7  8  1  0  0  0  0
  7  9  1  0  0  0  0
  9 10  1  0  0  0  0
  9 11  1  0  0  0  0
  9 22  1  0  0  0  0
 11 12  1  0  0  0  0
 11 13  1  0  0  0  0
 11 14  1  0  0  0  0
 14 15  1  0  0  0  0
 14 20  2  0  0  0  0
 15 16  1  0  0  0  0
 15 17  1  0  0  0  0
 17 18  1  0  0  0  0
 17 19  2  0  0  0  0
 19 20  1  0  0  0  0
 20 21  1  0  0  0  0
 22 23  2  0  0  0  0
 22 24  1  0  0  0  0
 24 25  1  0  0  0  0
 24 26  1  0  0  0  0
 26 27  1  0  0  0  0
 26 28  1  0  0  0  0
 26 29  1  0  0  0  0
M  END
$$$$

  -OEChem-04042215593D

 29 29  0     1  0  0  0  0  0999 V2000
   -3.5390   -3.6720    1.4143 H   0  0  0  0  0  0  0  0  0  0  0  0
   -3.4521   -2.7534    0.8273 C   0  0  0  0  0  0  0  0  0  0  0  0
   -4.1586   -2.0170    1.2177 H   0  0  0  0  0  0  0  0  0  0  0  0
   -3.7035   -2.9754   -0.2124 H   0  0  0  0  0  0  0  0  0  0  0  0
   -2.0381   -2.2109    0.9139 C   0  0  0  0  0  0  0  0  0  0  0  0
   -1.2226   -2.7545    1.6403 O   0  0  0  0  0  0  0  0  0  0  0  0
   -1.6953   -1.0794    0.2036 N   0  0  0  0  0  0  0  0  0  0  0  0
   -2.4367   -0.5920   -0.2955 H   0  0  0  0  0  0  0  0  0  0  0  0
   -0.3682   -0.4457    0.2287 C   0  0  1  0  0  0  0  0  0  0  0  0
    0.2210   -0.8078    1.0773 H   0  0  0  0  0  0  0  0  0  0  0  0
    0.3727   -0.7467   -1.0853 C   0  0  0  0  0  0  0  0  0  0  0  0
   -0.2908   -0.5538   -1.9349 H   0  0  0  0  0  0  0  0  0  0  0  0
    1.2296   -0.0715   -1.1822 H   0  0  0  0  0  0  0  0  0  0  0  0
    0.8840   -2.1638   -1.1425 C   0  0  0  0  0  0  0  0  0  0  0  0
    0.5561   -3.1269   -2.0708 N   0  0  0  0  0  0  0  0  0  0  0  0
   -0.0888   -3.0189   -2.8500 H   0  0  0  0  0  0  0  0  0  0  0  0
    1.2516   -4.2820   -1.7659 C   0  0  0  0  0  0  0  0  0  0  0  0
    1.1944   -5.2112   -2.3254 H   0  0  0  0  0  0  0  0  0  0  0  0
    1.9989   -4.0941   -0.7060 N   0  0  0  0  0  0  0  0  0  0  0  0
    1.7673   -2.7847   -0.2969 C   0  0  0  0  0  0  0  0  0  0  0  0
    2.2319   -2.3176    0.5662 H   0  0  0  0  0  0  0  0  0  0  0  0
   -0.5132    1.0798    0.3741 C   0  0  0  0  0  0  0  0  0  0  0  0
   -1.3434    1.6785   -0.3008 O   0  0  0  0  0  0  0  0  0  0  0  0
    0.2801    1.7804    1.2640 N   0  0  0  0  0  0  0  0  0  0  0  0
    0.9140    1.2453    1.8518 H   0  0  0  0  0  0  0  0  0  0  0  0
    0.1643    3.2177    1.4796 C   0  0  0  0  0  0  0  0  0  0  0  0
   -0.8311    3.4692    1.8604 H   0  0  0  0  0  0  0  0  0  0  0  0
    0.9086    3.5515    2.2090 H   0  0  0  0  0  0  0  0  0  0  0  0
    0.3315    3.7611    0.5437 H   0  0  0  0  0  0  0  0  0  0  0  0
  1  2  1  0  0  0  0
  2  3  1  0  0  0  0
  2  4  1  0  0  0  0
  2  5  1  0  0  0  0
  5  6  2  0  0  0  0
  5  7  1  0  0  0  0
  7  8  1  0  0  0  0
  7  9  1  0  0  0  0
  9 10  1  0  0  0  0
  9 11  1  0  0  0  0
  9 22  1  0  0  0  0
 11 12  1  0  0  0  0
 11 13  1  0  0  0  0
 11 14  1  0  0  0  0
 14 15  1  0  0  0  0
 14 20  2  0  0  0  0
 15 16  1  0  0  0  0
 15 17  1  0  0  0  0
 17 18  1  0  0  0  0
 17 19  2  0  0  0  0
 19 20  1  0  0  0  0
 20 21  1  0  0  0  0
 22 23  2  0  0  0  0
 22 24  1  0  0  0  0
 24 25  1  0  0  0  0
 24 26  1  0  0  0  0
 26 27  1  0  0  0  0
 26 28  1  0  0  0  0
 26 29  1  0  0  0  0
M  END
$$$$

  -OEChem-04042215593D

 29 29  0     1  0  0  0  0  0999 V2000
   -3.5295   -3.6766    1.4166 H   0  0  0  0  0  0  0  0  0  0  0  0
   -3.4433   -2.7573    0.8306 C   0  0  0  0  0  0  0  0  0  0  0  0
   -4.1659   -2.0293    1.2071 H   0  0  0  0  0  0  0  0  0  0  0  0
   -3.6725   -2.9833   -0.2134 H   0  0  0  0  0  0  0  0  0  0  0  0
   -2.0380   -2.1975    0.9430 C   0  0  0  0  0  0  0  0  0  0  0  0
   -1.2360   -2.7144    1.7034 O   0  0  0  0  0  0  0  0  0  0  0  0
   -1.6874   -1.0758    0.2211 N   0  0  0  0  0  0  0  0  0  0  0  0
   -2.4178   -0.6091   -0.3126 H   0  0  0  0  0  0  0  0  0  0  0  0
   -0.3605   -0.4423    0.2520 C   0  0  1  0  0  0  0  0  0  0  0  0
    0.2212   -0.7896    1.1114 H   0  0  0  0  0  0  0  0  0  0  0  0
    0.3906   -0.7543   -1.0552 C   0  0  0  0  0  0  0  0  0  0  0  0
   -0.2784   -0.5702   -1.9023 H   0  0  0  0  0  0  0  0  0  0  0  0
    1.2424   -0.0742   -1.1607 H   0  0  0  0  0  0  0  0  0  0  0  0
    0.9128   -2.1690   -1.1235 C   0  0  0  0  0  0  0  0  0  0  0  0
    0.8209   -3.0174   -2.2052 N   0  0  0  0  0  0  0  0  0  0  0  0
    0.4037   -2.8007   -3.1074 H   0  0  0  0  0  0  0  0  0  0  0  0
    1.3967   -4.2267   -1.8652 C   0  0  0  0  0  0  0  0  0  0  0  0
    1.4777   -5.0870   -2.5232 H   0  0  0  0  0  0  0  0  0  0  0  0
    1.8369   -4.1863   -0.6322 N   0  0  0  0  0  0  0  0  0  0  0  0
    1.5230   -2.9194   -0.1490 C   0  0  0  0  0  0  0  0  0  0  0  0
    1.7386   -2.5752    0.8580 H   0  0  0  0  0  0  0  0  0  0  0  0
   -0.5092    1.0849    0.3753 C   0  0  0  0  0  0  0  0  0  0  0  0
   -1.3287    1.6750   -0.3201 O   0  0  0  0  0  0  0  0  0  0  0  0
    0.2739    1.7973    1.2646 N   0  0  0  0  0  0  0  0  0  0  0  0
    0.8944    1.2690    1.8722 H   0  0  0  0  0  0  0  0  0  0  0  0
    0.1538    3.2367    1.4618 C   0  0  0  0  0  0  0  0  0  0  0  0
   -0.8434    3.4900    1.8366 H   0  0  0  0  0  0  0  0  0  0  0  0
    0.8953    3.5815    2.1889 H   0  0  0  0  0  0  0  0  0  0  0  0
    0.3221    3.7691    0.5197 H   0  0  0  0  0  0  0  0  0  0  0  0
  1  2  1  0  0  0  0
  2  3  1  0  0  0  0
  2  4  1  0  0  0  0
  2  5  1  0  0  0  0
  5  6  2  0  0  0  0
  5  7  1  0  0  0  0
  7  8  1  0  0  0  0
  7  9  1  0  0  0  0
  9 10  1  0  0  0  0
  9 11  1  0  0  0  0
  9 22  1  0  0  0  0
 11 12  1  0  0  0  0
 11 13  1  0  0  0  0
 11 14  1  0  0  0  0
 14 15  1  0  0  0  0
 14 20  2  0  0  0  0
 15 16  1  0  0  0  0
 15 17  1  0  0  0  0
 17 18  1  0  0  0  0
 17 19  2  0  0  0  0
 19 20  1  0  0  0  0
 20 21  1  0  0  0  0
 22 23  2  0  0  0  0
 22 24  1  0  0  0  0
 24 25  1  0  0  0  0
 24 26  1  0  0  0  0
 26 27  1  0  0  0  0
 26 28  1  0  0  0  0
 26 29  1  0  0  0  0
M  END
$$$$

  -OEChem-04042215593D

 29 29  0     1  0  0  0  0  0999 V2000
   -3.5566   -3.6684    1.4133 H   0  0  0  0  0  0  0  0  0  0  0  0
   -3.4622   -2.7475    0.8311 C   0  0  0  0  0  0  0  0  0  0  0  0
   -4.1986   -2.0249    1.1909 H   0  0  0  0  0  0  0  0  0  0  0  0
   -3.6643   -2.9740   -0.2185 H   0  0  0  0  0  0  0  0  0  0  0  0
   -2.0640   -2.1788    0.9797 C   0  0  0  0  0  0  0  0  0  0  0  0
   -1.2900   -2.6696    1.7852 O   0  0  0  0  0  0  0  0  0  0  0  0
   -1.6914   -1.0720    0.2460 N   0  0  0  0  0  0  0  0  0  0  0  0
   -2.4019   -0.6278   -0.3318 H   0  0  0  0  0  0  0  0  0  0  0  0
   -0.3605   -0.4463    0.2832 C   0  0  1  0  0  0  0  0  0  0  0  0
    0.2124   -0.7842    1.1522 H   0  0  0  0  0  0  0  0  0  0  0  0
    0.4014   -0.7721   -1.0158 C   0  0  0  0  0  0  0  0  0  0  0  0
   -0.2637   -0.5894   -1.8663 H   0  0  0  0  0  0  0  0  0  0  0  0
    1.2539   -0.0921   -1.1187 H   0  0  0  0  0  0  0  0  0  0  0  0
    0.9269   -2.1865   -1.0932 C   0  0  0  0  0  0  0  0  0  0  0  0
    1.0996   -2.9098   -2.2534 N   0  0  0  0  0  0  0  0  0  0  0  0
    0.9138   -2.5840   -3.1992 H   0  0  0  0  0  0  0  0  0  0  0  0
    1.5781   -4.1637   -1.9252 C   0  0  0  0  0  0  0  0  0  0  0  0
    1.8159   -4.9485   -2.6376 H   0  0  0  0  0  0  0  0  0  0  0  0
    1.7079   -4.2700   -0.6266 N   0  0  0  0  0  0  0  0  0  0  0  0
    1.2914   -3.0539   -0.0919 C   0  0  0  0  0  0  0  0  0  0  0  0
    1.2687   -2.8286    0.9701 H   0  0  0  0  0  0  0  0  0  0  0  0
   -0.5046    1.0838    0.3798 C   0  0  0  0  0  0  0  0  0  0  0  0
   -1.3069    1.6667   -0.3414 O   0  0  0  0  0  0  0  0  0  0  0  0
    0.2698    1.8081    1.2673 N   0  0  0  0  0  0  0  0  0  0  0  0
    0.8744    1.2871    1.8972 H   0  0  0  0  0  0  0  0  0  0  0  0
    0.1480    3.2504    1.4414 C   0  0  0  0  0  0  0  0  0  0  0  0
   -0.8501    3.5078    1.8107 H   0  0  0  0  0  0  0  0  0  0  0  0
    0.8883    3.6078    2.1637 H   0  0  0  0  0  0  0  0  0  0  0  0
    0.3166    3.7678    0.4911 H   0  0  0  0  0  0  0  0  0  0  0  0
  1  2  1  0  0  0  0
  2  3  1  0  0  0  0
  2  4  1  0  0  0  0
  2  5  1  0  0  0  0
  5  6  2  0  0  0  0
  5  7  1  0  0  0  0
  7  8  1  0  0  0  0
  7  9  1  0  0  0  0
  9 10  1  0  0  0  0
  9 11  1  0  0  0  0
  9 22  1  0  0  0  0
 11 12  1  0  0  0  0
 11 13  1  0  0  0  0
 11 14  1  0  0  0  0
 14 15  1  0  0  0  0
 14 20  2  0  0  0  0
 15 16  1  0  0  0  0
 15 17  1  0  0  0  0
 17 18  1  0  0  0  0
 17 19  2  0  0  0  0
 19 20  1  0  0  0  0
 20 21  1  0  0  0  0
 22 23  2  0  0  0  0
 22 24  1  0  0  0  0
 24 25  1  0  0  0  0
 24 26  1  0  0  0  0
 26 27  1  0  0  0  0
 26 28  1  0  0  0  0
 26 29  1  0  0  0  0
M  END
$$$$

  -OEChem-04042215593D

 29 29  0     1  0  0  0  0  0999 V2000
   -3.6430   -3.6106    1.4670 H   0  0  0  0  0  0  0  0  0  0  0  0
   -3.4964   -2.7467    0.8125 C   0  0  0  0  0  0  0  0  0  0  0  0
   -4.2575   -1.9969    1.0415 H   0  0  0  0  0  0  0  0  0  0  0  0
   -3.6102   -3.0688   -0.2253 H   0  0  0  0  0  0  0  0  0  0  0  0
   -2.1132   -2.1617    1.0229 C   0  0  0  0  0  0  0  0  0  0  0  0
   -1.3831   -2.6207    1.8854 O   0  0  0  0  0  0  0  0  0  0  0  0
   -1.7123   -1.0694    0.2830 N   0  0  0  0  0  0  0  0  0  0  0  0
   -2.3953   -0.6568   -0.3489 H   0  0  0  0  0  0  0  0  0  0  0  0
   -0.3753   -0.4547    0.3222 C   0  0  1  0  0  0  0  0  0  0  0  0
    0.1937   -0.7939    1.1936 H   0  0  0  0  0  0  0  0  0  0  0  0
    0.3856   -0.7914   -0.9764 C   0  0  0  0  0  0  0  0  0  0  0  0
   -0.2769   -0.6014   -1.8275 H   0  0  0  0  0  0  0  0  0  0  0  0
    1.2419   -0.1156   -1.0752 H   0  0  0  0  0  0  0  0  0  0  0  0
    0.9097   -2.2054   -1.0715 C   0  0  0  0  0  0  0  0  0  0  0  0
    1.3477   -2.8040   -2.2330 N   0  0  0  0  0  0  0  0  0  0  0  0
    1.3568   -2.3839   -3.1599 H   0  0  0  0  0  0  0  0  0  0  0  0
    1.7742   -4.0843   -1.9384 C   0  0  0  0  0  0  0  0  0  0  0  0
    2.1694   -4.7936   -2.6599 H   0  0  0  0  0  0  0  0  0  0  0  0
    1.6357   -4.3198   -0.6580 N   0  0  0  0  0  0  0  0  0  0  0  0
    1.0990   -3.1614   -0.1030 C   0  0  0  0  0  0  0  0  0  0  0  0
    0.8882   -3.0345    0.9533 H   0  0  0  0  0  0  0  0  0  0  0  0
   -0.5072    1.0780    0.3978 C   0  0  0  0  0  0  0  0  0  0  0  0
   -1.2876    1.6607   -0.3474 O   0  0  0  0  0  0  0  0  0  0  0  0
    0.2667    1.8068    1.2819 N   0  0  0  0  0  0  0  0  0  0  0  0
    0.8547    1.2886    1.9294 H   0  0  0  0  0  0  0  0  0  0  0  0
    0.1702    3.2546    1.4227 C   0  0  0  0  0  0  0  0  0  0  0  0
   -0.8332    3.5417    1.7545 H   0  0  0  0  0  0  0  0  0  0  0  0
    0.8948    3.6116    2.1606 H   0  0  0  0  0  0  0  0  0  0  0  0
    0.3800    3.7475    0.4676 H   0  0  0  0  0  0  0  0  0  0  0  0
  1  2  1  0  0  0  0
  2  3  1  0  0  0  0
  2  4  1  0  0  0  0
  2  5  1  0  0  0  0
  5  6  2  0  0  0  0
  5  7  1  0  0  0  0
  7  8  1  0  0  0  0
  7  9  1  0  0  0  0
  9 10  1  0  0  0  0
  9 11  1  0  0  0  0
  9 22  1  0  0  0  0
 11 12  1  0  0  0  0
 11 13  1  0  0  0  0
 11 14  1  0  0  0  0
 14 15  1  0  0  0  0
 14 20  2  0  0  0  0
 15 16  1  0  0  0  0
 15 17  1  0  0  0  0
 17 18  1  0  0  0  0
 17 19  2  0  0  0  0
 19 20  1  0  0  0  0
 20 21  1  0  0  0  0
 22 23  2  0  0  0  0
 22 24  1  0  0  0  0
 24 25  1  0  0  0  0
 24 26  1  0  0  0  0
 26 27  1  0  0  0  0
 26 28  1  0  0  0  0
 26 29  1  0  0  0  0
M  END
$$$$

  -OEChem-04042215593D

 29 29  0     1  0  0  0  0  0999 V2000
   -3.7445   -3.5757    1.5958 H   0  0  0  0  0  0  0  0  0  0  0  0
   -3.5921   -2.7230    0.9283 C   0  0  0  0  0  0  0  0  0  0  0  0
   -4.3649   -1.9765    1.1264 H   0  0  0  0  0  0  0  0  0  0  0  0
   -3.6813   -3.0661   -0.1052 H   0  0  0  0  0  0  0  0  0  0  0  0
   -2.2189   -2.1211    1.1566 C   0  0  0  0  0  0  0  0  0  0  0  0
   -1.5242   -2.5172    2.0787 O   0  0  0  0  0  0  0  0  0  0  0  0
   -1.7915   -1.0688    0.3749 N   0  0  0  0  0  0  0  0  0  0  0  0
   -2.4490   -0.7080   -0.3132 H   0  0  0  0  0  0  0  0  0  0  0  0
   -0.4348   -0.4933    0.3676 C   0  0  1  0  0  0  0  0  0  0  0  0
    0.1339   -0.8370    1.2378 H   0  0  0  0  0  0  0  0  0  0  0  0
    0.3339   -0.8521   -0.9269 C   0  0  0  0  0  0  0  0  0  0  0  0
   -0.2146   -0.4254   -1.7737 H   0  0  0  0  0  0  0  0  0  0  0  0
    1.3097   -0.3565   -0.8904 H   0  0  0  0  0  0  0  0  0  0  0  0
    0.5780   -2.3109   -1.2457 C   0  0  0  0  0  0  0  0  0  0  0  0
    1.2489   -2.7360   -2.3735 N   0  0  0  0  0  0  0  0  0  0  0  0
    1.6004   -2.1429   -3.1222 H   0  0  0  0  0  0  0  0  0  0  0  0
    1.3589   -4.1120   -2.3385 C   0  0  0  0  0  0  0  0  0  0  0  0
    1.8268   -4.7235   -3.1049 H   0  0  0  0  0  0  0  0  0  0  0  0
    0.8156   -4.5747   -1.2416 N   0  0  0  0  0  0  0  0  0  0  0  0
    0.3462   -3.4674   -0.5414 C   0  0  0  0  0  0  0  0  0  0  0  0
   -0.1054   -3.5326    0.4385 H   0  0  0  0  0  0  0  0  0  0  0  0
   -0.5166    1.0455    0.3947 C   0  0  0  0  0  0  0  0  0  0  0  0
   -1.2884    1.6339   -0.3548 O   0  0  0  0  0  0  0  0  0  0  0  0
    0.3002    1.7730    1.2409 N   0  0  0  0  0  0  0  0  0  0  0  0
    0.8709    1.2535    1.9026 H   0  0  0  0  0  0  0  0  0  0  0  0
    0.2496    3.2262    1.3462 C   0  0  0  0  0  0  0  0  0  0  0  0
   -0.7299    3.5496    1.7137 H   0  0  0  0  0  0  0  0  0  0  0  0
    1.0160    3.5819    2.0415 H   0  0  0  0  0  0  0  0  0  0  0  0
    0.4302    3.6881    0.3698 H   0  0  0  0  0  0  0  0  0  0  0  0
  1  2  1  0  0  0  0
  2  3  1  0  0  0  0
  2  4  1  0  0  0  0
  2  5  1  0  0  0  0
  5  6  2  0  0  0  0
  5  7  1  0  0  0  0
  7  8  1  0  0  0  0
  7  9  1  0  0  0  0
  9 10  1  0  0  0  0
  9 11  1  0  0  0  0
  9 22  1  0  0  0  0
 11 12  1  0  0  0  0
 11 13  1  0  0  0  0
 11 14  1  0  0  0  0
 14 15  1  0  0  0  0
 14 20  2  0  0  0  0
 15 16  1  0  0  0  0
 15 17  1  0  0  0  0
 17 18  1  0  0  0  0
 17 19  2  0  0  0  0
 19 20  1  0  0  0  0
 20 21  1  0  0  0  0
 22 23  2  0  0  0  0
 22 24  1  0  0  0  0
 24 25  1  0  0  0  0
 24 26  1  0  0  0  0
 26 27  1  0  0  0  0
 26 28  1  0  0  0  0
 26 29  1  0  0  0  0
M  END
$$$$

  -OEChem-04042215593D

 29 29  0     1  0  0  0  0  0999 V2000
   -3.8562   -3.4903    1.6070 H   0  0  0  0  0  0  0  0  0  0  0  0
   -3.6847   -2.6338    0.9490 C   0  0  0  0  0  0  0  0  0  0  0  0
   -4.4104   -1.8529    1.1887 H   0  0  0  0  0  0  0  0  0  0  0  0
   -3.8291   -2.9523   -0.0862 H   0  0  0  0  0  0  0  0  0  0  0  0
   -2.2756   -2.1059    1.1376 C   0  0  0  0  0  0  0  0  0  0  0  0
   -1.5652   -2.5619    2.0193 O   0  0  0  0  0  0  0  0  0  0  0  0
   -1.8205   -1.0657    0.3552 N   0  0  0  0  0  0  0  0  0  0  0  0
   -2.4818   -0.6518   -0.2992 H   0  0  0  0  0  0  0  0  0  0  0  0
   -0.4540   -0.5150    0.3640 C   0  0  1  0  0  0  0  0  0  0  0  0
    0.0890   -0.8595    1.2500 H   0  0  0  0  0  0  0  0  0  0  0  0
    0.3591   -0.8808   -0.9027 C   0  0  0  0  0  0  0  0  0  0  0  0
   -0.1460   -0.4414   -1.7700 H   0  0  0  0  0  0  0  0  0  0  0  0
    1.3348   -0.3917   -0.8156 H   0  0  0  0  0  0  0  0  0  0  0  0
    0.6185   -2.3360   -1.2345 C   0  0  0  0  0  0  0  0  0  0  0  0
    1.5685   -2.7278   -2.1555 N   0  0  0  0  0  0  0  0  0  0  0  0
    2.1511   -2.1098   -2.7159 H   0  0  0  0  0  0  0  0  0  0  0  0
    1.5973   -4.1066   -2.2166 C   0  0  0  0  0  0  0  0  0  0  0  0
    2.2423   -4.6922   -2.8657 H   0  0  0  0  0  0  0  0  0  0  0  0
    0.7293   -4.6074   -1.3760 N   0  0  0  0  0  0  0  0  0  0  0  0
    0.1260   -3.5227   -0.7464 C   0  0  0  0  0  0  0  0  0  0  0  0
   -0.6240   -3.6353    0.0224 H   0  0  0  0  0  0  0  0  0  0  0  0
   -0.5199    1.0249    0.3820 C   0  0  0  0  0  0  0  0  0  0  0  0
   -1.2840    1.6170   -0.3724 O   0  0  0  0  0  0  0  0  0  0  0  0
    0.2926    1.7481    1.2359 N   0  0  0  0  0  0  0  0  0  0  0  0
    0.8425    1.2254    1.9126 H   0  0  0  0  0  0  0  0  0  0  0  0
    0.2435    3.2012    1.3445 C   0  0  0  0  0  0  0  0  0  0  0  0
   -0.7385    3.5255    1.7046 H   0  0  0  0  0  0  0  0  0  0  0  0
    1.0046    3.5536    2.0473 H   0  0  0  0  0  0  0  0  0  0  0  0
    0.4331    3.6658    0.3711 H   0  0  0  0  0  0  0  0  0  0  0  0
  1  2  1  0  0  0  0
  2  3  1  0  0  0  0
  2  4  1  0  0  0  0
  2  5  1  0  0  0  0
  5  6  2  0  0  0  0
  5  7  1  0  0  0  0
  7  8  1  0  0  0  0
  7  9  1  0  0  0  0
  9 10  1  0  0  0  0
  9 11  1  0  0  0  0
  9 22  1  0  0  0  0
 11 12  1  0  0  0  0
 11 13  1  0  0  0  0
 11 14  1  0  0  0  0
 14 15  1  0  0  0  0
 14 20  2  0  0  0  0
 15 16  1  0  0  0  0
 15 17  1  0  0  0  0
 17 18  1  0  0  0  0
 17 19  2  0  0  0  0
 19 20  1  0  0  0  0
 20 21  1  0  0  0  0
 22 23  2  0  0  0  0
 22 24  1  0  0  0  0
 24 25  1  0  0  0  0
 24 26  1  0  0  0  0
 26 27  1  0  0  0  0
 26 28  1  0  0  0  0
 26 29  1  0  0  0  0
M  END
$$$$

  -OEChem-04042215593D

 29 29  0     1  0  0  0  0  0999 V2000
   -3.8512   -3.4745    1.6377 H   0  0  0  0  0  0  0  0  0  0  0  0
   -3.6932   -2.6026    0.9967 C   0  0  0  0  0  0  0  0  0  0  0  0
   -4.3781   -1.8092    1.3052 H   0  0  0  0  0  0  0  0  0  0  0  0
   -3.9112   -2.8827   -0.0367 H   0  0  0  0  0  0  0  0  0  0  0  0
   -2.2586   -2.1235    1.1119 C   0  0  0  0  0  0  0  0  0  0  0  0
   -1.5019   -2.6501    1.9113 O   0  0  0  0  0  0  0  0  0  0  0  0
   -1.8207   -1.0713    0.3342 N   0  0  0  0  0  0  0  0  0  0  0  0
   -2.5099   -0.6023   -0.2509 H   0  0  0  0  0  0  0  0  0  0  0  0
   -0.4561   -0.5174    0.3385 C   0  0  1  0  0  0  0  0  0  0  0  0
    0.0852   -0.8620    1.2255 H   0  0  0  0  0  0  0  0  0  0  0  0
    0.3734   -0.8743   -0.9197 C   0  0  0  0  0  0  0  0  0  0  0  0
   -0.1186   -0.4377   -1.7959 H   0  0  0  0  0  0  0  0  0  0  0  0
    1.3460   -0.3813   -0.8186 H   0  0  0  0  0  0  0  0  0  0  0  0
    0.6376   -2.3326   -1.2335 C   0  0  0  0  0  0  0  0  0  0  0  0
    1.7694   -2.7709   -1.8897 N   0  0  0  0  0  0  0  0  0  0  0  0
    2.5368   -2.1888   -2.2178 H   0  0  0  0  0  0  0  0  0  0  0  0
    1.6994   -4.1416   -2.0410 C   0  0  0  0  0  0  0  0  0  0  0  0
    2.4538   -4.7579   -2.5214 H   0  0  0  0  0  0  0  0  0  0  0  0
    0.5854   -4.5919   -1.5236 N   0  0  0  0  0  0  0  0  0  0  0  0
   -0.0819   -3.4825   -1.0138 C   0  0  0  0  0  0  0  0  0  0  0  0
   -1.0528   -3.5451   -0.5427 H   0  0  0  0  0  0  0  0  0  0  0  0
   -0.5293    1.0213    0.3744 C   0  0  0  0  0  0  0  0  0  0  0  0
   -1.3133    1.6164   -0.3567 O   0  0  0  0  0  0  0  0  0  0  0  0
    0.2860    1.7397    1.2296 N   0  0  0  0  0  0  0  0  0  0  0  0
    0.8607    1.2130    1.8822 H   0  0  0  0  0  0  0  0  0  0  0  0
    0.2270    3.1906    1.3577 C   0  0  0  0  0  0  0  0  0  0  0  0
   -0.7534    3.5022    1.7330 H   0  0  0  0  0  0  0  0  0  0  0  0
    0.9932    3.5399    2.0564 H   0  0  0  0  0  0  0  0  0  0  0  0
    0.4016    3.6689    0.3881 H   0  0  0  0  0  0  0  0  0  0  0  0
  1  2  1  0  0  0  0
  2  3  1  0  0  0  0
  2  4  1  0  0  0  0
  2  5  1  0  0  0  0
  5  6  2  0  0  0  0
  5  7  1  0  0  0  0
  7  8  1  0  0  0  0
  7  9  1  0  0  0  0
  9 10  1  0  0  0  0
  9 11  1  0  0  0  0
  9 22  1  0  0  0  0
 11 12  1  0  0  0  0
 11 13  1  0  0  0  0
 11 14  1  0  0  0  0
 14 15  1  0  0  0  0
 14 20  2  0  0  0  0
 15 16  1  0  0  0  0
 15 17  1  0  0  0  0
 17 18  1  0  0  0  0
 17 19  2  0  0  0  0
 19 20  1  0  0  0  0
 20 21  1  0  0  0  0
 22 23  2  0  0  0  0
 22 24  1  0  0  0  0
 24 25  1  0  0  0  0
 24 26  1  0  0  0  0
 26 27  1  0  0  0  0
 26 28  1  0  0  0  0
 26 29  1  0  0  0  0
M  END
$$$$

  -OEChem-04042215593D

 29 29  0     1  0  0  0  0  0999 V2000
   -3.7511   -3.5479    1.5847 H   0  0  0  0  0  0  0  0  0  0  0  0
   -3.6237   -2.6513    0.9717 C   0  0  0  0  0  0  0  0  0  0  0  0
   -4.3170   -1.8827    1.3214 H   0  0  0  0  0  0  0  0  0  0  0  0
   -3.8577   -2.9000   -0.0663 H   0  0  0  0  0  0  0  0  0  0  0  0
   -2.1967   -2.1476    1.0746 C   0  0  0  0  0  0  0  0  0  0  0  0
   -1.4170   -2.6796    1.8477 O   0  0  0  0  0  0  0  0  0  0  0  0
   -1.7923   -1.0714    0.3105 N   0  0  0  0  0  0  0  0  0  0  0  0
   -2.4998   -0.5986   -0.2491 H   0  0  0  0  0  0  0  0  0  0  0  0
   -0.4382   -0.4931    0.3140 C   0  0  1  0  0  0  0  0  0  0  0  0
    0.1136   -0.8411    1.1932 H   0  0  0  0  0  0  0  0  0  0  0  0
    0.3803   -0.8426   -0.9506 C   0  0  0  0  0  0  0  0  0  0  0  0
   -0.1312   -0.4278   -1.8260 H   0  0  0  0  0  0  0  0  0  0  0  0
    1.3512   -0.3421   -0.8781 H   0  0  0  0  0  0  0  0  0  0  0  0
    0.6269   -2.3115   -1.2141 C   0  0  0  0  0  0  0  0  0  0  0  0
    1.8367   -2.8602   -1.5843 N   0  0  0  0  0  0  0  0  0  0  0  0
    2.7202   -2.3643   -1.6751 H   0  0  0  0  0  0  0  0  0  0  0  0
    1.6606   -4.2108   -1.8163 C   0  0  0  0  0  0  0  0  0  0  0  0
    2.4452   -4.9025   -2.1097 H   0  0  0  0  0  0  0  0  0  0  0  0
    0.4052   -4.5374   -1.6394 N   0  0  0  0  0  0  0  0  0  0  0  0
   -0.2493   -3.3670   -1.2701 C   0  0  0  0  0  0  0  0  0  0  0  0
   -1.3175   -3.3045   -1.0973 H   0  0  0  0  0  0  0  0  0  0  0  0
   -0.5290    1.0433    0.3788 C   0  0  0  0  0  0  0  0  0  0  0  0
   -1.3310    1.6394   -0.3315 O   0  0  0  0  0  0  0  0  0  0  0  0
    0.2843    1.7582    1.2393 N   0  0  0  0  0  0  0  0  0  0  0  0
    0.8725    1.2288    1.8773 H   0  0  0  0  0  0  0  0  0  0  0  0
    0.2043    3.2057    1.3953 C   0  0  0  0  0  0  0  0  0  0  0  0
   -0.7788    3.4953    1.7811 H   0  0  0  0  0  0  0  0  0  0  0  0
    0.9686    3.5536    2.0970 H   0  0  0  0  0  0  0  0  0  0  0  0
    0.3669    3.7052    0.4343 H   0  0  0  0  0  0  0  0  0  0  0  0
  1  2  1  0  0  0  0
  2  3  1  0  0  0  0
  2  4  1  0  0  0  0
  2  5  1  0  0  0  0
  5  6  2  0  0  0  0
  5  7  1  0  0  0  0
  7  8  1  0  0  0  0
  7  9  1  0  0  0  0
  9 10  1  0  0  0  0
  9 11  1  0  0  0  0
  9 22  1  0  0  0  0
 11 12  1  0  0  0  0
 11 13  1  0  0  0  0
 11 14  1  0  0  0  0
 14 15  1  0  0  0  0
 14 20  2  0  0  0  0
 15 16  1  0  0  0  0
 15 17  1  0  0  0  0
 17 18  1  0  0  0  0
 17 19  2  0  0  0  0
 19 20  1  0  0  0  0
 20 21  1  0  0  0  0
 22 23  2  0  0  0  0
 22 24  1  0  0  0  0
 24 25  1  0  0  0  0
 24 26  1  0  0  0  0
 26 27  1  0  0  0  0
 26 28  1  0  0  0  0
 26 29  1  0  0  0  0
M  END
$$$$

  -OEChem-04042215593D

 29 29  0     1  0  0  0  0  0999 V2000
   -3.6479   -3.6233    1.5193 H   0  0  0  0  0  0  0  0  0  0  0  0
   -3.5495   -2.7115    0.9233 C   0  0  0  0  0  0  0  0  0  0  0  0
   -4.2688   -1.9730    1.2848 H   0  0  0  0  0  0  0  0  0  0  0  0
   -3.7722   -2.9489   -0.1198 H   0  0  0  0  0  0  0  0  0  0  0  0
   -2.1403   -2.1634    1.0403 C   0  0  0  0  0  0  0  0  0  0  0  0
   -1.3497   -2.6781    1.8146 O   0  0  0  0  0  0  0  0  0  0  0  0
   -1.7650   -1.0678    0.2890 N   0  0  0  0  0  0  0  0  0  0  0  0
   -2.4824   -0.6072   -0.2677 H   0  0  0  0  0  0  0  0  0  0  0  0
   -0.4212   -0.4669    0.2947 C   0  0  1  0  0  0  0  0  0  0  0  0
    0.1441   -0.8185    1.1638 H   0  0  0  0  0  0  0  0  0  0  0  0
    0.3740   -0.8121   -0.9822 C   0  0  0  0  0  0  0  0  0  0  0  0
   -0.1637   -0.4146   -1.8501 H   0  0  0  0  0  0  0  0  0  0  0  0
    1.3464   -0.3109   -0.9465 H   0  0  0  0  0  0  0  0  0  0  0  0
    0.5950   -2.2904   -1.1986 C   0  0  0  0  0  0  0  0  0  0  0  0
    1.8060   -2.9426   -1.2852 N   0  0  0  0  0  0  0  0  0  0  0  0
    2.7248   -2.5324   -1.1367 H   0  0  0  0  0  0  0  0  0  0  0  0
    1.5694   -4.2708   -1.5875 C   0  0  0  0  0  0  0  0  0  0  0  0
    2.3365   -5.0315   -1.7002 H   0  0  0  0  0  0  0  0  0  0  0  0
    0.2838   -4.4816   -1.7273 N   0  0  0  0  0  0  0  0  0  0  0  0
   -0.3322   -3.2568   -1.4959 C   0  0  0  0  0  0  0  0  0  0  0  0
   -1.4017   -3.0875   -1.5711 H   0  0  0  0  0  0  0  0  0  0  0  0
   -0.5273    1.0664    0.3834 C   0  0  0  0  0  0  0  0  0  0  0  0
   -1.3348    1.6645   -0.3186 O   0  0  0  0  0  0  0  0  0  0  0  0
    0.2828    1.7771    1.2500 N   0  0  0  0  0  0  0  0  0  0  0  0
    0.8733    1.2443    1.8829 H   0  0  0  0  0  0  0  0  0  0  0  0
    0.1928    3.2222    1.4221 C   0  0  0  0  0  0  0  0  0  0  0  0
   -0.7910    3.5010    1.8141 H   0  0  0  0  0  0  0  0  0  0  0  0
    0.9571    3.5678    2.1249 H   0  0  0  0  0  0  0  0  0  0  0  0
    0.3488    3.7331    0.4660 H   0  0  0  0  0  0  0  0  0  0  0  0
  1  2  1  0  0  0  0
  2  3  1  0  0  0  0
  2  4  1  0  0  0  0
  2  5  1  0  0  0  0
  5  6  2  0  0  0  0
  5  7  1  0  0  0  0
  7  8  1  0  0  0  0
  7  9  1  0  0  0  0
  9 10  1  0  0  0  0
  9 11  1  0  0  0  0
  9 22  1  0  0  0  0
 11 12  1  0  0  0  0
 11 13  1  0  0  0  0
 11 14  1  0  0  0  0
 14 15  1  0  0  0  0
 14 20  2  0  0  0  0
 15 16  1  0  0  0  0
 15 17  1  0  0  0  0
 17 18  1  0  0  0  0
 17 19  2  0  0  0  0
 19 20  1  0  0  0  0
 20 21  1  0  0  0  0
 22 23  2  0  0  0  0
 22 24  1  0  0  0  0
 24 25  1  0  0  0  0
 24 26  1  0  0  0  0
 26 27  1  0  0  0  0
 26 28  1  0  0  0  0
 26 29  1  0  0  0  0
M  END
$$$$

  -OEChem-04042215593D

 29 29  0     1  0  0  0  0  0999 V2000
   -3.5855   -3.6629    1.4815 H   0  0  0  0  0  0  0  0  0  0  0  0
   -3.5001   -2.7492    0.8866 C   0  0  0  0  0  0  0  0  0  0  0  0
   -4.2360   -2.0247    1.2435 H   0  0  0  0  0  0  0  0  0  0  0  0
   -3.7106   -2.9900   -0.1582 H   0  0  0  0  0  0  0  0  0  0  0  0
   -2.1024   -2.1744    1.0129 C   0  0  0  0  0  0  0  0  0  0  0  0
   -1.3052   -2.6778    1.7886 O   0  0  0  0  0  0  0  0  0  0  0  0
   -1.7476   -1.0654    0.2712 N   0  0  0  0  0  0  0  0  0  0  0  0
   -2.4704   -0.6179   -0.2888 H   0  0  0  0  0  0  0  0  0  0  0  0
   -0.4104   -0.4501    0.2761 C   0  0  1  0  0  0  0  0  0  0  0  0
    0.1663   -0.8070    1.1353 H   0  0  0  0  0  0  0  0  0  0  0  0
    0.3614   -0.7914   -1.0130 C   0  0  0  0  0  0  0  0  0  0  0  0
   -0.1955   -0.4021   -1.8726 H   0  0  0  0  0  0  0  0  0  0  0  0
    1.3366   -0.2944   -1.0052 H   0  0  0  0  0  0  0  0  0  0  0  0
    0.5602   -2.2751   -1.1966 C   0  0  0  0  0  0  0  0  0  0  0  0
    1.7142   -3.0034   -1.0102 N   0  0  0  0  0  0  0  0  0  0  0  0
    2.5940   -2.6574   -0.6349 H   0  0  0  0  0  0  0  0  0  0  0  0
    1.4653   -4.3144   -1.3732 C   0  0  0  0  0  0  0  0  0  0  0  0
    2.1847   -5.1261   -1.3121 H   0  0  0  0  0  0  0  0  0  0  0  0
    0.2353   -4.4395   -1.8096 N   0  0  0  0  0  0  0  0  0  0  0  0
   -0.3353   -3.1759   -1.7119 C   0  0  0  0  0  0  0  0  0  0  0  0
   -1.3485   -2.9334   -2.0172 H   0  0  0  0  0  0  0  0  0  0  0  0
   -0.5237    1.0813    0.3834 C   0  0  0  0  0  0  0  0  0  0  0  0
   -1.3353    1.6833   -0.3105 O   0  0  0  0  0  0  0  0  0  0  0  0
    0.2879    1.7865    1.2531 N   0  0  0  0  0  0  0  0  0  0  0  0
    0.8831    1.2500    1.8783 H   0  0  0  0  0  0  0  0  0  0  0  0
    0.1907    3.2291    1.4412 C   0  0  0  0  0  0  0  0  0  0  0  0
   -0.7953    3.4981    1.8344 H   0  0  0  0  0  0  0  0  0  0  0  0
    0.9519    3.5705    2.1495 H   0  0  0  0  0  0  0  0  0  0  0  0
    0.3459    3.7512    0.4911 H   0  0  0  0  0  0  0  0  0  0  0  0
  1  2  1  0  0  0  0
  2  3  1  0  0  0  0
  2  4  1  0  0  0  0
  2  5  1  0  0  0  0
  5  6  2  0  0  0  0
  5  7  1  0  0  0  0
  7  8  1  0  0  0  0
  7  9  1  0  0  0  0
  9 10  1  0  0  0  0
  9 11  1  0  0  0  0
  9 22  1  0  0  0  0
 11 12  1  0  0  0  0
 11 13  1  0  0  0  0
 11 14  1  0  0  0  0
 14 15  1  0  0  0  0
 14 20  2  0  0  0  0
 15 16  1  0  0  0  0
 15 17  1  0  0  0  0
 17 18  1  0  0  0  0
 17 19  2  0  0  0  0
 19 20  1  0  0  0  0
 20 21  1  0  0  0  0
 22 23  2  0  0  0  0
 22 24  1  0  0  0  0
 24 25  1  0  0  0  0
 24 26  1  0  0  0  0
 26 27  1  0  0  0  0
 26 28  1  0  0  0  0
 26 29  1  0  0  0  0
M  END
$$$$

  -OEChem-04042215593D

 29 29  0     1  0  0  0  0  0999 V2000
   -3.5495   -3.6846    1.4534 H   0  0  0  0  0  0  0  0  0  0  0  0
   -3.4713   -2.7694    0.8600 C   0  0  0  0  0  0  0  0  0  0  0  0
   -4.2164   -2.0532    1.2142 H   0  0  0  0  0  0  0  0  0  0  0  0
   -3.6744   -3.0114   -0.1860 H   0  0  0  0  0  0  0  0  0  0  0  0
   -2.0803   -2.1798    0.9926 C   0  0  0  0  0  0  0  0  0  0  0  0
   -1.2783   -2.6802    1.7663 O   0  0  0  0  0  0  0  0  0  0  0  0
   -1.7359   -1.0627    0.2581 N   0  0  0  0  0  0  0  0  0  0  0  0
   -2.4597   -0.6231   -0.3066 H   0  0  0  0  0  0  0  0  0  0  0  0
   -0.4013   -0.4419    0.2631 C   0  0  1  0  0  0  0  0  0  0  0  0
    0.1840   -0.8037    1.1145 H   0  0  0  0  0  0  0  0  0  0  0  0
    0.3511   -0.7792   -1.0364 C   0  0  0  0  0  0  0  0  0  0  0  0
   -0.2140   -0.3859   -1.8886 H   0  0  0  0  0  0  0  0  0  0  0  0
    1.3313   -0.2919   -1.0405 H   0  0  0  0  0  0  0  0  0  0  0  0
    0.5318   -2.2657   -1.2061 C   0  0  0  0  0  0  0  0  0  0  0  0
    1.5734   -3.0531   -0.7694 N   0  0  0  0  0  0  0  0  0  0  0  0
    2.3496   -2.7579   -0.1821 H   0  0  0  0  0  0  0  0  0  0  0  0
    1.3420   -4.3501   -1.1887 C   0  0  0  0  0  0  0  0  0  0  0  0
    1.9825   -5.1995   -0.9697 H   0  0  0  0  0  0  0  0  0  0  0  0
    0.2383   -4.4100   -1.8947 N   0  0  0  0  0  0  0  0  0  0  0  0
   -0.2717   -3.1171   -1.9185 C   0  0  0  0  0  0  0  0  0  0  0  0
   -1.1806   -2.8221   -2.4345 H   0  0  0  0  0  0  0  0  0  0  0  0
   -0.5179    1.0882    0.3833 C   0  0  0  0  0  0  0  0  0  0  0  0
   -1.3319    1.6929   -0.3053 O   0  0  0  0  0  0  0  0  0  0  0  0
    0.2940    1.7909    1.2548 N   0  0  0  0  0  0  0  0  0  0  0  0
    0.8954    1.2533    1.8730 H   0  0  0  0  0  0  0  0  0  0  0  0
    0.1922    3.2322    1.4519 C   0  0  0  0  0  0  0  0  0  0  0  0
   -0.7944    3.4966    1.8469 H   0  0  0  0  0  0  0  0  0  0  0  0
    0.9522    3.5717    2.1623 H   0  0  0  0  0  0  0  0  0  0  0  0
    0.3457    3.7607    0.5050 H   0  0  0  0  0  0  0  0  0  0  0  0
  1  2  1  0  0  0  0
  2  3  1  0  0  0  0
  2  4  1  0  0  0  0
  2  5  1  0  0  0  0
  5  6  2  0  0  0  0
  5  7  1  0  0  0  0
  7  8  1  0  0  0  0
  7  9  1  0  0  0  0
  9 10  1  0  0  0  0
  9 11  1  0  0  0  0
  9 22  1  0  0  0  0
 11 12  1  0  0  0  0
 11 13  1  0  0  0  0
 11 14  1  0  0  0  0
 14 15  1  0  0  0  0
 14 20  2  0  0  0  0
 15 16  1  0  0  0  0
 15 17  1  0  0  0  0
 17 18  1  0  0  0  0
 17 19  2  0  0  0  0
 19 20  1  0  0  0  0
 20 21  1  0  0  0  0
 22 23  2  0  0  0  0
 22 24  1  0  0  0  0
 24 25  1  0  0  0  0
 24 26  1  0  0  0  0
 26 27  1  0  0  0  0
 26 28  1  0  0  0  0
 26 29  1  0  0  0  0
M  END
$$$$

  -OEChem-04042215593D

 29 29  0     1  0  0  0  0  0999 V2000
   -3.5344   -3.6915    1.4351 H   0  0  0  0  0  0  0  0  0  0  0  0
   -3.4583   -2.7754    0.8428 C   0  0  0  0  0  0  0  0  0  0  0  0
   -4.2037   -2.0604    1.1988 H   0  0  0  0  0  0  0  0  0  0  0  0
   -3.6631   -3.0157   -0.2032 H   0  0  0  0  0  0  0  0  0  0  0  0
   -2.0680   -2.1837    0.9733 C   0  0  0  0  0  0  0  0  0  0  0  0
   -1.2590   -2.6896    1.7371 O   0  0  0  0  0  0  0  0  0  0  0  0
   -1.7318   -1.0600    0.2451 N   0  0  0  0  0  0  0  0  0  0  0  0
   -2.4577   -0.6233   -0.3190 H   0  0  0  0  0  0  0  0  0  0  0  0
   -0.3991   -0.4364    0.2474 C   0  0  1  0  0  0  0  0  0  0  0  0
    0.1909   -0.8016    1.0935 H   0  0  0  0  0  0  0  0  0  0  0  0
    0.3418   -0.7716   -1.0583 C   0  0  0  0  0  0  0  0  0  0  0  0
   -0.2247   -0.3741   -1.9078 H   0  0  0  0  0  0  0  0  0  0  0  0
    1.3251   -0.2907   -1.0648 H   0  0  0  0  0  0  0  0  0  0  0  0
    0.5145   -2.2598   -1.2215 C   0  0  0  0  0  0  0  0  0  0  0  0
    1.3915   -3.0931   -0.5640 N   0  0  0  0  0  0  0  0  0  0  0  0
    1.9977   -2.8400    0.2128 H   0  0  0  0  0  0  0  0  0  0  0  0
    1.2059   -4.3780   -1.0387 C   0  0  0  0  0  0  0  0  0  0  0  0
    1.7384   -5.2558   -0.6846 H   0  0  0  0  0  0  0  0  0  0  0  0
    0.2930   -4.3879   -1.9807 N   0  0  0  0  0  0  0  0  0  0  0  0
   -0.1424   -3.0738   -2.1062 C   0  0  0  0  0  0  0  0  0  0  0  0
   -0.9023   -2.7405   -2.8065 H   0  0  0  0  0  0  0  0  0  0  0  0
   -0.5157    1.0928    0.3798 C   0  0  0  0  0  0  0  0  0  0  0  0
   -1.3367    1.7020   -0.2964 O   0  0  0  0  0  0  0  0  0  0  0  0
    0.3013    1.7888    1.2522 N   0  0  0  0  0  0  0  0  0  0  0  0
    0.9110    1.2471    1.8584 H   0  0  0  0  0  0  0  0  0  0  0  0
    0.1994    3.2281    1.4630 C   0  0  0  0  0  0  0  0  0  0  0  0
   -0.7878    3.4889    1.8588 H   0  0  0  0  0  0  0  0  0  0  0  0
    0.9579    3.5601    2.1782 H   0  0  0  0  0  0  0  0  0  0  0  0
    0.3548    3.7658    0.5218 H   0  0  0  0  0  0  0  0  0  0  0  0
  1  2  1  0  0  0  0
  2  3  1  0  0  0  0
  2  4  1  0  0  0  0
  2  5  1  0  0  0  0
  5  6  2  0  0  0  0
  5  7  1  0  0  0  0
  7  8  1  0  0  0  0
  7  9  1  0  0  0  0
  9 10  1  0  0  0  0
  9 11  1  0  0  0  0
  9 22  1  0  0  0  0
 11 12  1  0  0  0  0
 11 13  1  0  0  0  0
 11 14  1  0  0  0  0
 14 15  1  0  0  0  0
 14 20  2  0  0  0  0
 15 16  1  0  0  0  0
 15 17  1  0  0  0  0
 17 18  1  0  0  0  0
 17 19  2  0  0  0  0
 19 20  1  0  0  0  0
 20 21  1  0  0  0  0
 22 23  2  0  0  0  0
 22 24  1  0  0  0  0
 24 25  1  0  0  0  0
 24 26  1  0  0  0  0
 26 27  1  0  0  0  0
 26 28  1  0  0  0  0
 26 29  1  0  0  0  0
M  END
$$$$

  -OEChem-04042215593D

 29 29  0     1  0  0  0  0  0999 V2000
   -3.5332   -3.6886    1.4353 H   0  0  0  0  0  0  0  0  0  0  0  0
   -3.4575   -2.7734    0.8415 C   0  0  0  0  0  0  0  0  0  0  0  0
   -4.1998   -2.0564    1.2001 H   0  0  0  0  0  0  0  0  0  0  0  0
   -3.6671   -3.0146   -0.2035 H   0  0  0  0  0  0  0  0  0  0  0  0
   -2.0657   -2.1843    0.9651 C   0  0  0  0  0  0  0  0  0  0  0  0
   -1.2490   -2.6985    1.7166 O   0  0  0  0  0  0  0  0  0  0  0  0
   -1.7331   -1.0584    0.2392 N   0  0  0  0  0  0  0  0  0  0  0  0
   -2.4604   -0.6209   -0.3227 H   0  0  0  0  0  0  0  0  0  0  0  0
   -0.4005   -0.4359    0.2404 C   0  0  1  0  0  0  0  0  0  0  0  0
    0.1904   -0.8012    1.0855 H   0  0  0  0  0  0  0  0  0  0  0  0
    0.3377   -0.7697   -1.0667 C   0  0  0  0  0  0  0  0  0  0  0  0
   -0.2213   -0.3647   -1.9175 H   0  0  0  0  0  0  0  0  0  0  0  0
    1.3239   -0.2946   -1.0639 H   0  0  0  0  0  0  0  0  0  0  0  0
    0.5096   -2.2580   -1.2353 C   0  0  0  0  0  0  0  0  0  0  0  0
    1.1698   -3.1393   -0.4076 N   0  0  0  0  0  0  0  0  0  0  0  0
    1.5253   -2.9361    0.5244 H   0  0  0  0  0  0  0  0  0  0  0  0
    1.0589   -4.4063   -0.9482 C   0  0  0  0  0  0  0  0  0  0  0  0
    1.4525   -5.3127   -0.4971 H   0  0  0  0  0  0  0  0  0  0  0  0
    0.4035   -4.3605   -2.0838 N   0  0  0  0  0  0  0  0  0  0  0  0
    0.0575   -3.0277   -2.2743 C   0  0  0  0  0  0  0  0  0  0  0  0
   -0.5018   -2.6516   -3.1255 H   0  0  0  0  0  0  0  0  0  0  0  0
   -0.5158    1.0931    0.3781 C   0  0  0  0  0  0  0  0  0  0  0  0
   -1.3421    1.7046   -0.2893 O   0  0  0  0  0  0  0  0  0  0  0  0
    0.3037    1.7859    1.2507 N   0  0  0  0  0  0  0  0  0  0  0  0
    0.9233    1.2432    1.8456 H   0  0  0  0  0  0  0  0  0  0  0  0
    0.2047    3.2246    1.4658 C   0  0  0  0  0  0  0  0  0  0  0  0
   -0.7826    3.4860    1.8609 H   0  0  0  0  0  0  0  0  0  0  0  0
    0.9629    3.5529    2.1833 H   0  0  0  0  0  0  0  0  0  0  0  0
    0.3625    3.7649    0.5263 H   0  0  0  0  0  0  0  0  0  0  0  0
  1  2  1  0  0  0  0
  2  3  1  0  0  0  0
  2  4  1  0  0  0  0
  2  5  1  0  0  0  0
  5  6  2  0  0  0  0
  5  7  1  0  0  0  0
  7  8  1  0  0  0  0
  7  9  1  0  0  0  0
  9 10  1  0  0  0  0
  9 11  1  0  0  0  0
  9 22  1  0  0  0  0
 11 12  1  0  0  0  0
 11 13  1  0  0  0  0
 11 14  1  0  0  0  0
 14 15  1  0  0  0  0
 14 20  2  0  0  0  0
 15 16  1  0  0  0  0
 15 17  1  0  0  0  0
 17 18  1  0  0  0  0
 17 19  2  0  0  0  0
 19 20  1  0  0  0  0
 20 21  1  0  0  0  0
 22 23  2  0  0  0  0
 22 24  1  0  0  0  0
 24 25  1  0  0  0  0
 24 26  1  0  0  0  0
 26 27  1  0  0  0  0
 26 28  1  0  0  0  0
 26 29  1  0  0  0  0
M  END
$$$$

  -OEChem-04042215593D

 29 29  0     1  0  0  0  0  0999 V2000
   -3.5715   -3.6576    1.4809 H   0  0  0  0  0  0  0  0  0  0  0  0
   -3.4838   -2.7585    0.8645 C   0  0  0  0  0  0  0  0  0  0  0  0
   -4.2151   -2.0225    1.2071 H   0  0  0  0  0  0  0  0  0  0  0  0
   -3.7001   -3.0220   -0.1738 H   0  0  0  0  0  0  0  0  0  0  0  0
   -2.0834   -2.1859    0.9702 C   0  0  0  0  0  0  0  0  0  0  0  0
   -1.2602   -2.7143    1.7063 O   0  0  0  0  0  0  0  0  0  0  0  0
   -1.7456   -1.0621    0.2434 N   0  0  0  0  0  0  0  0  0  0  0  0
   -2.4753   -0.6124   -0.3061 H   0  0  0  0  0  0  0  0  0  0  0  0
   -0.4108   -0.4435    0.2443 C   0  0  1  0  0  0  0  0  0  0  0  0
    0.1777   -0.8070    1.0920 H   0  0  0  0  0  0  0  0  0  0  0  0
    0.3352   -0.7744   -1.0600 C   0  0  0  0  0  0  0  0  0  0  0  0
   -0.2120   -0.3602   -1.9142 H   0  0  0  0  0  0  0  0  0  0  0  0
    1.3221   -0.3009   -1.0386 H   0  0  0  0  0  0  0  0  0  0  0  0
    0.5173   -2.2600   -1.2487 C   0  0  0  0  0  0  0  0  0  0  0  0
    0.9225   -3.1941   -0.3202 N   0  0  0  0  0  0  0  0  0  0  0  0
    0.9573   -3.0497    0.6892 H   0  0  0  0  0  0  0  0  0  0  0  0
    0.9309   -4.4338   -0.9292 C   0  0  0  0  0  0  0  0  0  0  0  0
    1.1695   -5.3695   -0.4319 H   0  0  0  0  0  0  0  0  0  0  0  0
    0.5938   -4.3227   -2.1922 N   0  0  0  0  0  0  0  0  0  0  0  0
    0.3336   -2.9733   -2.4035 C   0  0  0  0  0  0  0  0  0  0  0  0
    0.0202   -2.5471   -3.3520 H   0  0  0  0  0  0  0  0  0  0  0  0
   -0.5226    1.0864    0.3800 C   0  0  0  0  0  0  0  0  0  0  0  0
   -1.3508    1.6982   -0.2848 O   0  0  0  0  0  0  0  0  0  0  0  0
    0.2981    1.7789    1.2518 N   0  0  0  0  0  0  0  0  0  0  0  0
    0.9296    1.2378    1.8359 H   0  0  0  0  0  0  0  0  0  0  0  0
    0.2125    3.2203    1.4557 C   0  0  0  0  0  0  0  0  0  0  0  0
   -0.7715    3.4935    1.8510 H   0  0  0  0  0  0  0  0  0  0  0  0
    0.9753    3.5475    2.1689 H   0  0  0  0  0  0  0  0  0  0  0  0
    0.3733    3.7520    0.5119 H   0  0  0  0  0  0  0  0  0  0  0  0
  1  2  1  0  0  0  0
  2  3  1  0  0  0  0
  2  4  1  0  0  0  0
  2  5  1  0  0  0  0
  5  6  2  0  0  0  0
  5  7  1  0  0  0  0
  7  8  1  0  0  0  0
  7  9  1  0  0  0  0
  9 10  1  0  0  0  0
  9 11  1  0  0  0  0
  9 22  1  0  0  0  0
 11 12  1  0  0  0  0
 11 13  1  0  0  0  0
 11 14  1  0  0  0  0
 14 15  1  0  0  0  0
 14 20  2  0  0  0  0
 15 16  1  0  0  0  0
 15 17  1  0  0  0  0
 17 18  1  0  0  0  0
 17 19  2  0  0  0  0
 19 20  1  0  0  0  0
 20 21  1  0  0  0  0
 22 23  2  0  0  0  0
 22 24  1  0  0  0  0
 24 25  1  0  0  0  0
 24 26  1  0  0  0  0
 26 27  1  0  0  0  0
 26 28  1  0  0  0  0
 26 29  1  0  0  0  0
M  END
$$$$

  -OEChem-04042215593D

 29 29  0     1  0  0  0  0  0999 V2000
   -3.6370   -3.6169    1.5122 H   0  0  0  0  0  0  0  0  0  0  0  0
   -3.5316   -2.7238    0.8901 C   0  0  0  0  0  0  0  0  0  0  0  0
   -4.2458   -1.9703    1.2304 H   0  0  0  0  0  0  0  0  0  0  0  0
   -3.7570   -2.9883   -0.1460 H   0  0  0  0  0  0  0  0  0  0  0  0
   -2.1190   -2.1809    0.9884 C   0  0  0  0  0  0  0  0  0  0  0  0
   -1.3017   -2.7280    1.7176 O   0  0  0  0  0  0  0  0  0  0  0  0
   -1.7607   -1.0662    0.2585 N   0  0  0  0  0  0  0  0  0  0  0  0
   -2.4869   -0.6037   -0.2854 H   0  0  0  0  0  0  0  0  0  0  0  0
   -0.4217   -0.4544    0.2548 C   0  0  1  0  0  0  0  0  0  0  0  0
    0.1626   -0.8162    1.1064 H   0  0  0  0  0  0  0  0  0  0  0  0
    0.3326   -0.7883   -1.0463 C   0  0  0  0  0  0  0  0  0  0  0  0
   -0.2083   -0.3694   -1.9021 H   0  0  0  0  0  0  0  0  0  0  0  0
    1.3168   -0.3102   -1.0142 H   0  0  0  0  0  0  0  0  0  0  0  0
    0.5326   -2.2690   -1.2609 C   0  0  0  0  0  0  0  0  0  0  0  0
    0.6688   -3.2603   -0.3136 N   0  0  0  0  0  0  0  0  0  0  0  0
    0.4545   -3.1616    0.6827 H   0  0  0  0  0  0  0  0  0  0  0  0
    0.8188   -4.4685   -0.9646 C   0  0  0  0  0  0  0  0  0  0  0  0
    0.9161   -5.4328   -0.4739 H   0  0  0  0  0  0  0  0  0  0  0  0
    0.8106   -4.2867   -2.2639 N   0  0  0  0  0  0  0  0  0  0  0  0
    0.6310   -2.9217   -2.4612 C   0  0  0  0  0  0  0  0  0  0  0  0
    0.5729   -2.4419   -3.4337 H   0  0  0  0  0  0  0  0  0  0  0  0
   -0.5282    1.0770    0.3789 C   0  0  0  0  0  0  0  0  0  0  0  0
   -1.3586    1.6860   -0.2857 O   0  0  0  0  0  0  0  0  0  0  0  0
    0.2953    1.7717    1.2460 N   0  0  0  0  0  0  0  0  0  0  0  0
    0.9343    1.2327    1.8239 H   0  0  0  0  0  0  0  0  0  0  0  0
    0.2148    3.2143    1.4434 C   0  0  0  0  0  0  0  0  0  0  0  0
   -0.7682    3.4934    1.8371 H   0  0  0  0  0  0  0  0  0  0  0  0
    0.9785    3.5414    2.1556 H   0  0  0  0  0  0  0  0  0  0  0  0
    0.3778    3.7411    0.4972 H   0  0  0  0  0  0  0  0  0  0  0  0
  1  2  1  0  0  0  0
  2  3  1  0  0  0  0
  2  4  1  0  0  0  0
  2  5  1  0  0  0  0
  5  6  2  0  0  0  0
  5  7  1  0  0  0  0
  7  8  1  0  0  0  0
  7  9  1  0  0  0  0
  9 10  1  0  0  0  0
  9 11  1  0  0  0  0
  9 22  1  0  0  0  0
 11 12  1  0  0  0  0
 11 13  1  0  0  0  0
 11 14  1  0  0  0  0
 14 15  1  0  0  0  0
 14 20  2  0  0  0  0
 15 16  1  0  0  0  0
 15 17  1  0  0  0  0
 17 18  1  0  0  0  0
 17 19  2  0  0  0  0
 19 20  1  0  0  0  0
 20 21  1  0  0  0  0
 22 23  2  0  0  0  0
 22 24  1  0  0  0  0
 24 25  1  0  0  0  0
 24 26  1  0  0  0  0
 26 27  1  0  0  0  0
 26 28  1  0  0  0  0
 26 29  1  0  0  0  0
M  END
$$$$

  -OEChem-04042215593D

 29 29  0     1  0  0  0  0  0999 V2000
   -3.7292   -3.5565    1.5495 H   0  0  0  0  0  0  0  0  0  0  0  0
   -3.5965   -2.6725    0.9196 C   0  0  0  0  0  0  0  0  0  0  0  0
   -4.2858   -1.8938    1.2550 H   0  0  0  0  0  0  0  0  0  0  0  0
   -3.8321   -2.9379   -0.1140 H   0  0  0  0  0  0  0  0  0  0  0  0
   -2.1672   -2.1741    1.0114 C   0  0  0  0  0  0  0  0  0  0  0  0
   -1.3638   -2.7494    1.7330 O   0  0  0  0  0  0  0  0  0  0  0  0
   -1.7783   -1.0729    0.2784 N   0  0  0  0  0  0  0  0  0  0  0  0
   -2.4984   -0.5926   -0.2587 H   0  0  0  0  0  0  0  0  0  0  0  0
   -0.4333   -0.4711    0.2723 C   0  0  1  0  0  0  0  0  0  0  0  0
    0.1426   -0.8321    1.1301 H   0  0  0  0  0  0  0  0  0  0  0  0
    0.3364   -0.8080   -1.0222 C   0  0  0  0  0  0  0  0  0  0  0  0
   -0.2014   -0.3878   -1.8794 H   0  0  0  0  0  0  0  0  0  0  0  0
    1.3161   -0.3209   -0.9808 H   0  0  0  0  0  0  0  0  0  0  0  0
    0.5584   -2.2820   -1.2667 C   0  0  0  0  0  0  0  0  0  0  0  0
    0.4294   -3.3387   -0.3929 N   0  0  0  0  0  0  0  0  0  0  0  0
    0.0734   -3.2837    0.5668 H   0  0  0  0  0  0  0  0  0  0  0  0
    0.7173   -4.5089   -1.0655 C   0  0  0  0  0  0  0  0  0  0  0  0
    0.6839   -5.5033   -0.6299 H   0  0  0  0  0  0  0  0  0  0  0  0
    1.0288   -4.2451   -2.3121 N   0  0  0  0  0  0  0  0  0  0  0  0
    0.9311   -2.8641   -2.4500 C   0  0  0  0  0  0  0  0  0  0  0  0
    1.1214   -2.3226   -3.3719 H   0  0  0  0  0  0  0  0  0  0  0  0
   -0.5352    1.0617    0.3797 C   0  0  0  0  0  0  0  0  0  0  0  0
   -1.3694    1.6650   -0.2855 O   0  0  0  0  0  0  0  0  0  0  0  0
    0.2876    1.7632    1.2418 N   0  0  0  0  0  0  0  0  0  0  0  0
    0.9280    1.2296    1.8234 H   0  0  0  0  0  0  0  0  0  0  0  0
    0.2132    3.2085    1.4196 C   0  0  0  0  0  0  0  0  0  0  0  0
   -0.7681    3.4964    1.8111 H   0  0  0  0  0  0  0  0  0  0  0  0
    0.9794    3.5431    2.1255 H   0  0  0  0  0  0  0  0  0  0  0  0
    0.3763    3.7211    0.4657 H   0  0  0  0  0  0  0  0  0  0  0  0
  1  2  1  0  0  0  0
  2  3  1  0  0  0  0
  2  4  1  0  0  0  0
  2  5  1  0  0  0  0
  5  6  2  0  0  0  0
  5  7  1  0  0  0  0
  7  8  1  0  0  0  0
  7  9  1  0  0  0  0
  9 10  1  0  0  0  0
  9 11  1  0  0  0  0
  9 22  1  0  0  0  0
 11 12  1  0  0  0  0
 11 13  1  0  0  0  0
 11 14  1  0  0  0  0
 14 15  1  0  0  0  0
 14 20  2  0  0  0  0
 15 16  1  0  0  0  0
 15 17  1  0  0  0  0
 17 18  1  0  0  0  0
 17 19  2  0  0  0  0
 19 20  1  0  0  0  0
 20 21  1  0  0  0  0
 22 23  2  0  0  0  0
 22 24  1  0  0  0  0
 24 25  1  0  0  0  0
 24 26  1  0  0  0  0
 26 27  1  0  0  0  0
 26 28  1  0  0  0  0
 26 29  1  0  0  0  0
M  END
$$$$

  -OEChem-04042215593D

 29 29  0     1  0  0  0  0  0999 V2000
   -3.8221   -3.4885    1.5892 H   0  0  0  0  0  0  0  0  0  0  0  0
   -3.6656   -2.6113    0.9549 C   0  0  0  0  0  0  0  0  0  0  0  0
   -4.3159   -1.8050    1.3029 H   0  0  0  0  0  0  0  0  0  0  0  0
   -3.9333   -2.8677   -0.0732 H   0  0  0  0  0  0  0  0  0  0  0  0
   -2.2157   -2.1707    1.0175 C   0  0  0  0  0  0  0  0  0  0  0  0
   -1.4193   -2.7887    1.7088 O   0  0  0  0  0  0  0  0  0  0  0  0
   -1.8009   -1.0792    0.2853 N   0  0  0  0  0  0  0  0  0  0  0  0
   -2.5201   -0.5709   -0.2274 H   0  0  0  0  0  0  0  0  0  0  0  0
   -0.4499   -0.4864    0.2755 C   0  0  1  0  0  0  0  0  0  0  0  0
    0.1176   -0.8487    1.1387 H   0  0  0  0  0  0  0  0  0  0  0  0
    0.3344   -0.8281   -1.0116 C   0  0  0  0  0  0  0  0  0  0  0  0
   -0.2067   -0.4131   -1.8692 H   0  0  0  0  0  0  0  0  0  0  0  0
    1.3076   -0.3280   -0.9698 H   0  0  0  0  0  0  0  0  0  0  0  0
    0.5765   -2.2961   -1.2768 C   0  0  0  0  0  0  0  0  0  0  0  0
    0.2085   -3.4024   -0.5449 N   0  0  0  0  0  0  0  0  0  0  0  0
   -0.2661   -3.3907    0.3629 H   0  0  0  0  0  0  0  0  0  0  0  0
    0.6453   -4.5367   -1.1983 C   0  0  0  0  0  0  0  0  0  0  0  0
    0.5057   -5.5541   -0.8443 H   0  0  0  0  0  0  0  0  0  0  0  0
    1.2572   -4.2057   -2.3099 N   0  0  0  0  0  0  0  0  0  0  0  0
    1.2183   -2.8165   -2.3706 C   0  0  0  0  0  0  0  0  0  0  0  0
    1.6398   -2.2250   -3.1779 H   0  0  0  0  0  0  0  0  0  0  0  0
   -0.5433    1.0478    0.3738 C   0  0  0  0  0  0  0  0  0  0  0  0
   -1.3795    1.6510   -0.2888 O   0  0  0  0  0  0  0  0  0  0  0  0
    0.2840    1.7487    1.2321 N   0  0  0  0  0  0  0  0  0  0  0  0
    0.9233    1.2137    1.8136 H   0  0  0  0  0  0  0  0  0  0  0  0
    0.2170    3.1947    1.4060 C   0  0  0  0  0  0  0  0  0  0  0  0
   -0.7620    3.4883    1.7990 H   0  0  0  0  0  0  0  0  0  0  0  0
    0.9866    3.5271    2.1095 H   0  0  0  0  0  0  0  0  0  0  0  0
    0.3807    3.7041    0.4505 H   0  0  0  0  0  0  0  0  0  0  0  0
  1  2  1  0  0  0  0
  2  3  1  0  0  0  0
  2  4  1  0  0  0  0
  2  5  1  0  0  0  0
  5  6  2  0  0  0  0
  5  7  1  0  0  0  0
  7  8  1  0  0  0  0
  7  9  1  0  0  0  0
  9 10  1  0  0  0  0
  9 11  1  0  0  0  0
  9 22  1  0  0  0  0
 11 12  1  0  0  0  0
 11 13  1  0  0  0  0
 11 14  1  0  0  0  0
 14 15  1  0  0  0  0
 14 20  2  0  0  0  0
 15 16  1  0  0  0  0
 15 17  1  0  0  0  0
 17 18  1  0  0  0  0
 17 19  2  0  0  0  0
 19 20  1  0  0  0  0
 20 21  1  0  0  0  0
 22 23  2  0  0  0  0
 22 24  1  0  0  0  0
 24 25  1  0  0  0  0
 24 26  1  0  0  0  0
 26 27  1  0  0  0  0
 26 28  1  0  0  0  0
 26 29  1  0  0  0  0
M  END
$$$$

  -OEChem-04042215593D

 29 29  0     1  0  0  0  0  0999 V2000
   -3.8785   -3.4402    1.6104 H   0  0  0  0  0  0  0  0  0  0  0  0
   -3.7114   -2.5605    0.9822 C   0  0  0  0  0  0  0  0  0  0  0  0
   -4.3217   -1.7369    1.3609 H   0  0  0  0  0  0  0  0  0  0  0  0
   -4.0204   -2.7932   -0.0398 H   0  0  0  0  0  0  0  0  0  0  0  0
   -2.2457   -2.1712    1.0038 C   0  0  0  0  0  0  0  0  0  0  0  0
   -1.4468   -2.8420    1.6383 O   0  0  0  0  0  0  0  0  0  0  0  0
   -1.8175   -1.0819    0.2773 N   0  0  0  0  0  0  0  0  0  0  0  0
   -2.5396   -0.5360   -0.1914 H   0  0  0  0  0  0  0  0  0  0  0  0
   -0.4616   -0.4987    0.2659 C   0  0  1  0  0  0  0  0  0  0  0  0
    0.0990   -0.8670    1.1310 H   0  0  0  0  0  0  0  0  0  0  0  0
    0.3351   -0.8391   -1.0148 C   0  0  0  0  0  0  0  0  0  0  0  0
   -0.2106   -0.4287   -1.8715 H   0  0  0  0  0  0  0  0  0  0  0  0
    1.3030   -0.3284   -0.9731 H   0  0  0  0  0  0  0  0  0  0  0  0
    0.5873   -2.3034   -1.2936 C   0  0  0  0  0  0  0  0  0  0  0  0
    0.0122   -3.4319   -0.7557 N   0  0  0  0  0  0  0  0  0  0  0  0
   -0.5930   -3.4526    0.0688 H   0  0  0  0  0  0  0  0  0  0  0  0
    0.5750   -4.5453   -1.3459 C   0  0  0  0  0  0  0  0  0  0  0  0
    0.3330   -5.5740   -1.0946 H   0  0  0  0  0  0  0  0  0  0  0  0
    1.4541   -4.1799   -2.2473 N   0  0  0  0  0  0  0  0  0  0  0  0
    1.4697   -2.7897   -2.2235 C   0  0  0  0  0  0  0  0  0  0  0  0
    2.0977   -2.1720   -2.8587 H   0  0  0  0  0  0  0  0  0  0  0  0
   -0.5492    1.0352    0.3690 C   0  0  0  0  0  0  0  0  0  0  0  0
   -1.3957    1.6409   -0.2783 O   0  0  0  0  0  0  0  0  0  0  0  0
    0.2822    1.7312    1.2272 N   0  0  0  0  0  0  0  0  0  0  0  0
    0.9338    1.1945    1.7934 H   0  0  0  0  0  0  0  0  0  0  0  0
    0.2189    3.1769    1.4053 C   0  0  0  0  0  0  0  0  0  0  0  0
   -0.7573    3.4715    1.8042 H   0  0  0  0  0  0  0  0  0  0  0  0
    0.9928    3.5061    2.1053 H   0  0  0  0  0  0  0  0  0  0  0  0
    0.3782    3.6882    0.4500 H   0  0  0  0  0  0  0  0  0  0  0  0
  1  2  1  0  0  0  0
  2  3  1  0  0  0  0
  2  4  1  0  0  0  0
  2  5  1  0  0  0  0
  5  6  2  0  0  0  0
  5  7  1  0  0  0  0
  7  8  1  0  0  0  0
  7  9  1  0  0  0  0
  9 10  1  0  0  0  0
  9 11  1  0  0  0  0
  9 22  1  0  0  0  0
 11 12  1  0  0  0  0
 11 13  1  0  0  0  0
 11 14  1  0  0  0  0
 14 15  1  0  0  0  0
 14 20  2  0  0  0  0
 15 16  1  0  0  0  0
 15 17  1  0  0  0  0
 17 18  1  0  0  0  0
 17 19  2  0  0  0  0
 19 20  1  0  0  0  0
 20 21  1  0  0  0  0
 22 23  2  0  0  0  0
 22 24  1  0  0  0  0
 24 25  1  0  0  0  0
 24 26  1  0  0  0  0
 26 27  1  0  0  0  0
 26 28  1  0  0  0  0
 26 29  1  0  0  0  0
M  END
$$$$

  -OEChem-04042215593D

 29 29  0     1  0  0  0  0  0999 V2000
   -3.8993   -3.4107    1.6229 H   0  0  0  0  0  0  0  0  0  0  0  0
   -3.7311   -2.5258    1.0024 C   0  0  0  0  0  0  0  0  0  0  0  0
   -4.2980   -1.6905    1.4213 H   0  0  0  0  0  0  0  0  0  0  0  0
   -4.0917   -2.7305   -0.0088 H   0  0  0  0  0  0  0  0  0  0  0  0
   -2.2539   -2.1827    0.9671 C   0  0  0  0  0  0  0  0  0  0  0  0
   -1.4484   -2.9055    1.5293 O   0  0  0  0  0  0  0  0  0  0  0  0
   -1.8257   -1.0865    0.2517 N   0  0  0  0  0  0  0  0  0  0  0  0
   -2.5548   -0.5048   -0.1604 H   0  0  0  0  0  0  0  0  0  0  0  0
   -0.4683   -0.5051    0.2417 C   0  0  1  0  0  0  0  0  0  0  0  0
    0.0875   -0.8818    1.1067 H   0  0  0  0  0  0  0  0  0  0  0  0
    0.3405   -0.8377   -1.0335 C   0  0  0  0  0  0  0  0  0  0  0  0
   -0.2054   -0.4306   -1.8915 H   0  0  0  0  0  0  0  0  0  0  0  0
    1.3039   -0.3186   -0.9879 H   0  0  0  0  0  0  0  0  0  0  0  0
    0.5995   -2.3005   -1.3143 C   0  0  0  0  0  0  0  0  0  0  0  0
   -0.1374   -3.4198   -1.0034 N   0  0  0  0  0  0  0  0  0  0  0  0
   -0.8836   -3.4522   -0.3075 H   0  0  0  0  0  0  0  0  0  0  0  0
    0.5177   -4.5326   -1.4919 C   0  0  0  0  0  0  0  0  0  0  0  0
    0.1891   -5.5590   -1.3566 H   0  0  0  0  0  0  0  0  0  0  0  0
    1.6050   -4.1733   -2.1298 N   0  0  0  0  0  0  0  0  0  0  0  0
    1.6658   -2.7887   -2.0251 C   0  0  0  0  0  0  0  0  0  0  0  0
    2.4545   -2.1764   -2.4522 H   0  0  0  0  0  0  0  0  0  0  0  0
   -0.5540    1.0274    0.3618 C   0  0  0  0  0  0  0  0  0  0  0  0
   -1.4111    1.6387   -0.2658 O   0  0  0  0  0  0  0  0  0  0  0  0
    0.2809    1.7139    1.2242 N   0  0  0  0  0  0  0  0  0  0  0  0
    0.9450    1.1726    1.7715 H   0  0  0  0  0  0  0  0  0  0  0  0
    0.2147    3.1571    1.4220 C   0  0  0  0  0  0  0  0  0  0  0  0
   -0.7615    3.4442    1.8268 H   0  0  0  0  0  0  0  0  0  0  0  0
    0.9890    3.4788    2.1252 H   0  0  0  0  0  0  0  0  0  0  0  0
    0.3710    3.6812    0.4732 H   0  0  0  0  0  0  0  0  0  0  0  0
  1  2  1  0  0  0  0
  2  3  1  0  0  0  0
  2  4  1  0  0  0  0
  2  5  1  0  0  0  0
  5  6  2  0  0  0  0
  5  7  1  0  0  0  0
  7  8  1  0  0  0  0
  7  9  1  0  0  0  0
  9 10  1  0  0  0  0
  9 11  1  0  0  0  0
  9 22  1  0  0  0  0
 11 12  1  0  0  0  0
 11 13  1  0  0  0  0
 11 14  1  0  0  0  0
 14 15  1  0  0  0  0
 14 20  2  0  0  0  0
 15 16  1  0  0  0  0
 15 17  1  0  0  0  0
 17 18  1  0  0  0  0
 17 19  2  0  0  0  0
 19 20  1  0  0  0  0
 20 21  1  0  0  0  0
 22 23  2  0  0  0  0
 22 24  1  0  0  0  0
 24 25  1  0  0  0  0
 24 26  1  0  0  0  0
 26 27  1  0  0  0  0
 26 28  1  0  0  0  0
 26 29  1  0  0  0  0
M  END
$$$$

  -OEChem-04042215593D

 29 29  0     1  0  0  0  0  0999 V2000
   -3.8368   -3.4569    1.5981 H   0  0  0  0  0  0  0  0  0  0  0  0
   -3.6901   -2.5575    0.9935 C   0  0  0  0  0  0  0  0  0  0  0  0
   -4.2636   -1.7396    1.4365 H   0  0  0  0  0  0  0  0  0  0  0  0
   -4.0609   -2.7472   -0.0166 H   0  0  0  0  0  0  0  0  0  0  0  0
   -2.2187   -2.1923    0.9474 C   0  0  0  0  0  0  0  0  0  0  0  0
   -1.4013   -2.8993    1.5101 O   0  0  0  0  0  0  0  0  0  0  0  0
   -1.8140   -1.0862    0.2322 N   0  0  0  0  0  0  0  0  0  0  0  0
   -2.5514   -0.5011   -0.1593 H   0  0  0  0  0  0  0  0  0  0  0  0
   -0.4593   -0.5014    0.2236 C   0  0  1  0  0  0  0  0  0  0  0  0
    0.1023   -0.8833    1.0825 H   0  0  0  0  0  0  0  0  0  0  0  0
    0.3445   -0.8170   -1.0575 C   0  0  0  0  0  0  0  0  0  0  0  0
   -0.2008   -0.4022   -1.9122 H   0  0  0  0  0  0  0  0  0  0  0  0
    1.3094   -0.3012   -1.0073 H   0  0  0  0  0  0  0  0  0  0  0  0
    0.5933   -2.2802   -1.3394 C   0  0  0  0  0  0  0  0  0  0  0  0
   -0.2619   -3.3558   -1.2750 N   0  0  0  0  0  0  0  0  0  0  0  0
   -1.1841   -3.3497   -0.8467 H   0  0  0  0  0  0  0  0  0  0  0  0
    0.4332   -4.4960   -1.6264 C   0  0  0  0  0  0  0  0  0  0  0  0
    0.0213   -5.5008   -1.6297 H   0  0  0  0  0  0  0  0  0  0  0  0
    1.6672   -4.1925   -1.9480 N   0  0  0  0  0  0  0  0  0  0  0  0
    1.7785   -2.8186   -1.7702 C   0  0  0  0  0  0  0  0  0  0  0  0
    2.6857   -2.2490   -1.9486 H   0  0  0  0  0  0  0  0  0  0  0  0
   -0.5498    1.0296    0.3571 C   0  0  0  0  0  0  0  0  0  0  0  0
   -1.4120    1.6432   -0.2614 O   0  0  0  0  0  0  0  0  0  0  0  0
    0.2858    1.7101    1.2236 N   0  0  0  0  0  0  0  0  0  0  0  0
    0.9480    1.1636    1.7679 H   0  0  0  0  0  0  0  0  0  0  0  0
    0.2114    3.1495    1.4437 C   0  0  0  0  0  0  0  0  0  0  0  0
   -0.7667    3.4252    1.8517 H   0  0  0  0  0  0  0  0  0  0  0  0
    0.9832    3.4634    2.1531 H   0  0  0  0  0  0  0  0  0  0  0  0
    0.3665    3.6902    0.5040 H   0  0  0  0  0  0  0  0  0  0  0  0
  1  2  1  0  0  0  0
  2  3  1  0  0  0  0
  2  4  1  0  0  0  0
  2  5  1  0  0  0  0
  5  6  2  0  0  0  0
  5  7  1  0  0  0  0
  7  8  1  0  0  0  0
  7  9  1  0  0  0  0
  9 10  1  0  0  0  0
  9 11  1  0  0  0  0
  9 22  1  0  0  0  0
 11 12  1  0  0  0  0
 11 13  1  0  0  0  0
 11 14  1  0  0  0  0
 14 15  1  0  0  0  0
 14 20  2  0  0  0  0
 15 16  1  0  0  0  0
 15 17  1  0  0  0  0
 17 18  1  0  0  0  0
 17 19  2  0  0  0  0
 19 20  1  0  0  0  0
 20 21  1  0  0  0  0
 22 23  2  0  0  0  0
 22 24  1  0  0  0  0
 24 25  1  0  0  0  0
 24 26  1  0  0  0  0
 26 27  1  0  0  0  0
 26 28  1  0  0  0  0
 26 29  1  0  0  0  0
M  END
$$$$

  -OEChem-04042215593D

 29 29  0     1  0  0  0  0  0999 V2000
   -3.7408   -3.5349    1.5473 H   0  0  0  0  0  0  0  0  0  0  0  0
   -3.6182   -2.6265    0.9507 C   0  0  0  0  0  0  0  0  0  0  0  0
   -4.2313   -1.8341    1.3869 H   0  0  0  0  0  0  0  0  0  0  0  0
   -3.9617   -2.8248   -0.0672 H   0  0  0  0  0  0  0  0  0  0  0  0
   -2.1614   -2.2039    0.9353 C   0  0  0  0  0  0  0  0  0  0  0  0
   -1.3371   -2.8527    1.5560 O   0  0  0  0  0  0  0  0  0  0  0  0
   -1.7846   -1.0868    0.2197 N   0  0  0  0  0  0  0  0  0  0  0  0
   -2.5298   -0.5209   -0.1839 H   0  0  0  0  0  0  0  0  0  0  0  0
   -0.4367   -0.4903    0.2188 C   0  0  1  0  0  0  0  0  0  0  0  0
    0.1340   -0.8725    1.0716 H   0  0  0  0  0  0  0  0  0  0  0  0
    0.3543   -0.7919   -1.0713 C   0  0  0  0  0  0  0  0  0  0  0  0
   -0.1874   -0.3691   -1.9242 H   0  0  0  0  0  0  0  0  0  0  0  0
    1.3239   -0.2856   -1.0184 H   0  0  0  0  0  0  0  0  0  0  0  0
    0.5857   -2.2588   -1.3407 C   0  0  0  0  0  0  0  0  0  0  0  0
   -0.3351   -3.2648   -1.5252 N   0  0  0  0  0  0  0  0  0  0  0  0
   -1.3428   -3.1753   -1.4326 H   0  0  0  0  0  0  0  0  0  0  0  0
    0.3429   -4.4476   -1.7486 C   0  0  0  0  0  0  0  0  0  0  0  0
   -0.1249   -5.4150   -1.9067 H   0  0  0  0  0  0  0  0  0  0  0  0
    1.6365   -4.2347   -1.7462 N   0  0  0  0  0  0  0  0  0  0  0  0
    1.7996   -2.8782   -1.4889 C   0  0  0  0  0  0  0  0  0  0  0  0
    2.7608   -2.3781   -1.4175 H   0  0  0  0  0  0  0  0  0  0  0  0
   -0.5400    1.0389    0.3616 C   0  0  0  0  0  0  0  0  0  0  0  0
   -1.3974    1.6507   -0.2656 O   0  0  0  0  0  0  0  0  0  0  0  0
    0.2870    1.7214    1.2346 N   0  0  0  0  0  0  0  0  0  0  0  0
    0.9430    1.1758    1.7873 H   0  0  0  0  0  0  0  0  0  0  0  0
    0.2003    3.1593    1.4600 C   0  0  0  0  0  0  0  0  0  0  0  0
   -0.7808    3.4249    1.8676 H   0  0  0  0  0  0  0  0  0  0  0  0
    0.9685    3.4775    2.1713 H   0  0  0  0  0  0  0  0  0  0  0  0
    0.3517    3.7043    0.5222 H   0  0  0  0  0  0  0  0  0  0  0  0
  1  2  1  0  0  0  0
  2  3  1  0  0  0  0
  2  4  1  0  0  0  0
  2  5  1  0  0  0  0
  5  6  2  0  0  0  0
  5  7  1  0  0  0  0
  7  8  1  0  0  0  0
  7  9  1  0  0  0  0
  9 10  1  0  0  0  0
  9 11  1  0  0  0  0
  9 22  1  0  0  0  0
 11 12  1  0  0  0  0
 11 13  1  0  0  0  0
 11 14  1  0  0  0  0
 14 15  1  0  0  0  0
 14 20  2  0  0  0  0
 15 16  1  0  0  0  0
 15 17  1  0  0  0  0
 17 18  1  0  0  0  0
 17 19  2  0  0  0  0
 19 20  1  0  0  0  0
 20 21  1  0  0  0  0
 22 23  2  0  0  0  0
 22 24  1  0  0  0  0
 24 25  1  0  0  0  0
 24 26  1  0  0  0  0
 26 27  1  0  0  0  0
 26 28  1  0  0  0  0
 26 29  1  0  0  0  0
M  END
$$$$

  -OEChem-04042215593D

 29 29  0     1  0  0  0  0  0999 V2000
   -3.6612   -3.5978    1.4903 H   0  0  0  0  0  0  0  0  0  0  0  0
   -3.5543   -2.6864    0.8953 C   0  0  0  0  0  0  0  0  0  0  0  0
   -4.2068   -1.9154    1.3123 H   0  0  0  0  0  0  0  0  0  0  0  0
   -3.8617   -2.8983   -0.1313 H   0  0  0  0  0  0  0  0  0  0  0  0
   -2.1130   -2.2131    0.9191 C   0  0  0  0  0  0  0  0  0  0  0  0
   -1.2881   -2.8201    1.5807 O   0  0  0  0  0  0  0  0  0  0  0  0
   -1.7548   -1.0857    0.2090 N   0  0  0  0  0  0  0  0  0  0  0  0
   -2.5040   -0.5439   -0.2183 H   0  0  0  0  0  0  0  0  0  0  0  0
   -0.4148   -0.4735    0.2153 C   0  0  1  0  0  0  0  0  0  0  0  0
    0.1640   -0.8553    1.0629 H   0  0  0  0  0  0  0  0  0  0  0  0
    0.3597   -0.7741   -1.0821 C   0  0  0  0  0  0  0  0  0  0  0  0
   -0.1811   -0.3522   -1.9360 H   0  0  0  0  0  0  0  0  0  0  0  0
    1.3340   -0.2763   -1.0346 H   0  0  0  0  0  0  0  0  0  0  0  0
    0.5748   -2.2475   -1.3223 C   0  0  0  0  0  0  0  0  0  0  0  0
   -0.3399   -3.1848   -1.7477 N   0  0  0  0  0  0  0  0  0  0  0  0
   -1.3277   -3.0225   -1.9227 H   0  0  0  0  0  0  0  0  0  0  0  0
    0.3015   -4.4040   -1.8578 C   0  0  0  0  0  0  0  0  0  0  0  0
   -0.1718   -5.3336   -2.1602 H   0  0  0  0  0  0  0  0  0  0  0  0
    1.5701   -4.2773   -1.5526 N   0  0  0  0  0  0  0  0  0  0  0  0
    1.7518   -2.9409   -1.2135 C   0  0  0  0  0  0  0  0  0  0  0  0
    2.7003   -2.5067   -0.9123 H   0  0  0  0  0  0  0  0  0  0  0  0
   -0.5299    1.0539    0.3674 C   0  0  0  0  0  0  0  0  0  0  0  0
   -1.3788    1.6647   -0.2726 O   0  0  0  0  0  0  0  0  0  0  0  0
    0.2890    1.7391    1.2460 N   0  0  0  0  0  0  0  0  0  0  0  0
    0.9323    1.1941    1.8141 H   0  0  0  0  0  0  0  0  0  0  0  0
    0.1923    3.1761    1.4737 C   0  0  0  0  0  0  0  0  0  0  0  0
   -0.7929    3.4350    1.8758 H   0  0  0  0  0  0  0  0  0  0  0  0
    0.9541    3.4980    2.1904 H   0  0  0  0  0  0  0  0  0  0  0  0
    0.3465    3.7238    0.5380 H   0  0  0  0  0  0  0  0  0  0  0  0
  1  2  1  0  0  0  0
  2  3  1  0  0  0  0
  2  4  1  0  0  0  0
  2  5  1  0  0  0  0
  5  6  2  0  0  0  0
  5  7  1  0  0  0  0
  7  8  1  0  0  0  0
  7  9  1  0  0  0  0
  9 10  1  0  0  0  0
  9 11  1  0  0  0  0
  9 22  1  0  0  0  0
 11 12  1  0  0  0  0
 11 13  1  0  0  0  0
 11 14  1  0  0  0  0
 14 15  1  0  0  0  0
 14 20  2  0  0  0  0
 15 16  1  0  0  0  0
 15 17  1  0  0  0  0
 17 18  1  0  0  0  0
 17 19  2  0  0  0  0
 19 20  1  0  0  0  0
 20 21  1  0  0  0  0
 22 23  2  0  0  0  0
 22 24  1  0  0  0  0
 24 25  1  0  0  0  0
 24 26  1  0  0  0  0
 26 27  1  0  0  0  0
 26 28  1  0  0  0  0
 26 29  1  0  0  0  0
M  END
$$$$

  -OEChem-04042215593D

 29 29  0     1  0  0  0  0  0999 V2000
   -3.5933   -3.6526    1.4384 H   0  0  0  0  0  0  0  0  0  0  0  0
   -3.5019   -2.7360    0.8487 C   0  0  0  0  0  0  0  0  0  0  0  0
   -4.1921   -1.9892    1.2485 H   0  0  0  0  0  0  0  0  0  0  0  0
   -3.7712   -2.9557   -0.1869 H   0  0  0  0  0  0  0  0  0  0  0  0
   -2.0792   -2.2140    0.9145 C   0  0  0  0  0  0  0  0  0  0  0  0
   -1.2583   -2.7812    1.6161 O   0  0  0  0  0  0  0  0  0  0  0  0
   -1.7336   -1.0819    0.2054 N   0  0  0  0  0  0  0  0  0  0  0  0
   -2.4802   -0.5721   -0.2626 H   0  0  0  0  0  0  0  0  0  0  0  0
   -0.3999   -0.4585    0.2164 C   0  0  1  0  0  0  0  0  0  0  0  0
    0.1856   -0.8369    1.0609 H   0  0  0  0  0  0  0  0  0  0  0  0
    0.3600   -0.7613   -1.0871 C   0  0  0  0  0  0  0  0  0  0  0  0
   -0.1816   -0.3403   -1.9409 H   0  0  0  0  0  0  0  0  0  0  0  0
    1.3388   -0.2720   -1.0473 H   0  0  0  0  0  0  0  0  0  0  0  0
    0.5627   -2.2387   -1.3057 C   0  0  0  0  0  0  0  0  0  0  0  0
   -0.2711   -3.1123   -1.9673 N   0  0  0  0  0  0  0  0  0  0  0  0
   -1.1712   -2.8867   -2.3829 H   0  0  0  0  0  0  0  0  0  0  0  0
    0.3178   -4.3627   -1.9650 C   0  0  0  0  0  0  0  0  0  0  0  0
   -0.1136   -5.2562   -2.4069 H   0  0  0  0  0  0  0  0  0  0  0  0
    1.4798   -4.3154   -1.3600 N   0  0  0  0  0  0  0  0  0  0  0  0
    1.6420   -2.9995   -0.9392 C   0  0  0  0  0  0  0  0  0  0  0  0
    2.5099   -2.6260   -0.4042 H   0  0  0  0  0  0  0  0  0  0  0  0
   -0.5232    1.0677    0.3702 C   0  0  0  0  0  0  0  0  0  0  0  0
   -1.3635    1.6777   -0.2817 O   0  0  0  0  0  0  0  0  0  0  0  0
    0.2907    1.7540    1.2524 N   0  0  0  0  0  0  0  0  0  0  0  0
    0.9261    1.2078    1.8283 H   0  0  0  0  0  0  0  0  0  0  0  0
    0.1924    3.1907    1.4803 C   0  0  0  0  0  0  0  0  0  0  0  0
   -0.7954    3.4499    1.8756 H   0  0  0  0  0  0  0  0  0  0  0  0
    0.9494    3.5110    2.2026 H   0  0  0  0  0  0  0  0  0  0  0  0
    0.3533    3.7394    0.5463 H   0  0  0  0  0  0  0  0  0  0  0  0
  1  2  1  0  0  0  0
  2  3  1  0  0  0  0
  2  4  1  0  0  0  0
  2  5  1  0  0  0  0
  5  6  2  0  0  0  0
  5  7  1  0  0  0  0
  7  8  1  0  0  0  0
  7  9  1  0  0  0  0
  9 10  1  0  0  0  0
  9 11  1  0  0  0  0
  9 22  1  0  0  0  0
 11 12  1  0  0  0  0
 11 13  1  0  0  0  0
 11 14  1  0  0  0  0
 14 15  1  0  0  0  0
 14 20  2  0  0  0  0
 15 16  1  0  0  0  0
 15 17  1  0  0  0  0
 17 18  1  0  0  0  0
 17 19  2  0  0  0  0
 19 20  1  0  0  0  0
 20 21  1  0  0  0  0
 22 23  2  0  0  0  0
 22 24  1  0  0  0  0
 24 25  1  0  0  0  0
 24 26  1  0  0  0  0
 26 27  1  0  0  0  0
 26 28  1  0  0  0  0
 26 29  1  0  0  0  0
M  END
$$$$

  -OEChem-04042215593D

 29 29  0     1  0  0  0  0  0999 V2000
   -3.5532   -3.6815    1.4183 H   0  0  0  0  0  0  0  0  0  0  0  0
   -3.4715   -2.7622    0.8315 C   0  0  0  0  0  0  0  0  0  0  0  0
   -4.1812   -2.0294    1.2225 H   0  0  0  0  0  0  0  0  0  0  0  0
   -3.7225   -2.9854   -0.2080 H   0  0  0  0  0  0  0  0  0  0  0  0
   -2.0604   -2.2128    0.9188 C   0  0  0  0  0  0  0  0  0  0  0  0
   -1.2456   -2.7491    1.6519 O   0  0  0  0  0  0  0  0  0  0  0  0
   -1.7215   -1.0803    0.2069 N   0  0  0  0  0  0  0  0  0  0  0  0
   -2.4623   -0.5992   -0.2986 H   0  0  0  0  0  0  0  0  0  0  0  0
   -0.3910   -0.4511    0.2204 C   0  0  1  0  0  0  0  0  0  0  0  0
    0.1969   -0.8258    1.0646 H   0  0  0  0  0  0  0  0  0  0  0  0
    0.3619   -0.7556   -1.0864 C   0  0  0  0  0  0  0  0  0  0  0  0
   -0.1844   -0.3346   -1.9369 H   0  0  0  0  0  0  0  0  0  0  0  0
    1.3420   -0.2686   -1.0545 H   0  0  0  0  0  0  0  0  0  0  0  0
    0.5632   -2.2335   -1.3024 C   0  0  0  0  0  0  0  0  0  0  0  0
   -0.1118   -3.0477   -2.1846 N   0  0  0  0  0  0  0  0  0  0  0  0
   -0.8566   -2.7650   -2.8171 H   0  0  0  0  0  0  0  0  0  0  0  0
    0.4031   -4.3260   -2.0775 C   0  0  0  0  0  0  0  0  0  0  0  0
    0.0669   -5.1845   -2.6517 H   0  0  0  0  0  0  0  0  0  0  0  0
    1.3642   -4.3542   -1.1869 N   0  0  0  0  0  0  0  0  0  0  0  0
    1.4671   -3.0597   -0.6870 C   0  0  0  0  0  0  0  0  0  0  0  0
    2.1728   -2.7466    0.0766 H   0  0  0  0  0  0  0  0  0  0  0  0
   -0.5163    1.0756    0.3707 C   0  0  0  0  0  0  0  0  0  0  0  0
   -1.3467    1.6864   -0.2931 O   0  0  0  0  0  0  0  0  0  0  0  0
    0.2950    1.7641    1.2538 N   0  0  0  0  0  0  0  0  0  0  0  0
    0.9229    1.2190    1.8387 H   0  0  0  0  0  0  0  0  0  0  0  0
    0.1923    3.2006    1.4801 C   0  0  0  0  0  0  0  0  0  0  0  0
   -0.7978    3.4571    1.8715 H   0  0  0  0  0  0  0  0  0  0  0  0
    0.9455    3.5240    2.2051 H   0  0  0  0  0  0  0  0  0  0  0  0
    0.3555    3.7487    0.5461 H   0  0  0  0  0  0  0  0  0  0  0  0
  1  2  1  0  0  0  0
  2  3  1  0  0  0  0
  2  4  1  0  0  0  0
  2  5  1  0  0  0  0
  5  6  2  0  0  0  0
  5  7  1  0  0  0  0
  7  8  1  0  0  0  0
  7  9  1  0  0  0  0
  9 10  1  0  0  0  0
  9 11  1  0  0  0  0
  9 22  1  0  0  0  0
 11 12  1  0  0  0  0
 11 13  1  0  0  0  0
 11 14  1  0  0  0  0
 14 15  1  0  0  0  0
 14 20  2  0  0  0  0
 15 16  1  0  0  0  0
 15 17  1  0  0  0  0
 17 18  1  0  0  0  0
 17 19  2  0  0  0  0
 19 20  1  0  0  0  0
 20 21  1  0  0  0  0
 22 23  2  0  0  0  0
 22 24  1  0  0  0  0
 24 25  1  0  0  0  0
 24 26  1  0  0  0  0
 26 27  1  0  0  0  0
 26 28  1  0  0  0  0
 26 29  1  0  0  0  0
M  END
$$$$

  -OEChem-04042215593D

 29 29  0     1  0  0  0  0  0999 V2000
   -3.5301   -3.6966    1.4121 H   0  0  0  0  0  0  0  0  0  0  0  0
   -3.4486   -2.7779    0.8245 C   0  0  0  0  0  0  0  0  0  0  0  0
   -4.1789   -2.0549    1.1955 H   0  0  0  0  0  0  0  0  0  0  0  0
   -3.6698   -3.0079   -0.2202 H   0  0  0  0  0  0  0  0  0  0  0  0
   -2.0488   -2.2065    0.9426 C   0  0  0  0  0  0  0  0  0  0  0  0
   -1.2464   -2.7156    1.7083 O   0  0  0  0  0  0  0  0  0  0  0  0
   -1.7064   -1.0800    0.2233 N   0  0  0  0  0  0  0  0  0  0  0  0
   -2.4362   -0.6257   -0.3213 H   0  0  0  0  0  0  0  0  0  0  0  0
   -0.3771   -0.4494    0.2383 C   0  0  1  0  0  0  0  0  0  0  0  0
    0.2115   -0.8156    1.0854 H   0  0  0  0  0  0  0  0  0  0  0  0
    0.3738   -0.7579   -1.0694 C   0  0  0  0  0  0  0  0  0  0  0  0
   -0.1862   -0.3419   -1.9135 H   0  0  0  0  0  0  0  0  0  0  0  0
    1.3513   -0.2648   -1.0512 H   0  0  0  0  0  0  0  0  0  0  0  0
    0.5814   -2.2347   -1.2955 C   0  0  0  0  0  0  0  0  0  0  0  0
    0.1235   -2.9786   -2.3605 N   0  0  0  0  0  0  0  0  0  0  0  0
   -0.4089   -2.6309   -3.1546 H   0  0  0  0  0  0  0  0  0  0  0  0
    0.5239   -4.2891   -2.1815 C   0  0  0  0  0  0  0  0  0  0  0  0
    0.3146   -5.1053   -2.8668 H   0  0  0  0  0  0  0  0  0  0  0  0
    1.1994   -4.4071   -1.0652 N   0  0  0  0  0  0  0  0  0  0  0  0
    1.2297   -3.1385   -0.4927 C   0  0  0  0  0  0  0  0  0  0  0  0
    1.7048   -2.8995    0.4542 H   0  0  0  0  0  0  0  0  0  0  0  0
   -0.5087    1.0781    0.3751 C   0  0  0  0  0  0  0  0  0  0  0  0
   -1.3313    1.6812   -0.3053 O   0  0  0  0  0  0  0  0  0  0  0  0
    0.2948    1.7775    1.2565 N   0  0  0  0  0  0  0  0  0  0  0  0
    0.9127    1.2388    1.8579 H   0  0  0  0  0  0  0  0  0  0  0  0
    0.1858    3.2160    1.4676 C   0  0  0  0  0  0  0  0  0  0  0  0
   -0.8056    3.4725    1.8556 H   0  0  0  0  0  0  0  0  0  0  0  0
    0.9375    3.5500    2.1892 H   0  0  0  0  0  0  0  0  0  0  0  0
    0.3468    3.7552    0.5281 H   0  0  0  0  0  0  0  0  0  0  0  0
  1  2  1  0  0  0  0
  2  3  1  0  0  0  0
  2  4  1  0  0  0  0
  2  5  1  0  0  0  0
  5  6  2  0  0  0  0
  5  7  1  0  0  0  0
  7  8  1  0  0  0  0
  7  9  1  0  0  0  0
  9 10  1  0  0  0  0
  9 11  1  0  0  0  0
  9 22  1  0  0  0  0
 11 12  1  0  0  0  0
 11 13  1  0  0  0  0
 11 14  1  0  0  0  0
 14 15  1  0  0  0  0
 14 20  2  0  0  0  0
 15 16  1  0  0  0  0
 15 17  1  0  0  0  0
 17 18  1  0  0  0  0
 17 19  2  0  0  0  0
 19 20  1  0  0  0  0
 20 21  1  0  0  0  0
 22 23  2  0  0  0  0
 22 24  1  0  0  0  0
 24 25  1  0  0  0  0
 24 26  1  0  0  0  0
 26 27  1  0  0  0  0
 26 28  1  0  0  0  0
 26 29  1  0  0  0  0
M  END
$$$$

  -OEChem-04042215593D

 29 29  0     1  0  0  0  0  0999 V2000
   -3.5411   -3.6897    1.4392 H   0  0  0  0  0  0  0  0  0  0  0  0
   -3.4441   -2.7949    0.8180 C   0  0  0  0  0  0  0  0  0  0  0  0
   -4.2081   -2.0728    1.1157 H   0  0  0  0  0  0  0  0  0  0  0  0
   -3.6013   -3.0737   -0.2265 H   0  0  0  0  0  0  0  0  0  0  0  0
   -2.0646   -2.1890    0.9895 C   0  0  0  0  0  0  0  0  0  0  0  0
   -1.2915   -2.6557    1.8107 O   0  0  0  0  0  0  0  0  0  0  0  0
   -1.7083   -1.0762    0.2561 N   0  0  0  0  0  0  0  0  0  0  0  0
   -2.4134   -0.6661   -0.3521 H   0  0  0  0  0  0  0  0  0  0  0  0
   -0.3769   -0.4492    0.2729 C   0  0  1  0  0  0  0  0  0  0  0  0
    0.2072   -0.8062    1.1270 H   0  0  0  0  0  0  0  0  0  0  0  0
    0.3770   -0.7696   -1.0317 C   0  0  0  0  0  0  0  0  0  0  0  0
   -0.1915   -0.3583   -1.8726 H   0  0  0  0  0  0  0  0  0  0  0  0
    1.3517   -0.2708   -1.0224 H   0  0  0  0  0  0  0  0  0  0  0  0
    0.5928   -2.2446   -1.2704 C   0  0  0  0  0  0  0  0  0  0  0  0
    0.3964   -2.9112   -2.4600 N   0  0  0  0  0  0  0  0  0  0  0  0
    0.0975   -2.4973   -3.3403 H   0  0  0  0  0  0  0  0  0  0  0  0
    0.6845   -4.2486   -2.2667 C   0  0  0  0  0  0  0  0  0  0  0  0
    0.6263   -5.0176   -3.0316 H   0  0  0  0  0  0  0  0  0  0  0  0
    1.0415   -4.4573   -1.0239 N   0  0  0  0  0  0  0  0  0  0  0  0
    0.9782   -3.2212   -0.3862 C   0  0  0  0  0  0  0  0  0  0  0  0
    1.2043   -3.0567    0.6631 H   0  0  0  0  0  0  0  0  0  0  0  0
   -0.5036    1.0813    0.3836 C   0  0  0  0  0  0  0  0  0  0  0  0
   -1.3074    1.6798   -0.3231 O   0  0  0  0  0  0  0  0  0  0  0  0
    0.2955    1.7908    1.2612 N   0  0  0  0  0  0  0  0  0  0  0  0
    0.8970    1.2581    1.8843 H   0  0  0  0  0  0  0  0  0  0  0  0
    0.1936    3.2334    1.4449 C   0  0  0  0  0  0  0  0  0  0  0  0
   -0.7982    3.5019    1.8235 H   0  0  0  0  0  0  0  0  0  0  0  0
    0.9438    3.5769    2.1634 H   0  0  0  0  0  0  0  0  0  0  0  0
    0.3619    3.7537    0.4960 H   0  0  0  0  0  0  0  0  0  0  0  0
  1  2  1  0  0  0  0
  2  3  1  0  0  0  0
  2  4  1  0  0  0  0
  2  5  1  0  0  0  0
  5  6  2  0  0  0  0
  5  7  1  0  0  0  0
  7  8  1  0  0  0  0
  7  9  1  0  0  0  0
  9 10  1  0  0  0  0
  9 11  1  0  0  0  0
  9 22  1  0  0  0  0
 11 12  1  0  0  0  0
 11 13  1  0  0  0  0
 11 14  1  0  0  0  0
 14 15  1  0  0  0  0
 14 20  2  0  0  0  0
 15 16  1  0  0  0  0
 15 17  1  0  0  0  0
 17 18  1  0  0  0  0
 17 19  2  0  0  0  0
 19 20  1  0  0  0  0
 20 21  1  0  0  0  0
 22 23  2  0  0  0  0
 22 24  1  0  0  0  0
 24 25  1  0  0  0  0
 24 26  1  0  0  0  0
 26 27  1  0  0  0  0
 26 28  1  0  0  0  0
 26 29  1  0  0  0  0
M  END
$$$$

  -OEChem-04042215593D

 29 29  0     1  0  0  0  0  0999 V2000
   -3.6146   -3.6519    1.4794 H   0  0  0  0  0  0  0  0  0  0  0  0
   -3.4857   -2.7876    0.8219 C   0  0  0  0  0  0  0  0  0  0  0  0
   -4.2661   -2.0557    1.0433 H   0  0  0  0  0  0  0  0  0  0  0  0
   -3.5864   -3.1174   -0.2148 H   0  0  0  0  0  0  0  0  0  0  0  0
   -2.1180   -2.1682    1.0364 C   0  0  0  0  0  0  0  0  0  0  0  0
   -1.3800   -2.6062    1.9041 O   0  0  0  0  0  0  0  0  0  0  0  0
   -1.7364   -1.0716    0.2918 N   0  0  0  0  0  0  0  0  0  0  0  0
   -2.4184   -0.6892   -0.3593 H   0  0  0  0  0  0  0  0  0  0  0  0
   -0.3988   -0.4555    0.3080 C   0  0  1  0  0  0  0  0  0  0  0  0
    0.1777   -0.8080    1.1693 H   0  0  0  0  0  0  0  0  0  0  0  0
    0.3612   -0.7918   -0.9921 C   0  0  0  0  0  0  0  0  0  0  0  0
   -0.2062   -0.3827   -1.8350 H   0  0  0  0  0  0  0  0  0  0  0  0
    1.3353   -0.2916   -0.9819 H   0  0  0  0  0  0  0  0  0  0  0  0
    0.5855   -2.2638   -1.2466 C   0  0  0  0  0  0  0  0  0  0  0  0
    0.6781   -2.8562   -2.4875 N   0  0  0  0  0  0  0  0  0  0  0  0
    0.5958   -2.3872   -3.3869 H   0  0  0  0  0  0  0  0  0  0  0  0
    0.9093   -4.2072   -2.3151 C   0  0  0  0  0  0  0  0  0  0  0  0
    1.0261   -4.9289   -3.1186 H   0  0  0  0  0  0  0  0  0  0  0  0
    0.9702   -4.4935   -1.0387 N   0  0  0  0  0  0  0  0  0  0  0  0
    0.7728   -3.2946   -0.3590 C   0  0  0  0  0  0  0  0  0  0  0  0
    0.7881   -3.1931    0.7213 H   0  0  0  0  0  0  0  0  0  0  0  0
   -0.5105    1.0782    0.3933 C   0  0  0  0  0  0  0  0  0  0  0  0
   -1.2947    1.6769   -0.3347 O   0  0  0  0  0  0  0  0  0  0  0  0
    0.2912    1.7905    1.2661 N   0  0  0  0  0  0  0  0  0  0  0  0
    0.8767    1.2593    1.9053 H   0  0  0  0  0  0  0  0  0  0  0  0
    0.2175    3.2385    1.4185 C   0  0  0  0  0  0  0  0  0  0  0  0
   -0.7724    3.5359    1.7804 H   0  0  0  0  0  0  0  0  0  0  0  0
    0.9674    3.5814    2.1379 H   0  0  0  0  0  0  0  0  0  0  0  0
    0.4069    3.7352    0.4610 H   0  0  0  0  0  0  0  0  0  0  0  0
  1  2  1  0  0  0  0
  2  3  1  0  0  0  0
  2  4  1  0  0  0  0
  2  5  1  0  0  0  0
  5  6  2  0  0  0  0
  5  7  1  0  0  0  0
  7  8  1  0  0  0  0
  7  9  1  0  0  0  0
  9 10  1  0  0  0  0
  9 11  1  0  0  0  0
  9 22  1  0  0  0  0
 11 12  1  0  0  0  0
 11 13  1  0  0  0  0
 11 14  1  0  0  0  0
 14 15  1  0  0  0  0
 14 20  2  0  0  0  0
 15 16  1  0  0  0  0
 15 17  1  0  0  0  0
 17 18  1  0  0  0  0
 17 19  2  0  0  0  0
 19 20  1  0  0  0  0
 20 21  1  0  0  0  0
 22 23  2  0  0  0  0
 22 24  1  0  0  0  0
 24 25  1  0  0  0  0
 24 26  1  0  0  0  0
 26 27  1  0  0  0  0
 26 28  1  0  0  0  0
 26 29  1  0  0  0  0
M  END
$$$$

  -OEChem-04042215593D

 29 29  0     1  0  0  0  0  0999 V2000
   -3.6934   -3.6094    1.5103 H   0  0  0  0  0  0  0  0  0  0  0  0
   -3.5411   -2.7579    0.8412 C   0  0  0  0  0  0  0  0  0  0  0  0
   -4.3265   -2.0205    1.0231 H   0  0  0  0  0  0  0  0  0  0  0  0
   -3.6083   -3.1071   -0.1920 H   0  0  0  0  0  0  0  0  0  0  0  0
   -2.1800   -2.1368    1.0893 C   0  0  0  0  0  0  0  0  0  0  0  0
   -1.4851   -2.5379    2.0087 O   0  0  0  0  0  0  0  0  0  0  0  0
   -1.7650   -1.0653    0.3266 N   0  0  0  0  0  0  0  0  0  0  0  0
   -2.4206   -0.7080   -0.3648 H   0  0  0  0  0  0  0  0  0  0  0  0
   -0.4167   -0.4709    0.3418 C   0  0  1  0  0  0  0  0  0  0  0  0
    0.1489   -0.8190    1.2120 H   0  0  0  0  0  0  0  0  0  0  0  0
    0.3528   -0.8248   -0.9509 C   0  0  0  0  0  0  0  0  0  0  0  0
   -0.2027   -0.4097   -1.7989 H   0  0  0  0  0  0  0  0  0  0  0  0
    1.3285   -0.3284   -0.9280 H   0  0  0  0  0  0  0  0  0  0  0  0
    0.5834   -2.2921   -1.2317 C   0  0  0  0  0  0  0  0  0  0  0  0
    0.9745   -2.8002   -2.4521 N   0  0  0  0  0  0  0  0  0  0  0  0
    1.1143   -2.2679   -3.3082 H   0  0  0  0  0  0  0  0  0  0  0  0
    1.1429   -4.1658   -2.3318 C   0  0  0  0  0  0  0  0  0  0  0  0
    1.4366   -4.8335   -3.1367 H   0  0  0  0  0  0  0  0  0  0  0  0
    0.8979   -4.5405   -1.1016 N   0  0  0  0  0  0  0  0  0  0  0  0
    0.5650   -3.3850   -0.4004 C   0  0  0  0  0  0  0  0  0  0  0  0
    0.3585   -3.3612    0.6628 H   0  0  0  0  0  0  0  0  0  0  0  0
   -0.5090    1.0664    0.3919 C   0  0  0  0  0  0  0  0  0  0  0  0
   -1.2773    1.6606   -0.3566 O   0  0  0  0  0  0  0  0  0  0  0  0
    0.2944    1.7866    1.2570 N   0  0  0  0  0  0  0  0  0  0  0  0
    0.8586    1.2609    1.9194 H   0  0  0  0  0  0  0  0  0  0  0  0
    0.2287    3.2374    1.3873 C   0  0  0  0  0  0  0  0  0  0  0  0
   -0.7621    3.5457    1.7373 H   0  0  0  0  0  0  0  0  0  0  0  0
    0.9751    3.5868    2.1072 H   0  0  0  0  0  0  0  0  0  0  0  0
    0.4281    3.7191    0.4241 H   0  0  0  0  0  0  0  0  0  0  0  0
  1  2  1  0  0  0  0
  2  3  1  0  0  0  0
  2  4  1  0  0  0  0
  2  5  1  0  0  0  0
  5  6  2  0  0  0  0
  5  7  1  0  0  0  0
  7  8  1  0  0  0  0
  7  9  1  0  0  0  0
  9 10  1  0  0  0  0
  9 11  1  0  0  0  0
  9 22  1  0  0  0  0
 11 12  1  0  0  0  0
 11 13  1  0  0  0  0
 11 14  1  0  0  0  0
 14 15  1  0  0  0  0
 14 20  2  0  0  0  0
 15 16  1  0  0  0  0
 15 17  1  0  0  0  0
 17 18  1  0  0  0  0
 17 19  2  0  0  0  0
 19 20  1  0  0  0  0
 20 21  1  0  0  0  0
 22 23  2  0  0  0  0
 22 24  1  0  0  0  0
 24 25  1  0  0  0  0
 24 26  1  0  0  0  0
 26 27  1  0  0  0  0
 26 28  1  0  0  0  0
 26 29  1  0  0  0  0
M  END
$$$$

  -OEChem-04042215593D

 29 29  0     1  0  0  0  0  0999 V2000
   -3.8670   -3.4676    1.7246 H   0  0  0  0  0  0  0  0  0  0  0  0
   -3.7034   -2.6300    1.0407 C   0  0  0  0  0  0  0  0  0  0  0  0
   -4.4180   -1.8377    1.2755 H   0  0  0  0  0  0  0  0  0  0  0  0
   -3.8728   -2.9738    0.0173 H   0  0  0  0  0  0  0  0  0  0  0  0
   -2.2864   -2.1083    1.1836 C   0  0  0  0  0  0  0  0  0  0  0  0
   -1.5443   -2.5782    2.0315 O   0  0  0  0  0  0  0  0  0  0  0  0
   -1.8529   -1.0677    0.3889 N   0  0  0  0  0  0  0  0  0  0  0  0
   -2.5317   -0.6551   -0.2480 H   0  0  0  0  0  0  0  0  0  0  0  0
   -0.4851   -0.5211    0.3515 C   0  0  1  0  0  0  0  0  0  0  0  0
    0.0727   -0.8676    1.2273 H   0  0  0  0  0  0  0  0  0  0  0  0
    0.3119   -0.9024   -0.9253 C   0  0  0  0  0  0  0  0  0  0  0  0
   -0.0685   -0.2854   -1.7469 H   0  0  0  0  0  0  0  0  0  0  0  0
    1.3559   -0.6145   -0.7637 H   0  0  0  0  0  0  0  0  0  0  0  0
    0.3021   -2.3258   -1.4470 C   0  0  0  0  0  0  0  0  0  0  0  0
    0.9956   -2.7009   -2.5797 N   0  0  0  0  0  0  0  0  0  0  0  0
    1.5216   -2.0818   -3.1927 H   0  0  0  0  0  0  0  0  0  0  0  0
    0.8476   -4.0598   -2.7722 C   0  0  0  0  0  0  0  0  0  0  0  0
    1.2710   -4.6261   -3.5968 H   0  0  0  0  0  0  0  0  0  0  0  0
    0.1187   -4.5682   -1.8126 N   0  0  0  0  0  0  0  0  0  0  0  0
   -0.2064   -3.5102   -0.9695 C   0  0  0  0  0  0  0  0  0  0  0  0
   -0.7618   -3.6436   -0.0532 H   0  0  0  0  0  0  0  0  0  0  0  0
   -0.5379    1.0198    0.3749 C   0  0  0  0  0  0  0  0  0  0  0  0
   -1.3303    1.6202   -0.3428 O   0  0  0  0  0  0  0  0  0  0  0  0
    0.3095    1.7355    1.2012 N   0  0  0  0  0  0  0  0  0  0  0  0
    0.8856    1.2076    1.8515 H   0  0  0  0  0  0  0  0  0  0  0  0
    0.2724    3.1886    1.3172 C   0  0  0  0  0  0  0  0  0  0  0  0
   -0.6974    3.5174    1.7053 H   0  0  0  0  0  0  0  0  0  0  0  0
    1.0543    3.5334    2.0008 H   0  0  0  0  0  0  0  0  0  0  0  0
    0.4385    3.6564    0.3409 H   0  0  0  0  0  0  0  0  0  0  0  0
  1  2  1  0  0  0  0
  2  3  1  0  0  0  0
  2  4  1  0  0  0  0
  2  5  1  0  0  0  0
  5  6  2  0  0  0  0
  5  7  1  0  0  0  0
  7  8  1  0  0  0  0
  7  9  1  0  0  0  0
  9 10  1  0  0  0  0
  9 11  1  0  0  0  0
  9 22  1  0  0  0  0
 11 12  1  0  0  0  0
 11 13  1  0  0  0  0
 11 14  1  0  0  0  0
 14 15  1  0  0  0  0
 14 20  2  0  0  0  0
 15 16  1  0  0  0  0
 15 17  1  0  0  0  0
 17 18  1  0  0  0  0
 17 19  2  0  0  0  0
 19 20  1  0  0  0  0
 20 21  1  0  0  0  0
 22 23  2  0  0  0  0
 22 24  1  0  0  0  0
 24 25  1  0  0  0  0
 24 26  1  0  0  0  0
 26 27  1  0  0  0  0
 26 28  1  0  0  0  0
 26 29  1  0  0  0  0
M  END
$$$$

  -OEChem-04042215593D

 29 29  0     1  0  0  0  0  0999 V2000
   -3.8994   -3.4323    1.7640 H   0  0  0  0  0  0  0  0  0  0  0  0
   -3.7499   -2.5655    1.1142 C   0  0  0  0  0  0  0  0  0  0  0  0
   -4.4110   -1.7600    1.4426 H   0  0  0  0  0  0  0  0  0  0  0  0
   -4.0078   -2.8459    0.0900 H   0  0  0  0  0  0  0  0  0  0  0  0
   -2.3048   -2.1089    1.1776 C   0  0  0  0  0  0  0  0  0  0  0  0
   -1.5268   -2.6496    1.9469 O   0  0  0  0  0  0  0  0  0  0  0  0
   -1.8765   -1.0682    0.3788 N   0  0  0  0  0  0  0  0  0  0  0  0
   -2.5770   -0.5925   -0.1872 H   0  0  0  0  0  0  0  0  0  0  0  0
   -0.5045   -0.5344    0.3351 C   0  0  1  0  0  0  0  0  0  0  0  0
    0.0440   -0.8792    1.2174 H   0  0  0  0  0  0  0  0  0  0  0  0
    0.3183   -0.9184   -0.9242 C   0  0  0  0  0  0  0  0  0  0  0  0
   -0.0299   -0.2965   -1.7565 H   0  0  0  0  0  0  0  0  0  0  0  0
    1.3571   -0.6364   -0.7250 H   0  0  0  0  0  0  0  0  0  0  0  0
    0.3265   -2.3414   -1.4489 C   0  0  0  0  0  0  0  0  0  0  0  0
    1.2649   -2.7778   -2.3620 N   0  0  0  0  0  0  0  0  0  0  0  0
    2.0091   -2.2171   -2.7709 H   0  0  0  0  0  0  0  0  0  0  0  0
    1.0328   -4.1074   -2.6510 C   0  0  0  0  0  0  0  0  0  0  0  0
    1.6163   -4.7100   -3.3412 H   0  0  0  0  0  0  0  0  0  0  0  0
    0.0013   -4.5372   -1.9712 N   0  0  0  0  0  0  0  0  0  0  0  0
   -0.4411   -3.4574   -1.2135 C   0  0  0  0  0  0  0  0  0  0  0  0
   -1.2898   -3.5225   -0.5493 H   0  0  0  0  0  0  0  0  0  0  0  0
   -0.5495    1.0062    0.3629 C   0  0  0  0  0  0  0  0  0  0  0  0
   -1.3538    1.6114   -0.3371 O   0  0  0  0  0  0  0  0  0  0  0  0
    0.3065    1.7145    1.1865 N   0  0  0  0  0  0  0  0  0  0  0  0
    0.8977    1.1813    1.8187 H   0  0  0  0  0  0  0  0  0  0  0  0
    0.2758    3.1668    1.3103 C   0  0  0  0  0  0  0  0  0  0  0  0
   -0.6875    3.4961    1.7135 H   0  0  0  0  0  0  0  0  0  0  0  0
    1.0685    3.5058    1.9842 H   0  0  0  0  0  0  0  0  0  0  0  0
    0.4292    3.6384    0.3339 H   0  0  0  0  0  0  0  0  0  0  0  0
  1  2  1  0  0  0  0
  2  3  1  0  0  0  0
  2  4  1  0  0  0  0
  2  5  1  0  0  0  0
  5  6  2  0  0  0  0
  5  7  1  0  0  0  0
  7  8  1  0  0  0  0
  7  9  1  0  0  0  0
  9 10  1  0  0  0  0
  9 11  1  0  0  0  0
  9 22  1  0  0  0  0
 11 12  1  0  0  0  0
 11 13  1  0  0  0  0
 11 14  1  0  0  0  0
 14 15  1  0  0  0  0
 14 20  2  0  0  0  0
 15 16  1  0  0  0  0
 15 17  1  0  0  0  0
 17 18  1  0  0  0  0
 17 19  2  0  0  0  0
 19 20  1  0  0  0  0
 20 21  1  0  0  0  0
 22 23  2  0  0  0  0
 22 24  1  0  0  0  0
 24 25  1  0  0  0  0
 24 26  1  0  0  0  0
 26 27  1  0  0  0  0
 26 28  1  0  0  0  0
 26 29  1  0  0  0  0
M  END
$$$$

  -OEChem-04042215593D

 29 29  0     1  0  0  0  0  0999 V2000
   -3.8396   -3.4823    1.7093 H   0  0  0  0  0  0  0  0  0  0  0  0
   -3.7134   -2.5800    1.1044 C   0  0  0  0  0  0  0  0  0  0  0  0
   -4.3574   -1.7933    1.5047 H   0  0  0  0  0  0  0  0  0  0  0  0
   -4.0141   -2.8011    0.0775 H   0  0  0  0  0  0  0  0  0  0  0  0
   -2.2650   -2.1304    1.1349 C   0  0  0  0  0  0  0  0  0  0  0  0
   -1.4676   -2.6929    1.8676 O   0  0  0  0  0  0  0  0  0  0  0  0
   -1.8591   -1.0688    0.3507 N   0  0  0  0  0  0  0  0  0  0  0  0
   -2.5748   -0.5716   -0.1768 H   0  0  0  0  0  0  0  0  0  0  0  0
   -0.4930   -0.5217    0.3121 C   0  0  1  0  0  0  0  0  0  0  0  0
    0.0564   -0.8727    1.1915 H   0  0  0  0  0  0  0  0  0  0  0  0
    0.3348   -0.8971   -0.9446 C   0  0  0  0  0  0  0  0  0  0  0  0
   -0.0110   -0.2811   -1.7821 H   0  0  0  0  0  0  0  0  0  0  0  0
    1.3728   -0.6132   -0.7452 H   0  0  0  0  0  0  0  0  0  0  0  0
    0.3304   -2.3300   -1.4404 C   0  0  0  0  0  0  0  0  0  0  0  0
    1.3964   -2.9100   -2.0973 N   0  0  0  0  0  0  0  0  0  0  0  0
    2.2953   -2.4724   -2.2860 H   0  0  0  0  0  0  0  0  0  0  0  0
    1.0545   -4.1975   -2.4618 C   0  0  0  0  0  0  0  0  0  0  0  0
    1.7042   -4.8932   -2.9850 H   0  0  0  0  0  0  0  0  0  0  0  0
   -0.1730   -4.4569   -2.0901 N   0  0  0  0  0  0  0  0  0  0  0  0
   -0.6357   -3.3073   -1.4584 C   0  0  0  0  0  0  0  0  0  0  0  0
   -1.6451   -3.2080   -1.0809 H   0  0  0  0  0  0  0  0  0  0  0  0
   -0.5486    1.0170    0.3681 C   0  0  0  0  0  0  0  0  0  0  0  0
   -1.3647    1.6265   -0.3140 O   0  0  0  0  0  0  0  0  0  0  0  0
    0.3043    1.7187    1.2005 N   0  0  0  0  0  0  0  0  0  0  0  0
    0.9063    1.1804    1.8178 H   0  0  0  0  0  0  0  0  0  0  0  0
    0.2556    3.1678    1.3549 C   0  0  0  0  0  0  0  0  0  0  0  0
   -0.7114    3.4768    1.7657 H   0  0  0  0  0  0  0  0  0  0  0  0
    1.0446    3.5024    2.0353 H   0  0  0  0  0  0  0  0  0  0  0  0
    0.4021    3.6617    0.3885 H   0  0  0  0  0  0  0  0  0  0  0  0
  1  2  1  0  0  0  0
  2  3  1  0  0  0  0
  2  4  1  0  0  0  0
  2  5  1  0  0  0  0
  5  6  2  0  0  0  0
  5  7  1  0  0  0  0
  7  8  1  0  0  0  0
  7  9  1  0  0  0  0
  9 10  1  0  0  0  0
  9 11  1  0  0  0  0
  9 22  1  0  0  0  0
 11 12  1  0  0  0  0
 11 13  1  0  0  0  0
 11 14  1  0  0  0  0
 14 15  1  0  0  0  0
 14 20  2  0  0  0  0
 15 16  1  0  0  0  0
 15 17  1  0  0  0  0
 17 18  1  0  0  0  0
 17 19  2  0  0  0  0
 19 20  1  0  0  0  0
 20 21  1  0  0  0  0
 22 23  2  0  0  0  0
 22 24  1  0  0  0  0
 24 25  1  0  0  0  0
 24 26  1  0  0  0  0
 26 27  1  0  0  0  0
 26 28  1  0  0  0  0
 26 29  1  0  0  0  0
M  END
$$$$

  -OEChem-04042215593D

 29 29  0     1  0  0  0  0  0999 V2000
   -3.7499   -3.5475    1.6483 H   0  0  0  0  0  0  0  0  0  0  0  0
   -3.6381   -2.6485    1.0357 C   0  0  0  0  0  0  0  0  0  0  0  0
   -4.3137   -1.8773    1.4131 H   0  0  0  0  0  0  0  0  0  0  0  0
   -3.9101   -2.8903    0.0053 H   0  0  0  0  0  0  0  0  0  0  0  0
   -2.2051   -2.1540    1.0916 C   0  0  0  0  0  0  0  0  0  0  0  0
   -1.3998   -2.7003    1.8282 O   0  0  0  0  0  0  0  0  0  0  0  0
   -1.8256   -1.0682    0.3275 N   0  0  0  0  0  0  0  0  0  0  0  0
   -2.5512   -0.5843   -0.1982 H   0  0  0  0  0  0  0  0  0  0  0  0
   -0.4711   -0.4931    0.2948 C   0  0  1  0  0  0  0  0  0  0  0  0
    0.0884   -0.8493    1.1656 H   0  0  0  0  0  0  0  0  0  0  0  0
    0.3424   -0.8605   -0.9711 C   0  0  0  0  0  0  0  0  0  0  0  0
   -0.0300   -0.2611   -1.8093 H   0  0  0  0  0  0  0  0  0  0  0  0
    1.3838   -0.5678   -0.8052 H   0  0  0  0  0  0  0  0  0  0  0  0
    0.3097   -2.3070   -1.4175 C   0  0  0  0  0  0  0  0  0  0  0  0
    1.4057   -3.0476   -1.8072 N   0  0  0  0  0  0  0  0  0  0  0  0
    2.3770   -2.7465   -1.7775 H   0  0  0  0  0  0  0  0  0  0  0  0
    0.9753   -4.2902   -2.2328 C   0  0  0  0  0  0  0  0  0  0  0  0
    1.6228   -5.0910   -2.5790 H   0  0  0  0  0  0  0  0  0  0  0  0
   -0.3307   -4.3621   -2.1657 N   0  0  0  0  0  0  0  0  0  0  0  0
   -0.7567   -3.1337   -1.6729 C   0  0  0  0  0  0  0  0  0  0  0  0
   -1.7997   -2.8633   -1.5490 H   0  0  0  0  0  0  0  0  0  0  0  0
   -0.5449    1.0430    0.3807 C   0  0  0  0  0  0  0  0  0  0  0  0
   -1.3695    1.6535   -0.2901 O   0  0  0  0  0  0  0  0  0  0  0  0
    0.3018    1.7417    1.2223 N   0  0  0  0  0  0  0  0  0  0  0  0
    0.9081    1.2008    1.8331 H   0  0  0  0  0  0  0  0  0  0  0  0
    0.2376    3.1880    1.3977 C   0  0  0  0  0  0  0  0  0  0  0  0
   -0.7337    3.4809    1.8099 H   0  0  0  0  0  0  0  0  0  0  0  0
    1.0209    3.5210    2.0854 H   0  0  0  0  0  0  0  0  0  0  0  0
    0.3819    3.6979    0.4392 H   0  0  0  0  0  0  0  0  0  0  0  0
  1  2  1  0  0  0  0
  2  3  1  0  0  0  0
  2  4  1  0  0  0  0
  2  5  1  0  0  0  0
  5  6  2  0  0  0  0
  5  7  1  0  0  0  0
  7  8  1  0  0  0  0
  7  9  1  0  0  0  0
  9 10  1  0  0  0  0
  9 11  1  0  0  0  0
  9 22  1  0  0  0  0
 11 12  1  0  0  0  0
 11 13  1  0  0  0  0
 11 14  1  0  0  0  0
 14 15  1  0  0  0  0
 14 20  2  0  0  0  0
 15 16  1  0  0  0  0
 15 17  1  0  0  0  0
 17 18  1  0  0  0  0
 17 19  2  0  0  0  0
 19 20  1  0  0  0  0
 20 21  1  0  0  0  0
 22 23  2  0  0  0  0
 22 24  1  0  0  0  0
 24 25  1  0  0  0  0
 24 26  1  0  0  0  0
 26 27  1  0  0  0  0
 26 28  1  0  0  0  0
 26 29  1  0  0  0  0
M  END
$$$$

  -OEChem-04042215593D

 29 29  0     1  0  0  0  0  0999 V2000
   -3.6576   -3.6159    1.5782 H   0  0  0  0  0  0  0  0  0  0  0  0
   -3.5634   -2.7155    0.9648 C   0  0  0  0  0  0  0  0  0  0  0  0
   -4.2787   -1.9695    1.3191 H   0  0  0  0  0  0  0  0  0  0  0  0
   -3.7958   -2.9716   -0.0718 H   0  0  0  0  0  0  0  0  0  0  0  0
   -2.1529   -2.1665    1.0580 C   0  0  0  0  0  0  0  0  0  0  0  0
   -1.3441   -2.6883    1.8093 O   0  0  0  0  0  0  0  0  0  0  0  0
   -1.7966   -1.0644    0.3066 N   0  0  0  0  0  0  0  0  0  0  0  0
   -2.5261   -0.6026   -0.2330 H   0  0  0  0  0  0  0  0  0  0  0  0
   -0.4515   -0.4669    0.2824 C   0  0  1  0  0  0  0  0  0  0  0  0
    0.1183   -0.8253    1.1453 H   0  0  0  0  0  0  0  0  0  0  0  0
    0.3432   -0.8299   -0.9935 C   0  0  0  0  0  0  0  0  0  0  0  0
   -0.0536   -0.2426   -1.8291 H   0  0  0  0  0  0  0  0  0  0  0  0
    1.3891   -0.5368   -0.8608 H   0  0  0  0  0  0  0  0  0  0  0  0
    0.2783   -2.2862   -1.3943 C   0  0  0  0  0  0  0  0  0  0  0  0
    1.3338   -3.1642   -1.5135 N   0  0  0  0  0  0  0  0  0  0  0  0
    2.3010   -2.9839   -1.2547 H   0  0  0  0  0  0  0  0  0  0  0  0
    0.8544   -4.3642   -2.0051 C   0  0  0  0  0  0  0  0  0  0  0  0
    1.4560   -5.2515   -2.1803 H   0  0  0  0  0  0  0  0  0  0  0  0
   -0.4327   -4.2773   -2.2375 N   0  0  0  0  0  0  0  0  0  0  0  0
   -0.7987   -2.9858   -1.8768 C   0  0  0  0  0  0  0  0  0  0  0  0
   -1.8000   -2.5805   -1.9855 H   0  0  0  0  0  0  0  0  0  0  0  0
   -0.5407    1.0669    0.3869 C   0  0  0  0  0  0  0  0  0  0  0  0
   -1.3638    1.6776   -0.2853 O   0  0  0  0  0  0  0  0  0  0  0  0
    0.2981    1.7640    1.2374 N   0  0  0  0  0  0  0  0  0  0  0  0
    0.9057    1.2220    1.8458 H   0  0  0  0  0  0  0  0  0  0  0  0
    0.2244    3.2083    1.4239 C   0  0  0  0  0  0  0  0  0  0  0  0
   -0.7495    3.4929    1.8360 H   0  0  0  0  0  0  0  0  0  0  0  0
    1.0040    3.5408    2.1160 H   0  0  0  0  0  0  0  0  0  0  0  0
    0.3681    3.7255    0.4693 H   0  0  0  0  0  0  0  0  0  0  0  0
  1  2  1  0  0  0  0
  2  3  1  0  0  0  0
  2  4  1  0  0  0  0
  2  5  1  0  0  0  0
  5  6  2  0  0  0  0
  5  7  1  0  0  0  0
  7  8  1  0  0  0  0
  7  9  1  0  0  0  0
  9 10  1  0  0  0  0
  9 11  1  0  0  0  0
  9 22  1  0  0  0  0
 11 12  1  0  0  0  0
 11 13  1  0  0  0  0
 11 14  1  0  0  0  0
 14 15  1  0  0  0  0
 14 20  2  0  0  0  0
 15 16  1  0  0  0  0
 15 17  1  0  0  0  0
 17 18  1  0  0  0  0
 17 19  2  0  0  0  0
 19 20  1  0  0  0  0
 20 21  1  0  0  0  0
 22 23  2  0  0  0  0
 22 24  1  0  0  0  0
 24 25  1  0  0  0  0
 24 26  1  0  0  0  0
 26 27  1  0  0  0  0
 26 28  1  0  0  0  0
 26 29  1  0  0  0  0
M  END
$$$$

  -OEChem-04042215593D

 29 29  0     1  0  0  0  0  0999 V2000
   -3.6046   -3.6533    1.5271 H   0  0  0  0  0  0  0  0  0  0  0  0
   -3.5168   -2.7542    0.9110 C   0  0  0  0  0  0  0  0  0  0  0  0
   -4.2512   -2.0198    1.2498 H   0  0  0  0  0  0  0  0  0  0  0  0
   -3.7266   -3.0194   -0.1282 H   0  0  0  0  0  0  0  0  0  0  0  0
   -2.1182   -2.1788    1.0239 C   0  0  0  0  0  0  0  0  0  0  0  0
   -1.3051   -2.6944    1.7758 O   0  0  0  0  0  0  0  0  0  0  0  0
   -1.7772   -1.0630    0.2856 N   0  0  0  0  0  0  0  0  0  0  0  0
   -2.5084   -0.6172   -0.2645 H   0  0  0  0  0  0  0  0  0  0  0  0
   -0.4386   -0.4497    0.2649 C   0  0  1  0  0  0  0  0  0  0  0  0
    0.1404   -0.8145    1.1190 H   0  0  0  0  0  0  0  0  0  0  0  0
    0.3362   -0.8042   -1.0226 C   0  0  0  0  0  0  0  0  0  0  0  0
   -0.0784   -0.2208   -1.8524 H   0  0  0  0  0  0  0  0  0  0  0  0
    1.3862   -0.5153   -0.9151 H   0  0  0  0  0  0  0  0  0  0  0  0
    0.2452   -2.2648   -1.3931 C   0  0  0  0  0  0  0  0  0  0  0  0
    1.2127   -3.2345   -1.2520 N   0  0  0  0  0  0  0  0  0  0  0  0
    2.1087   -3.1296   -0.7817 H   0  0  0  0  0  0  0  0  0  0  0  0
    0.7291   -4.4139   -1.7877 C   0  0  0  0  0  0  0  0  0  0  0  0
    1.2621   -5.3603   -1.7940 H   0  0  0  0  0  0  0  0  0  0  0  0
   -0.4667   -4.2270   -2.2928 N   0  0  0  0  0  0  0  0  0  0  0  0
   -0.7719   -2.8900   -2.0670 C   0  0  0  0  0  0  0  0  0  0  0  0
   -1.6896   -2.4059   -2.3866 H   0  0  0  0  0  0  0  0  0  0  0  0
   -0.5353    1.0820    0.3883 C   0  0  0  0  0  0  0  0  0  0  0  0
   -1.3598    1.6963   -0.2788 O   0  0  0  0  0  0  0  0  0  0  0  0
    0.3023    1.7743    1.2440 N   0  0  0  0  0  0  0  0  0  0  0  0
    0.9127    1.2289    1.8464 H   0  0  0  0  0  0  0  0  0  0  0  0
    0.2228    3.2165    1.4453 C   0  0  0  0  0  0  0  0  0  0  0  0
   -0.7532    3.4933    1.8577 H   0  0  0  0  0  0  0  0  0  0  0  0
    0.9992    3.5443    2.1434 H   0  0  0  0  0  0  0  0  0  0  0  0
    0.3670    3.7451    0.4971 H   0  0  0  0  0  0  0  0  0  0  0  0
  1  2  1  0  0  0  0
  2  3  1  0  0  0  0
  2  4  1  0  0  0  0
  2  5  1  0  0  0  0
  5  6  2  0  0  0  0
  5  7  1  0  0  0  0
  7  8  1  0  0  0  0
  7  9  1  0  0  0  0
  9 10  1  0  0  0  0
  9 11  1  0  0  0  0
  9 22  1  0  0  0  0
 11 12  1  0  0  0  0
 11 13  1  0  0  0  0
 11 14  1  0  0  0  0
 14 15  1  0  0  0  0
 14 20  2  0  0  0  0
 15 16  1  0  0  0  0
 15 17  1  0  0  0  0
 17 18  1  0  0  0  0
 17 19  2  0  0  0  0
 19 20  1  0  0  0  0
 20 21  1  0  0  0  0
 22 23  2  0  0  0  0
 22 24  1  0  0  0  0
 24 25  1  0  0  0  0
 24 26  1  0  0  0  0
 26 27  1  0  0  0  0
 26 28  1  0  0  0  0
 26 29  1  0  0  0  0
M  END
$$$$

  -OEChem-04042215593D

 29 29  0     1  0  0  0  0  0999 V2000
   -3.5622   -3.6819    1.4821 H   0  0  0  0  0  0  0  0  0  0  0  0
   -3.4859   -2.7756    0.8753 C   0  0  0  0  0  0  0  0  0  0  0  0
   -4.2314   -2.0553    1.2201 H   0  0  0  0  0  0  0  0  0  0  0  0
   -3.6897   -3.0330   -0.1669 H   0  0  0  0  0  0  0  0  0  0  0  0
   -2.0959   -2.1825    0.9964 C   0  0  0  0  0  0  0  0  0  0  0  0
   -1.2755   -2.6989    1.7410 O   0  0  0  0  0  0  0  0  0  0  0  0
   -1.7665   -1.0577    0.2668 N   0  0  0  0  0  0  0  0  0  0  0  0
   -2.4978   -0.6220   -0.2909 H   0  0  0  0  0  0  0  0  0  0  0  0
   -0.4307   -0.4382    0.2479 C   0  0  1  0  0  0  0  0  0  0  0  0
    0.1542   -0.8083    1.0956 H   0  0  0  0  0  0  0  0  0  0  0  0
    0.3302   -0.7874   -1.0476 C   0  0  0  0  0  0  0  0  0  0  0  0
   -0.0905   -0.2021   -1.8729 H   0  0  0  0  0  0  0  0  0  0  0  0
    1.3837   -0.5071   -0.9516 H   0  0  0  0  0  0  0  0  0  0  0  0
    0.2191   -2.2498   -1.3997 C   0  0  0  0  0  0  0  0  0  0  0  0
    1.0465   -3.2810   -1.0159 N   0  0  0  0  0  0  0  0  0  0  0  0
    1.8063   -3.2256   -0.3415 H   0  0  0  0  0  0  0  0  0  0  0  0
    0.5880   -4.4459   -1.6021 C   0  0  0  0  0  0  0  0  0  0  0  0
    1.0236   -5.4303   -1.4566 H   0  0  0  0  0  0  0  0  0  0  0  0
   -0.4514   -4.1941   -2.3619 N   0  0  0  0  0  0  0  0  0  0  0  0
   -0.6826   -2.8277   -2.2545 C   0  0  0  0  0  0  0  0  0  0  0  0
   -1.4712   -2.2929   -2.7749 H   0  0  0  0  0  0  0  0  0  0  0  0
   -0.5297    1.0917    0.3862 C   0  0  0  0  0  0  0  0  0  0  0  0
   -1.3569    1.7106   -0.2733 O   0  0  0  0  0  0  0  0  0  0  0  0
    0.3093    1.7776    1.2455 N   0  0  0  0  0  0  0  0  0  0  0  0
    0.9234    1.2289    1.8410 H   0  0  0  0  0  0  0  0  0  0  0  0
    0.2250    3.2175    1.4593 C   0  0  0  0  0  0  0  0  0  0  0  0
   -0.7532    3.4867    1.8717 H   0  0  0  0  0  0  0  0  0  0  0  0
    0.9987    3.5422    2.1617 H   0  0  0  0  0  0  0  0  0  0  0  0
    0.3690    3.7544    0.5156 H   0  0  0  0  0  0  0  0  0  0  0  0
  1  2  1  0  0  0  0
  2  3  1  0  0  0  0
  2  4  1  0  0  0  0
  2  5  1  0  0  0  0
  5  6  2  0  0  0  0
  5  7  1  0  0  0  0
  7  8  1  0  0  0  0
  7  9  1  0  0  0  0
  9 10  1  0  0  0  0
  9 11  1  0  0  0  0
  9 22  1  0  0  0  0
 11 12  1  0  0  0  0
 11 13  1  0  0  0  0
 11 14  1  0  0  0  0
 14 15  1  0  0  0  0
 14 20  2  0  0  0  0
 15 16  1  0  0  0  0
 15 17  1  0  0  0  0
 17 18  1  0  0  0  0
 17 19  2  0  0  0  0
 19 20  1  0  0  0  0
 20 21  1  0  0  0  0
 22 23  2  0  0  0  0
 22 24  1  0  0  0  0
 24 25  1  0  0  0  0
 24 26  1  0  0  0  0
 26 27  1  0  0  0  0
 26 28  1  0  0  0  0
 26 29  1  0  0  0  0
M  END
$$$$

  -OEChem-04042215593D

 29 29  0     1  0  0  0  0  0999 V2000
   -3.5559   -3.6853    1.4624 H   0  0  0  0  0  0  0  0  0  0  0  0
   -3.4792   -2.7786    0.8562 C   0  0  0  0  0  0  0  0  0  0  0  0
   -4.2213   -2.0564    1.2046 H   0  0  0  0  0  0  0  0  0  0  0  0
   -3.6880   -3.0339   -0.1858 H   0  0  0  0  0  0  0  0  0  0  0  0
   -2.0871   -2.1890    0.9727 C   0  0  0  0  0  0  0  0  0  0  0  0
   -1.2584   -2.7183    1.7001 O   0  0  0  0  0  0  0  0  0  0  0  0
   -1.7629   -1.0570    0.2524 N   0  0  0  0  0  0  0  0  0  0  0  0
   -2.4966   -0.6202   -0.3013 H   0  0  0  0  0  0  0  0  0  0  0  0
   -0.4291   -0.4337    0.2333 C   0  0  1  0  0  0  0  0  0  0  0  0
    0.1596   -0.8090    1.0759 H   0  0  0  0  0  0  0  0  0  0  0  0
    0.3235   -0.7772   -1.0674 C   0  0  0  0  0  0  0  0  0  0  0  0
   -0.0966   -0.1868   -1.8894 H   0  0  0  0  0  0  0  0  0  0  0  0
    1.3787   -0.5034   -0.9718 H   0  0  0  0  0  0  0  0  0  0  0  0
    0.2065   -2.2396   -1.4171 C   0  0  0  0  0  0  0  0  0  0  0  0
    0.8504   -3.3025   -0.8250 N   0  0  0  0  0  0  0  0  0  0  0  0
    1.4067   -3.2685    0.0268 H   0  0  0  0  0  0  0  0  0  0  0  0
    0.4485   -4.4612   -1.4616 C   0  0  0  0  0  0  0  0  0  0  0  0
    0.7647   -5.4639   -1.1885 H   0  0  0  0  0  0  0  0  0  0  0  0
   -0.3767   -4.1785   -2.4418 N   0  0  0  0  0  0  0  0  0  0  0  0
   -0.5288   -2.7964   -2.4298 C   0  0  0  0  0  0  0  0  0  0  0  0
   -1.1530   -2.2380   -3.1209 H   0  0  0  0  0  0  0  0  0  0  0  0
   -0.5280    1.0951    0.3853 C   0  0  0  0  0  0  0  0  0  0  0  0
   -1.3603    1.7186   -0.2631 O   0  0  0  0  0  0  0  0  0  0  0  0
    0.3143    1.7748    1.2465 N   0  0  0  0  0  0  0  0  0  0  0  0
    0.9381    1.2231    1.8289 H   0  0  0  0  0  0  0  0  0  0  0  0
    0.2321    3.2134    1.4703 C   0  0  0  0  0  0  0  0  0  0  0  0
   -0.7461    3.4813    1.8830 H   0  0  0  0  0  0  0  0  0  0  0  0
    1.0051    3.5320    2.1762 H   0  0  0  0  0  0  0  0  0  0  0  0
    0.3785    3.7565    0.5306 H   0  0  0  0  0  0  0  0  0  0  0  0
  1  2  1  0  0  0  0
  2  3  1  0  0  0  0
  2  4  1  0  0  0  0
  2  5  1  0  0  0  0
  5  6  2  0  0  0  0
  5  7  1  0  0  0  0
  7  8  1  0  0  0  0
  7  9  1  0  0  0  0
  9 10  1  0  0  0  0
  9 11  1  0  0  0  0
  9 22  1  0  0  0  0
 11 12  1  0  0  0  0
 11 13  1  0  0  0  0
 11 14  1  0  0  0  0
 14 15  1  0  0  0  0
 14 20  2  0  0  0  0
 15 16  1  0  0  0  0
 15 17  1  0  0  0  0
 17 18  1  0  0  0  0
 17 19  2  0  0  0  0
 19 20  1  0  0  0  0
 20 21  1  0  0  0  0
 22 23  2  0  0  0  0
 22 24  1  0  0  0  0
 24 25  1  0  0  0  0
 24 26  1  0  0  0  0
 26 27  1  0  0  0  0
 26 28  1  0  0  0  0
 26 29  1  0  0  0  0
M  END
$$$$

  -OEChem-04042215593D

 29 29  0     1  0  0  0  0  0999 V2000
   -3.5730   -3.6734    1.4731 H   0  0  0  0  0  0  0  0  0  0  0  0
   -3.4920   -2.7684    0.8650 C   0  0  0  0  0  0  0  0  0  0  0  0
   -4.2247   -2.0386    1.2176 H   0  0  0  0  0  0  0  0  0  0  0  0
   -3.7111   -3.0225   -0.1751 H   0  0  0  0  0  0  0  0  0  0  0  0
   -2.0939   -2.1913    0.9694 C   0  0  0  0  0  0  0  0  0  0  0  0
   -1.2584   -2.7362    1.6789 O   0  0  0  0  0  0  0  0  0  0  0  0
   -1.7683   -1.0587    0.2510 N   0  0  0  0  0  0  0  0  0  0  0  0
   -2.5035   -0.6159   -0.2964 H   0  0  0  0  0  0  0  0  0  0  0  0
   -0.4343   -0.4363    0.2305 C   0  0  1  0  0  0  0  0  0  0  0  0
    0.1548   -0.8118    1.0726 H   0  0  0  0  0  0  0  0  0  0  0  0
    0.3191   -0.7757   -1.0709 C   0  0  0  0  0  0  0  0  0  0  0  0
   -0.0913   -0.1775   -1.8921 H   0  0  0  0  0  0  0  0  0  0  0  0
    1.3743   -0.5065   -0.9631 H   0  0  0  0  0  0  0  0  0  0  0  0
    0.2085   -2.2362   -1.4331 C   0  0  0  0  0  0  0  0  0  0  0  0
    0.6210   -3.3202   -0.6903 N   0  0  0  0  0  0  0  0  0  0  0  0
    0.9014   -3.2985    0.2898 H   0  0  0  0  0  0  0  0  0  0  0  0
    0.3138   -4.4687   -1.3940 C   0  0  0  0  0  0  0  0  0  0  0  0
    0.4887   -5.4810   -1.0409 H   0  0  0  0  0  0  0  0  0  0  0  0
   -0.2327   -4.1624   -2.5469 N   0  0  0  0  0  0  0  0  0  0  0  0
   -0.2992   -2.7738   -2.5858 C   0  0  0  0  0  0  0  0  0  0  0  0
   -0.7073   -2.1975   -3.4106 H   0  0  0  0  0  0  0  0  0  0  0  0
   -0.5326    1.0921    0.3850 C   0  0  0  0  0  0  0  0  0  0  0  0
   -1.3710    1.7165   -0.2545 O   0  0  0  0  0  0  0  0  0  0  0  0
    0.3119    1.7693    1.2459 N   0  0  0  0  0  0  0  0  0  0  0  0
    0.9481    1.2174    1.8145 H   0  0  0  0  0  0  0  0  0  0  0  0
    0.2374    3.2082    1.4683 C   0  0  0  0  0  0  0  0  0  0  0  0
   -0.7389    3.4822    1.8820 H   0  0  0  0  0  0  0  0  0  0  0  0
    1.0129    3.5231    2.1731 H   0  0  0  0  0  0  0  0  0  0  0  0
    0.3860    3.7490    0.5276 H   0  0  0  0  0  0  0  0  0  0  0  0
  1  2  1  0  0  0  0
  2  3  1  0  0  0  0
  2  4  1  0  0  0  0
  2  5  1  0  0  0  0
  5  6  2  0  0  0  0
  5  7  1  0  0  0  0
  7  8  1  0  0  0  0
  7  9  1  0  0  0  0
  9 10  1  0  0  0  0
  9 11  1  0  0  0  0
  9 22  1  0  0  0  0
 11 12  1  0  0  0  0
 11 13  1  0  0  0  0
 11 14  1  0  0  0  0
 14 15  1  0  0  0  0
 14 20  2  0  0  0  0
 15 16  1  0  0  0  0
 15 17  1  0  0  0  0
 17 18  1  0  0  0  0
 17 19  2  0  0  0  0
 19 20  1  0  0  0  0
 20 21  1  0  0  0  0
 22 23  2  0  0  0  0
 22 24  1  0  0  0  0
 24 25  1  0  0  0  0
 24 26  1  0  0  0  0
 26 27  1  0  0  0  0
 26 28  1  0  0  0  0
 26 29  1  0  0  0  0
M  END
$$$$

  -OEChem-04042215593D

 29 29  0     1  0  0  0  0  0999 V2000
   -3.6347   -3.6300    1.5273 H   0  0  0  0  0  0  0  0  0  0  0  0
   -3.5387   -2.7356    0.9055 C   0  0  0  0  0  0  0  0  0  0  0  0
   -4.2504   -1.9843    1.2561 H   0  0  0  0  0  0  0  0  0  0  0  0
   -3.7762   -2.9988   -0.1283 H   0  0  0  0  0  0  0  0  0  0  0  0
   -2.1258   -2.1901    0.9869 C   0  0  0  0  0  0  0  0  0  0  0  0
   -1.2895   -2.7576    1.6781 O   0  0  0  0  0  0  0  0  0  0  0  0
   -1.7838   -1.0648    0.2649 N   0  0  0  0  0  0  0  0  0  0  0  0
   -2.5201   -0.6026   -0.2653 H   0  0  0  0  0  0  0  0  0  0  0  0
   -0.4462   -0.4482    0.2399 C   0  0  1  0  0  0  0  0  0  0  0  0
    0.1396   -0.8221    1.0854 H   0  0  0  0  0  0  0  0  0  0  0  0
    0.3168   -0.7859   -1.0585 C   0  0  0  0  0  0  0  0  0  0  0  0
   -0.0815   -0.1800   -1.8802 H   0  0  0  0  0  0  0  0  0  0  0  0
    1.3696   -0.5150   -0.9320 H   0  0  0  0  0  0  0  0  0  0  0  0
    0.2301   -2.2413   -1.4512 C   0  0  0  0  0  0  0  0  0  0  0  0
    0.3798   -3.3441   -0.6395 N   0  0  0  0  0  0  0  0  0  0  0  0
    0.3841   -3.3306    0.3833 H   0  0  0  0  0  0  0  0  0  0  0  0
    0.2022   -4.4776   -1.4075 C   0  0  0  0  0  0  0  0  0  0  0  0
    0.2293   -5.4958   -1.0303 H   0  0  0  0  0  0  0  0  0  0  0  0
   -0.0211   -4.1474   -2.6575 N   0  0  0  0  0  0  0  0  0  0  0  0
   -0.0050   -2.7570   -2.6982 C   0  0  0  0  0  0  0  0  0  0  0  0
   -0.1656   -2.1640   -3.5935 H   0  0  0  0  0  0  0  0  0  0  0  0
   -0.5409    1.0819    0.3848 C   0  0  0  0  0  0  0  0  0  0  0  0
   -1.3829    1.7028   -0.2532 O   0  0  0  0  0  0  0  0  0  0  0  0
    0.3053    1.7631    1.2410 N   0  0  0  0  0  0  0  0  0  0  0  0
    0.9500    1.2145    1.8033 H   0  0  0  0  0  0  0  0  0  0  0  0
    0.2389    3.2045    1.4520 C   0  0  0  0  0  0  0  0  0  0  0  0
   -0.7341    3.4870    1.8675 H   0  0  0  0  0  0  0  0  0  0  0  0
    1.0189    3.5209    2.1513 H   0  0  0  0  0  0  0  0  0  0  0  0
    0.3866    3.7380    0.5070 H   0  0  0  0  0  0  0  0  0  0  0  0
  1  2  1  0  0  0  0
  2  3  1  0  0  0  0
  2  4  1  0  0  0  0
  2  5  1  0  0  0  0
  5  6  2  0  0  0  0
  5  7  1  0  0  0  0
  7  8  1  0  0  0  0
  7  9  1  0  0  0  0
  9 10  1  0  0  0  0
  9 11  1  0  0  0  0
  9 22  1  0  0  0  0
 11 12  1  0  0  0  0
 11 13  1  0  0  0  0
 11 14  1  0  0  0  0
 14 15  1  0  0  0  0
 14 20  2  0  0  0  0
 15 16  1  0  0  0  0
 15 17  1  0  0  0  0
 17 18  1  0  0  0  0
 17 19  2  0  0  0  0
 19 20  1  0  0  0  0
 20 21  1  0  0  0  0
 22 23  2  0  0  0  0
 22 24  1  0  0  0  0
 24 25  1  0  0  0  0
 24 26  1  0  0  0  0
 26 27  1  0  0  0  0
 26 28  1  0  0  0  0
 26 29  1  0  0  0  0
M  END
$$$$

  -OEChem-04042215593D

 29 29  0     1  0  0  0  0  0999 V2000
   -3.7295   -3.5563    1.5995 H   0  0  0  0  0  0  0  0  0  0  0  0
   -3.6087   -2.6747    0.9639 C   0  0  0  0  0  0  0  0  0  0  0  0
   -4.2869   -1.8926    1.3138 H   0  0  0  0  0  0  0  0  0  0  0  0
   -3.8706   -2.9420   -0.0629 H   0  0  0  0  0  0  0  0  0  0  0  0
   -2.1758   -2.1815    1.0187 C   0  0  0  0  0  0  0  0  0  0  0  0
   -1.3480   -2.7796    1.6932 O   0  0  0  0  0  0  0  0  0  0  0  0
   -1.8060   -1.0717    0.2883 N   0  0  0  0  0  0  0  0  0  0  0  0
   -2.5393   -0.5875   -0.2269 H   0  0  0  0  0  0  0  0  0  0  0  0
   -0.4621   -0.4665    0.2573 C   0  0  1  0  0  0  0  0  0  0  0  0
    0.1153   -0.8363    1.1102 H   0  0  0  0  0  0  0  0  0  0  0  0
    0.3176   -0.8079   -1.0335 C   0  0  0  0  0  0  0  0  0  0  0  0
   -0.0702   -0.1972   -1.8565 H   0  0  0  0  0  0  0  0  0  0  0  0
    1.3661   -0.5292   -0.8880 H   0  0  0  0  0  0  0  0  0  0  0  0
    0.2637   -2.2560   -1.4618 C   0  0  0  0  0  0  0  0  0  0  0  0
    0.1379   -3.3806   -0.6768 N   0  0  0  0  0  0  0  0  0  0  0  0
   -0.0347   -3.3883    0.3334 H   0  0  0  0  0  0  0  0  0  0  0  0
    0.1073   -4.4913   -1.4954 C   0  0  0  0  0  0  0  0  0  0  0  0
    0.0004   -5.5162   -1.1522 H   0  0  0  0  0  0  0  0  0  0  0  0
    0.2151   -4.1272   -2.7509 N   0  0  0  0  0  0  0  0  0  0  0  0
    0.3104   -2.7392   -2.7434 C   0  0  0  0  0  0  0  0  0  0  0  0
    0.4027   -2.1240   -3.6334 H   0  0  0  0  0  0  0  0  0  0  0  0
   -0.5524    1.0658    0.3816 C   0  0  0  0  0  0  0  0  0  0  0  0
   -1.3999    1.6801   -0.2558 O   0  0  0  0  0  0  0  0  0  0  0  0
    0.2949    1.7542    1.2309 N   0  0  0  0  0  0  0  0  0  0  0  0
    0.9446    1.2113    1.7930 H   0  0  0  0  0  0  0  0  0  0  0  0
    0.2351    3.1985    1.4223 C   0  0  0  0  0  0  0  0  0  0  0  0
   -0.7354    3.4903    1.8373 H   0  0  0  0  0  0  0  0  0  0  0  0
    1.0190    3.5212    2.1144 H   0  0  0  0  0  0  0  0  0  0  0  0
    0.3819    3.7182    0.4694 H   0  0  0  0  0  0  0  0  0  0  0  0
  1  2  1  0  0  0  0
  2  3  1  0  0  0  0
  2  4  1  0  0  0  0
  2  5  1  0  0  0  0
  5  6  2  0  0  0  0
  5  7  1  0  0  0  0
  7  8  1  0  0  0  0
  7  9  1  0  0  0  0
  9 10  1  0  0  0  0
  9 11  1  0  0  0  0
  9 22  1  0  0  0  0
 11 12  1  0  0  0  0
 11 13  1  0  0  0  0
 11 14  1  0  0  0  0
 14 15  1  0  0  0  0
 14 20  2  0  0  0  0
 15 16  1  0  0  0  0
 15 17  1  0  0  0  0
 17 18  1  0  0  0  0
 17 19  2  0  0  0  0
 19 20  1  0  0  0  0
 20 21  1  0  0  0  0
 22 23  2  0  0  0  0
 22 24  1  0  0  0  0
 24 25  1  0  0  0  0
 24 26  1  0  0  0  0
 26 27  1  0  0  0  0
 26 28  1  0  0  0  0
 26 29  1  0  0  0  0
M  END
$$$$

  -OEChem-04042215593D

 29 29  0     1  0  0  0  0  0999 V2000
   -3.8172   -3.4801    1.6618 H   0  0  0  0  0  0  0  0  0  0  0  0
   -3.6772   -2.6049    1.0214 C   0  0  0  0  0  0  0  0  0  0  0  0
   -4.3165   -1.7968    1.3848 H   0  0  0  0  0  0  0  0  0  0  0  0
   -3.9725   -2.8635    0.0016 H   0  0  0  0  0  0  0  0  0  0  0  0
   -2.2258   -2.1662    1.0433 C   0  0  0  0  0  0  0  0  0  0  0  0
   -1.4053   -2.8027    1.6888 O   0  0  0  0  0  0  0  0  0  0  0  0
   -1.8301   -1.0720    0.3046 N   0  0  0  0  0  0  0  0  0  0  0  0
   -2.5617   -0.5571   -0.1833 H   0  0  0  0  0  0  0  0  0  0  0  0
   -0.4785   -0.4821    0.2649 C   0  0  1  0  0  0  0  0  0  0  0  0
    0.0893   -0.8482    1.1258 H   0  0  0  0  0  0  0  0  0  0  0  0
    0.3171   -0.8344   -1.0160 C   0  0  0  0  0  0  0  0  0  0  0  0
   -0.0646   -0.2246   -1.8429 H   0  0  0  0  0  0  0  0  0  0  0  0
    1.3617   -0.5479   -0.8572 H   0  0  0  0  0  0  0  0  0  0  0  0
    0.2905   -2.2769   -1.4687 C   0  0  0  0  0  0  0  0  0  0  0  0
   -0.0988   -3.4073   -0.7863 N   0  0  0  0  0  0  0  0  0  0  0  0
   -0.4042   -3.4404    0.1912 H   0  0  0  0  0  0  0  0  0  0  0  0
    0.0189   -4.4985   -1.6225 C   0  0  0  0  0  0  0  0  0  0  0  0
   -0.2102   -5.5239   -1.3474 H   0  0  0  0  0  0  0  0  0  0  0  0
    0.4483   -4.1149   -2.8007 N   0  0  0  0  0  0  0  0  0  0  0  0
    0.6158   -2.7362   -2.7185 C   0  0  0  0  0  0  0  0  0  0  0  0
    0.9549   -2.1086   -3.5372 H   0  0  0  0  0  0  0  0  0  0  0  0
   -0.5595    1.0521    0.3713 C   0  0  0  0  0  0  0  0  0  0  0  0
   -1.4149    1.6624   -0.2595 O   0  0  0  0  0  0  0  0  0  0  0  0
    0.2927    1.7446    1.2119 N   0  0  0  0  0  0  0  0  0  0  0  0
    0.9521    1.2050    1.7660 H   0  0  0  0  0  0  0  0  0  0  0  0
    0.2302    3.1889    1.4011 C   0  0  0  0  0  0  0  0  0  0  0  0
   -0.7408    3.4794    1.8156 H   0  0  0  0  0  0  0  0  0  0  0  0
    1.0131    3.5139    2.0930 H   0  0  0  0  0  0  0  0  0  0  0  0
    0.3760    3.7070    0.4474 H   0  0  0  0  0  0  0  0  0  0  0  0
  1  2  1  0  0  0  0
  2  3  1  0  0  0  0
  2  4  1  0  0  0  0
  2  5  1  0  0  0  0
  5  6  2  0  0  0  0
  5  7  1  0  0  0  0
  7  8  1  0  0  0  0
  7  9  1  0  0  0  0
  9 10  1  0  0  0  0
  9 11  1  0  0  0  0
  9 22  1  0  0  0  0
 11 12  1  0  0  0  0
 11 13  1  0  0  0  0
 11 14  1  0  0  0  0
 14 15  1  0  0  0  0
 14 20  2  0  0  0  0
 15 16  1  0  0  0  0
 15 17  1  0  0  0  0
 17 18  1  0  0  0  0
 17 19  2  0  0  0  0
 19 20  1  0  0  0  0
 20 21  1  0  0  0  0
 22 23  2  0  0  0  0
 22 24  1  0  0  0  0
 24 25  1  0  0  0  0
 24 26  1  0  0  0  0
 26 27  1  0  0  0  0
 26 28  1  0  0  0  0
 26 29  1  0  0  0  0
M  END
$$$$

  -OEChem-04042215593D

 29 29  0     1  0  0  0  0  0999 V2000
   -3.8934   -3.4093    1.7174 H   0  0  0  0  0  0  0  0  0  0  0  0
   -3.7392   -2.5357    1.0778 C   0  0  0  0  0  0  0  0  0  0  0  0
   -4.3285   -1.7037    1.4710 H   0  0  0  0  0  0  0  0  0  0  0  0
   -4.0842   -2.7719    0.0681 H   0  0  0  0  0  0  0  0  0  0  0  0
   -2.2702   -2.1606    1.0472 C   0  0  0  0  0  0  0  0  0  0  0  0
   -1.4512   -2.8510    1.6337 O   0  0  0  0  0  0  0  0  0  0  0  0
   -1.8582   -1.0733    0.3087 N   0  0  0  0  0  0  0  0  0  0  0  0
   -2.5906   -0.5213   -0.1360 H   0  0  0  0  0  0  0  0  0  0  0  0
   -0.5008   -0.4960    0.2621 C   0  0  1  0  0  0  0  0  0  0  0  0
    0.0608   -0.8647    1.1262 H   0  0  0  0  0  0  0  0  0  0  0  0
    0.3072   -0.8528   -1.0114 C   0  0  0  0  0  0  0  0  0  0  0  0
   -0.0796   -0.2465   -1.8382 H   0  0  0  0  0  0  0  0  0  0  0  0
    1.3479   -0.5523   -0.8515 H   0  0  0  0  0  0  0  0  0  0  0  0
    0.3007   -2.2906   -1.4830 C   0  0  0  0  0  0  0  0  0  0  0  0
   -0.3180   -3.4048   -0.9640 N   0  0  0  0  0  0  0  0  0  0  0  0
   -0.7671   -3.4573   -0.0462 H   0  0  0  0  0  0  0  0  0  0  0  0
   -0.0436   -4.4886   -1.7729 C   0  0  0  0  0  0  0  0  0  0  0  0
   -0.3778   -5.5056   -1.5886 H   0  0  0  0  0  0  0  0  0  0  0  0
    0.6885   -4.1125   -2.7932 N   0  0  0  0  0  0  0  0  0  0  0  0
    0.9051   -2.7490   -2.6254 C   0  0  0  0  0  0  0  0  0  0  0  0
    1.4763   -2.1298   -3.3105 H   0  0  0  0  0  0  0  0  0  0  0  0
   -0.5721    1.0389    0.3662 C   0  0  0  0  0  0  0  0  0  0  0  0
   -1.4335    1.6524   -0.2532 O   0  0  0  0  0  0  0  0  0  0  0  0
    0.2880    1.7269    1.2022 N   0  0  0  0  0  0  0  0  0  0  0  0
    0.9512    1.1845    1.7490 H   0  0  0  0  0  0  0  0  0  0  0  0
    0.2401    3.1725    1.3860 C   0  0  0  0  0  0  0  0  0  0  0  0
   -0.7255    3.4739    1.8057 H   0  0  0  0  0  0  0  0  0  0  0  0
    1.0307    3.4932    2.0713 H   0  0  0  0  0  0  0  0  0  0  0  0
    0.3842    3.6855    0.4292 H   0  0  0  0  0  0  0  0  0  0  0  0
  1  2  1  0  0  0  0
  2  3  1  0  0  0  0
  2  4  1  0  0  0  0
  2  5  1  0  0  0  0
  5  6  2  0  0  0  0
  5  7  1  0  0  0  0
  7  8  1  0  0  0  0
  7  9  1  0  0  0  0
  9 10  1  0  0  0  0
  9 11  1  0  0  0  0
  9 22  1  0  0  0  0
 11 12  1  0  0  0  0
 11 13  1  0  0  0  0
 11 14  1  0  0  0  0
 14 15  1  0  0  0  0
 14 20  2  0  0  0  0
 15 16  1  0  0  0  0
 15 17  1  0  0  0  0
 17 18  1  0  0  0  0
 17 19  2  0  0  0  0
 19 20  1  0  0  0  0
 20 21  1  0  0  0  0
 22 23  2  0  0  0  0
 22 24  1  0  0  0  0
 24 25  1  0  0  0  0
 24 26  1  0  0  0  0
 26 27  1  0  0  0  0
 26 28  1  0  0  0  0
 26 29  1  0  0  0  0
M  END
$$$$

  -OEChem-04042215593D

 29 29  0     1  0  0  0  0  0999 V2000
   -3.9276   -3.3630    1.7462 H   0  0  0  0  0  0  0  0  0  0  0  0
   -3.7725   -2.4804    1.1193 C   0  0  0  0  0  0  0  0  0  0  0  0
   -4.3111   -1.6379    1.5600 H   0  0  0  0  0  0  0  0  0  0  0  0
   -4.1753   -2.6792    0.1232 H   0  0  0  0  0  0  0  0  0  0  0  0
   -2.2935   -2.1577    1.0260 C   0  0  0  0  0  0  0  0  0  0  0  0
   -1.4744   -2.8994    1.5421 O   0  0  0  0  0  0  0  0  0  0  0  0
   -1.8768   -1.0700    0.2913 N   0  0  0  0  0  0  0  0  0  0  0  0
   -2.6109   -0.4810   -0.1011 H   0  0  0  0  0  0  0  0  0  0  0  0
   -0.5142   -0.5043    0.2412 C   0  0  1  0  0  0  0  0  0  0  0  0
    0.0415   -0.8806    1.1062 H   0  0  0  0  0  0  0  0  0  0  0  0
    0.3037   -0.8602   -1.0263 C   0  0  0  0  0  0  0  0  0  0  0  0
   -0.0904   -0.2576   -1.8521 H   0  0  0  0  0  0  0  0  0  0  0  0
    1.3415   -0.5493   -0.8678 H   0  0  0  0  0  0  0  0  0  0  0  0
    0.3039   -2.2946   -1.5085 C   0  0  0  0  0  0  0  0  0  0  0  0
   -0.5063   -3.3606   -1.1919 N   0  0  0  0  0  0  0  0  0  0  0  0
   -1.1188   -3.4037   -0.3767 H   0  0  0  0  0  0  0  0  0  0  0  0
   -0.1046   -4.4597   -1.9241 C   0  0  0  0  0  0  0  0  0  0  0  0
   -0.5379   -5.4528   -1.8471 H   0  0  0  0  0  0  0  0  0  0  0  0
    0.8879   -4.1356   -2.7161 N   0  0  0  0  0  0  0  0  0  0  0  0
    1.1492   -2.7932   -2.4664 C   0  0  0  0  0  0  0  0  0  0  0  0
    1.9208   -2.2158   -2.9669 H   0  0  0  0  0  0  0  0  0  0  0  0
   -0.5761    1.0301    0.3545 C   0  0  0  0  0  0  0  0  0  0  0  0
   -1.4485    1.6498   -0.2430 O   0  0  0  0  0  0  0  0  0  0  0  0
    0.2923    1.7077    1.1903 N   0  0  0  0  0  0  0  0  0  0  0  0
    0.9639    1.1588    1.7203 H   0  0  0  0  0  0  0  0  0  0  0  0
    0.2421    3.1500    1.3978 C   0  0  0  0  0  0  0  0  0  0  0  0
   -0.7224    3.4428    1.8261 H   0  0  0  0  0  0  0  0  0  0  0  0
    1.0345    3.4606    2.0857 H   0  0  0  0  0  0  0  0  0  0  0  0
    0.3821    3.6785    0.4488 H   0  0  0  0  0  0  0  0  0  0  0  0
  1  2  1  0  0  0  0
  2  3  1  0  0  0  0
  2  4  1  0  0  0  0
  2  5  1  0  0  0  0
  5  6  2  0  0  0  0
  5  7  1  0  0  0  0
  7  8  1  0  0  0  0
  7  9  1  0  0  0  0
  9 10  1  0  0  0  0
  9 11  1  0  0  0  0
  9 22  1  0  0  0  0
 11 12  1  0  0  0  0
 11 13  1  0  0  0  0
 11 14  1  0  0  0  0
 14 15  1  0  0  0  0
 14 20  2  0  0  0  0
 15 16  1  0  0  0  0
 15 17  1  0  0  0  0
 17 18  1  0  0  0  0
 17 19  2  0  0  0  0
 19 20  1  0  0  0  0
 20 21  1  0  0  0  0
 22 23  2  0  0  0  0
 22 24  1  0  0  0  0
 24 25  1  0  0  0  0
 24 26  1  0  0  0  0
 26 27  1  0  0  0  0
 26 28  1  0  0  0  0
 26 29  1  0  0  0  0
M  END
$$$$

  -OEChem-04042215593D

 29 29  0     1  0  0  0  0  0999 V2000
   -3.8851   -3.3942    1.7384 H   0  0  0  0  0  0  0  0  0  0  0  0
   -3.7474   -2.4988    1.1255 C   0  0  0  0  0  0  0  0  0  0  0  0
   -4.2790   -1.6674    1.5948 H   0  0  0  0  0  0  0  0  0  0  0  0
   -4.1721   -2.6802    0.1354 H   0  0  0  0  0  0  0  0  0  0  0  0
   -2.2719   -2.1678    1.0072 C   0  0  0  0  0  0  0  0  0  0  0  0
   -1.4436   -2.8955    1.5255 O   0  0  0  0  0  0  0  0  0  0  0  0
   -1.8749   -1.0707    0.2736 N   0  0  0  0  0  0  0  0  0  0  0  0
   -2.6151   -0.4666   -0.0828 H   0  0  0  0  0  0  0  0  0  0  0  0
   -0.5112   -0.5086    0.2261 C   0  0  1  0  0  0  0  0  0  0  0  0
    0.0488   -0.8943    1.0842 H   0  0  0  0  0  0  0  0  0  0  0  0
    0.3037   -0.8428   -1.0489 C   0  0  0  0  0  0  0  0  0  0  0  0
   -0.0957   -0.2289   -1.8639 H   0  0  0  0  0  0  0  0  0  0  0  0
    1.3422   -0.5329   -0.8921 H   0  0  0  0  0  0  0  0  0  0  0  0
    0.2920   -2.2701   -1.5501 C   0  0  0  0  0  0  0  0  0  0  0  0
   -0.6681   -3.2513   -1.4629 N   0  0  0  0  0  0  0  0  0  0  0  0
   -1.5088   -3.2015   -0.8942 H   0  0  0  0  0  0  0  0  0  0  0  0
   -0.1925   -4.3976   -2.0682 C   0  0  0  0  0  0  0  0  0  0  0  0
   -0.7261   -5.3422   -2.1222 H   0  0  0  0  0  0  0  0  0  0  0  0
    1.0021   -4.1833   -2.5624 N   0  0  0  0  0  0  0  0  0  0  0  0
    1.3148   -2.8674   -2.2415 C   0  0  0  0  0  0  0  0  0  0  0  0
    2.2487   -2.3788   -2.5031 H   0  0  0  0  0  0  0  0  0  0  0  0
   -0.5729    1.0246    0.3555 C   0  0  0  0  0  0  0  0  0  0  0  0
   -1.4482    1.6496   -0.2325 O   0  0  0  0  0  0  0  0  0  0  0  0
    0.2969    1.6941    1.1964 N   0  0  0  0  0  0  0  0  0  0  0  0
    0.9684    1.1398    1.7211 H   0  0  0  0  0  0  0  0  0  0  0  0
    0.2462    3.1341    1.4180 C   0  0  0  0  0  0  0  0  0  0  0  0
   -0.7176    3.4215    1.8511 H   0  0  0  0  0  0  0  0  0  0  0  0
    1.0399    3.4390    2.1068 H   0  0  0  0  0  0  0  0  0  0  0  0
    0.3833    3.6720    0.4740 H   0  0  0  0  0  0  0  0  0  0  0  0
  1  2  1  0  0  0  0
  2  3  1  0  0  0  0
  2  4  1  0  0  0  0
  2  5  1  0  0  0  0
  5  6  2  0  0  0  0
  5  7  1  0  0  0  0
  7  8  1  0  0  0  0
  7  9  1  0  0  0  0
  9 10  1  0  0  0  0
  9 11  1  0  0  0  0
  9 22  1  0  0  0  0
 11 12  1  0  0  0  0
 11 13  1  0  0  0  0
 11 14  1  0  0  0  0
 14 15  1  0  0  0  0
 14 20  2  0  0  0  0
 15 16  1  0  0  0  0
 15 17  1  0  0  0  0
 17 18  1  0  0  0  0
 17 19  2  0  0  0  0
 19 20  1  0  0  0  0
 20 21  1  0  0  0  0
 22 23  2  0  0  0  0
 22 24  1  0  0  0  0
 24 25  1  0  0  0  0
 24 26  1  0  0  0  0
 26 27  1  0  0  0  0
 26 28  1  0  0  0  0
 26 29  1  0  0  0  0
M  END
$$$$

  -OEChem-04042215593D

 29 29  0     1  0  0  0  0  0999 V2000
   -3.7985   -3.4775    1.6688 H   0  0  0  0  0  0  0  0  0  0  0  0
   -3.6807   -2.5765    1.0600 C   0  0  0  0  0  0  0  0  0  0  0  0
   -4.2628   -1.7691    1.5113 H   0  0  0  0  0  0  0  0  0  0  0  0
   -4.0647   -2.7768    0.0571 H   0  0  0  0  0  0  0  0  0  0  0  0
   -2.2174   -2.1824    0.9889 C   0  0  0  0  0  0  0  0  0  0  0  0
   -1.3821   -2.8476    1.5764 O   0  0  0  0  0  0  0  0  0  0  0  0
   -1.8455   -1.0722    0.2589 N   0  0  0  0  0  0  0  0  0  0  0  0
   -2.5932   -0.4856   -0.1094 H   0  0  0  0  0  0  0  0  0  0  0  0
   -0.4875   -0.4986    0.2209 C   0  0  1  0  0  0  0  0  0  0  0  0
    0.0814   -0.8870    1.0717 H   0  0  0  0  0  0  0  0  0  0  0  0
    0.3162   -0.8162   -1.0636 C   0  0  0  0  0  0  0  0  0  0  0  0
   -0.0829   -0.1958   -1.8737 H   0  0  0  0  0  0  0  0  0  0  0  0
    1.3576   -0.5149   -0.9094 H   0  0  0  0  0  0  0  0  0  0  0  0
    0.2834   -2.2447   -1.5580 C   0  0  0  0  0  0  0  0  0  0  0  0
   -0.7768   -3.1118   -1.6934 N   0  0  0  0  0  0  0  0  0  0  0  0
   -1.7377   -2.9206   -1.4260 H   0  0  0  0  0  0  0  0  0  0  0  0
   -0.3066   -4.3192   -2.1717 C   0  0  0  0  0  0  0  0  0  0  0  0
   -0.9178   -5.1966   -2.3618 H   0  0  0  0  0  0  0  0  0  0  0  0
    0.9876   -4.2527   -2.3668 N   0  0  0  0  0  0  0  0  0  0  0  0
    1.3665   -2.9714   -1.9816 C   0  0  0  0  0  0  0  0  0  0  0  0
    2.3859   -2.5985   -2.0128 H   0  0  0  0  0  0  0  0  0  0  0  0
   -0.5613    1.0327    0.3637 C   0  0  0  0  0  0  0  0  0  0  0  0
   -1.4330    1.6569   -0.2308 O   0  0  0  0  0  0  0  0  0  0  0  0
    0.3002    1.7028    1.2130 N   0  0  0  0  0  0  0  0  0  0  0  0
    0.9656    1.1485    1.7454 H   0  0  0  0  0  0  0  0  0  0  0  0
    0.2399    3.1416    1.4417 C   0  0  0  0  0  0  0  0  0  0  0  0
   -0.7261    3.4201    1.8756 H   0  0  0  0  0  0  0  0  0  0  0  0
    1.0313    3.4486    2.1323 H   0  0  0  0  0  0  0  0  0  0  0  0
    0.3738    3.6849    0.5003 H   0  0  0  0  0  0  0  0  0  0  0  0
  1  2  1  0  0  0  0
  2  3  1  0  0  0  0
  2  4  1  0  0  0  0
  2  5  1  0  0  0  0
  5  6  2  0  0  0  0
  5  7  1  0  0  0  0
  7  8  1  0  0  0  0
  7  9  1  0  0  0  0
  9 10  1  0  0  0  0
  9 11  1  0  0  0  0
  9 22  1  0  0  0  0
 11 12  1  0  0  0  0
 11 13  1  0  0  0  0
 11 14  1  0  0  0  0
 14 15  1  0  0  0  0
 14 20  2  0  0  0  0
 15 16  1  0  0  0  0
 15 17  1  0  0  0  0
 17 18  1  0  0  0  0
 17 19  2  0  0  0  0
 19 20  1  0  0  0  0
 20 21  1  0  0  0  0
 22 23  2  0  0  0  0
 22 24  1  0  0  0  0
 24 25  1  0  0  0  0
 24 26  1  0  0  0  0
 26 27  1  0  0  0  0
 26 28  1  0  0  0  0
 26 29  1  0  0  0  0
M  END
$$$$

  -OEChem-04042215593D

 29 29  0     1  0  0  0  0  0999 V2000
   -3.7181   -3.5509    1.5959 H   0  0  0  0  0  0  0  0  0  0  0  0
   -3.6152   -2.6515    0.9823 C   0  0  0  0  0  0  0  0  0  0  0  0
   -4.2466   -1.8648    1.4024 H   0  0  0  0  0  0  0  0  0  0  0  0
   -3.9514   -2.8779   -0.0320 H   0  0  0  0  0  0  0  0  0  0  0  0
   -2.1675   -2.1989    0.9607 C   0  0  0  0  0  0  0  0  0  0  0  0
   -1.3303   -2.8222    1.5910 O   0  0  0  0  0  0  0  0  0  0  0  0
   -1.8149   -1.0746    0.2416 N   0  0  0  0  0  0  0  0  0  0  0  0
   -2.5692   -0.5105   -0.1462 H   0  0  0  0  0  0  0  0  0  0  0  0
   -0.4659   -0.4821    0.2170 C   0  0  1  0  0  0  0  0  0  0  0  0
    0.1081   -0.8706    1.0644 H   0  0  0  0  0  0  0  0  0  0  0  0
    0.3283   -0.7929   -1.0728 C   0  0  0  0  0  0  0  0  0  0  0  0
   -0.0682   -0.1735   -1.8848 H   0  0  0  0  0  0  0  0  0  0  0  0
    1.3724   -0.4994   -0.9223 H   0  0  0  0  0  0  0  0  0  0  0  0
    0.2777   -2.2289   -1.5406 C   0  0  0  0  0  0  0  0  0  0  0  0
   -0.8145   -2.9852   -1.9035 N   0  0  0  0  0  0  0  0  0  0  0  0
   -1.7831   -2.6784   -1.8928 H   0  0  0  0  0  0  0  0  0  0  0  0
   -0.3781   -4.2452   -2.2652 C   0  0  0  0  0  0  0  0  0  0  0  0
   -1.0198   -5.0592   -2.5898 H   0  0  0  0  0  0  0  0  0  0  0  0
    0.9268   -4.3165   -2.1668 N   0  0  0  0  0  0  0  0  0  0  0  0
    1.3456   -3.0716   -1.7095 C   0  0  0  0  0  0  0  0  0  0  0  0
    2.3801   -2.8042   -1.5163 H   0  0  0  0  0  0  0  0  0  0  0  0
   -0.5539    1.0466    0.3741 C   0  0  0  0  0  0  0  0  0  0  0  0
   -1.4153    1.6702   -0.2359 O   0  0  0  0  0  0  0  0  0  0  0  0
    0.2964    1.7174    1.2339 N   0  0  0  0  0  0  0  0  0  0  0  0
    0.9496    1.1627    1.7809 H   0  0  0  0  0  0  0  0  0  0  0  0
    0.2351    3.1568    1.4569 C   0  0  0  0  0  0  0  0  0  0  0  0
   -0.7335    3.4377    1.8835 H   0  0  0  0  0  0  0  0  0  0  0  0
    1.0223    3.4663    2.1511 H   0  0  0  0  0  0  0  0  0  0  0  0
    0.3752    3.6964    0.5143 H   0  0  0  0  0  0  0  0  0  0  0  0
  1  2  1  0  0  0  0
  2  3  1  0  0  0  0
  2  4  1  0  0  0  0
  2  5  1  0  0  0  0
  5  6  2  0  0  0  0
  5  7  1  0  0  0  0
  7  8  1  0  0  0  0
  7  9  1  0  0  0  0
  9 10  1  0  0  0  0
  9 11  1  0  0  0  0
  9 22  1  0  0  0  0
 11 12  1  0  0  0  0
 11 13  1  0  0  0  0
 11 14  1  0  0  0  0
 14 15  1  0  0  0  0
 14 20  2  0  0  0  0
 15 16  1  0  0  0  0
 15 17  1  0  0  0  0
 17 18  1  0  0  0  0
 17 19  2  0  0  0  0
 19 20  1  0  0  0  0
 20 21  1  0  0  0  0
 22 23  2  0  0  0  0
 22 24  1  0  0  0  0
 24 25  1  0  0  0  0
 24 26  1  0  0  0  0
 26 27  1  0  0  0  0
 26 28  1  0  0  0  0
 26 29  1  0  0  0  0
M  END
$$$$

  -OEChem-04042215593D

 29 29  0     1  0  0  0  0  0999 V2000
   -3.6528   -3.6072    1.5237 H   0  0  0  0  0  0  0  0  0  0  0  0
   -3.5573   -2.7041    0.9144 C   0  0  0  0  0  0  0  0  0  0  0  0
   -4.2267   -1.9380    1.3129 H   0  0  0  0  0  0  0  0  0  0  0  0
   -3.8513   -2.9393   -0.1110 H   0  0  0  0  0  0  0  0  0  0  0  0
   -2.1248   -2.2060    0.9420 C   0  0  0  0  0  0  0  0  0  0  0  0
   -1.2938   -2.7898    1.6177 O   0  0  0  0  0  0  0  0  0  0  0  0
   -1.7818   -1.0758    0.2276 N   0  0  0  0  0  0  0  0  0  0  0  0
   -2.5350   -0.5455   -0.2057 H   0  0  0  0  0  0  0  0  0  0  0  0
   -0.4405   -0.4671    0.2135 C   0  0  1  0  0  0  0  0  0  0  0  0
    0.1381   -0.8524    1.0592 H   0  0  0  0  0  0  0  0  0  0  0  0
    0.3417   -0.7810   -1.0800 C   0  0  0  0  0  0  0  0  0  0  0  0
   -0.0497   -0.1662   -1.8977 H   0  0  0  0  0  0  0  0  0  0  0  0
    1.3894   -0.4984   -0.9337 H   0  0  0  0  0  0  0  0  0  0  0  0
    0.2716   -2.2257   -1.5128 C   0  0  0  0  0  0  0  0  0  0  0  0
   -0.7839   -2.8852   -2.1035 N   0  0  0  0  0  0  0  0  0  0  0  0
   -1.6920   -2.4855   -2.3251 H   0  0  0  0  0  0  0  0  0  0  0  0
   -0.3994   -4.1883   -2.3567 C   0  0  0  0  0  0  0  0  0  0  0  0
   -1.0275   -4.9467   -2.8151 H   0  0  0  0  0  0  0  0  0  0  0  0
    0.8390   -4.3771   -1.9712 N   0  0  0  0  0  0  0  0  0  0  0  0
    1.2666   -3.1651   -1.4384 C   0  0  0  0  0  0  0  0  0  0  0  0
    2.2568   -2.9871   -1.0298 H   0  0  0  0  0  0  0  0  0  0  0  0
   -0.5400    1.0608    0.3723 C   0  0  0  0  0  0  0  0  0  0  0  0
   -1.3927    1.6810   -0.2532 O   0  0  0  0  0  0  0  0  0  0  0  0
    0.2997    1.7367    1.2386 N   0  0  0  0  0  0  0  0  0  0  0  0
    0.9453    1.1841    1.7964 H   0  0  0  0  0  0  0  0  0  0  0  0
    0.2188    3.1736    1.4735 C   0  0  0  0  0  0  0  0  0  0  0  0
   -0.7573    3.4393    1.8928 H   0  0  0  0  0  0  0  0  0  0  0  0
    0.9951    3.4858    2.1788 H   0  0  0  0  0  0  0  0  0  0  0  0
    0.3623    3.7238    0.5375 H   0  0  0  0  0  0  0  0  0  0  0  0
  1  2  1  0  0  0  0
  2  3  1  0  0  0  0
  2  4  1  0  0  0  0
  2  5  1  0  0  0  0
  5  6  2  0  0  0  0
  5  7  1  0  0  0  0
  7  8  1  0  0  0  0
  7  9  1  0  0  0  0
  9 10  1  0  0  0  0
  9 11  1  0  0  0  0
  9 22  1  0  0  0  0
 11 12  1  0  0  0  0
 11 13  1  0  0  0  0
 11 14  1  0  0  0  0
 14 15  1  0  0  0  0
 14 20  2  0  0  0  0
 15 16  1  0  0  0  0
 15 17  1  0  0  0  0
 17 18  1  0  0  0  0
 17 19  2  0  0  0  0
 19 20  1  0  0  0  0
 20 21  1  0  0  0  0
 22 23  2  0  0  0  0
 22 24  1  0  0  0  0
 24 25  1  0  0  0  0
 24 26  1  0  0  0  0
 26 27  1  0  0  0  0
 26 28  1  0  0  0  0
 26 29  1  0  0  0  0
M  END
$$$$

  -OEChem-04042215593D

 29 29  0     1  0  0  0  0  0999 V2000
   -3.5835   -3.6700    1.4494 H   0  0  0  0  0  0  0  0  0  0  0  0
   -3.5019   -2.7552    0.8554 C   0  0  0  0  0  0  0  0  0  0  0  0
   -4.2107   -2.0189    1.2418 H   0  0  0  0  0  0  0  0  0  0  0  0
   -3.7538   -2.9864   -0.1821 H   0  0  0  0  0  0  0  0  0  0  0  0
   -2.0901   -2.2064    0.9347 C   0  0  0  0  0  0  0  0  0  0  0  0
   -1.2667   -2.7514    1.6518 O   0  0  0  0  0  0  0  0  0  0  0  0
   -1.7565   -1.0726    0.2221 N   0  0  0  0  0  0  0  0  0  0  0  0
   -2.5026   -0.5841   -0.2678 H   0  0  0  0  0  0  0  0  0  0  0  0
   -0.4210   -0.4526    0.2133 C   0  0  1  0  0  0  0  0  0  0  0  0
    0.1637   -0.8352    1.0561 H   0  0  0  0  0  0  0  0  0  0  0  0
    0.3479   -0.7684   -1.0859 C   0  0  0  0  0  0  0  0  0  0  0  0
   -0.0428   -0.1552   -1.9049 H   0  0  0  0  0  0  0  0  0  0  0  0
    1.3991   -0.4952   -0.9470 H   0  0  0  0  0  0  0  0  0  0  0  0
    0.2608   -2.2182   -1.4937 C   0  0  0  0  0  0  0  0  0  0  0  0
   -0.6855   -2.8044   -2.3050 N   0  0  0  0  0  0  0  0  0  0  0  0
   -1.4723   -2.3358   -2.7473 H   0  0  0  0  0  0  0  0  0  0  0  0
   -0.3735   -4.1439   -2.4398 C   0  0  0  0  0  0  0  0  0  0  0  0
   -0.9425   -4.8618   -3.0234 H   0  0  0  0  0  0  0  0  0  0  0  0
    0.7149   -4.4252   -1.7663 N   0  0  0  0  0  0  0  0  0  0  0  0
    1.1176   -3.2361   -1.1657 C   0  0  0  0  0  0  0  0  0  0  0  0
    1.9936   -3.1297   -0.5329 H   0  0  0  0  0  0  0  0  0  0  0  0
   -0.5298    1.0741    0.3730 C   0  0  0  0  0  0  0  0  0  0  0  0
   -1.3708    1.6935   -0.2692 O   0  0  0  0  0  0  0  0  0  0  0  0
    0.3038    1.7520    1.2433 N   0  0  0  0  0  0  0  0  0  0  0  0
    0.9357    1.1984    1.8157 H   0  0  0  0  0  0  0  0  0  0  0  0
    0.2159    3.1881    1.4795 C   0  0  0  0  0  0  0  0  0  0  0  0
   -0.7665    3.4509    1.8857 H   0  0  0  0  0  0  0  0  0  0  0  0
    0.9816    3.5007    2.1962 H   0  0  0  0  0  0  0  0  0  0  0  0
    0.3709    3.7405    0.5467 H   0  0  0  0  0  0  0  0  0  0  0  0
  1  2  1  0  0  0  0
  2  3  1  0  0  0  0
  2  4  1  0  0  0  0
  2  5  1  0  0  0  0
  5  6  2  0  0  0  0
  5  7  1  0  0  0  0
  7  8  1  0  0  0  0
  7  9  1  0  0  0  0
  9 10  1  0  0  0  0
  9 11  1  0  0  0  0
  9 22  1  0  0  0  0
 11 12  1  0  0  0  0
 11 13  1  0  0  0  0
 11 14  1  0  0  0  0
 14 15  1  0  0  0  0
 14 20  2  0  0  0  0
 15 16  1  0  0  0  0
 15 17  1  0  0  0  0
 17 18  1  0  0  0  0
 17 19  2  0  0  0  0
 19 20  1  0  0  0  0
 20 21  1  0  0  0  0
 22 23  2  0  0  0  0
 22 24  1  0  0  0  0
 24 25  1  0  0  0  0
 24 26  1  0  0  0  0
 26 27  1  0  0  0  0
 26 28  1  0  0  0  0
 26 29  1  0  0  0  0
M  END
$$$$

  -OEChem-04042215593D

 29 29  0     1  0  0  0  0  0999 V2000
   -3.5508   -3.6974    1.4256 H   0  0  0  0  0  0  0  0  0  0  0  0
   -3.4755   -2.7795    0.8360 C   0  0  0  0  0  0  0  0  0  0  0  0
   -4.2032   -2.0571    1.2133 H   0  0  0  0  0  0  0  0  0  0  0  0
   -3.7070   -3.0121   -0.2060 H   0  0  0  0  0  0  0  0  0  0  0  0
   -2.0748   -2.2066    0.9396 C   0  0  0  0  0  0  0  0  0  0  0  0
   -1.2590   -2.7257    1.6848 O   0  0  0  0  0  0  0  0  0  0  0  0
   -1.7427   -1.0741    0.2240 N   0  0  0  0  0  0  0  0  0  0  0  0
   -2.4782   -0.6180   -0.3104 H   0  0  0  0  0  0  0  0  0  0  0  0
   -0.4098   -0.4484    0.2194 C   0  0  1  0  0  0  0  0  0  0  0  0
    0.1762   -0.8268    1.0628 H   0  0  0  0  0  0  0  0  0  0  0  0
    0.3546   -0.7649   -1.0820 C   0  0  0  0  0  0  0  0  0  0  0  0
   -0.0420   -0.1525   -1.8989 H   0  0  0  0  0  0  0  0  0  0  0  0
    1.4066   -0.4913   -0.9513 H   0  0  0  0  0  0  0  0  0  0  0  0
    0.2662   -2.2157   -1.4864 C   0  0  0  0  0  0  0  0  0  0  0  0
   -0.4948   -2.7515   -2.5017 N   0  0  0  0  0  0  0  0  0  0  0  0
   -1.1039   -2.2375   -3.1341 H   0  0  0  0  0  0  0  0  0  0  0  0
   -0.2742   -4.1154   -2.5374 C   0  0  0  0  0  0  0  0  0  0  0  0
   -0.7353   -4.8049   -3.2388 H   0  0  0  0  0  0  0  0  0  0  0  0
    0.5775   -4.4604   -1.6031 N   0  0  0  0  0  0  0  0  0  0  0  0
    0.9164   -3.2881   -0.9331 C   0  0  0  0  0  0  0  0  0  0  0  0
    1.6020   -3.2312   -0.0930 H   0  0  0  0  0  0  0  0  0  0  0  0
   -0.5216    1.0792    0.3725 C   0  0  0  0  0  0  0  0  0  0  0  0
   -1.3529    1.6975   -0.2831 O   0  0  0  0  0  0  0  0  0  0  0  0
    0.3074    1.7612    1.2444 N   0  0  0  0  0  0  0  0  0  0  0  0
    0.9304    1.2096    1.8283 H   0  0  0  0  0  0  0  0  0  0  0  0
    0.2142    3.1975    1.4772 C   0  0  0  0  0  0  0  0  0  0  0  0
   -0.7707    3.4575    1.8790 H   0  0  0  0  0  0  0  0  0  0  0  0
    0.9760    3.5141    2.1962 H   0  0  0  0  0  0  0  0  0  0  0  0
    0.3710    3.7487    0.5441 H   0  0  0  0  0  0  0  0  0  0  0  0
  1  2  1  0  0  0  0
  2  3  1  0  0  0  0
  2  4  1  0  0  0  0
  2  5  1  0  0  0  0
  5  6  2  0  0  0  0
  5  7  1  0  0  0  0
  7  8  1  0  0  0  0
  7  9  1  0  0  0  0
  9 10  1  0  0  0  0
  9 11  1  0  0  0  0
  9 22  1  0  0  0  0
 11 12  1  0  0  0  0
 11 13  1  0  0  0  0
 11 14  1  0  0  0  0
 14 15  1  0  0  0  0
 14 20  2  0  0  0  0
 15 16  1  0  0  0  0
 15 17  1  0  0  0  0
 17 18  1  0  0  0  0
 17 19  2  0  0  0  0
 19 20  1  0  0  0  0
 20 21  1  0  0  0  0
 22 23  2  0  0  0  0
 22 24  1  0  0  0  0
 24 25  1  0  0  0  0
 24 26  1  0  0  0  0
 26 27  1  0  0  0  0
 26 28  1  0  0  0  0
 26 29  1  0  0  0  0
M  END
$$$$

  -OEChem-04042215593D

 29 29  0     1  0  0  0  0  0999 V2000
   -3.5438   -3.7021    1.4433 H   0  0  0  0  0  0  0  0  0  0  0  0
   -3.4546   -2.8119    0.8143 C   0  0  0  0  0  0  0  0  0  0  0  0
   -4.2235   -2.0933    1.1074 H   0  0  0  0  0  0  0  0  0  0  0  0
   -3.6112   -3.1009   -0.2276 H   0  0  0  0  0  0  0  0  0  0  0  0
   -2.0786   -2.1955    0.9767 C   0  0  0  0  0  0  0  0  0  0  0  0
   -1.2842   -2.6771    1.7689 O   0  0  0  0  0  0  0  0  0  0  0  0
   -1.7407   -1.0710    0.2518 N   0  0  0  0  0  0  0  0  0  0  0  0
   -2.4539   -0.6648   -0.3489 H   0  0  0  0  0  0  0  0  0  0  0  0
   -0.4076   -0.4454    0.2461 C   0  0  1  0  0  0  0  0  0  0  0  0
    0.1794   -0.8182    1.0914 H   0  0  0  0  0  0  0  0  0  0  0  0
    0.3523   -0.7686   -1.0573 C   0  0  0  0  0  0  0  0  0  0  0  0
   -0.0581   -0.1594   -1.8698 H   0  0  0  0  0  0  0  0  0  0  0  0
    1.4042   -0.4886   -0.9406 H   0  0  0  0  0  0  0  0  0  0  0  0
    0.2688   -2.2183   -1.4687 C   0  0  0  0  0  0  0  0  0  0  0  0
   -0.2541   -2.7138   -2.6428 N   0  0  0  0  0  0  0  0  0  0  0  0
   -0.6486   -2.1674   -3.4052 H   0  0  0  0  0  0  0  0  0  0  0  0
   -0.1405   -4.0908   -2.6241 C   0  0  0  0  0  0  0  0  0  0  0  0
   -0.4639   -4.7556   -3.4198 H   0  0  0  0  0  0  0  0  0  0  0  0
    0.4171   -4.4823   -1.5051 N   0  0  0  0  0  0  0  0  0  0  0  0
    0.6730   -3.3275   -0.7703 C   0  0  0  0  0  0  0  0  0  0  0  0
    1.1275   -3.3087    0.2159 H   0  0  0  0  0  0  0  0  0  0  0  0
   -0.5168    1.0840    0.3832 C   0  0  0  0  0  0  0  0  0  0  0  0
   -1.3322    1.7011   -0.2933 O   0  0  0  0  0  0  0  0  0  0  0  0
    0.3108    1.7716    1.2515 N   0  0  0  0  0  0  0  0  0  0  0  0
    0.9202    1.2231    1.8525 H   0  0  0  0  0  0  0  0  0  0  0  0
    0.2281    3.2119    1.4604 C   0  0  0  0  0  0  0  0  0  0  0  0
   -0.7523    3.4841    1.8652 H   0  0  0  0  0  0  0  0  0  0  0  0
    0.9976    3.5363    2.1673 H   0  0  0  0  0  0  0  0  0  0  0  0
    0.3805    3.7459    0.5166 H   0  0  0  0  0  0  0  0  0  0  0  0
  1  2  1  0  0  0  0
  2  3  1  0  0  0  0
  2  4  1  0  0  0  0
  2  5  1  0  0  0  0
  5  6  2  0  0  0  0
  5  7  1  0  0  0  0
  7  8  1  0  0  0  0
  7  9  1  0  0  0  0
  9 10  1  0  0  0  0
  9 11  1  0  0  0  0
  9 22  1  0  0  0  0
 11 12  1  0  0  0  0
 11 13  1  0  0  0  0
 11 14  1  0  0  0  0
 14 15  1  0  0  0  0
 14 20  2  0  0  0  0
 15 16  1  0  0  0  0
 15 17  1  0  0  0  0
 17 18  1  0  0  0  0
 17 19  2  0  0  0  0
 19 20  1  0  0  0  0
 20 21  1  0  0  0  0
 22 23  2  0  0  0  0
 22 24  1  0  0  0  0
 24 25  1  0  0  0  0
 24 26  1  0  0  0  0
 26 27  1  0  0  0  0
 26 28  1  0  0  0  0
 26 29  1  0  0  0  0
M  END
$$$$

  -OEChem-04042215593D

 29 29  0     1  0  0  0  0  0999 V2000
   -3.5907   -3.6777    1.4858 H   0  0  0  0  0  0  0  0  0  0  0  0
   -3.4842   -2.8033    0.8374 C   0  0  0  0  0  0  0  0  0  0  0  0
   -4.2646   -2.0806    1.0873 H   0  0  0  0  0  0  0  0  0  0  0  0
   -3.6058   -3.1196   -0.2014 H   0  0  0  0  0  0  0  0  0  0  0  0
   -2.1165   -2.1770    1.0283 C   0  0  0  0  0  0  0  0  0  0  0  0
   -1.3487   -2.6304    1.8624 O   0  0  0  0  0  0  0  0  0  0  0  0
   -1.7582   -1.0697    0.2875 N   0  0  0  0  0  0  0  0  0  0  0  0
   -2.4515   -0.6896   -0.3525 H   0  0  0  0  0  0  0  0  0  0  0  0
   -0.4198   -0.4546    0.2795 C   0  0  1  0  0  0  0  0  0  0  0  0
    0.1619   -0.8196    1.1320 H   0  0  0  0  0  0  0  0  0  0  0  0
    0.3454   -0.7914   -1.0201 C   0  0  0  0  0  0  0  0  0  0  0  0
   -0.0690   -0.1845   -1.8323 H   0  0  0  0  0  0  0  0  0  0  0  0
    1.3956   -0.5047   -0.9050 H   0  0  0  0  0  0  0  0  0  0  0  0
    0.2760   -2.2378   -1.4506 C   0  0  0  0  0  0  0  0  0  0  0  0
    0.0396   -2.6962   -2.7285 N   0  0  0  0  0  0  0  0  0  0  0  0
   -0.1287   -2.1235   -3.5529 H   0  0  0  0  0  0  0  0  0  0  0  0
    0.0717   -4.0774   -2.7125 C   0  0  0  0  0  0  0  0  0  0  0  0
   -0.0829   -4.7168   -3.5772 H   0  0  0  0  0  0  0  0  0  0  0  0
    0.3164   -4.5076   -1.4997 N   0  0  0  0  0  0  0  0  0  0  0  0
    0.4506   -3.3745   -0.7018 C   0  0  0  0  0  0  0  0  0  0  0  0
    0.6706   -3.3912    0.3613 H   0  0  0  0  0  0  0  0  0  0  0  0
   -0.5203    1.0786    0.3884 C   0  0  0  0  0  0  0  0  0  0  0  0
   -1.3220    1.6912   -0.3084 O   0  0  0  0  0  0  0  0  0  0  0  0
    0.3067    1.7748    1.2506 N   0  0  0  0  0  0  0  0  0  0  0  0
    0.9030    1.2316    1.8692 H   0  0  0  0  0  0  0  0  0  0  0  0
    0.2392    3.2201    1.4298 C   0  0  0  0  0  0  0  0  0  0  0  0
   -0.7390    3.5119    1.8261 H   0  0  0  0  0  0  0  0  0  0  0  0
    1.0106    3.5503    2.1323 H   0  0  0  0  0  0  0  0  0  0  0  0
    0.4004    3.7332    0.4759 H   0  0  0  0  0  0  0  0  0  0  0  0
  1  2  1  0  0  0  0
  2  3  1  0  0  0  0
  2  4  1  0  0  0  0
  2  5  1  0  0  0  0
  5  6  2  0  0  0  0
  5  7  1  0  0  0  0
  7  8  1  0  0  0  0
  7  9  1  0  0  0  0
  9 10  1  0  0  0  0
  9 11  1  0  0  0  0
  9 22  1  0  0  0  0
 11 12  1  0  0  0  0
 11 13  1  0  0  0  0
 11 14  1  0  0  0  0
 14 15  1  0  0  0  0
 14 20  2  0  0  0  0
 15 16  1  0  0  0  0
 15 17  1  0  0  0  0
 17 18  1  0  0  0  0
 17 19  2  0  0  0  0
 19 20  1  0  0  0  0
 20 21  1  0  0  0  0
 22 23  2  0  0  0  0
 22 24  1  0  0  0  0
 24 25  1  0  0  0  0
 24 26  1  0  0  0  0
 26 27  1  0  0  0  0
 26 28  1  0  0  0  0
 26 29  1  0  0  0  0
M  END
$$$$

  -OEChem-04042215593D

 29 29  0     1  0  0  0  0  0999 V2000
   -3.6676   -3.6338    1.5337 H   0  0  0  0  0  0  0  0  0  0  0  0
   -3.5404   -2.7712    0.8737 C   0  0  0  0  0  0  0  0  0  0  0  0
   -4.3220   -2.0400    1.0929 H   0  0  0  0  0  0  0  0  0  0  0  0
   -3.6401   -3.1043   -0.1621 H   0  0  0  0  0  0  0  0  0  0  0  0
   -2.1738   -2.1491    1.0865 C   0  0  0  0  0  0  0  0  0  0  0  0
   -1.4387   -2.5758    1.9627 O   0  0  0  0  0  0  0  0  0  0  0  0
   -1.7855   -1.0653    0.3264 N   0  0  0  0  0  0  0  0  0  0  0  0
   -2.4599   -0.7029   -0.3438 H   0  0  0  0  0  0  0  0  0  0  0  0
   -0.4378   -0.4688    0.3122 C   0  0  1  0  0  0  0  0  0  0  0  0
    0.1364   -0.8272    1.1725 H   0  0  0  0  0  0  0  0  0  0  0  0
    0.3313   -0.8239   -0.9830 C   0  0  0  0  0  0  0  0  0  0  0  0
   -0.0831   -0.2186   -1.7966 H   0  0  0  0  0  0  0  0  0  0  0  0
    1.3804   -0.5339   -0.8666 H   0  0  0  0  0  0  0  0  0  0  0  0
    0.2740   -2.2649   -1.4368 C   0  0  0  0  0  0  0  0  0  0  0  0
    0.3436   -2.6891   -2.7463 N   0  0  0  0  0  0  0  0  0  0  0  0
    0.4022   -2.0935   -3.5695 H   0  0  0  0  0  0  0  0  0  0  0  0
    0.3163   -4.0701   -2.7663 C   0  0  0  0  0  0  0  0  0  0  0  0
    0.3459   -4.6837   -3.6620 H   0  0  0  0  0  0  0  0  0  0  0  0
    0.2507   -4.5355   -1.5441 N   0  0  0  0  0  0  0  0  0  0  0  0
    0.2429   -3.4257   -0.7040 C   0  0  0  0  0  0  0  0  0  0  0  0
    0.2435   -3.4818    0.3792 H   0  0  0  0  0  0  0  0  0  0  0  0
   -0.5210    1.0679    0.3863 C   0  0  0  0  0  0  0  0  0  0  0  0
   -1.3116    1.6759   -0.3270 O   0  0  0  0  0  0  0  0  0  0  0  0
    0.3102    1.7721    1.2382 N   0  0  0  0  0  0  0  0  0  0  0  0
    0.8921    1.2345    1.8752 H   0  0  0  0  0  0  0  0  0  0  0  0
    0.2502    3.2203    1.3952 C   0  0  0  0  0  0  0  0  0  0  0  0
   -0.7281    3.5227    1.7835 H   0  0  0  0  0  0  0  0  0  0  0  0
    1.0206    3.5571    2.0955 H   0  0  0  0  0  0  0  0  0  0  0  0
    0.4178    3.7181    0.4342 H   0  0  0  0  0  0  0  0  0  0  0  0
  1  2  1  0  0  0  0
  2  3  1  0  0  0  0
  2  4  1  0  0  0  0
  2  5  1  0  0  0  0
  5  6  2  0  0  0  0
  5  7  1  0  0  0  0
  7  8  1  0  0  0  0
  7  9  1  0  0  0  0
  9 10  1  0  0  0  0
  9 11  1  0  0  0  0
  9 22  1  0  0  0  0
 11 12  1  0  0  0  0
 11 13  1  0  0  0  0
 11 14  1  0  0  0  0
 14 15  1  0  0  0  0
 14 20  2  0  0  0  0
 15 16  1  0  0  0  0
 15 17  1  0  0  0  0
 17 18  1  0  0  0  0
 17 19  2  0  0  0  0
 19 20  1  0  0  0  0
 20 21  1  0  0  0  0
 22 23  2  0  0  0  0
 22 24  1  0  0  0  0
 24 25  1  0  0  0  0
 24 26  1  0  0  0  0
 26 27  1  0  0  0  0
 26 28  1  0  0  0  0
 26 29  1  0  0  0  0
M  END
$$$$

  -OEChem-04042215593D

 29 29  0     1  0  0  0  0  0999 V2000
   -3.7499   -3.5795    1.6099 H   0  0  0  0  0  0  0  0  0  0  0  0
   -3.6087   -2.7241    0.9433 C   0  0  0  0  0  0  0  0  0  0  0  0
   -4.3772   -1.9777    1.1579 H   0  0  0  0  0  0  0  0  0  0  0  0
   -3.7162   -3.0631   -0.0901 H   0  0  0  0  0  0  0  0  0  0  0  0
   -2.2316   -2.1236    1.1496 C   0  0  0  0  0  0  0  0  0  0  0  0
   -1.5099   -2.5409    2.0415 O   0  0  0  0  0  0  0  0  0  0  0  0
   -1.8199   -1.0638    0.3690 N   0  0  0  0  0  0  0  0  0  0  0  0
   -2.4891   -0.6987   -0.3052 H   0  0  0  0  0  0  0  0  0  0  0  0
   -0.4626   -0.4903    0.3407 C   0  0  1  0  0  0  0  0  0  0  0  0
    0.1059   -0.8422    1.2076 H   0  0  0  0  0  0  0  0  0  0  0  0
    0.3138   -0.8605   -0.9497 C   0  0  0  0  0  0  0  0  0  0  0  0
   -0.0914   -0.2516   -1.7656 H   0  0  0  0  0  0  0  0  0  0  0  0
    1.3611   -0.5695   -0.8202 H   0  0  0  0  0  0  0  0  0  0  0  0
    0.2777   -2.2932   -1.4376 C   0  0  0  0  0  0  0  0  0  0  0  0
    0.6628   -2.6828   -2.7033 N   0  0  0  0  0  0  0  0  0  0  0  0
    0.9530   -2.0658   -3.4589 H   0  0  0  0  0  0  0  0  0  0  0  0
    0.5763   -4.0580   -2.7947 C   0  0  0  0  0  0  0  0  0  0  0  0
    0.7999   -4.6419   -3.6830 H   0  0  0  0  0  0  0  0  0  0  0  0
    0.1849   -4.5578   -1.6501 N   0  0  0  0  0  0  0  0  0  0  0  0
    0.0221   -3.4768   -0.7892 C   0  0  0  0  0  0  0  0  0  0  0  0
   -0.2305   -3.5802    0.2578 H   0  0  0  0  0  0  0  0  0  0  0  0
   -0.5305    1.0491    0.3842 C   0  0  0  0  0  0  0  0  0  0  0  0
   -1.3183    1.6524   -0.3362 O   0  0  0  0  0  0  0  0  0  0  0  0
    0.3097    1.7605    1.2213 N   0  0  0  0  0  0  0  0  0  0  0  0
    0.8867    1.2285    1.8674 H   0  0  0  0  0  0  0  0  0  0  0  0
    0.2666    3.2122    1.3509 C   0  0  0  0  0  0  0  0  0  0  0  0
   -0.7049    3.5338    1.7409 H   0  0  0  0  0  0  0  0  0  0  0  0
    1.0465    3.5533    2.0385 H   0  0  0  0  0  0  0  0  0  0  0  0
    0.4318    3.6896    0.3791 H   0  0  0  0  0  0  0  0  0  0  0  0
  1  2  1  0  0  0  0
  2  3  1  0  0  0  0
  2  4  1  0  0  0  0
  2  5  1  0  0  0  0
  5  6  2  0  0  0  0
  5  7  1  0  0  0  0
  7  8  1  0  0  0  0
  7  9  1  0  0  0  0
  9 10  1  0  0  0  0
  9 11  1  0  0  0  0
  9 22  1  0  0  0  0
 11 12  1  0  0  0  0
 11 13  1  0  0  0  0
 11 14  1  0  0  0  0
 14 15  1  0  0  0  0
 14 20  2  0  0  0  0
 15 16  1  0  0  0  0
 15 17  1  0  0  0  0
 17 18  1  0  0  0  0
 17 19  2  0  0  0  0
 19 20  1  0  0  0  0
 20 21  1  0  0  0  0
 22 23  2  0  0  0  0
 22 24  1  0  0  0  0
 24 25  1  0  0  0  0
 24 26  1  0  0  0  0
 26 27  1  0  0  0  0
 26 28  1  0  0  0  0
 26 29  1  0  0  0  0
M  END
$$$$

  -OEChem-04042215593D

 29 29  0     1  0  0  0  0  0999 V2000
   -3.8625   -3.4412    1.8722 H   0  0  0  0  0  0  0  0  0  0  0  0
   -3.7373   -2.5795    1.2107 C   0  0  0  0  0  0  0  0  0  0  0  0
   -4.3861   -1.7714    1.5563 H   0  0  0  0  0  0  0  0  0  0  0  0
   -4.0321   -2.8681    0.1988 H   0  0  0  0  0  0  0  0  0  0  0  0
   -2.2911   -2.1221    1.2178 C   0  0  0  0  0  0  0  0  0  0  0  0
   -1.4781   -2.6786    1.9383 O   0  0  0  0  0  0  0  0  0  0  0  0
   -1.8986   -1.0717    0.4133 N   0  0  0  0  0  0  0  0  0  0  0  0
   -2.6223   -0.5922   -0.1196 H   0  0  0  0  0  0  0  0  0  0  0  0
   -0.5307   -0.5350    0.3185 C   0  0  1  0  0  0  0  0  0  0  0  0
    0.0416   -0.8824    1.1845 H   0  0  0  0  0  0  0  0  0  0  0  0
    0.2657   -0.9229   -0.9615 C   0  0  0  0  0  0  0  0  0  0  0  0
    0.0749   -0.1509   -1.7153 H   0  0  0  0  0  0  0  0  0  0  0  0
    1.3298   -0.8669   -0.7119 H   0  0  0  0  0  0  0  0  0  0  0  0
    0.0298   -2.2372   -1.6839 C   0  0  0  0  0  0  0  0  0  0  0  0
    0.7355   -2.5789   -2.8199 N   0  0  0  0  0  0  0  0  0  0  0  0
    1.4327   -2.0036   -3.2869 H   0  0  0  0  0  0  0  0  0  0  0  0
    0.3343   -3.8287   -3.2467 C   0  0  0  0  0  0  0  0  0  0  0  0
    0.7137   -4.3426   -4.1252 H   0  0  0  0  0  0  0  0  0  0  0  0
   -0.5750   -4.3048   -2.4362 N   0  0  0  0  0  0  0  0  0  0  0  0
   -0.7611   -3.3383   -1.4530 C   0  0  0  0  0  0  0  0  0  0  0  0
   -1.4417   -3.4777   -0.6268 H   0  0  0  0  0  0  0  0  0  0  0  0
   -0.5769    1.0057    0.3651 C   0  0  0  0  0  0  0  0  0  0  0  0
   -1.4122    1.6164   -0.2924 O   0  0  0  0  0  0  0  0  0  0  0  0
    0.3109    1.7080    1.1596 N   0  0  0  0  0  0  0  0  0  0  0  0
    0.9292    1.1705    1.7613 H   0  0  0  0  0  0  0  0  0  0  0  0
    0.2852    3.1595    1.2952 C   0  0  0  0  0  0  0  0  0  0  0  0
   -0.6654    3.4871    1.7292 H   0  0  0  0  0  0  0  0  0  0  0  0
    1.0976    3.4927    1.9482 H   0  0  0  0  0  0  0  0  0  0  0  0
    0.4103    3.6382    0.3182 H   0  0  0  0  0  0  0  0  0  0  0  0
  1  2  1  0  0  0  0
  2  3  1  0  0  0  0
  2  4  1  0  0  0  0
  2  5  1  0  0  0  0
  5  6  2  0  0  0  0
  5  7  1  0  0  0  0
  7  8  1  0  0  0  0
  7  9  1  0  0  0  0
  9 10  1  0  0  0  0
  9 11  1  0  0  0  0
  9 22  1  0  0  0  0
 11 12  1  0  0  0  0
 11 13  1  0  0  0  0
 11 14  1  0  0  0  0
 14 15  1  0  0  0  0
 14 20  2  0  0  0  0
 15 16  1  0  0  0  0
 15 17  1  0  0  0  0
 17 18  1  0  0  0  0
 17 19  2  0  0  0  0
 19 20  1  0  0  0  0
 20 21  1  0  0  0  0
 22 23  2  0  0  0  0
 22 24  1  0  0  0  0
 24 25  1  0  0  0  0
 24 26  1  0  0  0  0
 26 27  1  0  0  0  0
 26 28  1  0  0  0  0
 26 29  1  0  0  0  0
M  END
$$$$

  -OEChem-04042215593D

 29 29  0     1  0  0  0  0  0999 V2000
   -3.8487   -3.4666    1.8139 H   0  0  0  0  0  0  0  0  0  0  0  0
   -3.7413   -2.5494    1.2282 C   0  0  0  0  0  0  0  0  0  0  0  0
   -4.3442   -1.7632    1.6887 H   0  0  0  0  0  0  0  0  0  0  0  0
   -4.1080   -2.7346    0.2156 H   0  0  0  0  0  0  0  0  0  0  0  0
   -2.2851   -2.1264    1.1845 C   0  0  0  0  0  0  0  0  0  0  0  0
   -1.4597   -2.7135    1.8655 O   0  0  0  0  0  0  0  0  0  0  0  0
   -1.9018   -1.0652    0.3879 N   0  0  0  0  0  0  0  0  0  0  0  0
   -2.6341   -0.5515   -0.0997 H   0  0  0  0  0  0  0  0  0  0  0  0
   -0.5334   -0.5321    0.2977 C   0  0  1  0  0  0  0  0  0  0  0  0
    0.0319   -0.8847    1.1662 H   0  0  0  0  0  0  0  0  0  0  0  0
    0.2752   -0.9253   -0.9718 C   0  0  0  0  0  0  0  0  0  0  0  0
    0.1123   -0.1533   -1.7322 H   0  0  0  0  0  0  0  0  0  0  0  0
    1.3343   -0.8840   -0.6991 H   0  0  0  0  0  0  0  0  0  0  0  0
    0.0354   -2.2461   -1.6822 C   0  0  0  0  0  0  0  0  0  0  0  0
    0.9246   -2.7534   -2.6078 N   0  0  0  0  0  0  0  0  0  0  0  0
    1.8049   -2.3275   -2.8885 H   0  0  0  0  0  0  0  0  0  0  0  0
    0.4343   -3.9449   -3.1036 C   0  0  0  0  0  0  0  0  0  0  0  0
    0.9301   -4.5671   -3.8431 H   0  0  0  0  0  0  0  0  0  0  0  0
   -0.7211   -4.2153   -2.5532 N   0  0  0  0  0  0  0  0  0  0  0  0
   -0.9814   -3.1723   -1.6704 C   0  0  0  0  0  0  0  0  0  0  0  0
   -1.8922   -3.1158   -1.0908 H   0  0  0  0  0  0  0  0  0  0  0  0
   -0.5729    1.0076    0.3616 C   0  0  0  0  0  0  0  0  0  0  0  0
   -1.4134    1.6268   -0.2808 O   0  0  0  0  0  0  0  0  0  0  0  0
    0.3179    1.6991    1.1624 N   0  0  0  0  0  0  0  0  0  0  0  0
    0.9427    1.1533    1.7497 H   0  0  0  0  0  0  0  0  0  0  0  0
    0.2825    3.1472    1.3303 C   0  0  0  0  0  0  0  0  0  0  0  0
   -0.6696    3.4590    1.7729 H   0  0  0  0  0  0  0  0  0  0  0  0
    1.0934    3.4713    1.9898 H   0  0  0  0  0  0  0  0  0  0  0  0
    0.4027    3.6486    0.3641 H   0  0  0  0  0  0  0  0  0  0  0  0
  1  2  1  0  0  0  0
  2  3  1  0  0  0  0
  2  4  1  0  0  0  0
  2  5  1  0  0  0  0
  5  6  2  0  0  0  0
  5  7  1  0  0  0  0
  7  8  1  0  0  0  0
  7  9  1  0  0  0  0
  9 10  1  0  0  0  0
  9 11  1  0  0  0  0
  9 22  1  0  0  0  0
 11 12  1  0  0  0  0
 11 13  1  0  0  0  0
 11 14  1  0  0  0  0
 14 15  1  0  0  0  0
 14 20  2  0  0  0  0
 15 16  1  0  0  0  0
 15 17  1  0  0  0  0
 17 18  1  0  0  0  0
 17 19  2  0  0  0  0
 19 20  1  0  0  0  0
 20 21  1  0  0  0  0
 22 23  2  0  0  0  0
 22 24  1  0  0  0  0
 24 25  1  0  0  0  0
 24 26  1  0  0  0  0
 26 27  1  0  0  0  0
 26 28  1  0  0  0  0
 26 29  1  0  0  0  0
M  END
$$$$

  -OEChem-04042215593D

 29 29  0     1  0  0  0  0  0999 V2000
   -3.7915   -3.4923    1.7958 H   0  0  0  0  0  0  0  0  0  0  0  0
   -3.6896   -2.6020    1.1691 C   0  0  0  0  0  0  0  0  0  0  0  0
   -4.3213   -1.8089    1.5759 H   0  0  0  0  0  0  0  0  0  0  0  0
   -4.0258   -2.8447    0.1581 H   0  0  0  0  0  0  0  0  0  0  0  0
   -2.2426   -2.1478    1.1403 C   0  0  0  0  0  0  0  0  0  0  0  0
   -1.4085   -2.7282    1.8167 O   0  0  0  0  0  0  0  0  0  0  0  0
   -1.8802   -1.0625    0.3669 N   0  0  0  0  0  0  0  0  0  0  0  0
   -2.6220   -0.5530   -0.1103 H   0  0  0  0  0  0  0  0  0  0  0  0
   -0.5206   -0.5079    0.2821 C   0  0  1  0  0  0  0  0  0  0  0  0
    0.0505   -0.8688    1.1433 H   0  0  0  0  0  0  0  0  0  0  0  0
    0.2823   -0.8925   -0.9913 C   0  0  0  0  0  0  0  0  0  0  0  0
    0.1076   -0.1272   -1.7555 H   0  0  0  0  0  0  0  0  0  0  0  0
    1.3443   -0.8461   -0.7314 H   0  0  0  0  0  0  0  0  0  0  0  0
    0.0195   -2.2252   -1.6692 C   0  0  0  0  0  0  0  0  0  0  0  0
    0.9775   -2.9322   -2.3662 N   0  0  0  0  0  0  0  0  0  0  0  0
    1.9585   -2.6801   -2.4613 H   0  0  0  0  0  0  0  0  0  0  0  0
    0.3975   -4.0617   -2.9102 C   0  0  0  0  0  0  0  0  0  0  0  0
    0.9195   -4.8114   -3.4978 H   0  0  0  0  0  0  0  0  0  0  0  0
   -0.8782   -4.0955   -2.6194 N   0  0  0  0  0  0  0  0  0  0  0  0
   -1.1281   -2.9580   -1.8597 C   0  0  0  0  0  0  0  0  0  0  0  0
   -2.1170   -2.6851   -1.5110 H   0  0  0  0  0  0  0  0  0  0  0  0
   -0.5706    1.0288    0.3797 C   0  0  0  0  0  0  0  0  0  0  0  0
   -1.4190    1.6538   -0.2463 O   0  0  0  0  0  0  0  0  0  0  0  0
    0.3191    1.7102    1.1903 N   0  0  0  0  0  0  0  0  0  0  0  0
    0.9476    1.1575    1.7669 H   0  0  0  0  0  0  0  0  0  0  0  0
    0.2810    3.1555    1.3792 C   0  0  0  0  0  0  0  0  0  0  0  0
   -0.6720    3.4589    1.8252 H   0  0  0  0  0  0  0  0  0  0  0  0
    1.0906    3.4715    2.0441 H   0  0  0  0  0  0  0  0  0  0  0  0
    0.4018    3.6709    0.4204 H   0  0  0  0  0  0  0  0  0  0  0  0
  1  2  1  0  0  0  0
  2  3  1  0  0  0  0
  2  4  1  0  0  0  0
  2  5  1  0  0  0  0
  5  6  2  0  0  0  0
  5  7  1  0  0  0  0
  7  8  1  0  0  0  0
  7  9  1  0  0  0  0
  9 10  1  0  0  0  0
  9 11  1  0  0  0  0
  9 22  1  0  0  0  0
 11 12  1  0  0  0  0
 11 13  1  0  0  0  0
 11 14  1  0  0  0  0
 14 15  1  0  0  0  0
 14 20  2  0  0  0  0
 15 16  1  0  0  0  0
 15 17  1  0  0  0  0
 17 18  1  0  0  0  0
 17 19  2  0  0  0  0
 19 20  1  0  0  0  0
 20 21  1  0  0  0  0
 22 23  2  0  0  0  0
 22 24  1  0  0  0  0
 24 25  1  0  0  0  0
 24 26  1  0  0  0  0
 26 27  1  0  0  0  0
 26 28  1  0  0  0  0
 26 29  1  0  0  0  0
M  END
$$$$

  -OEChem-04042215593D

 29 29  0     1  0  0  0  0  0999 V2000
   -3.7227   -3.5510    1.7199 H   0  0  0  0  0  0  0  0  0  0  0  0
   -3.6234   -2.6749    1.0734 C   0  0  0  0  0  0  0  0  0  0  0  0
   -4.3059   -1.8975    1.4244 H   0  0  0  0  0  0  0  0  0  0  0  0
   -3.8963   -2.9582    0.0539 H   0  0  0  0  0  0  0  0  0  0  0  0
   -2.1955   -2.1645    1.1029 C   0  0  0  0  0  0  0  0  0  0  0  0
   -1.3632   -2.7211    1.8017 O   0  0  0  0  0  0  0  0  0  0  0  0
   -1.8480   -1.0626    0.3470 N   0  0  0  0  0  0  0  0  0  0  0  0
   -2.5919   -0.5767   -0.1504 H   0  0  0  0  0  0  0  0  0  0  0  0
   -0.4974   -0.4827    0.2763 C   0  0  1  0  0  0  0  0  0  0  0  0
    0.0786   -0.8466    1.1331 H   0  0  0  0  0  0  0  0  0  0  0  0
    0.2973   -0.8592   -1.0022 C   0  0  0  0  0  0  0  0  0  0  0  0
    0.0998   -0.1041   -1.7713 H   0  0  0  0  0  0  0  0  0  0  0  0
    1.3650   -0.8047   -0.7691 H   0  0  0  0  0  0  0  0  0  0  0  0
    0.0006   -2.2034   -1.6358 C   0  0  0  0  0  0  0  0  0  0  0  0
    0.9413   -3.1055   -2.0848 N   0  0  0  0  0  0  0  0  0  0  0  0
    1.9498   -3.0277   -1.9751 H   0  0  0  0  0  0  0  0  0  0  0  0
    0.2895   -4.1669   -2.6836 C   0  0  0  0  0  0  0  0  0  0  0  0
    0.7772   -5.0396   -3.1085 H   0  0  0  0  0  0  0  0  0  0  0  0
   -1.0052   -3.9672   -2.6707 N   0  0  0  0  0  0  0  0  0  0  0  0
   -1.1958   -2.7431   -2.0403 C   0  0  0  0  0  0  0  0  0  0  0  0
   -2.1652   -2.2715   -1.9162 H   0  0  0  0  0  0  0  0  0  0  0  0
   -0.5629    1.0516    0.3926 C   0  0  0  0  0  0  0  0  0  0  0  0
   -1.4073    1.6753   -0.2399 O   0  0  0  0  0  0  0  0  0  0  0  0
    0.3152    1.7340    1.2149 N   0  0  0  0  0  0  0  0  0  0  0  0
    0.9454    1.1825    1.7908 H   0  0  0  0  0  0  0  0  0  0  0  0
    0.2648    3.1780    1.4117 C   0  0  0  0  0  0  0  0  0  0  0  0
   -0.6932    3.4716    1.8538 H   0  0  0  0  0  0  0  0  0  0  0  0
    1.0682    3.4966    2.0829 H   0  0  0  0  0  0  0  0  0  0  0  0
    0.3868    3.6997    0.4564 H   0  0  0  0  0  0  0  0  0  0  0  0
  1  2  1  0  0  0  0
  2  3  1  0  0  0  0
  2  4  1  0  0  0  0
  2  5  1  0  0  0  0
  5  6  2  0  0  0  0
  5  7  1  0  0  0  0
  7  8  1  0  0  0  0
  7  9  1  0  0  0  0
  9 10  1  0  0  0  0
  9 11  1  0  0  0  0
  9 22  1  0  0  0  0
 11 12  1  0  0  0  0
 11 13  1  0  0  0  0
 11 14  1  0  0  0  0
 14 15  1  0  0  0  0
 14 20  2  0  0  0  0
 15 16  1  0  0  0  0
 15 17  1  0  0  0  0
 17 18  1  0  0  0  0
 17 19  2  0  0  0  0
 19 20  1  0  0  0  0
 20 21  1  0  0  0  0
 22 23  2  0  0  0  0
 22 24  1  0  0  0  0
 24 25  1  0  0  0  0
 24 26  1  0  0  0  0
 26 27  1  0  0  0  0
 26 28  1  0  0  0  0
 26 29  1  0  0  0  0
M  END
$$$$

  -OEChem-04042215593D

 29 29  0     1  0  0  0  0  0999 V2000
   -3.6584   -3.6104    1.6333 H   0  0  0  0  0  0  0  0  0  0  0  0
   -3.5676   -2.7278    0.9942 C   0  0  0  0  0  0  0  0  0  0  0  0
   -4.2818   -1.9728    1.3309 H   0  0  0  0  0  0  0  0  0  0  0  0
   -3.8047   -3.0133   -0.0338 H   0  0  0  0  0  0  0  0  0  0  0  0
   -2.1565   -2.1759    1.0627 C   0  0  0  0  0  0  0  0  0  0  0  0
   -1.3242   -2.7153    1.7758 O   0  0  0  0  0  0  0  0  0  0  0  0
   -1.8221   -1.0608    0.3208 N   0  0  0  0  0  0  0  0  0  0  0  0
   -2.5652   -0.5980   -0.1986 H   0  0  0  0  0  0  0  0  0  0  0  0
   -0.4785   -0.4606    0.2640 C   0  0  1  0  0  0  0  0  0  0  0  0
    0.1018   -0.8275    1.1163 H   0  0  0  0  0  0  0  0  0  0  0  0
    0.3065   -0.8304   -1.0197 C   0  0  0  0  0  0  0  0  0  0  0  0
    0.0865   -0.0837   -1.7909 H   0  0  0  0  0  0  0  0  0  0  0  0
    1.3796   -0.7725   -0.8136 H   0  0  0  0  0  0  0  0  0  0  0  0
   -0.0230   -2.1818   -1.6129 C   0  0  0  0  0  0  0  0  0  0  0  0
    0.8408   -3.2372   -1.8055 N   0  0  0  0  0  0  0  0  0  0  0  0
    1.8040   -3.2943   -1.4829 H   0  0  0  0  0  0  0  0  0  0  0  0
    0.1597   -4.2485   -2.4566 C   0  0  0  0  0  0  0  0  0  0  0  0
    0.5794   -5.2161   -2.7163 H   0  0  0  0  0  0  0  0  0  0  0  0
   -1.0683   -3.8723   -2.7199 N   0  0  0  0  0  0  0  0  0  0  0  0
   -1.1869   -2.5810   -2.2197 C   0  0  0  0  0  0  0  0  0  0  0  0
   -2.0787   -1.9683   -2.3091 H   0  0  0  0  0  0  0  0  0  0  0  0
   -0.5563    1.0715    0.3957 C   0  0  0  0  0  0  0  0  0  0  0  0
   -1.3988    1.6949   -0.2395 O   0  0  0  0  0  0  0  0  0  0  0  0
    0.3122    1.7524    1.2293 N   0  0  0  0  0  0  0  0  0  0  0  0
    0.9426    1.2003    1.8043 H   0  0  0  0  0  0  0  0  0  0  0  0
    0.2521    3.1944    1.4369 C   0  0  0  0  0  0  0  0  0  0  0  0
   -0.7109    3.4789    1.8736 H   0  0  0  0  0  0  0  0  0  0  0  0
    1.0484    3.5123    2.1167 H   0  0  0  0  0  0  0  0  0  0  0  0
    0.3781    3.7244    0.4868 H   0  0  0  0  0  0  0  0  0  0  0  0
  1  2  1  0  0  0  0
  2  3  1  0  0  0  0
  2  4  1  0  0  0  0
  2  5  1  0  0  0  0
  5  6  2  0  0  0  0
  5  7  1  0  0  0  0
  7  8  1  0  0  0  0
  7  9  1  0  0  0  0
  9 10  1  0  0  0  0
  9 11  1  0  0  0  0
  9 22  1  0  0  0  0
 11 12  1  0  0  0  0
 11 13  1  0  0  0  0
 11 14  1  0  0  0  0
 14 15  1  0  0  0  0
 14 20  2  0  0  0  0
 15 16  1  0  0  0  0
 15 17  1  0  0  0  0
 17 18  1  0  0  0  0
 17 19  2  0  0  0  0
 19 20  1  0  0  0  0
 20 21  1  0  0  0  0
 22 23  2  0  0  0  0
 22 24  1  0  0  0  0
 24 25  1  0  0  0  0
 24 26  1  0  0  0  0
 26 27  1  0  0  0  0
 26 28  1  0  0  0  0
 26 29  1  0  0  0  0
M  END
$$$$

  -OEChem-04042215593D

 29 29  0     1  0  0  0  0  0999 V2000
   -3.6120   -3.6475    1.5634 H   0  0  0  0  0  0  0  0  0  0  0  0
   -3.5285   -2.7581    0.9328 C   0  0  0  0  0  0  0  0  0  0  0  0
   -4.2592   -2.0178    1.2673 H   0  0  0  0  0  0  0  0  0  0  0  0
   -3.7484   -3.0384   -0.1005 H   0  0  0  0  0  0  0  0  0  0  0  0
   -2.1277   -2.1838    1.0226 C   0  0  0  0  0  0  0  0  0  0  0  0
   -1.2909   -2.7238    1.7309 O   0  0  0  0  0  0  0  0  0  0  0  0
   -1.8043   -1.0566    0.2946 N   0  0  0  0  0  0  0  0  0  0  0  0
   -2.5475   -0.6058   -0.2348 H   0  0  0  0  0  0  0  0  0  0  0  0
   -0.4661   -0.4429    0.2471 C   0  0  1  0  0  0  0  0  0  0  0  0
    0.1187   -0.8152    1.0939 H   0  0  0  0  0  0  0  0  0  0  0  0
    0.3079   -0.8063   -1.0431 C   0  0  0  0  0  0  0  0  0  0  0  0
    0.0736   -0.0617   -1.8122 H   0  0  0  0  0  0  0  0  0  0  0  0
    1.3848   -0.7503   -0.8570 H   0  0  0  0  0  0  0  0  0  0  0  0
   -0.0480   -2.1614   -1.6079 C   0  0  0  0  0  0  0  0  0  0  0  0
    0.6959   -3.3185   -1.5497 N   0  0  0  0  0  0  0  0  0  0  0  0
    1.5556   -3.4564   -1.0230 H   0  0  0  0  0  0  0  0  0  0  0  0
    0.0217   -4.3052   -2.2445 C   0  0  0  0  0  0  0  0  0  0  0  0
    0.3535   -5.3347   -2.3448 H   0  0  0  0  0  0  0  0  0  0  0  0
   -1.0794   -3.8207   -2.7676 N   0  0  0  0  0  0  0  0  0  0  0  0
   -1.1240   -2.4822   -2.3946 C   0  0  0  0  0  0  0  0  0  0  0  0
   -1.9053   -1.7867   -2.6858 H   0  0  0  0  0  0  0  0  0  0  0  0
   -0.5514    1.0872    0.3964 C   0  0  0  0  0  0  0  0  0  0  0  0
   -1.3930    1.7141   -0.2365 O   0  0  0  0  0  0  0  0  0  0  0  0
    0.3126    1.7631    1.2388 N   0  0  0  0  0  0  0  0  0  0  0  0
    0.9434    1.2077    1.8101 H   0  0  0  0  0  0  0  0  0  0  0  0
    0.2491    3.2033    1.4582 C   0  0  0  0  0  0  0  0  0  0  0  0
   -0.7167    3.4827    1.8921 H   0  0  0  0  0  0  0  0  0  0  0  0
    1.0412    3.5171    2.1450 H   0  0  0  0  0  0  0  0  0  0  0  0
    0.3794    3.7413    0.5133 H   0  0  0  0  0  0  0  0  0  0  0  0
  1  2  1  0  0  0  0
  2  3  1  0  0  0  0
  2  4  1  0  0  0  0
  2  5  1  0  0  0  0
  5  6  2  0  0  0  0
  5  7  1  0  0  0  0
  7  8  1  0  0  0  0
  7  9  1  0  0  0  0
  9 10  1  0  0  0  0
  9 11  1  0  0  0  0
  9 22  1  0  0  0  0
 11 12  1  0  0  0  0
 11 13  1  0  0  0  0
 11 14  1  0  0  0  0
 14 15  1  0  0  0  0
 14 20  2  0  0  0  0
 15 16  1  0  0  0  0
 15 17  1  0  0  0  0
 17 18  1  0  0  0  0
 17 19  2  0  0  0  0
 19 20  1  0  0  0  0
 20 21  1  0  0  0  0
 22 23  2  0  0  0  0
 22 24  1  0  0  0  0
 24 25  1  0  0  0  0
 24 26  1  0  0  0  0
 26 27  1  0  0  0  0
 26 28  1  0  0  0  0
 26 29  1  0  0  0  0
M  END
$$$$

  -OEChem-04042215593D

 29 29  0     1  0  0  0  0  0999 V2000
   -3.5883   -3.6680    1.5137 H   0  0  0  0  0  0  0  0  0  0  0  0
   -3.5110   -2.7697    0.8953 C   0  0  0  0  0  0  0  0  0  0  0  0
   -4.2440   -2.0377    1.2422 H   0  0  0  0  0  0  0  0  0  0  0  0
   -3.7327   -3.0359   -0.1413 H   0  0  0  0  0  0  0  0  0  0  0  0
   -2.1130   -2.1902    0.9890 C   0  0  0  0  0  0  0  0  0  0  0  0
   -1.2689   -2.7407    1.6813 O   0  0  0  0  0  0  0  0  0  0  0  0
   -1.7964   -1.0538    0.2727 N   0  0  0  0  0  0  0  0  0  0  0  0
   -2.5391   -0.6098   -0.2628 H   0  0  0  0  0  0  0  0  0  0  0  0
   -0.4614   -0.4325    0.2309 C   0  0  1  0  0  0  0  0  0  0  0  0
    0.1255   -0.8104    1.0737 H   0  0  0  0  0  0  0  0  0  0  0  0
    0.3059   -0.7880   -1.0637 C   0  0  0  0  0  0  0  0  0  0  0  0
    0.0682   -0.0413   -1.8299 H   0  0  0  0  0  0  0  0  0  0  0  0
    1.3844   -0.7379   -0.8851 H   0  0  0  0  0  0  0  0  0  0  0  0
   -0.0646   -2.1433   -1.6149 C   0  0  0  0  0  0  0  0  0  0  0  0
    0.5189   -3.3553   -1.3241 N   0  0  0  0  0  0  0  0  0  0  0  0
    1.2199   -3.5284   -0.6066 H   0  0  0  0  0  0  0  0  0  0  0  0
   -0.1172   -4.3320   -2.0665 C   0  0  0  0  0  0  0  0  0  0  0  0
    0.1090   -5.3936   -2.0241 H   0  0  0  0  0  0  0  0  0  0  0  0
   -1.0393   -3.7939   -2.8293 N   0  0  0  0  0  0  0  0  0  0  0  0
   -1.0061   -2.4284   -2.5686 C   0  0  0  0  0  0  0  0  0  0  0  0
   -1.6445   -1.6922   -3.0475 H   0  0  0  0  0  0  0  0  0  0  0  0
   -0.5491    1.0954    0.3953 C   0  0  0  0  0  0  0  0  0  0  0  0
   -1.3900    1.7279   -0.2327 O   0  0  0  0  0  0  0  0  0  0  0  0
    0.3148    1.7639    1.2436 N   0  0  0  0  0  0  0  0  0  0  0  0
    0.9473    1.2043    1.8090 H   0  0  0  0  0  0  0  0  0  0  0  0
    0.2535    3.2028    1.4710 C   0  0  0  0  0  0  0  0  0  0  0  0
   -0.7132    3.4813    1.9039 H   0  0  0  0  0  0  0  0  0  0  0  0
    1.0444    3.5110    2.1616 H   0  0  0  0  0  0  0  0  0  0  0  0
    0.3874    3.7455    0.5292 H   0  0  0  0  0  0  0  0  0  0  0  0
  1  2  1  0  0  0  0
  2  3  1  0  0  0  0
  2  4  1  0  0  0  0
  2  5  1  0  0  0  0
  5  6  2  0  0  0  0
  5  7  1  0  0  0  0
  7  8  1  0  0  0  0
  7  9  1  0  0  0  0
  9 10  1  0  0  0  0
  9 11  1  0  0  0  0
  9 22  1  0  0  0  0
 11 12  1  0  0  0  0
 11 13  1  0  0  0  0
 11 14  1  0  0  0  0
 14 15  1  0  0  0  0
 14 20  2  0  0  0  0
 15 16  1  0  0  0  0
 15 17  1  0  0  0  0
 17 18  1  0  0  0  0
 17 19  2  0  0  0  0
 19 20  1  0  0  0  0
 20 21  1  0  0  0  0
 22 23  2  0  0  0  0
 22 24  1  0  0  0  0
 24 25  1  0  0  0  0
 24 26  1  0  0  0  0
 26 27  1  0  0  0  0
 26 28  1  0  0  0  0
 26 29  1  0  0  0  0
M  END
$$$$

  -OEChem-04042215593D

 29 29  0     1  0  0  0  0  0999 V2000
   -3.5963   -3.6600    1.5108 H   0  0  0  0  0  0  0  0  0  0  0  0
   -3.5177   -2.7616    0.8924 C   0  0  0  0  0  0  0  0  0  0  0  0
   -4.2367   -2.0214    1.2513 H   0  0  0  0  0  0  0  0  0  0  0  0
   -3.7581   -3.0232   -0.1412 H   0  0  0  0  0  0  0  0  0  0  0  0
   -2.1123   -2.1967    0.9651 C   0  0  0  0  0  0  0  0  0  0  0  0
   -1.2543   -2.7727    1.6200 O   0  0  0  0  0  0  0  0  0  0  0  0
   -1.8004   -1.0532    0.2586 N   0  0  0  0  0  0  0  0  0  0  0  0
   -2.5497   -0.5972   -0.2579 H   0  0  0  0  0  0  0  0  0  0  0  0
   -0.4669   -0.4282    0.2162 C   0  0  1  0  0  0  0  0  0  0  0  0
    0.1224   -0.8113    1.0548 H   0  0  0  0  0  0  0  0  0  0  0  0
    0.2983   -0.7777   -1.0803 C   0  0  0  0  0  0  0  0  0  0  0  0
    0.0629   -0.0272   -1.8435 H   0  0  0  0  0  0  0  0  0  0  0  0
    1.3766   -0.7317   -0.8995 H   0  0  0  0  0  0  0  0  0  0  0  0
   -0.0711   -2.1325   -1.6330 C   0  0  0  0  0  0  0  0  0  0  0  0
    0.3135   -3.3608   -1.1447 N   0  0  0  0  0  0  0  0  0  0  0  0
    0.7784   -3.5308   -0.2539 H   0  0  0  0  0  0  0  0  0  0  0  0
   -0.2421   -4.3385   -1.9467 C   0  0  0  0  0  0  0  0  0  0  0  0
   -0.1399   -5.4080   -1.7862 H   0  0  0  0  0  0  0  0  0  0  0  0
   -0.9221   -3.7896   -2.9258 N   0  0  0  0  0  0  0  0  0  0  0  0
   -0.8145   -2.4141   -2.7481 C   0  0  0  0  0  0  0  0  0  0  0  0
   -1.2662   -1.6691   -3.3962 H   0  0  0  0  0  0  0  0  0  0  0  0
   -0.5537    1.0982    0.3947 C   0  0  0  0  0  0  0  0  0  0  0  0
   -1.4012    1.7357   -0.2190 O   0  0  0  0  0  0  0  0  0  0  0  0
    0.3146    1.7590    1.2447 N   0  0  0  0  0  0  0  0  0  0  0  0
    0.9601    1.1956    1.7912 H   0  0  0  0  0  0  0  0  0  0  0  0
    0.2601    3.1967    1.4817 C   0  0  0  0  0  0  0  0  0  0  0  0
   -0.7045    3.4770    1.9176 H   0  0  0  0  0  0  0  0  0  0  0  0
    1.0530    3.4970    2.1734 H   0  0  0  0  0  0  0  0  0  0  0  0
    0.3959    3.7450    0.5435 H   0  0  0  0  0  0  0  0  0  0  0  0
  1  2  1  0  0  0  0
  2  3  1  0  0  0  0
  2  4  1  0  0  0  0
  2  5  1  0  0  0  0
  5  6  2  0  0  0  0
  5  7  1  0  0  0  0
  7  8  1  0  0  0  0
  7  9  1  0  0  0  0
  9 10  1  0  0  0  0
  9 11  1  0  0  0  0
  9 22  1  0  0  0  0
 11 12  1  0  0  0  0
 11 13  1  0  0  0  0
 11 14  1  0  0  0  0
 14 15  1  0  0  0  0
 14 20  2  0  0  0  0
 15 16  1  0  0  0  0
 15 17  1  0  0  0  0
 17 18  1  0  0  0  0
 17 19  2  0  0  0  0
 19 20  1  0  0  0  0
 20 21  1  0  0  0  0
 22 23  2  0  0  0  0
 22 24  1  0  0  0  0
 24 25  1  0  0  0  0
 24 26  1  0  0  0  0
 26 27  1  0  0  0  0
 26 28  1  0  0  0  0
 26 29  1  0  0  0  0
M  END
$$$$

  -OEChem-04042215593D

 29 29  0     1  0  0  0  0  0999 V2000
   -3.6342   -3.6300    1.5516 H   0  0  0  0  0  0  0  0  0  0  0  0
   -3.5506   -2.7345    0.9298 C   0  0  0  0  0  0  0  0  0  0  0  0
   -4.2453   -1.9789    1.3043 H   0  0  0  0  0  0  0  0  0  0  0  0
   -3.8214   -2.9920   -0.0973 H   0  0  0  0  0  0  0  0  0  0  0  0
   -2.1321   -2.1994    0.9684 C   0  0  0  0  0  0  0  0  0  0  0  0
   -1.2658   -2.8047    1.5862 O   0  0  0  0  0  0  0  0  0  0  0  0
   -1.8137   -1.0576    0.2624 N   0  0  0  0  0  0  0  0  0  0  0  0
   -2.5676   -0.5812   -0.2291 H   0  0  0  0  0  0  0  0  0  0  0  0
   -0.4787   -0.4354    0.2153 C   0  0  1  0  0  0  0  0  0  0  0  0
    0.1089   -0.8196    1.0549 H   0  0  0  0  0  0  0  0  0  0  0  0
    0.2926   -0.7782   -1.0803 C   0  0  0  0  0  0  0  0  0  0  0  0
    0.0684   -0.0204   -1.8395 H   0  0  0  0  0  0  0  0  0  0  0  0
    1.3683   -0.7339   -0.8838 H   0  0  0  0  0  0  0  0  0  0  0  0
   -0.0570   -2.1292   -1.6560 C   0  0  0  0  0  0  0  0  0  0  0  0
    0.0871   -3.3530   -1.0410 N   0  0  0  0  0  0  0  0  0  0  0  0
    0.2803   -3.4990   -0.0483 H   0  0  0  0  0  0  0  0  0  0  0  0
   -0.3528   -4.3306   -1.9114 C   0  0  0  0  0  0  0  0  0  0  0  0
   -0.3902   -5.3929   -1.6878 H   0  0  0  0  0  0  0  0  0  0  0  0
   -0.7357   -3.7895   -3.0439 N   0  0  0  0  0  0  0  0  0  0  0  0
   -0.5507   -2.4180   -2.9002 C   0  0  0  0  0  0  0  0  0  0  0  0
   -0.7756   -1.6805   -3.6649 H   0  0  0  0  0  0  0  0  0  0  0  0
   -0.5634    1.0914    0.3938 C   0  0  0  0  0  0  0  0  0  0  0  0
   -1.4204    1.7282   -0.2073 O   0  0  0  0  0  0  0  0  0  0  0  0
    0.3086    1.7512    1.2408 N   0  0  0  0  0  0  0  0  0  0  0  0
    0.9686    1.1890    1.7710 H   0  0  0  0  0  0  0  0  0  0  0  0
    0.2616    3.1898    1.4740 C   0  0  0  0  0  0  0  0  0  0  0  0
   -0.7003    3.4762    1.9120 H   0  0  0  0  0  0  0  0  0  0  0  0
    1.0580    3.4876    2.1627 H   0  0  0  0  0  0  0  0  0  0  0  0
    0.3970    3.7348    0.5338 H   0  0  0  0  0  0  0  0  0  0  0  0
  1  2  1  0  0  0  0
  2  3  1  0  0  0  0
  2  4  1  0  0  0  0
  2  5  1  0  0  0  0
  5  6  2  0  0  0  0
  5  7  1  0  0  0  0
  7  8  1  0  0  0  0
  7  9  1  0  0  0  0
  9 10  1  0  0  0  0
  9 11  1  0  0  0  0
  9 22  1  0  0  0  0
 11 12  1  0  0  0  0
 11 13  1  0  0  0  0
 11 14  1  0  0  0  0
 14 15  1  0  0  0  0
 14 20  2  0  0  0  0
 15 16  1  0  0  0  0
 15 17  1  0  0  0  0
 17 18  1  0  0  0  0
 17 19  2  0  0  0  0
 19 20  1  0  0  0  0
 20 21  1  0  0  0  0
 22 23  2  0  0  0  0
 22 24  1  0  0  0  0
 24 25  1  0  0  0  0
 24 26  1  0  0  0  0
 26 27  1  0  0  0  0
 26 28  1  0  0  0  0
 26 29  1  0  0  0  0
M  END
$$$$

  -OEChem-04042215593D

 29 29  0     1  0  0  0  0  0999 V2000
   -3.7085   -3.5553    1.6421 H   0  0  0  0  0  0  0  0  0  0  0  0
   -3.6096   -2.6686    1.0097 C   0  0  0  0  0  0  0  0  0  0  0  0
   -4.2595   -1.8825    1.4017 H   0  0  0  0  0  0  0  0  0  0  0  0
   -3.9264   -2.9215   -0.0053 H   0  0  0  0  0  0  0  0  0  0  0  0
   -2.1699   -2.1925    0.9960 C   0  0  0  0  0  0  0  0  0  0  0  0
   -1.3078   -2.8341    1.5816 O   0  0  0  0  0  0  0  0  0  0  0  0
   -1.8280   -1.0653    0.2790 N   0  0  0  0  0  0  0  0  0  0  0  0
   -2.5821   -0.5571   -0.1800 H   0  0  0  0  0  0  0  0  0  0  0  0
   -0.4867   -0.4557    0.2244 C   0  0  1  0  0  0  0  0  0  0  0  0
    0.0949   -0.8355    1.0702 H   0  0  0  0  0  0  0  0  0  0  0  0
    0.2977   -0.7992   -1.0663 C   0  0  0  0  0  0  0  0  0  0  0  0
    0.0914   -0.0334   -1.8225 H   0  0  0  0  0  0  0  0  0  0  0  0
    1.3689   -0.7559   -0.8463 H   0  0  0  0  0  0  0  0  0  0  0  0
   -0.0188   -2.1438   -1.6791 C   0  0  0  0  0  0  0  0  0  0  0  0
   -0.1467   -3.3539   -1.0339 N   0  0  0  0  0  0  0  0  0  0  0  0
   -0.1558   -3.4896   -0.0188 H   0  0  0  0  0  0  0  0  0  0  0  0
   -0.4550   -4.3210   -1.9691 C   0  0  0  0  0  0  0  0  0  0  0  0
   -0.6335   -5.3692   -1.7468 H   0  0  0  0  0  0  0  0  0  0  0  0
   -0.5141   -3.7868   -3.1659 N   0  0  0  0  0  0  0  0  0  0  0  0
   -0.2437   -2.4318   -2.9994 C   0  0  0  0  0  0  0  0  0  0  0  0
   -0.2203   -1.7037   -3.8047 H   0  0  0  0  0  0  0  0  0  0  0  0
   -0.5708    1.0737    0.3837 C   0  0  0  0  0  0  0  0  0  0  0  0
   -1.4397    1.7011   -0.2102 O   0  0  0  0  0  0  0  0  0  0  0  0
    0.3003    1.7440    1.2233 N   0  0  0  0  0  0  0  0  0  0  0  0
    0.9712    1.1905    1.7488 H   0  0  0  0  0  0  0  0  0  0  0  0
    0.2416    3.1828    1.4521 C   0  0  0  0  0  0  0  0  0  0  0  0
   -0.7217    3.4622    1.8919 H   0  0  0  0  0  0  0  0  0  0  0  0
    1.0372    3.4898    2.1380 H   0  0  0  0  0  0  0  0  0  0  0  0
    0.3699    3.7265    0.5101 H   0  0  0  0  0  0  0  0  0  0  0  0
  1  2  1  0  0  0  0
  2  3  1  0  0  0  0
  2  4  1  0  0  0  0
  2  5  1  0  0  0  0
  5  6  2  0  0  0  0
  5  7  1  0  0  0  0
  7  8  1  0  0  0  0
  7  9  1  0  0  0  0
  9 10  1  0  0  0  0
  9 11  1  0  0  0  0
  9 22  1  0  0  0  0
 11 12  1  0  0  0  0
 11 13  1  0  0  0  0
 11 14  1  0  0  0  0
 14 15  1  0  0  0  0
 14 20  2  0  0  0  0
 15 16  1  0  0  0  0
 15 17  1  0  0  0  0
 17 18  1  0  0  0  0
 17 19  2  0  0  0  0
 19 20  1  0  0  0  0
 20 21  1  0  0  0  0
 22 23  2  0  0  0  0
 22 24  1  0  0  0  0
 24 25  1  0  0  0  0
 24 26  1  0  0  0  0
 26 27  1  0  0  0  0
 26 28  1  0  0  0  0
 26 29  1  0  0  0  0
M  END
$$$$

  -OEChem-04042215593D

 29 29  0     1  0  0  0  0  0999 V2000
   -3.7847   -3.4879    1.7192 H   0  0  0  0  0  0  0  0  0  0  0  0
   -3.6701   -2.6053    1.0841 C   0  0  0  0  0  0  0  0  0  0  0  0
   -4.2810   -1.7965    1.4922 H   0  0  0  0  0  0  0  0  0  0  0  0
   -4.0220   -2.8459    0.0779 H   0  0  0  0  0  0  0  0  0  0  0  0
   -2.2154   -2.1806    1.0339 C   0  0  0  0  0  0  0  0  0  0  0  0
   -1.3610   -2.8566    1.5891 O   0  0  0  0  0  0  0  0  0  0  0  0
   -1.8525   -1.0688    0.3049 N   0  0  0  0  0  0  0  0  0  0  0  0
   -2.6047   -0.5364   -0.1301 H   0  0  0  0  0  0  0  0  0  0  0  0
   -0.5054   -0.4719    0.2373 C   0  0  1  0  0  0  0  0  0  0  0  0
    0.0702   -0.8465    1.0897 H   0  0  0  0  0  0  0  0  0  0  0  0
    0.2929   -0.8228   -1.0458 C   0  0  0  0  0  0  0  0  0  0  0  0
    0.0967   -0.0552   -1.8030 H   0  0  0  0  0  0  0  0  0  0  0  0
    1.3595   -0.7722   -0.8058 H   0  0  0  0  0  0  0  0  0  0  0  0
    0.0153   -2.1635   -1.6889 C   0  0  0  0  0  0  0  0  0  0  0  0
   -0.3803   -3.3420   -1.0972 N   0  0  0  0  0  0  0  0  0  0  0  0
   -0.5326   -3.4838   -0.0940 H   0  0  0  0  0  0  0  0  0  0  0  0
   -0.5501   -4.2987   -2.0769 C   0  0  0  0  0  0  0  0  0  0  0  0
   -0.8554   -5.3261   -1.9008 H   0  0  0  0  0  0  0  0  0  0  0  0
   -0.2919   -3.7834   -3.2549 N   0  0  0  0  0  0  0  0  0  0  0  0
    0.0566   -2.4555   -3.0274 C   0  0  0  0  0  0  0  0  0  0  0  0
    0.3197   -1.7462   -3.8066 H   0  0  0  0  0  0  0  0  0  0  0  0
   -0.5834    1.0601    0.3768 C   0  0  0  0  0  0  0  0  0  0  0  0
   -1.4612    1.6812   -0.2107 O   0  0  0  0  0  0  0  0  0  0  0  0
    0.2934    1.7370    1.2050 N   0  0  0  0  0  0  0  0  0  0  0  0
    0.9722    1.1882    1.7254 H   0  0  0  0  0  0  0  0  0  0  0  0
    0.2388    3.1782    1.4201 C   0  0  0  0  0  0  0  0  0  0  0  0
   -0.7219    3.4638    1.8612 H   0  0  0  0  0  0  0  0  0  0  0  0
    1.0378    3.4898    2.0997 H   0  0  0  0  0  0  0  0  0  0  0  0
    0.3644    3.7125    0.4724 H   0  0  0  0  0  0  0  0  0  0  0  0
  1  2  1  0  0  0  0
  2  3  1  0  0  0  0
  2  4  1  0  0  0  0
  2  5  1  0  0  0  0
  5  6  2  0  0  0  0
  5  7  1  0  0  0  0
  7  8  1  0  0  0  0
  7  9  1  0  0  0  0
  9 10  1  0  0  0  0
  9 11  1  0  0  0  0
  9 22  1  0  0  0  0
 11 12  1  0  0  0  0
 11 13  1  0  0  0  0
 11 14  1  0  0  0  0
 14 15  1  0  0  0  0
 14 20  2  0  0  0  0
 15 16  1  0  0  0  0
 15 17  1  0  0  0  0
 17 18  1  0  0  0  0
 17 19  2  0  0  0  0
 19 20  1  0  0  0  0
 20 21  1  0  0  0  0
 22 23  2  0  0  0  0
 22 24  1  0  0  0  0
 24 25  1  0  0  0  0
 24 26  1  0  0  0  0
 26 27  1  0  0  0  0
 26 28  1  0  0  0  0
 26 29  1  0  0  0  0
M  END
$$$$

  -OEChem-04042215593D

 29 29  0     1  0  0  0  0  0999 V2000
   -3.8534   -3.4081    1.8105 H   0  0  0  0  0  0  0  0  0  0  0  0
   -3.7302   -2.5279    1.1734 C   0  0  0  0  0  0  0  0  0  0  0  0
   -4.2838   -1.6950    1.6138 H   0  0  0  0  0  0  0  0  0  0  0  0
   -4.1409   -2.7469    0.1846 H   0  0  0  0  0  0  0  0  0  0  0  0
   -2.2619   -2.1689    1.0547 C   0  0  0  0  0  0  0  0  0  0  0  0
   -1.4131   -2.8941    1.5500 O   0  0  0  0  0  0  0  0  0  0  0  0
   -1.8839   -1.0682    0.3182 N   0  0  0  0  0  0  0  0  0  0  0  0
   -2.6347   -0.4980   -0.0695 H   0  0  0  0  0  0  0  0  0  0  0  0
   -0.5296   -0.4879    0.2376 C   0  0  1  0  0  0  0  0  0  0  0  0
    0.0392   -0.8619    1.0951 H   0  0  0  0  0  0  0  0  0  0  0  0
    0.2830   -0.8466   -1.0368 C   0  0  0  0  0  0  0  0  0  0  0  0
    0.0909   -0.0792   -1.7952 H   0  0  0  0  0  0  0  0  0  0  0  0
    1.3462   -0.7861   -0.7838 H   0  0  0  0  0  0  0  0  0  0  0  0
    0.0361   -2.1833   -1.7031 C   0  0  0  0  0  0  0  0  0  0  0  0
   -0.6068   -3.3055   -1.2328 N   0  0  0  0  0  0  0  0  0  0  0  0
   -0.9069   -3.4515   -0.2654 H   0  0  0  0  0  0  0  0  0  0  0  0
   -0.6203   -4.2646   -2.2249 C   0  0  0  0  0  0  0  0  0  0  0  0
   -1.0376   -5.2623   -2.1241 H   0  0  0  0  0  0  0  0  0  0  0  0
   -0.0476   -3.7967   -3.3074 N   0  0  0  0  0  0  0  0  0  0  0  0
    0.3582   -2.5027   -2.9971 C   0  0  0  0  0  0  0  0  0  0  0  0
    0.8599   -1.8342   -3.6905 H   0  0  0  0  0  0  0  0  0  0  0  0
   -0.5972    1.0455    0.3676 C   0  0  0  0  0  0  0  0  0  0  0  0
   -1.4857    1.6660   -0.2042 O   0  0  0  0  0  0  0  0  0  0  0  0
    0.2887    1.7227    1.1859 N   0  0  0  0  0  0  0  0  0  0  0  0
    0.9776    1.1751    1.6944 H   0  0  0  0  0  0  0  0  0  0  0  0
    0.2403    3.1648    1.3969 C   0  0  0  0  0  0  0  0  0  0  0  0
   -0.7161    3.4552    1.8443 H   0  0  0  0  0  0  0  0  0  0  0  0
    1.0454    3.4759    2.0695 H   0  0  0  0  0  0  0  0  0  0  0  0
    0.3603    3.6954    0.4464 H   0  0  0  0  0  0  0  0  0  0  0  0
  1  2  1  0  0  0  0
  2  3  1  0  0  0  0
  2  4  1  0  0  0  0
  2  5  1  0  0  0  0
  5  6  2  0  0  0  0
  5  7  1  0  0  0  0
  7  8  1  0  0  0  0
  7  9  1  0  0  0  0
  9 10  1  0  0  0  0
  9 11  1  0  0  0  0
  9 22  1  0  0  0  0
 11 12  1  0  0  0  0
 11 13  1  0  0  0  0
 11 14  1  0  0  0  0
 14 15  1  0  0  0  0
 14 20  2  0  0  0  0
 15 16  1  0  0  0  0
 15 17  1  0  0  0  0
 17 18  1  0  0  0  0
 17 19  2  0  0  0  0
 19 20  1  0  0  0  0
 20 21  1  0  0  0  0
 22 23  2  0  0  0  0
 22 24  1  0  0  0  0
 24 25  1  0  0  0  0
 24 26  1  0  0  0  0
 26 27  1  0  0  0  0
 26 28  1  0  0  0  0
 26 29  1  0  0  0  0
M  END
$$$$

  -OEChem-04042215593D

 29 29  0     1  0  0  0  0  0999 V2000
   -3.8893   -3.3643    1.8526 H   0  0  0  0  0  0  0  0  0  0  0  0
   -3.7639   -2.4739    1.2302 C   0  0  0  0  0  0  0  0  0  0  0  0
   -4.2704   -1.6343    1.7124 H   0  0  0  0  0  0  0  0  0  0  0  0
   -4.2237   -2.6558    0.2557 H   0  0  0  0  0  0  0  0  0  0  0  0
   -2.2908   -2.1588    1.0574 C   0  0  0  0  0  0  0  0  0  0  0  0
   -1.4469   -2.9234    1.4944 O   0  0  0  0  0  0  0  0  0  0  0  0
   -1.9087   -1.0613    0.3189 N   0  0  0  0  0  0  0  0  0  0  0  0
   -2.6585   -0.4595   -0.0208 H   0  0  0  0  0  0  0  0  0  0  0  0
   -0.5493   -0.4941    0.2278 C   0  0  1  0  0  0  0  0  0  0  0  0
    0.0166   -0.8725    1.0852 H   0  0  0  0  0  0  0  0  0  0  0  0
    0.2677   -0.8591   -1.0426 C   0  0  0  0  0  0  0  0  0  0  0  0
    0.0654   -0.0951   -1.8017 H   0  0  0  0  0  0  0  0  0  0  0  0
    1.3309   -0.7863   -0.7925 H   0  0  0  0  0  0  0  0  0  0  0  0
    0.0332   -2.1927   -1.7208 C   0  0  0  0  0  0  0  0  0  0  0  0
   -0.8184   -3.2292   -1.4146 N   0  0  0  0  0  0  0  0  0  0  0  0
   -1.2879   -3.3498   -0.5163 H   0  0  0  0  0  0  0  0  0  0  0  0
   -0.6900   -4.2134   -2.3738 C   0  0  0  0  0  0  0  0  0  0  0  0
   -1.2129   -5.1656   -2.3653 H   0  0  0  0  0  0  0  0  0  0  0  0
    0.1663   -3.8371   -3.2917 N   0  0  0  0  0  0  0  0  0  0  0  0
    0.6177   -2.5821   -2.8986 C   0  0  0  0  0  0  0  0  0  0  0  0
    1.3353   -1.9870   -3.4555 H   0  0  0  0  0  0  0  0  0  0  0  0
   -0.6030    1.0397    0.3602 C   0  0  0  0  0  0  0  0  0  0  0  0
   -1.5000    1.6664   -0.1914 O   0  0  0  0  0  0  0  0  0  0  0  0
    0.2953    1.7084    1.1719 N   0  0  0  0  0  0  0  0  0  0  0  0
    0.9929    1.1561    1.6632 H   0  0  0  0  0  0  0  0  0  0  0  0
    0.2521    3.1488    1.3952 C   0  0  0  0  0  0  0  0  0  0  0  0
   -0.7008    3.4376    1.8511 H   0  0  0  0  0  0  0  0  0  0  0  0
    1.0620    3.4527    2.0653 H   0  0  0  0  0  0  0  0  0  0  0  0
    0.3674    3.6867    0.4483 H   0  0  0  0  0  0  0  0  0  0  0  0
  1  2  1  0  0  0  0
  2  3  1  0  0  0  0
  2  4  1  0  0  0  0
  2  5  1  0  0  0  0
  5  6  2  0  0  0  0
  5  7  1  0  0  0  0
  7  8  1  0  0  0  0
  7  9  1  0  0  0  0
  9 10  1  0  0  0  0
  9 11  1  0  0  0  0
  9 22  1  0  0  0  0
 11 12  1  0  0  0  0
 11 13  1  0  0  0  0
 11 14  1  0  0  0  0
 14 15  1  0  0  0  0
 14 20  2  0  0  0  0
 15 16  1  0  0  0  0
 15 17  1  0  0  0  0
 17 18  1  0  0  0  0
 17 19  2  0  0  0  0
 19 20  1  0  0  0  0
 20 21  1  0  0  0  0
 22 23  2  0  0  0  0
 22 24  1  0  0  0  0
 24 25  1  0  0  0  0
 24 26  1  0  0  0  0
 26 27  1  0  0  0  0
 26 28  1  0  0  0  0
 26 29  1  0  0  0  0
M  END
$$$$

  -OEChem-04042215593D

 29 29  0     1  0  0  0  0  0999 V2000
   -3.8681   -3.3788    1.8649 H   0  0  0  0  0  0  0  0  0  0  0  0
   -3.7543   -2.4766    1.2569 C   0  0  0  0  0  0  0  0  0  0  0  0
   -4.2502   -1.6461    1.7656 H   0  0  0  0  0  0  0  0  0  0  0  0
   -4.2351   -2.6402    0.2894 H   0  0  0  0  0  0  0  0  0  0  0  0
   -2.2837   -2.1596    1.0612 C   0  0  0  0  0  0  0  0  0  0  0  0
   -1.4348   -2.9025    1.5214 O   0  0  0  0  0  0  0  0  0  0  0  0
   -1.9143   -1.0594    0.3174 N   0  0  0  0  0  0  0  0  0  0  0  0
   -2.6644   -0.4437    0.0036 H   0  0  0  0  0  0  0  0  0  0  0  0
   -0.5499   -0.5054    0.2228 C   0  0  1  0  0  0  0  0  0  0  0  0
    0.0233   -0.8927    1.0715 H   0  0  0  0  0  0  0  0  0  0  0  0
    0.2558   -0.8506   -1.0603 C   0  0  0  0  0  0  0  0  0  0  0  0
    0.0411   -0.0739   -1.8029 H   0  0  0  0  0  0  0  0  0  0  0  0
    1.3228   -0.7796   -0.8256 H   0  0  0  0  0  0  0  0  0  0  0  0
    0.0048   -2.1650   -1.7683 C   0  0  0  0  0  0  0  0  0  0  0  0
   -1.0186   -3.0781   -1.6640 N   0  0  0  0  0  0  0  0  0  0  0  0
   -1.7493   -3.0621   -0.9584 H   0  0  0  0  0  0  0  0  0  0  0  0
   -0.7768   -4.1252   -2.5308 C   0  0  0  0  0  0  0  0  0  0  0  0
   -1.4080   -5.0021   -2.6425 H   0  0  0  0  0  0  0  0  0  0  0  0
    0.3312   -3.9108   -3.1964 N   0  0  0  0  0  0  0  0  0  0  0  0
    0.8266   -2.6992   -2.7278 C   0  0  0  0  0  0  0  0  0  0  0  0
    1.7454   -2.2376   -3.0770 H   0  0  0  0  0  0  0  0  0  0  0  0
   -0.5993    1.0281    0.3632 C   0  0  0  0  0  0  0  0  0  0  0  0
   -1.4983    1.6600   -0.1798 O   0  0  0  0  0  0  0  0  0  0  0  0
    0.3039    1.6895    1.1750 N   0  0  0  0  0  0  0  0  0  0  0  0
    0.9997    1.1316    1.6626 H   0  0  0  0  0  0  0  0  0  0  0  0
    0.2666    3.1285    1.4071 C   0  0  0  0  0  0  0  0  0  0  0  0
   -0.6816    3.4175    1.8725 H   0  0  0  0  0  0  0  0  0  0  0  0
    1.0831    3.4258    2.0725 H   0  0  0  0  0  0  0  0  0  0  0  0
    0.3760    3.6718    0.4625 H   0  0  0  0  0  0  0  0  0  0  0  0
  1  2  1  0  0  0  0
  2  3  1  0  0  0  0
  2  4  1  0  0  0  0
  2  5  1  0  0  0  0
  5  6  2  0  0  0  0
  5  7  1  0  0  0  0
  7  8  1  0  0  0  0
  7  9  1  0  0  0  0
  9 10  1  0  0  0  0
  9 11  1  0  0  0  0
  9 22  1  0  0  0  0
 11 12  1  0  0  0  0
 11 13  1  0  0  0  0
 11 14  1  0  0  0  0
 14 15  1  0  0  0  0
 14 20  2  0  0  0  0
 15 16  1  0  0  0  0
 15 17  1  0  0  0  0
 17 18  1  0  0  0  0
 17 19  2  0  0  0  0
 19 20  1  0  0  0  0
 20 21  1  0  0  0  0
 22 23  2  0  0  0  0
 22 24  1  0  0  0  0
 24 25  1  0  0  0  0
 24 26  1  0  0  0  0
 26 27  1  0  0  0  0
 26 28  1  0  0  0  0
 26 29  1  0  0  0  0
M  END
$$$$

  -OEChem-04042215593D

 29 29  0     1  0  0  0  0  0999 V2000
   -3.8018   -3.4403    1.8034 H   0  0  0  0  0  0  0  0  0  0  0  0
   -3.7030   -2.5448    1.1833 C   0  0  0  0  0  0  0  0  0  0  0  0
   -4.2519   -1.7275    1.6572 H   0  0  0  0  0  0  0  0  0  0  0  0
   -4.1391   -2.7463    0.2022 H   0  0  0  0  0  0  0  0  0  0  0  0
   -2.2402   -2.1696    1.0382 C   0  0  0  0  0  0  0  0  0  0  0  0
   -1.3838   -2.8528    1.5724 O   0  0  0  0  0  0  0  0  0  0  0  0
   -1.8911   -1.0564    0.3004 N   0  0  0  0  0  0  0  0  0  0  0  0
   -2.6473   -0.4498   -0.0154 H   0  0  0  0  0  0  0  0  0  0  0  0
   -0.5291   -0.4970    0.2158 C   0  0  1  0  0  0  0  0  0  0  0  0
    0.0512   -0.8903    1.0567 H   0  0  0  0  0  0  0  0  0  0  0  0
    0.2658   -0.8257   -1.0777 C   0  0  0  0  0  0  0  0  0  0  0  0
    0.0444   -0.0422   -1.8109 H   0  0  0  0  0  0  0  0  0  0  0  0
    1.3356   -0.7601   -0.8543 H   0  0  0  0  0  0  0  0  0  0  0  0
   -0.0097   -2.1339   -1.7887 C   0  0  0  0  0  0  0  0  0  0  0  0
   -1.1572   -2.8887   -1.8747 N   0  0  0  0  0  0  0  0  0  0  0  0
   -2.0415   -2.6725   -1.4247 H   0  0  0  0  0  0  0  0  0  0  0  0
   -0.8947   -4.0221   -2.6187 C   0  0  0  0  0  0  0  0  0  0  0  0
   -1.6151   -4.8035   -2.8427 H   0  0  0  0  0  0  0  0  0  0  0  0
    0.3531   -4.0175   -3.0182 N   0  0  0  0  0  0  0  0  0  0  0  0
    0.9143   -2.8548   -2.5013 C   0  0  0  0  0  0  0  0  0  0  0  0
    1.9496   -2.5596   -2.6433 H   0  0  0  0  0  0  0  0  0  0  0  0
   -0.5853    1.0342    0.3728 C   0  0  0  0  0  0  0  0  0  0  0  0
   -1.4796    1.6683   -0.1758 O   0  0  0  0  0  0  0  0  0  0  0  0
    0.3121    1.6915    1.1943 N   0  0  0  0  0  0  0  0  0  0  0  0
    0.9983    1.1295    1.6909 H   0  0  0  0  0  0  0  0  0  0  0  0
    0.2680    3.1282    1.4380 C   0  0  0  0  0  0  0  0  0  0  0  0
   -0.6823    3.4089    1.9042 H   0  0  0  0  0  0  0  0  0  0  0  0
    1.0822    3.4239    2.1067 H   0  0  0  0  0  0  0  0  0  0  0  0
    0.3763    3.6790    0.4977 H   0  0  0  0  0  0  0  0  0  0  0  0
  1  2  1  0  0  0  0
  2  3  1  0  0  0  0
  2  4  1  0  0  0  0
  2  5  1  0  0  0  0
  5  6  2  0  0  0  0
  5  7  1  0  0  0  0
  7  8  1  0  0  0  0
  7  9  1  0  0  0  0
  9 10  1  0  0  0  0
  9 11  1  0  0  0  0
  9 22  1  0  0  0  0
 11 12  1  0  0  0  0
 11 13  1  0  0  0  0
 11 14  1  0  0  0  0
 14 15  1  0  0  0  0
 14 20  2  0  0  0  0
 15 16  1  0  0  0  0
 15 17  1  0  0  0  0
 17 18  1  0  0  0  0
 17 19  2  0  0  0  0
 19 20  1  0  0  0  0
 20 21  1  0  0  0  0
 22 23  2  0  0  0  0
 22 24  1  0  0  0  0
 24 25  1  0  0  0  0
 24 26  1  0  0  0  0
 26 27  1  0  0  0  0
 26 28  1  0  0  0  0
 26 29  1  0  0  0  0
M  END
$$$$

  -OEChem-04042215593D

 29 29  0     1  0  0  0  0  0999 V2000
   -3.7496   -3.4843    1.7397 H   0  0  0  0  0  0  0  0  0  0  0  0
   -3.6567   -2.5990    1.1043 C   0  0  0  0  0  0  0  0  0  0  0  0
   -4.2455   -1.7892    1.5420 H   0  0  0  0  0  0  0  0  0  0  0  0
   -4.0519   -2.8345    0.1135 H   0  0  0  0  0  0  0  0  0  0  0  0
   -2.2012   -2.1840    0.9982 C   0  0  0  0  0  0  0  0  0  0  0  0
   -1.3436   -2.8349    1.5710 O   0  0  0  0  0  0  0  0  0  0  0  0
   -1.8630   -1.0589    0.2729 N   0  0  0  0  0  0  0  0  0  0  0  0
   -2.6244   -0.4644   -0.0510 H   0  0  0  0  0  0  0  0  0  0  0  0
   -0.5070   -0.4850    0.2052 C   0  0  1  0  0  0  0  0  0  0  0  0
    0.0738   -0.8797    1.0451 H   0  0  0  0  0  0  0  0  0  0  0  0
    0.2867   -0.8081   -1.0880 C   0  0  0  0  0  0  0  0  0  0  0  0
    0.0701   -0.0258   -1.8237 H   0  0  0  0  0  0  0  0  0  0  0  0
    1.3566   -0.7487   -0.8635 H   0  0  0  0  0  0  0  0  0  0  0  0
   -0.0048   -2.1224   -1.7798 C   0  0  0  0  0  0  0  0  0  0  0  0
   -1.2104   -2.7213   -2.0707 N   0  0  0  0  0  0  0  0  0  0  0  0
   -2.1283   -2.3467   -1.8488 H   0  0  0  0  0  0  0  0  0  0  0  0
   -0.9684   -3.9257   -2.7023 C   0  0  0  0  0  0  0  0  0  0  0  0
   -1.7332   -4.6161   -3.0462 H   0  0  0  0  0  0  0  0  0  0  0  0
    0.3217   -4.1146   -2.8317 N   0  0  0  0  0  0  0  0  0  0  0  0
    0.9308   -3.0056   -2.2539 C   0  0  0  0  0  0  0  0  0  0  0  0
    2.0050   -2.8595   -2.1906 H   0  0  0  0  0  0  0  0  0  0  0  0
   -0.5748    1.0441    0.3759 C   0  0  0  0  0  0  0  0  0  0  0  0
   -1.4645    1.6767   -0.1820 O   0  0  0  0  0  0  0  0  0  0  0  0
    0.3106    1.7014    1.2103 N   0  0  0  0  0  0  0  0  0  0  0  0
    0.9932    1.1399    1.7124 H   0  0  0  0  0  0  0  0  0  0  0  0
    0.2545    3.1360    1.4653 C   0  0  0  0  0  0  0  0  0  0  0  0
   -0.7007    3.4061    1.9276 H   0  0  0  0  0  0  0  0  0  0  0  0
    1.0624    3.4320    2.1416 H   0  0  0  0  0  0  0  0  0  0  0  0
    0.3648    3.6963    0.5308 H   0  0  0  0  0  0  0  0  0  0  0  0
  1  2  1  0  0  0  0
  2  3  1  0  0  0  0
  2  4  1  0  0  0  0
  2  5  1  0  0  0  0
  5  6  2  0  0  0  0
  5  7  1  0  0  0  0
  7  8  1  0  0  0  0
  7  9  1  0  0  0  0
  9 10  1  0  0  0  0
  9 11  1  0  0  0  0
  9 22  1  0  0  0  0
 11 12  1  0  0  0  0
 11 13  1  0  0  0  0
 11 14  1  0  0  0  0
 14 15  1  0  0  0  0
 14 20  2  0  0  0  0
 15 16  1  0  0  0  0
 15 17  1  0  0  0  0
 17 18  1  0  0  0  0
 17 19  2  0  0  0  0
 19 20  1  0  0  0  0
 20 21  1  0  0  0  0
 22 23  2  0  0  0  0
 22 24  1  0  0  0  0
 24 25  1  0  0  0  0
 24 26  1  0  0  0  0
 26 27  1  0  0  0  0
 26 28  1  0  0  0  0
 26 29  1  0  0  0  0
M  END
$$$$

  -OEChem-04042215593D

 29 29  0     1  0  0  0  0  0999 V2000
   -3.6881   -3.5561    1.6369 H   0  0  0  0  0  0  0  0  0  0  0  0
   -3.6001   -2.6663    1.0069 C   0  0  0  0  0  0  0  0  0  0  0  0
   -4.2399   -1.8806    1.4161 H   0  0  0  0  0  0  0  0  0  0  0  0
   -3.9377   -2.9155   -0.0018 H   0  0  0  0  0  0  0  0  0  0  0  0
   -2.1589   -2.1948    0.9692 C   0  0  0  0  0  0  0  0  0  0  0  0
   -1.3055   -2.8064    1.5906 O   0  0  0  0  0  0  0  0  0  0  0  0
   -1.8297   -1.0612    0.2535 N   0  0  0  0  0  0  0  0  0  0  0  0
   -2.5942   -0.4998   -0.1164 H   0  0  0  0  0  0  0  0  0  0  0  0
   -0.4822   -0.4684    0.2020 C   0  0  1  0  0  0  0  0  0  0  0  0
    0.1001   -0.8602    1.0419 H   0  0  0  0  0  0  0  0  0  0  0  0
    0.3068   -0.7907   -1.0916 C   0  0  0  0  0  0  0  0  0  0  0  0
    0.0964   -0.0134   -1.8344 H   0  0  0  0  0  0  0  0  0  0  0  0
    1.3774   -0.7400   -0.8682 H   0  0  0  0  0  0  0  0  0  0  0  0
   -0.0052   -2.1159   -1.7505 C   0  0  0  0  0  0  0  0  0  0  0  0
   -1.2056   -2.5712   -2.2514 N   0  0  0  0  0  0  0  0  0  0  0  0
   -2.0841   -2.0598   -2.2533 H   0  0  0  0  0  0  0  0  0  0  0  0
   -1.0154   -3.8382   -2.7689 C   0  0  0  0  0  0  0  0  0  0  0  0
   -1.7869   -4.4465   -3.2324 H   0  0  0  0  0  0  0  0  0  0  0  0
    0.2357   -4.2006   -2.6256 N   0  0  0  0  0  0  0  0  0  0  0  0
    0.8730   -3.1415   -1.9869 C   0  0  0  0  0  0  0  0  0  0  0  0
    1.9250   -3.1286   -1.7185 H   0  0  0  0  0  0  0  0  0  0  0  0
   -0.5635    1.0587    0.3787 C   0  0  0  0  0  0  0  0  0  0  0  0
   -1.4407    1.6894   -0.2009 O   0  0  0  0  0  0  0  0  0  0  0  0
    0.3091    1.7186    1.2244 N   0  0  0  0  0  0  0  0  0  0  0  0
    0.9796    1.1573    1.7428 H   0  0  0  0  0  0  0  0  0  0  0  0
    0.2442    3.1524    1.4806 C   0  0  0  0  0  0  0  0  0  0  0  0
   -0.7185    3.4182    1.9298 H   0  0  0  0  0  0  0  0  0  0  0  0
    1.0413    3.4503    2.1686 H   0  0  0  0  0  0  0  0  0  0  0  0
    0.3657    3.7146    0.5486 H   0  0  0  0  0  0  0  0  0  0  0  0
  1  2  1  0  0  0  0
  2  3  1  0  0  0  0
  2  4  1  0  0  0  0
  2  5  1  0  0  0  0
  5  6  2  0  0  0  0
  5  7  1  0  0  0  0
  7  8  1  0  0  0  0
  7  9  1  0  0  0  0
  9 10  1  0  0  0  0
  9 11  1  0  0  0  0
  9 22  1  0  0  0  0
 11 12  1  0  0  0  0
 11 13  1  0  0  0  0
 11 14  1  0  0  0  0
 14 15  1  0  0  0  0
 14 20  2  0  0  0  0
 15 16  1  0  0  0  0
 15 17  1  0  0  0  0
 17 18  1  0  0  0  0
 17 19  2  0  0  0  0
 19 20  1  0  0  0  0
 20 21  1  0  0  0  0
 22 23  2  0  0  0  0
 22 24  1  0  0  0  0
 24 25  1  0  0  0  0
 24 26  1  0  0  0  0
 26 27  1  0  0  0  0
 26 28  1  0  0  0  0
 26 29  1  0  0  0  0
M  END
$$$$

  -OEChem-04042215593D

 29 29  0     1  0  0  0  0  0999 V2000
   -3.6261   -3.6300    1.5371 H   0  0  0  0  0  0  0  0  0  0  0  0
   -3.5429   -2.7311    0.9199 C   0  0  0  0  0  0  0  0  0  0  0  0
   -4.2310   -1.9745    1.3041 H   0  0  0  0  0  0  0  0  0  0  0  0
   -3.8211   -2.9829   -0.1060 H   0  0  0  0  0  0  0  0  0  0  0  0
   -2.1211   -2.2042    0.9547 C   0  0  0  0  0  0  0  0  0  0  0  0
   -1.2779   -2.7756    1.6275 O   0  0  0  0  0  0  0  0  0  0  0  0
   -1.7969   -1.0664    0.2437 N   0  0  0  0  0  0  0  0  0  0  0  0
   -2.5556   -0.5519   -0.1973 H   0  0  0  0  0  0  0  0  0  0  0  0
   -0.4568   -0.4567    0.2081 C   0  0  1  0  0  0  0  0  0  0  0  0
    0.1277   -0.8443    1.0486 H   0  0  0  0  0  0  0  0  0  0  0  0
    0.3245   -0.7785   -1.0884 C   0  0  0  0  0  0  0  0  0  0  0  0
    0.1209   -0.0053   -1.8375 H   0  0  0  0  0  0  0  0  0  0  0  0
    1.3963   -0.7401   -0.8678 H   0  0  0  0  0  0  0  0  0  0  0  0
   -0.0103   -2.1113   -1.7161 C   0  0  0  0  0  0  0  0  0  0  0  0
   -1.1391   -2.4478   -2.4320 N   0  0  0  0  0  0  0  0  0  0  0  0
   -1.9144   -1.8286   -2.6555 H   0  0  0  0  0  0  0  0  0  0  0  0
   -1.0228   -3.7633   -2.8385 C   0  0  0  0  0  0  0  0  0  0  0  0
   -1.7593   -4.3027   -3.4270 H   0  0  0  0  0  0  0  0  0  0  0  0
    0.1108   -4.2677   -2.4169 N   0  0  0  0  0  0  0  0  0  0  0  0
    0.7492   -3.2517   -1.7116 C   0  0  0  0  0  0  0  0  0  0  0  0
    1.7179   -3.3490   -1.2309 H   0  0  0  0  0  0  0  0  0  0  0  0
   -0.5519    1.0697    0.3833 C   0  0  0  0  0  0  0  0  0  0  0  0
   -1.4096    1.6972   -0.2284 O   0  0  0  0  0  0  0  0  0  0  0  0
    0.3056    1.7374    1.2385 N   0  0  0  0  0  0  0  0  0  0  0  0
    0.9555    1.1786    1.7852 H   0  0  0  0  0  0  0  0  0  0  0  0
    0.2370    3.1737    1.4793 C   0  0  0  0  0  0  0  0  0  0  0  0
   -0.7317    3.4442    1.9126 H   0  0  0  0  0  0  0  0  0  0  0  0
    1.0247    3.4784    2.1751 H   0  0  0  0  0  0  0  0  0  0  0  0
    0.3714    3.7262    0.5434 H   0  0  0  0  0  0  0  0  0  0  0  0
  1  2  1  0  0  0  0
  2  3  1  0  0  0  0
  2  4  1  0  0  0  0
  2  5  1  0  0  0  0
  5  6  2  0  0  0  0
  5  7  1  0  0  0  0
  7  8  1  0  0  0  0
  7  9  1  0  0  0  0
  9 10  1  0  0  0  0
  9 11  1  0  0  0  0
  9 22  1  0  0  0  0
 11 12  1  0  0  0  0
 11 13  1  0  0  0  0
 11 14  1  0  0  0  0
 14 15  1  0  0  0  0
 14 20  2  0  0  0  0
 15 16  1  0  0  0  0
 15 17  1  0  0  0  0
 17 18  1  0  0  0  0
 17 19  2  0  0  0  0
 19 20  1  0  0  0  0
 20 21  1  0  0  0  0
 22 23  2  0  0  0  0
 22 24  1  0  0  0  0
 24 25  1  0  0  0  0
 24 26  1  0  0  0  0
 26 27  1  0  0  0  0
 26 28  1  0  0  0  0
 26 29  1  0  0  0  0
M  END
$$$$

  -OEChem-04042215593D

 29 29  0     1  0  0  0  0  0999 V2000
   -3.5707   -3.6864    1.4551 H   0  0  0  0  0  0  0  0  0  0  0  0
   -3.4971   -2.7733    0.8576 C   0  0  0  0  0  0  0  0  0  0  0  0
   -4.2207   -2.0460    1.2330 H   0  0  0  0  0  0  0  0  0  0  0  0
   -3.7350   -3.0137   -0.1812 H   0  0  0  0  0  0  0  0  0  0  0  0
   -2.0947   -2.2029    0.9474 C   0  0  0  0  0  0  0  0  0  0  0  0
   -1.2629   -2.7411    1.6610 O   0  0  0  0  0  0  0  0  0  0  0  0
   -1.7721   -1.0648    0.2365 N   0  0  0  0  0  0  0  0  0  0  0  0
   -2.5161   -0.5994   -0.2774 H   0  0  0  0  0  0  0  0  0  0  0  0
   -0.4360   -0.4457    0.2092 C   0  0  1  0  0  0  0  0  0  0  0  0
    0.1505   -0.8296    1.0499 H   0  0  0  0  0  0  0  0  0  0  0  0
    0.3374   -0.7710   -1.0900 C   0  0  0  0  0  0  0  0  0  0  0  0
    0.1387   -0.0010   -1.8432 H   0  0  0  0  0  0  0  0  0  0  0  0
    1.4103   -0.7422   -0.8743 H   0  0  0  0  0  0  0  0  0  0  0  0
   -0.0158   -2.1093   -1.6927 C   0  0  0  0  0  0  0  0  0  0  0  0
   -1.0030   -2.3738   -2.6171 N   0  0  0  0  0  0  0  0  0  0  0  0
   -1.6303   -1.6930   -3.0398 H   0  0  0  0  0  0  0  0  0  0  0  0
   -0.9765   -3.7248   -2.9062 C   0  0  0  0  0  0  0  0  0  0  0  0
   -1.6371   -4.2269   -3.6069 H   0  0  0  0  0  0  0  0  0  0  0  0
   -0.0338   -4.3166   -2.2144 N   0  0  0  0  0  0  0  0  0  0  0  0
    0.5720   -3.3231   -1.4501 C   0  0  0  0  0  0  0  0  0  0  0  0
    1.3944   -3.4877   -0.7603 H   0  0  0  0  0  0  0  0  0  0  0  0
   -0.5380    1.0806    0.3795 C   0  0  0  0  0  0  0  0  0  0  0  0
   -1.3810    1.7071   -0.2533 O   0  0  0  0  0  0  0  0  0  0  0  0
    0.3116    1.7518    1.2397 N   0  0  0  0  0  0  0  0  0  0  0  0
    0.9443    1.1931    1.8064 H   0  0  0  0  0  0  0  0  0  0  0  0
    0.2313    3.1871    1.4831 C   0  0  0  0  0  0  0  0  0  0  0  0
   -0.7471    3.4518    1.8977 H   0  0  0  0  0  0  0  0  0  0  0  0
    1.0032    3.4931    2.1956 H   0  0  0  0  0  0  0  0  0  0  0  0
    0.3818    3.7430    0.5518 H   0  0  0  0  0  0  0  0  0  0  0  0
  1  2  1  0  0  0  0
  2  3  1  0  0  0  0
  2  4  1  0  0  0  0
  2  5  1  0  0  0  0
  5  6  2  0  0  0  0
  5  7  1  0  0  0  0
  7  8  1  0  0  0  0
  7  9  1  0  0  0  0
  9 10  1  0  0  0  0
  9 11  1  0  0  0  0
  9 22  1  0  0  0  0
 11 12  1  0  0  0  0
 11 13  1  0  0  0  0
 11 14  1  0  0  0  0
 14 15  1  0  0  0  0
 14 20  2  0  0  0  0
 15 16  1  0  0  0  0
 15 17  1  0  0  0  0
 17 18  1  0  0  0  0
 17 19  2  0  0  0  0
 19 20  1  0  0  0  0
 20 21  1  0  0  0  0
 22 23  2  0  0  0  0
 22 24  1  0  0  0  0
 24 25  1  0  0  0  0
 24 26  1  0  0  0  0
 26 27  1  0  0  0  0
 26 28  1  0  0  0  0
 26 29  1  0  0  0  0
M  END
$$$$

  -OEChem-04042215593D

 29 29  0     1  0  0  0  0  0999 V2000
   -3.5533   -3.7044    1.4408 H   0  0  0  0  0  0  0  0  0  0  0  0
   -3.4804   -2.7923    0.8419 C   0  0  0  0  0  0  0  0  0  0  0  0
   -4.2221   -2.0743    1.1994 H   0  0  0  0  0  0  0  0  0  0  0  0
   -3.6921   -3.0395   -0.2010 H   0  0  0  0  0  0  0  0  0  0  0  0
   -2.0889   -2.2015    0.9591 C   0  0  0  0  0  0  0  0  0  0  0  0
   -1.2662   -2.7197    1.6980 O   0  0  0  0  0  0  0  0  0  0  0  0
   -1.7634   -1.0675    0.2434 N   0  0  0  0  0  0  0  0  0  0  0  0
   -2.4936   -0.6356   -0.3174 H   0  0  0  0  0  0  0  0  0  0  0  0
   -0.4283   -0.4457    0.2207 C   0  0  1  0  0  0  0  0  0  0  0  0
    0.1573   -0.8254    1.0638 H   0  0  0  0  0  0  0  0  0  0  0  0
    0.3438   -0.7738   -1.0786 C   0  0  0  0  0  0  0  0  0  0  0  0
    0.1415   -0.0043   -1.8313 H   0  0  0  0  0  0  0  0  0  0  0  0
    1.4176   -0.7442   -0.8676 H   0  0  0  0  0  0  0  0  0  0  0  0
   -0.0091   -2.1130   -1.6795 C   0  0  0  0  0  0  0  0  0  0  0  0
   -0.7860   -2.3433   -2.7935 N   0  0  0  0  0  0  0  0  0  0  0  0
   -1.2219   -1.6358   -3.3811 H   0  0  0  0  0  0  0  0  0  0  0  0
   -0.8568   -3.7079   -2.9998 C   0  0  0  0  0  0  0  0  0  0  0  0
   -1.3972   -4.1906   -3.8091 H   0  0  0  0  0  0  0  0  0  0  0  0
   -0.1748   -4.3401   -2.0764 N   0  0  0  0  0  0  0  0  0  0  0  0
    0.3590   -3.3596   -1.2440 C   0  0  0  0  0  0  0  0  0  0  0  0
    0.9751   -3.5550   -0.3712 H   0  0  0  0  0  0  0  0  0  0  0  0
   -0.5316    1.0819    0.3806 C   0  0  0  0  0  0  0  0  0  0  0  0
   -1.3613    1.7077   -0.2701 O   0  0  0  0  0  0  0  0  0  0  0  0
    0.3128    1.7583    1.2419 N   0  0  0  0  0  0  0  0  0  0  0  0
    0.9345    1.2028    1.8236 H   0  0  0  0  0  0  0  0  0  0  0  0
    0.2308    3.1952    1.4735 C   0  0  0  0  0  0  0  0  0  0  0  0
   -0.7479    3.4612    1.8866 H   0  0  0  0  0  0  0  0  0  0  0  0
    1.0031    3.5090    2.1824 H   0  0  0  0  0  0  0  0  0  0  0  0
    0.3792    3.7433    0.5371 H   0  0  0  0  0  0  0  0  0  0  0  0
  1  2  1  0  0  0  0
  2  3  1  0  0  0  0
  2  4  1  0  0  0  0
  2  5  1  0  0  0  0
  5  6  2  0  0  0  0
  5  7  1  0  0  0  0
  7  8  1  0  0  0  0
  7  9  1  0  0  0  0
  9 10  1  0  0  0  0
  9 11  1  0  0  0  0
  9 22  1  0  0  0  0
 11 12  1  0  0  0  0
 11 13  1  0  0  0  0
 11 14  1  0  0  0  0
 14 15  1  0  0  0  0
 14 20  2  0  0  0  0
 15 16  1  0  0  0  0
 15 17  1  0  0  0  0
 17 18  1  0  0  0  0
 17 19  2  0  0  0  0
 19 20  1  0  0  0  0
 20 21  1  0  0  0  0
 22 23  2  0  0  0  0
 22 24  1  0  0  0  0
 24 25  1  0  0  0  0
 24 26  1  0  0  0  0
 26 27  1  0  0  0  0
 26 28  1  0  0  0  0
 26 29  1  0  0  0  0
M  END
$$$$

  -OEChem-04042215593D

 29 29  0     1  0  0  0  0  0999 V2000
   -3.5734   -3.6990    1.4606 H   0  0  0  0  0  0  0  0  0  0  0  0
   -3.4915   -2.7938    0.8525 C   0  0  0  0  0  0  0  0  0  0  0  0
   -4.2488   -2.0777    1.1798 H   0  0  0  0  0  0  0  0  0  0  0  0
   -3.6720   -3.0556   -0.1929 H   0  0  0  0  0  0  0  0  0  0  0  0
   -2.1086   -2.1898    1.0001 C   0  0  0  0  0  0  0  0  0  0  0  0
   -1.3026   -2.6887    1.7702 O   0  0  0  0  0  0  0  0  0  0  0  0
   -1.7692   -1.0679    0.2721 N   0  0  0  0  0  0  0  0  0  0  0  0
   -2.4838   -0.6622   -0.3276 H   0  0  0  0  0  0  0  0  0  0  0  0
   -0.4308   -0.4525    0.2458 C   0  0  1  0  0  0  0  0  0  0  0  0
    0.1530   -0.8267    1.0926 H   0  0  0  0  0  0  0  0  0  0  0  0
    0.3404   -0.7899   -1.0538 C   0  0  0  0  0  0  0  0  0  0  0  0
    0.1303   -0.0211   -1.8054 H   0  0  0  0  0  0  0  0  0  0  0  0
    1.4152   -0.7547   -0.8492 H   0  0  0  0  0  0  0  0  0  0  0  0
   -0.0041   -2.1277   -1.6650 C   0  0  0  0  0  0  0  0  0  0  0  0
   -0.5215   -2.3495   -2.9222 N   0  0  0  0  0  0  0  0  0  0  0  0
   -0.7513   -1.6386   -3.6134 H   0  0  0  0  0  0  0  0  0  0  0  0
   -0.6805   -3.7111   -3.0955 C   0  0  0  0  0  0  0  0  0  0  0  0
   -1.0722   -4.1858   -3.9906 H   0  0  0  0  0  0  0  0  0  0  0  0
   -0.2902   -4.3506   -2.0203 N   0  0  0  0  0  0  0  0  0  0  0  0
    0.1412   -3.3786   -1.1214 C   0  0  0  0  0  0  0  0  0  0  0  0
    0.5326   -3.5829   -0.1291 H   0  0  0  0  0  0  0  0  0  0  0  0
   -0.5299    1.0781    0.3854 C   0  0  0  0  0  0  0  0  0  0  0  0
   -1.3498    1.6998   -0.2814 O   0  0  0  0  0  0  0  0  0  0  0  0
    0.3136    1.7629    1.2409 N   0  0  0  0  0  0  0  0  0  0  0  0
    0.9234    1.2122    1.8396 H   0  0  0  0  0  0  0  0  0  0  0  0
    0.2371    3.2038    1.4504 C   0  0  0  0  0  0  0  0  0  0  0  0
   -0.7385    3.4791    1.8649 H   0  0  0  0  0  0  0  0  0  0  0  0
    1.0143    3.5266    2.1497 H   0  0  0  0  0  0  0  0  0  0  0  0
    0.3816    3.7369    0.5047 H   0  0  0  0  0  0  0  0  0  0  0  0
  1  2  1  0  0  0  0
  2  3  1  0  0  0  0
  2  4  1  0  0  0  0
  2  5  1  0  0  0  0
  5  6  2  0  0  0  0
  5  7  1  0  0  0  0
  7  8  1  0  0  0  0
  7  9  1  0  0  0  0
  9 10  1  0  0  0  0
  9 11  1  0  0  0  0
  9 22  1  0  0  0  0
 11 12  1  0  0  0  0
 11 13  1  0  0  0  0
 11 14  1  0  0  0  0
 14 15  1  0  0  0  0
 14 20  2  0  0  0  0
 15 16  1  0  0  0  0
 15 17  1  0  0  0  0
 17 18  1  0  0  0  0
 17 19  2  0  0  0  0
 19 20  1  0  0  0  0
 20 21  1  0  0  0  0
 22 23  2  0  0  0  0
 22 24  1  0  0  0  0
 24 25  1  0  0  0  0
 24 26  1  0  0  0  0
 26 27  1  0  0  0  0
 26 28  1  0  0  0  0
 26 29  1  0  0  0  0
M  END
$$$$

  -OEChem-04042215593D

 29 29  0     1  0  0  0  0  0999 V2000
   -3.6231   -3.6728    1.5042 H   0  0  0  0  0  0  0  0  0  0  0  0
   -3.5304   -2.7732    0.8896 C   0  0  0  0  0  0  0  0  0  0  0  0
   -4.2953   -2.0552    1.1948 H   0  0  0  0  0  0  0  0  0  0  0  0
   -3.6894   -3.0456   -0.1567 H   0  0  0  0  0  0  0  0  0  0  0  0
   -2.1519   -2.1654    1.0596 C   0  0  0  0  0  0  0  0  0  0  0  0
   -1.3687   -2.6415    1.8666 O   0  0  0  0  0  0  0  0  0  0  0  0
   -1.7915   -1.0629    0.3128 N   0  0  0  0  0  0  0  0  0  0  0  0
   -2.4897   -0.6784   -0.3197 H   0  0  0  0  0  0  0  0  0  0  0  0
   -0.4461   -0.4633    0.2759 C   0  0  1  0  0  0  0  0  0  0  0  0
    0.1359   -0.8311    1.1268 H   0  0  0  0  0  0  0  0  0  0  0  0
    0.3227   -0.8159   -1.0242 C   0  0  0  0  0  0  0  0  0  0  0  0
    0.1082   -0.0476   -1.7750 H   0  0  0  0  0  0  0  0  0  0  0  0
    1.3980   -0.7755   -0.8234 H   0  0  0  0  0  0  0  0  0  0  0  0
   -0.0091   -2.1497   -1.6552 C   0  0  0  0  0  0  0  0  0  0  0  0
   -0.2350   -2.3810   -2.9949 N   0  0  0  0  0  0  0  0  0  0  0  0
   -0.2472   -1.6805   -3.7333 H   0  0  0  0  0  0  0  0  0  0  0  0
   -0.4575   -3.7324   -3.1770 C   0  0  0  0  0  0  0  0  0  0  0  0
   -0.6778   -4.2072   -4.1290 H   0  0  0  0  0  0  0  0  0  0  0  0
   -0.3650   -4.3618   -2.0316 N   0  0  0  0  0  0  0  0  0  0  0  0
   -0.0655   -3.3935   -1.0776 C   0  0  0  0  0  0  0  0  0  0  0  0
    0.1117   -3.6001   -0.0268 H   0  0  0  0  0  0  0  0  0  0  0  0
   -0.5336    1.0711    0.3867 C   0  0  0  0  0  0  0  0  0  0  0  0
   -1.3472    1.6890   -0.2913 O   0  0  0  0  0  0  0  0  0  0  0  0
    0.3154    1.7632    1.2310 N   0  0  0  0  0  0  0  0  0  0  0  0
    0.9168    1.2168    1.8418 H   0  0  0  0  0  0  0  0  0  0  0  0
    0.2487    3.2076    1.4203 C   0  0  0  0  0  0  0  0  0  0  0  0
   -0.7228    3.4955    1.8356 H   0  0  0  0  0  0  0  0  0  0  0  0
    1.0318    3.5349    2.1110 H   0  0  0  0  0  0  0  0  0  0  0  0
    0.3913    3.7268    0.4666 H   0  0  0  0  0  0  0  0  0  0  0  0
  1  2  1  0  0  0  0
  2  3  1  0  0  0  0
  2  4  1  0  0  0  0
  2  5  1  0  0  0  0
  5  6  2  0  0  0  0
  5  7  1  0  0  0  0
  7  8  1  0  0  0  0
  7  9  1  0  0  0  0
  9 10  1  0  0  0  0
  9 11  1  0  0  0  0
  9 22  1  0  0  0  0
 11 12  1  0  0  0  0
 11 13  1  0  0  0  0
 11 14  1  0  0  0  0
 14 15  1  0  0  0  0
 14 20  2  0  0  0  0
 15 16  1  0  0  0  0
 15 17  1  0  0  0  0
 17 18  1  0  0  0  0
 17 19  2  0  0  0  0
 19 20  1  0  0  0  0
 20 21  1  0  0  0  0
 22 23  2  0  0  0  0
 22 24  1  0  0  0  0
 24 25  1  0  0  0  0
 24 26  1  0  0  0  0
 26 27  1  0  0  0  0
 26 28  1  0  0  0  0
 26 29  1  0  0  0  0
M  END
$$$$

  -OEChem-04042215593D

 29 29  0     1  0  0  0  0  0999 V2000
   -3.7206   -3.5921    1.6364 H   0  0  0  0  0  0  0  0  0  0  0  0
   -3.5978   -2.7325    0.9716 C   0  0  0  0  0  0  0  0  0  0  0  0
   -4.3495   -1.9807    1.2230 H   0  0  0  0  0  0  0  0  0  0  0  0
   -3.7489   -3.0614   -0.0596 H   0  0  0  0  0  0  0  0  0  0  0  0
   -2.2080   -2.1466    1.1267 C   0  0  0  0  0  0  0  0  0  0  0  0
   -1.4350   -2.6130    1.9489 O   0  0  0  0  0  0  0  0  0  0  0  0
   -1.8298   -1.0646    0.3591 N   0  0  0  0  0  0  0  0  0  0  0  0
   -2.5258   -0.6786   -0.2754 H   0  0  0  0  0  0  0  0  0  0  0  0
   -0.4766   -0.4831    0.3030 C   0  0  1  0  0  0  0  0  0  0  0  0
    0.1044   -0.8449    1.1572 H   0  0  0  0  0  0  0  0  0  0  0  0
    0.2948   -0.8459   -0.9960 C   0  0  0  0  0  0  0  0  0  0  0  0
    0.0749   -0.0771   -1.7448 H   0  0  0  0  0  0  0  0  0  0  0  0
    1.3690   -0.7942   -0.7925 H   0  0  0  0  0  0  0  0  0  0  0  0
   -0.0085   -2.1723   -1.6595 C   0  0  0  0  0  0  0  0  0  0  0  0
    0.0823   -2.4163   -3.0135 N   0  0  0  0  0  0  0  0  0  0  0  0
    0.2987   -1.7315   -3.7347 H   0  0  0  0  0  0  0  0  0  0  0  0
   -0.1891   -3.7508   -3.2447 C   0  0  0  0  0  0  0  0  0  0  0  0
   -0.2126   -4.2247   -4.2219 H   0  0  0  0  0  0  0  0  0  0  0  0
   -0.4146   -4.3654   -2.1107 N   0  0  0  0  0  0  0  0  0  0  0  0
   -0.2756   -3.4041   -1.1144 C   0  0  0  0  0  0  0  0  0  0  0  0
   -0.3352   -3.6204   -0.0541 H   0  0  0  0  0  0  0  0  0  0  0  0
   -0.5490    1.0547    0.3860 C   0  0  0  0  0  0  0  0  0  0  0  0
   -1.3624    1.6700   -0.2946 O   0  0  0  0  0  0  0  0  0  0  0  0
    0.3131    1.7512    1.2133 N   0  0  0  0  0  0  0  0  0  0  0  0
    0.9139    1.2082    1.8277 H   0  0  0  0  0  0  0  0  0  0  0  0
    0.2696    3.1997    1.3745 C   0  0  0  0  0  0  0  0  0  0  0  0
   -0.6936    3.5098    1.7931 H   0  0  0  0  0  0  0  0  0  0  0  0
    1.0640    3.5285    2.0514 H   0  0  0  0  0  0  0  0  0  0  0  0
    0.4118    3.6979    0.4097 H   0  0  0  0  0  0  0  0  0  0  0  0
  1  2  1  0  0  0  0
  2  3  1  0  0  0  0
  2  4  1  0  0  0  0
  2  5  1  0  0  0  0
  5  6  2  0  0  0  0
  5  7  1  0  0  0  0
  7  8  1  0  0  0  0
  7  9  1  0  0  0  0
  9 10  1  0  0  0  0
  9 11  1  0  0  0  0
  9 22  1  0  0  0  0
 11 12  1  0  0  0  0
 11 13  1  0  0  0  0
 11 14  1  0  0  0  0
 14 15  1  0  0  0  0
 14 20  2  0  0  0  0
 15 16  1  0  0  0  0
 15 17  1  0  0  0  0
 17 18  1  0  0  0  0
 17 19  2  0  0  0  0
 19 20  1  0  0  0  0
 20 21  1  0  0  0  0
 22 23  2  0  0  0  0
 22 24  1  0  0  0  0
 24 25  1  0  0  0  0
 24 26  1  0  0  0  0
 26 27  1  0  0  0  0
 26 28  1  0  0  0  0
 26 29  1  0  0  0  0
M  END
$$$$

  -OEChem-04042215593D

 29 29  0     1  0  0  0  0  0999 V2000
   -3.8187   -3.4920    1.7855 H   0  0  0  0  0  0  0  0  0  0  0  0
   -3.6830   -2.6500    1.1009 C   0  0  0  0  0  0  0  0  0  0  0  0
   -4.3882   -1.8598    1.3689 H   0  0  0  0  0  0  0  0  0  0  0  0
   -3.8926   -2.9873    0.0827 H   0  0  0  0  0  0  0  0  0  0  0  0
   -2.2618   -2.1282    1.1900 C   0  0  0  0  0  0  0  0  0  0  0  0
   -1.4748   -2.6280    1.9784 O   0  0  0  0  0  0  0  0  0  0  0  0
   -1.8679   -1.0692    0.3987 N   0  0  0  0  0  0  0  0  0  0  0  0
   -2.5748   -0.6456   -0.1993 H   0  0  0  0  0  0  0  0  0  0  0  0
   -0.5055   -0.5135    0.3201 C   0  0  1  0  0  0  0  0  0  0  0  0
    0.0720   -0.8655    1.1806 H   0  0  0  0  0  0  0  0  0  0  0  0
    0.2748   -0.8913   -0.9718 C   0  0  0  0  0  0  0  0  0  0  0  0
    0.0621   -0.1210   -1.7214 H   0  0  0  0  0  0  0  0  0  0  0  0
    1.3453   -0.8328   -0.7516 H   0  0  0  0  0  0  0  0  0  0  0  0
    0.0088   -2.2089   -1.6731 C   0  0  0  0  0  0  0  0  0  0  0  0
    0.4280   -2.4726   -2.9609 N   0  0  0  0  0  0  0  0  0  0  0  0
    0.8852   -1.8150   -3.5888 H   0  0  0  0  0  0  0  0  0  0  0  0
    0.1011   -3.7742   -3.2850 C   0  0  0  0  0  0  0  0  0  0  0  0
    0.2906   -4.2473   -4.2443 H   0  0  0  0  0  0  0  0  0  0  0  0
   -0.4727   -4.3569   -2.2636 N   0  0  0  0  0  0  0  0  0  0  0  0
   -0.5094   -3.4082   -1.2466 C   0  0  0  0  0  0  0  0  0  0  0  0
   -0.8642   -3.6276   -0.2492 H   0  0  0  0  0  0  0  0  0  0  0  0
   -0.5631    1.0265    0.3746 C   0  0  0  0  0  0  0  0  0  0  0  0
   -1.3861    1.6363   -0.2991 O   0  0  0  0  0  0  0  0  0  0  0  0
    0.3125    1.7300    1.1815 N   0  0  0  0  0  0  0  0  0  0  0  0
    0.9205    1.1929    1.7940 H   0  0  0  0  0  0  0  0  0  0  0  0
    0.2784    3.1809    1.3222 C   0  0  0  0  0  0  0  0  0  0  0  0
   -0.6785    3.5027    1.7465 H   0  0  0  0  0  0  0  0  0  0  0  0
    1.0817    3.5154    1.9858 H   0  0  0  0  0  0  0  0  0  0  0  0
    0.4125    3.6640    0.3486 H   0  0  0  0  0  0  0  0  0  0  0  0
  1  2  1  0  0  0  0
  2  3  1  0  0  0  0
  2  4  1  0  0  0  0
  2  5  1  0  0  0  0
  5  6  2  0  0  0  0
  5  7  1  0  0  0  0
  7  8  1  0  0  0  0
  7  9  1  0  0  0  0
  9 10  1  0  0  0  0
  9 11  1  0  0  0  0
  9 22  1  0  0  0  0
 11 12  1  0  0  0  0
 11 13  1  0  0  0  0
 11 14  1  0  0  0  0
 14 15  1  0  0  0  0
 14 20  2  0  0  0  0
 15 16  1  0  0  0  0
 15 17  1  0  0  0  0
 17 18  1  0  0  0  0
 17 19  2  0  0  0  0
 19 20  1  0  0  0  0
 20 21  1  0  0  0  0
 22 23  2  0  0  0  0
 22 24  1  0  0  0  0
 24 25  1  0  0  0  0
 24 26  1  0  0  0  0
 26 27  1  0  0  0  0
 26 28  1  0  0  0  0
 26 29  1  0  0  0  0
M  END
$$$$

  -OEChem-04042215593D

 29 29  0     1  0  0  0  0  0999 V2000
   -3.7848   -3.4976    1.8921 H   0  0  0  0  0  0  0  0  0  0  0  0
   -3.7042   -2.5696    1.3192 C   0  0  0  0  0  0  0  0  0  0  0  0
   -4.2785   -1.7903    1.8256 H   0  0  0  0  0  0  0  0  0  0  0  0
   -4.1242   -2.7340    0.3238 H   0  0  0  0  0  0  0  0  0  0  0  0
   -2.2508   -2.1497    1.2081 C   0  0  0  0  0  0  0  0  0  0  0  0
   -1.3926   -2.7511    1.8339 O   0  0  0  0  0  0  0  0  0  0  0  0
   -1.9063   -1.0743    0.4134 N   0  0  0  0  0  0  0  0  0  0  0  0
   -2.6602   -0.5546   -0.0337 H   0  0  0  0  0  0  0  0  0  0  0  0
   -0.5457   -0.5334    0.2768 C   0  0  1  0  0  0  0  0  0  0  0  0
    0.0499   -0.8853    1.1252 H   0  0  0  0  0  0  0  0  0  0  0  0
    0.2295   -0.9176   -1.0201 C   0  0  0  0  0  0  0  0  0  0  0  0
    0.2666   -0.0337   -1.6668 H   0  0  0  0  0  0  0  0  0  0  0  0
    1.2608   -1.1327   -0.7235 H   0  0  0  0  0  0  0  0  0  0  0  0
   -0.2271   -2.0534   -1.9219 C   0  0  0  0  0  0  0  0  0  0  0  0
    0.4617   -2.3909   -3.0697 N   0  0  0  0  0  0  0  0  0  0  0  0
    1.3046   -1.9389   -3.4167 H   0  0  0  0  0  0  0  0  0  0  0  0
   -0.1755   -3.4468   -3.6901 C   0  0  0  0  0  0  0  0  0  0  0  0
    0.1467   -3.9175   -4.6146 H   0  0  0  0  0  0  0  0  0  0  0  0
   -1.2296   -3.7987   -3.0003 N   0  0  0  0  0  0  0  0  0  0  0  0
   -1.2716   -2.9490   -1.9001 C   0  0  0  0  0  0  0  0  0  0  0  0
   -2.0476   -3.0126   -1.1508 H   0  0  0  0  0  0  0  0  0  0  0  0
   -0.6004    1.0050    0.3674 C   0  0  0  0  0  0  0  0  0  0  0  0
   -1.4728    1.6248   -0.2302 O   0  0  0  0  0  0  0  0  0  0  0  0
    0.3138    1.6943    1.1434 N   0  0  0  0  0  0  0  0  0  0  0  0
    0.9675    1.1477    1.6976 H   0  0  0  0  0  0  0  0  0  0  0  0
    0.2753    3.1405    1.3253 C   0  0  0  0  0  0  0  0  0  0  0  0
   -0.6696    3.4442    1.7880 H   0  0  0  0  0  0  0  0  0  0  0  0
    1.0969    3.4627    1.9722 H   0  0  0  0  0  0  0  0  0  0  0  0
    0.3747    3.6503    0.3613 H   0  0  0  0  0  0  0  0  0  0  0  0
  1  2  1  0  0  0  0
  2  3  1  0  0  0  0
  2  4  1  0  0  0  0
  2  5  1  0  0  0  0
  5  6  2  0  0  0  0
  5  7  1  0  0  0  0
  7  8  1  0  0  0  0
  7  9  1  0  0  0  0
  9 10  1  0  0  0  0
  9 11  1  0  0  0  0
  9 22  1  0  0  0  0
 11 12  1  0  0  0  0
 11 13  1  0  0  0  0
 11 14  1  0  0  0  0
 14 15  1  0  0  0  0
 14 20  2  0  0  0  0
 15 16  1  0  0  0  0
 15 17  1  0  0  0  0
 17 18  1  0  0  0  0
 17 19  2  0  0  0  0
 19 20  1  0  0  0  0
 20 21  1  0  0  0  0
 22 23  2  0  0  0  0
 22 24  1  0  0  0  0
 24 25  1  0  0  0  0
 24 26  1  0  0  0  0
 26 27  1  0  0  0  0
 26 28  1  0  0  0  0
 26 29  1  0  0  0  0
M  END
$$$$

  -OEChem-04042215593D

 29 29  0     1  0  0  0  0  0999 V2000
   -3.7659   -3.4656    1.9413 H   0  0  0  0  0  0  0  0  0  0  0  0
   -3.6817   -2.5979    1.2812 C   0  0  0  0  0  0  0  0  0  0  0  0
   -4.2908   -1.7861    1.6860 H   0  0  0  0  0  0  0  0  0  0  0  0
   -4.0600   -2.8705    0.2931 H   0  0  0  0  0  0  0  0  0  0  0  0
   -2.2333   -2.1585    1.1791 C   0  0  0  0  0  0  0  0  0  0  0  0
   -1.3695   -2.7593    1.7980 O   0  0  0  0  0  0  0  0  0  0  0  0
   -1.9009   -1.0655    0.4033 N   0  0  0  0  0  0  0  0  0  0  0  0
   -2.6609   -0.5420   -0.0284 H   0  0  0  0  0  0  0  0  0  0  0  0
   -0.5446   -0.5156    0.2669 C   0  0  1  0  0  0  0  0  0  0  0  0
    0.0535   -0.8772    1.1095 H   0  0  0  0  0  0  0  0  0  0  0  0
    0.2244   -0.8990   -1.0325 C   0  0  0  0  0  0  0  0  0  0  0  0
    0.2684   -0.0182   -1.6825 H   0  0  0  0  0  0  0  0  0  0  0  0
    1.2539   -1.1214   -0.7345 H   0  0  0  0  0  0  0  0  0  0  0  0
   -0.2485   -2.0413   -1.9184 C   0  0  0  0  0  0  0  0  0  0  0  0
    0.5524   -2.6039   -2.8916 N   0  0  0  0  0  0  0  0  0  0  0  0
    1.5161   -2.3493   -3.0953 H   0  0  0  0  0  0  0  0  0  0  0  0
   -0.1573   -3.5868   -3.5524 C   0  0  0  0  0  0  0  0  0  0  0  0
    0.2289   -4.2017   -4.3604 H   0  0  0  0  0  0  0  0  0  0  0  0
   -1.3687   -3.6679   -3.0649 N   0  0  0  0  0  0  0  0  0  0  0  0
   -1.4417   -2.7127   -2.0571 C   0  0  0  0  0  0  0  0  0  0  0  0
   -2.3481   -2.5272   -1.4953 H   0  0  0  0  0  0  0  0  0  0  0  0
   -0.5938    1.0205    0.3851 C   0  0  0  0  0  0  0  0  0  0  0  0
   -1.4706    1.6510   -0.1943 O   0  0  0  0  0  0  0  0  0  0  0  0
    0.3280    1.6945    1.1657 N   0  0  0  0  0  0  0  0  0  0  0  0
    0.9858    1.1370    1.7038 H   0  0  0  0  0  0  0  0  0  0  0  0
    0.2953    3.1374    1.3726 C   0  0  0  0  0  0  0  0  0  0  0  0
   -0.6466    3.4358    1.8449 H   0  0  0  0  0  0  0  0  0  0  0  0
    1.1205    3.4455    2.0218 H   0  0  0  0  0  0  0  0  0  0  0  0
    0.3929    3.6639    0.4174 H   0  0  0  0  0  0  0  0  0  0  0  0
  1  2  1  0  0  0  0
  2  3  1  0  0  0  0
  2  4  1  0  0  0  0
  2  5  1  0  0  0  0
  5  6  2  0  0  0  0
  5  7  1  0  0  0  0
  7  8  1  0  0  0  0
  7  9  1  0  0  0  0
  9 10  1  0  0  0  0
  9 11  1  0  0  0  0
  9 22  1  0  0  0  0
 11 12  1  0  0  0  0
 11 13  1  0  0  0  0
 11 14  1  0  0  0  0
 14 15  1  0  0  0  0
 14 20  2  0  0  0  0
 15 16  1  0  0  0  0
 15 17  1  0  0  0  0
 17 18  1  0  0  0  0
 17 19  2  0  0  0  0
 19 20  1  0  0  0  0
 20 21  1  0  0  0  0
 22 23  2  0  0  0  0
 22 24  1  0  0  0  0
 24 25  1  0  0  0  0
 24 26  1  0  0  0  0
 26 27  1  0  0  0  0
 26 28  1  0  0  0  0
 26 29  1  0  0  0  0
M  END
$$$$

  -OEChem-04042215593D

 29 29  0     1  0  0  0  0  0999 V2000
   -3.7258   -3.5139    1.8629 H   0  0  0  0  0  0  0  0  0  0  0  0
   -3.6379   -2.6600    1.1854 C   0  0  0  0  0  0  0  0  0  0  0  0
   -4.2954   -1.8615    1.5374 H   0  0  0  0  0  0  0  0  0  0  0  0
   -3.9540   -2.9699    0.1863 H   0  0  0  0  0  0  0  0  0  0  0  0
   -2.2024   -2.1715    1.1443 C   0  0  0  0  0  0  0  0  0  0  0  0
   -1.3410   -2.7537    1.7846 O   0  0  0  0  0  0  0  0  0  0  0  0
   -1.8782   -1.0641    0.3867 N   0  0  0  0  0  0  0  0  0  0  0  0
   -2.6404   -0.5569   -0.0595 H   0  0  0  0  0  0  0  0  0  0  0  0
   -0.5285   -0.4934    0.2654 C   0  0  1  0  0  0  0  0  0  0  0  0
    0.0699   -0.8593    1.1059 H   0  0  0  0  0  0  0  0  0  0  0  0
    0.2405   -0.8708   -1.0338 C   0  0  0  0  0  0  0  0  0  0  0  0
    0.2742    0.0040   -1.6926 H   0  0  0  0  0  0  0  0  0  0  0  0
    1.2735   -1.0884   -0.7450 H   0  0  0  0  0  0  0  0  0  0  0  0
   -0.2598   -2.0234   -1.8870 C   0  0  0  0  0  0  0  0  0  0  0  0
    0.5553   -2.8273   -2.6560 N   0  0  0  0  0  0  0  0  0  0  0  0
    1.5711   -2.7890   -2.6951 H   0  0  0  0  0  0  0  0  0  0  0  0
   -0.2280   -3.7254   -3.3547 C   0  0  0  0  0  0  0  0  0  0  0  0
    0.1477   -4.4935   -4.0247 H   0  0  0  0  0  0  0  0  0  0  0  0
   -1.4938   -3.5144   -3.0952 N   0  0  0  0  0  0  0  0  0  0  0  0
   -1.5285   -2.4509   -2.2006 C   0  0  0  0  0  0  0  0  0  0  0  0
   -2.4496   -2.0088   -1.8374 H   0  0  0  0  0  0  0  0  0  0  0  0
   -0.5868    1.0402    0.4015 C   0  0  0  0  0  0  0  0  0  0  0  0
   -1.4608    1.6711   -0.1816 O   0  0  0  0  0  0  0  0  0  0  0  0
    0.3262    1.7121    1.1940 N   0  0  0  0  0  0  0  0  0  0  0  0
    0.9853    1.1542    1.7300 H   0  0  0  0  0  0  0  0  0  0  0  0
    0.2906    3.1545    1.4045 C   0  0  0  0  0  0  0  0  0  0  0  0
   -0.6523    3.4501    1.8764 H   0  0  0  0  0  0  0  0  0  0  0  0
    1.1146    3.4624    2.0551 H   0  0  0  0  0  0  0  0  0  0  0  0
    0.3883    3.6834    0.4506 H   0  0  0  0  0  0  0  0  0  0  0  0
  1  2  1  0  0  0  0
  2  3  1  0  0  0  0
  2  4  1  0  0  0  0
  2  5  1  0  0  0  0
  5  6  2  0  0  0  0
  5  7  1  0  0  0  0
  7  8  1  0  0  0  0
  7  9  1  0  0  0  0
  9 10  1  0  0  0  0
  9 11  1  0  0  0  0
  9 22  1  0  0  0  0
 11 12  1  0  0  0  0
 11 13  1  0  0  0  0
 11 14  1  0  0  0  0
 14 15  1  0  0  0  0
 14 20  2  0  0  0  0
 15 16  1  0  0  0  0
 15 17  1  0  0  0  0
 17 18  1  0  0  0  0
 17 19  2  0  0  0  0
 19 20  1  0  0  0  0
 20 21  1  0  0  0  0
 22 23  2  0  0  0  0
 22 24  1  0  0  0  0
 24 25  1  0  0  0  0
 24 26  1  0  0  0  0
 26 27  1  0  0  0  0
 26 28  1  0  0  0  0
 26 29  1  0  0  0  0
M  END
$$$$

  -OEChem-04042215593D

 29 29  0     1  0  0  0  0  0999 V2000
   -3.6740   -3.5901    1.7302 H   0  0  0  0  0  0  0  0  0  0  0  0
   -3.5904   -2.7128    1.0829 C   0  0  0  0  0  0  0  0  0  0  0  0
   -4.2803   -1.9442    1.4389 H   0  0  0  0  0  0  0  0  0  0  0  0
   -3.8671   -2.9995    0.0651 H   0  0  0  0  0  0  0  0  0  0  0  0
   -2.1689   -2.1838    1.0999 C   0  0  0  0  0  0  0  0  0  0  0  0
   -1.3140   -2.7489    1.7645 O   0  0  0  0  0  0  0  0  0  0  0  0
   -1.8487   -1.0657    0.3572 N   0  0  0  0  0  0  0  0  0  0  0  0
   -2.6081   -0.5800   -0.1158 H   0  0  0  0  0  0  0  0  0  0  0  0
   -0.5044   -0.4743    0.2622 C   0  0  1  0  0  0  0  0  0  0  0  0
    0.0898   -0.8414    1.1049 H   0  0  0  0  0  0  0  0  0  0  0  0
    0.2681   -0.8459   -1.0345 C   0  0  0  0  0  0  0  0  0  0  0  0
    0.2853    0.0233   -1.7015 H   0  0  0  0  0  0  0  0  0  0  0  0
    1.3067   -1.0562   -0.7617 H   0  0  0  0  0  0  0  0  0  0  0  0
   -0.2659   -2.0065   -1.8503 C   0  0  0  0  0  0  0  0  0  0  0  0
    0.4817   -3.0290   -2.3938 N   0  0  0  0  0  0  0  0  0  0  0  0
    1.4759   -3.1899   -2.2487 H   0  0  0  0  0  0  0  0  0  0  0  0
   -0.3536   -3.8433   -3.1351 C   0  0  0  0  0  0  0  0  0  0  0  0
   -0.0453   -4.7452   -3.6561 H   0  0  0  0  0  0  0  0  0  0  0  0
   -1.5754   -3.3698   -3.1211 N   0  0  0  0  0  0  0  0  0  0  0  0
   -1.5288   -2.2165   -2.3467 C   0  0  0  0  0  0  0  0  0  0  0  0
   -2.3786   -1.5629   -2.1761 H   0  0  0  0  0  0  0  0  0  0  0  0
   -0.5781    1.0573    0.4085 C   0  0  0  0  0  0  0  0  0  0  0  0
   -1.4413    1.6853   -0.1934 O   0  0  0  0  0  0  0  0  0  0  0  0
    0.3155    1.7328    1.2197 N   0  0  0  0  0  0  0  0  0  0  0  0
    0.9663    1.1779    1.7686 H   0  0  0  0  0  0  0  0  0  0  0  0
    0.2705    3.1752    1.4283 C   0  0  0  0  0  0  0  0  0  0  0  0
   -0.6800    3.4670    1.8870 H   0  0  0  0  0  0  0  0  0  0  0  0
    1.0845    3.4879    2.0893 H   0  0  0  0  0  0  0  0  0  0  0  0
    0.3790    3.7032    0.4750 H   0  0  0  0  0  0  0  0  0  0  0  0
  1  2  1  0  0  0  0
  2  3  1  0  0  0  0
  2  4  1  0  0  0  0
  2  5  1  0  0  0  0
  5  6  2  0  0  0  0
  5  7  1  0  0  0  0
  7  8  1  0  0  0  0
  7  9  1  0  0  0  0
  9 10  1  0  0  0  0
  9 11  1  0  0  0  0
  9 22  1  0  0  0  0
 11 12  1  0  0  0  0
 11 13  1  0  0  0  0
 11 14  1  0  0  0  0
 14 15  1  0  0  0  0
 14 20  2  0  0  0  0
 15 16  1  0  0  0  0
 15 17  1  0  0  0  0
 17 18  1  0  0  0  0
 17 19  2  0  0  0  0
 19 20  1  0  0  0  0
 20 21  1  0  0  0  0
 22 23  2  0  0  0  0
 22 24  1  0  0  0  0
 24 25  1  0  0  0  0
 24 26  1  0  0  0  0
 26 27  1  0  0  0  0
 26 28  1  0  0  0  0
 26 29  1  0  0  0  0
M  END
$$$$

  -OEChem-04042215593D

 29 29  0     1  0  0  0  0  0999 V2000
   -3.6326   -3.6329    1.6360 H   0  0  0  0  0  0  0  0  0  0  0  0
   -3.5534   -2.7440    1.0040 C   0  0  0  0  0  0  0  0  0  0  0  0
   -4.2644   -1.9939    1.3582 H   0  0  0  0  0  0  0  0  0  0  0  0
   -3.8045   -3.0189   -0.0238 H   0  0  0  0  0  0  0  0  0  0  0  0
   -2.1430   -2.1889    1.0567 C   0  0  0  0  0  0  0  0  0  0  0  0
   -1.2906   -2.7473    1.7308 O   0  0  0  0  0  0  0  0  0  0  0  0
   -1.8270   -1.0619    0.3264 N   0  0  0  0  0  0  0  0  0  0  0  0
   -2.5818   -0.5969   -0.1735 H   0  0  0  0  0  0  0  0  0  0  0  0
   -0.4871   -0.4554    0.2499 C   0  0  1  0  0  0  0  0  0  0  0  0
    0.1055   -0.8248    1.0925 H   0  0  0  0  0  0  0  0  0  0  0  0
    0.2842   -0.8235   -1.0459 C   0  0  0  0  0  0  0  0  0  0  0  0
    0.2853    0.0418   -1.7182 H   0  0  0  0  0  0  0  0  0  0  0  0
    1.3281   -1.0297   -0.7912 H   0  0  0  0  0  0  0  0  0  0  0  0
   -0.2795   -1.9890   -1.8278 C   0  0  0  0  0  0  0  0  0  0  0  0
    0.3554   -3.1726   -2.1319 N   0  0  0  0  0  0  0  0  0  0  0  0
    1.2678   -3.4709   -1.7942 H   0  0  0  0  0  0  0  0  0  0  0  0
   -0.4891   -3.9330   -2.9187 C   0  0  0  0  0  0  0  0  0  0  0  0
   -0.2667   -4.9296   -3.2892 H   0  0  0  0  0  0  0  0  0  0  0  0
   -1.6005   -3.2785   -3.1551 N   0  0  0  0  0  0  0  0  0  0  0  0
   -1.4725   -2.0579   -2.5014 C   0  0  0  0  0  0  0  0  0  0  0  0
   -2.2153   -1.2661   -2.5239 H   0  0  0  0  0  0  0  0  0  0  0  0
   -0.5699    1.0745    0.4062 C   0  0  0  0  0  0  0  0  0  0  0  0
   -1.4268    1.7023   -0.2047 O   0  0  0  0  0  0  0  0  0  0  0  0
    0.3124    1.7486    1.2311 N   0  0  0  0  0  0  0  0  0  0  0  0
    0.9597    1.1925    1.7830 H   0  0  0  0  0  0  0  0  0  0  0  0
    0.2573    3.1889    1.4516 C   0  0  0  0  0  0  0  0  0  0  0  0
   -0.7001    3.4720    1.9016 H   0  0  0  0  0  0  0  0  0  0  0  0
    1.0613    3.4999    2.1254 H   0  0  0  0  0  0  0  0  0  0  0  0
    0.3745    3.7258    0.5044 H   0  0  0  0  0  0  0  0  0  0  0  0
  1  2  1  0  0  0  0
  2  3  1  0  0  0  0
  2  4  1  0  0  0  0
  2  5  1  0  0  0  0
  5  6  2  0  0  0  0
  5  7  1  0  0  0  0
  7  8  1  0  0  0  0
  7  9  1  0  0  0  0
  9 10  1  0  0  0  0
  9 11  1  0  0  0  0
  9 22  1  0  0  0  0
 11 12  1  0  0  0  0
 11 13  1  0  0  0  0
 11 14  1  0  0  0  0
 14 15  1  0  0  0  0
 14 20  2  0  0  0  0
 15 16  1  0  0  0  0
 15 17  1  0  0  0  0
 17 18  1  0  0  0  0
 17 19  2  0  0  0  0
 19 20  1  0  0  0  0
 20 21  1  0  0  0  0
 22 23  2  0  0  0  0
 22 24  1  0  0  0  0
 24 25  1  0  0  0  0
 24 26  1  0  0  0  0
 26 27  1  0  0  0  0
 26 28  1  0  0  0  0
 26 29  1  0  0  0  0
M  END
$$$$

  -OEChem-04042215593D

 29 29  0     1  0  0  0  0  0999 V2000
   -3.6027   -3.6607    1.5694 H   0  0  0  0  0  0  0  0  0  0  0  0
   -3.5303   -2.7622    0.9503 C   0  0  0  0  0  0  0  0  0  0  0  0
   -4.2512   -2.0249    1.3116 H   0  0  0  0  0  0  0  0  0  0  0  0
   -3.7738   -3.0256   -0.0824 H   0  0  0  0  0  0  0  0  0  0  0  0
   -2.1265   -2.1926    1.0179 C   0  0  0  0  0  0  0  0  0  0  0  0
   -1.2707   -2.7552    1.6848 O   0  0  0  0  0  0  0  0  0  0  0  0
   -1.8160   -1.0563    0.3004 N   0  0  0  0  0  0  0  0  0  0  0  0
   -2.5677   -0.6028   -0.2147 H   0  0  0  0  0  0  0  0  0  0  0  0
   -0.4795   -0.4397    0.2365 C   0  0  1  0  0  0  0  0  0  0  0  0
    0.1124   -0.8142    1.0774 H   0  0  0  0  0  0  0  0  0  0  0  0
    0.2894   -0.8033   -1.0603 C   0  0  0  0  0  0  0  0  0  0  0  0
    0.2777    0.0608   -1.7341 H   0  0  0  0  0  0  0  0  0  0  0  0
    1.3373   -1.0072   -0.8199 H   0  0  0  0  0  0  0  0  0  0  0  0
   -0.2952   -1.9707   -1.8203 C   0  0  0  0  0  0  0  0  0  0  0  0
    0.1924   -3.2563   -1.8865 N   0  0  0  0  0  0  0  0  0  0  0  0
    0.9717   -3.6331   -1.3510 H   0  0  0  0  0  0  0  0  0  0  0  0
   -0.6260   -3.9888   -2.7254 C   0  0  0  0  0  0  0  0  0  0  0  0
   -0.5039   -5.0445   -2.9502 H   0  0  0  0  0  0  0  0  0  0  0  0
   -1.5771   -3.2264   -3.2104 N   0  0  0  0  0  0  0  0  0  0  0  0
   -1.3709   -1.9617   -2.6698 C   0  0  0  0  0  0  0  0  0  0  0  0
   -1.9807   -1.0893   -2.8860 H   0  0  0  0  0  0  0  0  0  0  0  0
   -0.5658    1.0882    0.4065 C   0  0  0  0  0  0  0  0  0  0  0  0
   -1.4157    1.7214   -0.2086 O   0  0  0  0  0  0  0  0  0  0  0  0
    0.3114    1.7562    1.2416 N   0  0  0  0  0  0  0  0  0  0  0  0
    0.9526    1.1961    1.7966 H   0  0  0  0  0  0  0  0  0  0  0  0
    0.2583    3.1959    1.4666 C   0  0  0  0  0  0  0  0  0  0  0  0
   -0.7014    3.4794    1.9112 H   0  0  0  0  0  0  0  0  0  0  0  0
    1.0590    3.5028    2.1462 H   0  0  0  0  0  0  0  0  0  0  0  0
    0.3825    3.7358    0.5219 H   0  0  0  0  0  0  0  0  0  0  0  0
  1  2  1  0  0  0  0
  2  3  1  0  0  0  0
  2  4  1  0  0  0  0
  2  5  1  0  0  0  0
  5  6  2  0  0  0  0
  5  7  1  0  0  0  0
  7  8  1  0  0  0  0
  7  9  1  0  0  0  0
  9 10  1  0  0  0  0
  9 11  1  0  0  0  0
  9 22  1  0  0  0  0
 11 12  1  0  0  0  0
 11 13  1  0  0  0  0
 11 14  1  0  0  0  0
 14 15  1  0  0  0  0
 14 20  2  0  0  0  0
 15 16  1  0  0  0  0
 15 17  1  0  0  0  0
 17 18  1  0  0  0  0
 17 19  2  0  0  0  0
 19 20  1  0  0  0  0
 20 21  1  0  0  0  0
 22 23  2  0  0  0  0
 22 24  1  0  0  0  0
 24 25  1  0  0  0  0
 24 26  1  0  0  0  0
 26 27  1  0  0  0  0
 26 28  1  0  0  0  0
 26 29  1  0  0  0  0
M  END
$$$$

  -OEChem-04042215593D

 29 29  0     1  0  0  0  0  0999 V2000
   -3.6012   -3.6594    1.5385 H   0  0  0  0  0  0  0  0  0  0  0  0
   -3.5289   -2.7562    0.9265 C   0  0  0  0  0  0  0  0  0  0  0  0
   -4.2386   -2.0163    1.3041 H   0  0  0  0  0  0  0  0  0  0  0  0
   -3.7885   -3.0073   -0.1052 H   0  0  0  0  0  0  0  0  0  0  0  0
   -2.1198   -2.1984    0.9797 C   0  0  0  0  0  0  0  0  0  0  0  0
   -1.2516   -2.7870    1.6081 O   0  0  0  0  0  0  0  0  0  0  0  0
   -1.8152   -1.0518    0.2764 N   0  0  0  0  0  0  0  0  0  0  0  0
   -2.5713   -0.5919   -0.2266 H   0  0  0  0  0  0  0  0  0  0  0  0
   -0.4820   -0.4272    0.2161 C   0  0  1  0  0  0  0  0  0  0  0  0
    0.1105   -0.8082    1.0536 H   0  0  0  0  0  0  0  0  0  0  0  0
    0.2858   -0.7848   -1.0811 C   0  0  0  0  0  0  0  0  0  0  0  0
    0.2684    0.0801   -1.7536 H   0  0  0  0  0  0  0  0  0  0  0  0
    1.3351   -0.9889   -0.8463 H   0  0  0  0  0  0  0  0  0  0  0  0
   -0.3062   -1.9545   -1.8296 C   0  0  0  0  0  0  0  0  0  0  0  0
    0.0069   -3.2852   -1.6701 N   0  0  0  0  0  0  0  0  0  0  0  0
    0.6067   -3.6782   -0.9466 H   0  0  0  0  0  0  0  0  0  0  0  0
   -0.7513   -4.0184   -2.5623 C   0  0  0  0  0  0  0  0  0  0  0  0
   -0.7376   -5.1011   -2.6493 H   0  0  0  0  0  0  0  0  0  0  0  0
   -1.4981   -3.2188   -3.2867 N   0  0  0  0  0  0  0  0  0  0  0  0
   -1.2191   -1.9274   -2.8506 C   0  0  0  0  0  0  0  0  0  0  0  0
   -1.6694   -1.0258   -3.2552 H   0  0  0  0  0  0  0  0  0  0  0  0
   -0.5674    1.0987    0.4042 C   0  0  0  0  0  0  0  0  0  0  0  0
   -1.4224    1.7391   -0.1960 O   0  0  0  0  0  0  0  0  0  0  0  0
    0.3135    1.7559    1.2441 N   0  0  0  0  0  0  0  0  0  0  0  0
    0.9658    1.1901    1.7798 H   0  0  0  0  0  0  0  0  0  0  0  0
    0.2641    3.1929    1.4867 C   0  0  0  0  0  0  0  0  0  0  0  0
   -0.6959    3.4737    1.9324 H   0  0  0  0  0  0  0  0  0  0  0  0
    1.0640    3.4887    2.1724 H   0  0  0  0  0  0  0  0  0  0  0  0
    0.3922    3.7445    0.5494 H   0  0  0  0  0  0  0  0  0  0  0  0
  1  2  1  0  0  0  0
  2  3  1  0  0  0  0
  2  4  1  0  0  0  0
  2  5  1  0  0  0  0
  5  6  2  0  0  0  0
  5  7  1  0  0  0  0
  7  8  1  0  0  0  0
  7  9  1  0  0  0  0
  9 10  1  0  0  0  0
  9 11  1  0  0  0  0
  9 22  1  0  0  0  0
 11 12  1  0  0  0  0
 11 13  1  0  0  0  0
 11 14  1  0  0  0  0
 14 15  1  0  0  0  0
 14 20  2  0  0  0  0
 15 16  1  0  0  0  0
 15 17  1  0  0  0  0
 17 18  1  0  0  0  0
 17 19  2  0  0  0  0
 19 20  1  0  0  0  0
 20 21  1  0  0  0  0
 22 23  2  0  0  0  0
 22 24  1  0  0  0  0
 24 25  1  0  0  0  0
 24 26  1  0  0  0  0
 26 27  1  0  0  0  0
 26 28  1  0  0  0  0
 26 29  1  0  0  0  0
M  END
$$$$

  -OEChem-04042215593D

 29 29  0     1  0  0  0  0  0999 V2000
   -3.6225   -3.6207    1.5745 H   0  0  0  0  0  0  0  0  0  0  0  0
   -3.5537   -2.7174    0.9623 C   0  0  0  0  0  0  0  0  0  0  0  0
   -4.2192   -1.9579    1.3792 H   0  0  0  0  0  0  0  0  0  0  0  0
   -3.8752   -2.9549   -0.0548 H   0  0  0  0  0  0  0  0  0  0  0  0
   -2.1266   -2.2045    0.9447 C   0  0  0  0  0  0  0  0  0  0  0  0
   -1.2403   -2.8438    1.4946 O   0  0  0  0  0  0  0  0  0  0  0  0
   -1.8224   -1.0517    0.2518 N   0  0  0  0  0  0  0  0  0  0  0  0
   -2.5896   -0.5526   -0.1946 H   0  0  0  0  0  0  0  0  0  0  0  0
   -0.4884   -0.4276    0.1938 C   0  0  1  0  0  0  0  0  0  0  0  0
    0.0996   -0.8145    1.0319 H   0  0  0  0  0  0  0  0  0  0  0  0
    0.2883   -0.7777   -1.0995 C   0  0  0  0  0  0  0  0  0  0  0  0
    0.2808    0.0913   -1.7671 H   0  0  0  0  0  0  0  0  0  0  0  0
    1.3340   -0.9875   -0.8535 H   0  0  0  0  0  0  0  0  0  0  0  0
   -0.2948   -1.9460   -1.8567 C   0  0  0  0  0  0  0  0  0  0  0  0
   -0.1965   -3.2756   -1.5133 N   0  0  0  0  0  0  0  0  0  0  0  0
    0.1620   -3.6380   -0.6295 H   0  0  0  0  0  0  0  0  0  0  0  0
   -0.8589   -4.0200   -2.4696 C   0  0  0  0  0  0  0  0  0  0  0  0
   -0.9751   -5.0999   -2.4493 H   0  0  0  0  0  0  0  0  0  0  0  0
   -1.3400   -3.2325   -3.4026 N   0  0  0  0  0  0  0  0  0  0  0  0
   -0.9864   -1.9365   -3.0384 C   0  0  0  0  0  0  0  0  0  0  0  0
   -1.2324   -1.0441   -3.6063 H   0  0  0  0  0  0  0  0  0  0  0  0
   -0.5737    1.0961    0.3965 C   0  0  0  0  0  0  0  0  0  0  0  0
   -1.4464    1.7378   -0.1759 O   0  0  0  0  0  0  0  0  0  0  0  0
    0.3087    1.7467    1.2398 N   0  0  0  0  0  0  0  0  0  0  0  0
    0.9834    1.1808    1.7469 H   0  0  0  0  0  0  0  0  0  0  0  0
    0.2525    3.1797    1.5025 C   0  0  0  0  0  0  0  0  0  0  0  0
   -0.7060    3.4485    1.9590 H   0  0  0  0  0  0  0  0  0  0  0  0
    1.0554    3.4713    2.1867 H   0  0  0  0  0  0  0  0  0  0  0  0
    0.3706    3.7444    0.5715 H   0  0  0  0  0  0  0  0  0  0  0  0
  1  2  1  0  0  0  0
  2  3  1  0  0  0  0
  2  4  1  0  0  0  0
  2  5  1  0  0  0  0
  5  6  2  0  0  0  0
  5  7  1  0  0  0  0
  7  8  1  0  0  0  0
  7  9  1  0  0  0  0
  9 10  1  0  0  0  0
  9 11  1  0  0  0  0
  9 22  1  0  0  0  0
 11 12  1  0  0  0  0
 11 13  1  0  0  0  0
 11 14  1  0  0  0  0
 14 15  1  0  0  0  0
 14 20  2  0  0  0  0
 15 16  1  0  0  0  0
 15 17  1  0  0  0  0
 17 18  1  0  0  0  0
 17 19  2  0  0  0  0
 19 20  1  0  0  0  0
 20 21  1  0  0  0  0
 22 23  2  0  0  0  0
 22 24  1  0  0  0  0
 24 25  1  0  0  0  0
 24 26  1  0  0  0  0
 26 27  1  0  0  0  0
 26 28  1  0  0  0  0
 26 29  1  0  0  0  0
M  END
$$$$

  -OEChem-04042215593D

 29 29  0     1  0  0  0  0  0999 V2000
   -3.6688   -3.5717    1.6415 H   0  0  0  0  0  0  0  0  0  0  0  0
   -3.5941   -2.6678    1.0307 C   0  0  0  0  0  0  0  0  0  0  0  0
   -4.2140   -1.8879    1.4795 H   0  0  0  0  0  0  0  0  0  0  0  0
   -3.9673   -2.8879    0.0272 H   0  0  0  0  0  0  0  0  0  0  0  0
   -2.1520   -2.2045    0.9541 C   0  0  0  0  0  0  0  0  0  0  0  0
   -1.2628   -2.8860    1.4457 O   0  0  0  0  0  0  0  0  0  0  0  0
   -1.8367   -1.0569    0.2586 N   0  0  0  0  0  0  0  0  0  0  0  0
   -2.6073   -0.5263   -0.1442 H   0  0  0  0  0  0  0  0  0  0  0  0
   -0.4995   -0.4401    0.1923 C   0  0  1  0  0  0  0  0  0  0  0  0
    0.0872   -0.8277    1.0312 H   0  0  0  0  0  0  0  0  0  0  0  0
    0.2853   -0.7838   -1.0998 C   0  0  0  0  0  0  0  0  0  0  0  0
    0.2907    0.0916   -1.7589 H   0  0  0  0  0  0  0  0  0  0  0  0
    1.3267   -0.9961   -0.8381 H   0  0  0  0  0  0  0  0  0  0  0  0
   -0.2685   -1.9475   -1.8870 C   0  0  0  0  0  0  0  0  0  0  0  0
   -0.4156   -3.2432   -1.4435 N   0  0  0  0  0  0  0  0  0  0  0  0
   -0.2781   -3.5617   -0.4814 H   0  0  0  0  0  0  0  0  0  0  0  0
   -0.9570   -3.9958   -2.4665 C   0  0  0  0  0  0  0  0  0  0  0  0
   -1.2034   -5.0516   -2.4011 H   0  0  0  0  0  0  0  0  0  0  0  0
   -1.1422   -3.2468   -3.5280 N   0  0  0  0  0  0  0  0  0  0  0  0
   -0.7134   -1.9682   -3.1821 C   0  0  0  0  0  0  0  0  0  0  0  0
   -0.7347   -1.1080   -3.8448 H   0  0  0  0  0  0  0  0  0  0  0  0
   -0.5850    1.0845    0.3918 C   0  0  0  0  0  0  0  0  0  0  0  0
   -1.4700    1.7222   -0.1659 O   0  0  0  0  0  0  0  0  0  0  0  0
    0.3003    1.7381    1.2298 N   0  0  0  0  0  0  0  0  0  0  0  0
    0.9894    1.1765    1.7225 H   0  0  0  0  0  0  0  0  0  0  0  0
    0.2404    3.1710    1.4935 C   0  0  0  0  0  0  0  0  0  0  0  0
   -0.7180    3.4371    1.9517 H   0  0  0  0  0  0  0  0  0  0  0  0
    1.0436    3.4641    2.1765 H   0  0  0  0  0  0  0  0  0  0  0  0
    0.3552    3.7369    0.5629 H   0  0  0  0  0  0  0  0  0  0  0  0
  1  2  1  0  0  0  0
  2  3  1  0  0  0  0
  2  4  1  0  0  0  0
  2  5  1  0  0  0  0
  5  6  2  0  0  0  0
  5  7  1  0  0  0  0
  7  8  1  0  0  0  0
  7  9  1  0  0  0  0
  9 10  1  0  0  0  0
  9 11  1  0  0  0  0
  9 22  1  0  0  0  0
 11 12  1  0  0  0  0
 11 13  1  0  0  0  0
 11 14  1  0  0  0  0
 14 15  1  0  0  0  0
 14 20  2  0  0  0  0
 15 16  1  0  0  0  0
 15 17  1  0  0  0  0
 17 18  1  0  0  0  0
 17 19  2  0  0  0  0
 19 20  1  0  0  0  0
 20 21  1  0  0  0  0
 22 23  2  0  0  0  0
 22 24  1  0  0  0  0
 24 25  1  0  0  0  0
 24 26  1  0  0  0  0
 26 27  1  0  0  0  0
 26 28  1  0  0  0  0
 26 29  1  0  0  0  0
M  END
$$$$

  -OEChem-04042215593D

 29 29  0     1  0  0  0  0  0999 V2000
   -3.7276   -3.5051    1.7461 H   0  0  0  0  0  0  0  0  0  0  0  0
   -3.6449   -2.6055    1.1300 C   0  0  0  0  0  0  0  0  0  0  0  0
   -4.2125   -1.8012    1.6040 H   0  0  0  0  0  0  0  0  0  0  0  0
   -4.0718   -2.8113    0.1454 H   0  0  0  0  0  0  0  0  0  0  0  0
   -2.1907   -2.1996    0.9883 C   0  0  0  0  0  0  0  0  0  0  0  0
   -1.3073   -2.9208    1.4292 O   0  0  0  0  0  0  0  0  0  0  0  0
   -1.8616   -1.0638    0.2810 N   0  0  0  0  0  0  0  0  0  0  0  0
   -2.6321   -0.5039   -0.0815 H   0  0  0  0  0  0  0  0  0  0  0  0
   -0.5196   -0.4581    0.1995 C   0  0  1  0  0  0  0  0  0  0  0  0
    0.0634   -0.8415    1.0431 H   0  0  0  0  0  0  0  0  0  0  0  0
    0.2781   -0.8003   -1.0880 C   0  0  0  0  0  0  0  0  0  0  0  0
    0.2993    0.0805   -1.7396 H   0  0  0  0  0  0  0  0  0  0  0  0
    1.3133   -1.0115   -0.8027 H   0  0  0  0  0  0  0  0  0  0  0  0
   -0.2315   -1.9610   -1.9120 C   0  0  0  0  0  0  0  0  0  0  0  0
   -0.6394   -3.1967   -1.4622 N   0  0  0  0  0  0  0  0  0  0  0  0
   -0.6690   -3.4928   -0.4826 H   0  0  0  0  0  0  0  0  0  0  0  0
   -1.0457   -3.9503   -2.5447 C   0  0  0  0  0  0  0  0  0  0  0  0
   -1.4192   -4.9690   -2.4921 H   0  0  0  0  0  0  0  0  0  0  0  0
   -0.9191   -3.2535   -3.6490 N   0  0  0  0  0  0  0  0  0  0  0  0
   -0.4153   -2.0127   -3.2688 C   0  0  0  0  0  0  0  0  0  0  0  0
   -0.2017   -1.1978   -3.9541 H   0  0  0  0  0  0  0  0  0  0  0  0
   -0.6021    1.0688    0.3841 C   0  0  0  0  0  0  0  0  0  0  0  0
   -1.5006    1.6997   -0.1594 O   0  0  0  0  0  0  0  0  0  0  0  0
    0.2894    1.7288    1.2104 N   0  0  0  0  0  0  0  0  0  0  0  0
    0.9892    1.1724    1.6936 H   0  0  0  0  0  0  0  0  0  0  0  0
    0.2304    3.1633    1.4652 C   0  0  0  0  0  0  0  0  0  0  0  0
   -0.7250    3.4318    1.9282 H   0  0  0  0  0  0  0  0  0  0  0  0
    1.0378    3.4617    2.1409 H   0  0  0  0  0  0  0  0  0  0  0  0
    0.3384    3.7226    0.5297 H   0  0  0  0  0  0  0  0  0  0  0  0
  1  2  1  0  0  0  0
  2  3  1  0  0  0  0
  2  4  1  0  0  0  0
  2  5  1  0  0  0  0
  5  6  2  0  0  0  0
  5  7  1  0  0  0  0
  7  8  1  0  0  0  0
  7  9  1  0  0  0  0
  9 10  1  0  0  0  0
  9 11  1  0  0  0  0
  9 22  1  0  0  0  0
 11 12  1  0  0  0  0
 11 13  1  0  0  0  0
 11 14  1  0  0  0  0
 14 15  1  0  0  0  0
 14 20  2  0  0  0  0
 15 16  1  0  0  0  0
 15 17  1  0  0  0  0
 17 18  1  0  0  0  0
 17 19  2  0  0  0  0
 19 20  1  0  0  0  0
 20 21  1  0  0  0  0
 22 23  2  0  0  0  0
 22 24  1  0  0  0  0
 24 25  1  0  0  0  0
 24 26  1  0  0  0  0
 26 27  1  0  0  0  0
 26 28  1  0  0  0  0
 26 29  1  0  0  0  0
M  END
$$$$

  -OEChem-04042215593D

 29 29  0     1  0  0  0  0  0999 V2000
   -3.7760   -3.4404    1.8402 H   0  0  0  0  0  0  0  0  0  0  0  0
   -3.6858   -2.5404    1.2255 C   0  0  0  0  0  0  0  0  0  0  0  0
   -4.2022   -1.7186    1.7276 H   0  0  0  0  0  0  0  0  0  0  0  0
   -4.1624   -2.7229    0.2592 H   0  0  0  0  0  0  0  0  0  0  0  0
   -2.2249   -2.1869    1.0238 C   0  0  0  0  0  0  0  0  0  0  0  0
   -1.3506   -2.9415    1.4207 O   0  0  0  0  0  0  0  0  0  0  0  0
   -1.8843   -1.0642    0.3027 N   0  0  0  0  0  0  0  0  0  0  0  0
   -2.6518   -0.4790   -0.0256 H   0  0  0  0  0  0  0  0  0  0  0  0
   -0.5374   -0.4722    0.2016 C   0  0  1  0  0  0  0  0  0  0  0  0
    0.0439   -0.8508    1.0486 H   0  0  0  0  0  0  0  0  0  0  0  0
    0.2694   -0.8224   -1.0812 C   0  0  0  0  0  0  0  0  0  0  0  0
    0.2992    0.0590   -1.7317 H   0  0  0  0  0  0  0  0  0  0  0  0
    1.3010   -1.0284   -0.7787 H   0  0  0  0  0  0  0  0  0  0  0  0
   -0.2031   -1.9839   -1.9294 C   0  0  0  0  0  0  0  0  0  0  0  0
   -0.8613   -3.1293   -1.5424 N   0  0  0  0  0  0  0  0  0  0  0  0
   -1.0374   -3.4098   -0.5744 H   0  0  0  0  0  0  0  0  0  0  0  0
   -1.1345   -3.8887   -2.6618 C   0  0  0  0  0  0  0  0  0  0  0  0
   -1.6272   -4.8567   -2.6556 H   0  0  0  0  0  0  0  0  0  0  0  0
   -0.7077   -3.2708   -3.7366 N   0  0  0  0  0  0  0  0  0  0  0  0
   -0.1340   -2.0821   -3.2950 C   0  0  0  0  0  0  0  0  0  0  0  0
    0.3036   -1.3317   -3.9466 H   0  0  0  0  0  0  0  0  0  0  0  0
   -0.6136    1.0569    0.3707 C   0  0  0  0  0  0  0  0  0  0  0  0
   -1.5244    1.6834   -0.1576 O   0  0  0  0  0  0  0  0  0  0  0  0
    0.2878    1.7213    1.1826 N   0  0  0  0  0  0  0  0  0  0  0  0
    0.9937    1.1675    1.6600 H   0  0  0  0  0  0  0  0  0  0  0  0
    0.2224    3.1546    1.4434 C   0  0  0  0  0  0  0  0  0  0  0  0
   -0.7325    3.4163    1.9114 H   0  0  0  0  0  0  0  0  0  0  0  0
    1.0306    3.4538    2.1177 H   0  0  0  0  0  0  0  0  0  0  0  0
    0.3244    3.7186    0.5101 H   0  0  0  0  0  0  0  0  0  0  0  0
  1  2  1  0  0  0  0
  2  3  1  0  0  0  0
  2  4  1  0  0  0  0
  2  5  1  0  0  0  0
  5  6  2  0  0  0  0
  5  7  1  0  0  0  0
  7  8  1  0  0  0  0
  7  9  1  0  0  0  0
  9 10  1  0  0  0  0
  9 11  1  0  0  0  0
  9 22  1  0  0  0  0
 11 12  1  0  0  0  0
 11 13  1  0  0  0  0
 11 14  1  0  0  0  0
 14 15  1  0  0  0  0
 14 20  2  0  0  0  0
 15 16  1  0  0  0  0
 15 17  1  0  0  0  0
 17 18  1  0  0  0  0
 17 19  2  0  0  0  0
 19 20  1  0  0  0  0
 20 21  1  0  0  0  0
 22 23  2  0  0  0  0
 22 24  1  0  0  0  0
 24 25  1  0  0  0  0
 24 26  1  0  0  0  0
 26 27  1  0  0  0  0
 26 28  1  0  0  0  0
 26 29  1  0  0  0  0
M  END
$$$$

  -OEChem-04042215593D

 29 29  0     1  0  0  0  0  0999 V2000
   -3.7999   -3.4025    1.9208 H   0  0  0  0  0  0  0  0  0  0  0  0
   -3.7136   -2.4989    1.3107 C   0  0  0  0  0  0  0  0  0  0  0  0
   -4.1904   -1.6709    1.8409 H   0  0  0  0  0  0  0  0  0  0  0  0
   -4.2319   -2.6607    0.3625 H   0  0  0  0  0  0  0  0  0  0  0  0
   -2.2537   -2.1775    1.0553 C   0  0  0  0  0  0  0  0  0  0  0  0
   -1.3842   -2.9546    1.4123 O   0  0  0  0  0  0  0  0  0  0  0  0
   -1.9146   -1.0611    0.3244 N   0  0  0  0  0  0  0  0  0  0  0  0
   -2.6809   -0.4517    0.0393 H   0  0  0  0  0  0  0  0  0  0  0  0
   -0.5630   -0.4825    0.2046 C   0  0  1  0  0  0  0  0  0  0  0  0
    0.0198   -0.8617    1.0505 H   0  0  0  0  0  0  0  0  0  0  0  0
    0.2455   -0.8367   -1.0777 C   0  0  0  0  0  0  0  0  0  0  0  0
    0.2759    0.0463   -1.7260 H   0  0  0  0  0  0  0  0  0  0  0  0
    1.2765   -1.0380   -0.7698 H   0  0  0  0  0  0  0  0  0  0  0  0
   -0.2047   -1.9942   -1.9453 C   0  0  0  0  0  0  0  0  0  0  0  0
   -1.0825   -3.0209   -1.6822 N   0  0  0  0  0  0  0  0  0  0  0  0
   -1.4345   -3.2639   -0.7559 H   0  0  0  0  0  0  0  0  0  0  0  0
   -1.2107   -3.8029   -2.8122 C   0  0  0  0  0  0  0  0  0  0  0  0
   -1.8118   -4.7047   -2.8830 H   0  0  0  0  0  0  0  0  0  0  0  0
   -0.4915   -3.3032   -3.7872 N   0  0  0  0  0  0  0  0  0  0  0  0
    0.1311   -2.1753   -3.2627 C   0  0  0  0  0  0  0  0  0  0  0  0
    0.7913   -1.5224   -3.8259 H   0  0  0  0  0  0  0  0  0  0  0  0
   -0.6275    1.0483    0.3691 C   0  0  0  0  0  0  0  0  0  0  0  0
   -1.5492    1.6767   -0.1377 O   0  0  0  0  0  0  0  0  0  0  0  0
    0.2880    1.7097    1.1677 N   0  0  0  0  0  0  0  0  0  0  0  0
    1.0070    1.1550    1.6241 H   0  0  0  0  0  0  0  0  0  0  0  0
    0.2395    3.1451    1.4207 C   0  0  0  0  0  0  0  0  0  0  0  0
   -0.7074    3.4189    1.8978 H   0  0  0  0  0  0  0  0  0  0  0  0
    1.0584    3.4406    2.0837 H   0  0  0  0  0  0  0  0  0  0  0  0
    0.3361    3.7030    0.4832 H   0  0  0  0  0  0  0  0  0  0  0  0
  1  2  1  0  0  0  0
  2  3  1  0  0  0  0
  2  4  1  0  0  0  0
  2  5  1  0  0  0  0
  5  6  2  0  0  0  0
  5  7  1  0  0  0  0
  7  8  1  0  0  0  0
  7  9  1  0  0  0  0
  9 10  1  0  0  0  0
  9 11  1  0  0  0  0
  9 22  1  0  0  0  0
 11 12  1  0  0  0  0
 11 13  1  0  0  0  0
 11 14  1  0  0  0  0
 14 15  1  0  0  0  0
 14 20  2  0  0  0  0
 15 16  1  0  0  0  0
 15 17  1  0  0  0  0
 17 18  1  0  0  0  0
 17 19  2  0  0  0  0
 19 20  1  0  0  0  0
 20 21  1  0  0  0  0
 22 23  2  0  0  0  0
 22 24  1  0  0  0  0
 24 25  1  0  0  0  0
 24 26  1  0  0  0  0
 26 27  1  0  0  0  0
 26 28  1  0  0  0  0
 26 29  1  0  0  0  0
M  END
$$$$

  -OEChem-04042215593D

 29 29  0     1  0  0  0  0  0999 V2000
   -3.7878   -3.4173    1.9393 H   0  0  0  0  0  0  0  0  0  0  0  0
   -3.7057   -2.5078    1.3372 C   0  0  0  0  0  0  0  0  0  0  0  0
   -4.1948   -1.6884    1.8698 H   0  0  0  0  0  0  0  0  0  0  0  0
   -4.2152   -2.6683    0.3841 H   0  0  0  0  0  0  0  0  0  0  0  0
   -2.2466   -2.1698    1.0978 C   0  0  0  0  0  0  0  0  0  0  0  0
   -1.3727   -2.9041    1.5244 O   0  0  0  0  0  0  0  0  0  0  0  0
   -1.9157   -1.0596    0.3512 N   0  0  0  0  0  0  0  0  0  0  0  0
   -2.6799   -0.4463    0.0686 H   0  0  0  0  0  0  0  0  0  0  0  0
   -0.5589   -0.4977    0.2188 C   0  0  1  0  0  0  0  0  0  0  0  0
    0.0366   -0.8788    1.0547 H   0  0  0  0  0  0  0  0  0  0  0  0
    0.2254   -0.8403   -1.0823 C   0  0  0  0  0  0  0  0  0  0  0  0
    0.2472    0.0530   -1.7171 H   0  0  0  0  0  0  0  0  0  0  0  0
    1.2620   -1.0489   -0.7983 H   0  0  0  0  0  0  0  0  0  0  0  0
   -0.2448   -1.9719   -1.9740 C   0  0  0  0  0  0  0  0  0  0  0  0
   -1.3081   -2.8390   -1.8698 N   0  0  0  0  0  0  0  0  0  0  0  0
   -1.9192   -2.9230   -1.0625 H   0  0  0  0  0  0  0  0  0  0  0  0
   -1.3127   -3.6810   -2.9640 C   0  0  0  0  0  0  0  0  0  0  0  0
   -2.0262   -4.4821   -3.1345 H   0  0  0  0  0  0  0  0  0  0  0  0
   -0.3244   -3.3761   -3.7679 N   0  0  0  0  0  0  0  0  0  0  0  0
    0.3433   -2.3158   -3.1646 C   0  0  0  0  0  0  0  0  0  0  0  0
    1.2151   -1.8232   -3.5848 H   0  0  0  0  0  0  0  0  0  0  0  0
   -0.6192    1.0341    0.3761 C   0  0  0  0  0  0  0  0  0  0  0  0
   -1.5413    1.6630   -0.1302 O   0  0  0  0  0  0  0  0  0  0  0  0
    0.3028    1.6957    1.1664 N   0  0  0  0  0  0  0  0  0  0  0  0
    1.0208    1.1399    1.6232 H   0  0  0  0  0  0  0  0  0  0  0  0
    0.2602    3.1320    1.4137 C   0  0  0  0  0  0  0  0  0  0  0  0
   -0.6803    3.4094    1.9011 H   0  0  0  0  0  0  0  0  0  0  0  0
    1.0877    3.4285    2.0654 H   0  0  0  0  0  0  0  0  0  0  0  0
    0.3462    3.6853    0.4726 H   0  0  0  0  0  0  0  0  0  0  0  0
  1  2  1  0  0  0  0
  2  3  1  0  0  0  0
  2  4  1  0  0  0  0
  2  5  1  0  0  0  0
  5  6  2  0  0  0  0
  5  7  1  0  0  0  0
  7  8  1  0  0  0  0
  7  9  1  0  0  0  0
  9 10  1  0  0  0  0
  9 11  1  0  0  0  0
  9 22  1  0  0  0  0
 11 12  1  0  0  0  0
 11 13  1  0  0  0  0
 11 14  1  0  0  0  0
 14 15  1  0  0  0  0
 14 20  2  0  0  0  0
 15 16  1  0  0  0  0
 15 17  1  0  0  0  0
 17 18  1  0  0  0  0
 17 19  2  0  0  0  0
 19 20  1  0  0  0  0
 20 21  1  0  0  0  0
 22 23  2  0  0  0  0
 22 24  1  0  0  0  0
 24 25  1  0  0  0  0
 24 26  1  0  0  0  0
 26 27  1  0  0  0  0
 26 28  1  0  0  0  0
 26 29  1  0  0  0  0
M  END
$$$$

  -OEChem-04042215593D

 29 29  0     1  0  0  0  0  0999 V2000
   -3.7517   -3.4244    1.9334 H   0  0  0  0  0  0  0  0  0  0  0  0
   -3.6797   -2.5386    1.2959 C   0  0  0  0  0  0  0  0  0  0  0  0
   -4.1981   -1.7107    1.7859 H   0  0  0  0  0  0  0  0  0  0  0  0
   -4.1671   -2.7514    0.3418 H   0  0  0  0  0  0  0  0  0  0  0  0
   -2.2242   -2.1761    1.0692 C   0  0  0  0  0  0  0  0  0  0  0  0
   -1.3442   -2.8771    1.5385 O   0  0  0  0  0  0  0  0  0  0  0  0
   -1.9071   -1.0532    0.3320 N   0  0  0  0  0  0  0  0  0  0  0  0
   -2.6733   -0.4315    0.0744 H   0  0  0  0  0  0  0  0  0  0  0  0
   -0.5489   -0.4934    0.2060 C   0  0  1  0  0  0  0  0  0  0  0  0
    0.0526   -0.8853    1.0327 H   0  0  0  0  0  0  0  0  0  0  0  0
    0.2242   -0.8213   -1.1057 C   0  0  0  0  0  0  0  0  0  0  0  0
    0.2268    0.0787   -1.7304 H   0  0  0  0  0  0  0  0  0  0  0  0
    1.2675   -1.0244   -0.8431 H   0  0  0  0  0  0  0  0  0  0  0  0
   -0.2659   -1.9367   -2.0076 C   0  0  0  0  0  0  0  0  0  0  0  0
   -1.4653   -2.6098   -2.0572 N   0  0  0  0  0  0  0  0  0  0  0  0
   -2.2534   -2.4547   -1.4360 H   0  0  0  0  0  0  0  0  0  0  0  0
   -1.4069   -3.5641   -3.0533 C   0  0  0  0  0  0  0  0  0  0  0  0
   -2.2104   -4.2476   -3.3128 H   0  0  0  0  0  0  0  0  0  0  0  0
   -0.2374   -3.5253   -3.6421 N   0  0  0  0  0  0  0  0  0  0  0  0
    0.4809   -2.5242   -2.9971 C   0  0  0  0  0  0  0  0  0  0  0  0
    1.5006   -2.2458   -3.2458 H   0  0  0  0  0  0  0  0  0  0  0  0
   -0.6087    1.0365    0.3848 C   0  0  0  0  0  0  0  0  0  0  0  0
   -1.5300    1.6712   -0.1162 O   0  0  0  0  0  0  0  0  0  0  0  0
    0.3128    1.6894    1.1832 N   0  0  0  0  0  0  0  0  0  0  0  0
    1.0224    1.1263    1.6442 H   0  0  0  0  0  0  0  0  0  0  0  0
    0.2687    3.1224    1.4497 C   0  0  0  0  0  0  0  0  0  0  0  0
   -0.6667    3.3907    1.9520 H   0  0  0  0  0  0  0  0  0  0  0  0
    1.1034    3.4127    2.0950 H   0  0  0  0  0  0  0  0  0  0  0  0
    0.3421    3.6889    0.5153 H   0  0  0  0  0  0  0  0  0  0  0  0
  1  2  1  0  0  0  0
  2  3  1  0  0  0  0
  2  4  1  0  0  0  0
  2  5  1  0  0  0  0
  5  6  2  0  0  0  0
  5  7  1  0  0  0  0
  7  8  1  0  0  0  0
  7  9  1  0  0  0  0
  9 10  1  0  0  0  0
  9 11  1  0  0  0  0
  9 22  1  0  0  0  0
 11 12  1  0  0  0  0
 11 13  1  0  0  0  0
 11 14  1  0  0  0  0
 14 15  1  0  0  0  0
 14 20  2  0  0  0  0
 15 16  1  0  0  0  0
 15 17  1  0  0  0  0
 17 18  1  0  0  0  0
 17 19  2  0  0  0  0
 19 20  1  0  0  0  0
 20 21  1  0  0  0  0
 22 23  2  0  0  0  0
 22 24  1  0  0  0  0
 24 25  1  0  0  0  0
 24 26  1  0  0  0  0
 26 27  1  0  0  0  0
 26 28  1  0  0  0  0
 26 29  1  0  0  0  0
M  END
$$$$

  -OEChem-04042215593D

 29 29  0     1  0  0  0  0  0999 V2000
   -3.7203   -3.4537    1.8751 H   0  0  0  0  0  0  0  0  0  0  0  0
   -3.6513   -2.5849    1.2141 C   0  0  0  0  0  0  0  0  0  0  0  0
   -4.2127   -1.7598    1.6593 H   0  0  0  0  0  0  0  0  0  0  0  0
   -4.0951   -2.8414    0.2496 H   0  0  0  0  0  0  0  0  0  0  0  0
   -2.1997   -2.1849    1.0286 C   0  0  0  0  0  0  0  0  0  0  0  0
   -1.3170   -2.8570    1.5353 O   0  0  0  0  0  0  0  0  0  0  0  0
   -1.8899   -1.0502    0.3053 N   0  0  0  0  0  0  0  0  0  0  0  0
   -2.6602   -0.4330    0.0519 H   0  0  0  0  0  0  0  0  0  0  0  0
   -0.5346   -0.4816    0.1951 C   0  0  1  0  0  0  0  0  0  0  0  0
    0.0653   -0.8789    1.0203 H   0  0  0  0  0  0  0  0  0  0  0  0
    0.2401   -0.8018   -1.1155 C   0  0  0  0  0  0  0  0  0  0  0  0
    0.2381    0.0991   -1.7391 H   0  0  0  0  0  0  0  0  0  0  0  0
    1.2847   -1.0030   -0.8556 H   0  0  0  0  0  0  0  0  0  0  0  0
   -0.2625   -1.9170   -2.0106 C   0  0  0  0  0  0  0  0  0  0  0  0
   -1.5369   -2.3914   -2.2289 N   0  0  0  0  0  0  0  0  0  0  0  0
   -2.3838   -2.0301   -1.7994 H   0  0  0  0  0  0  0  0  0  0  0  0
   -1.4770   -3.4437   -3.1212 C   0  0  0  0  0  0  0  0  0  0  0  0
   -2.3321   -4.0092   -3.4795 H   0  0  0  0  0  0  0  0  0  0  0  0
   -0.2351   -3.6602   -3.4771 N   0  0  0  0  0  0  0  0  0  0  0  0
    0.5288   -2.7253   -2.7863 C   0  0  0  0  0  0  0  0  0  0  0  0
    1.6098   -2.6470   -2.8543 H   0  0  0  0  0  0  0  0  0  0  0  0
   -0.5983    1.0453    0.3905 C   0  0  0  0  0  0  0  0  0  0  0  0
   -1.5158    1.6830   -0.1139 O   0  0  0  0  0  0  0  0  0  0  0  0
    0.3163    1.6918    1.2014 N   0  0  0  0  0  0  0  0  0  0  0  0
    1.0251    1.1260    1.6605 H   0  0  0  0  0  0  0  0  0  0  0  0
    0.2679    3.1223    1.4787 C   0  0  0  0  0  0  0  0  0  0  0  0
   -0.6736    3.3858    1.9722 H   0  0  0  0  0  0  0  0  0  0  0  0
    1.0949    3.4088    2.1357 H   0  0  0  0  0  0  0  0  0  0  0  0
    0.3512    3.6953    0.5492 H   0  0  0  0  0  0  0  0  0  0  0  0
  1  2  1  0  0  0  0
  2  3  1  0  0  0  0
  2  4  1  0  0  0  0
  2  5  1  0  0  0  0
  5  6  2  0  0  0  0
  5  7  1  0  0  0  0
  7  8  1  0  0  0  0
  7  9  1  0  0  0  0
  9 10  1  0  0  0  0
  9 11  1  0  0  0  0
  9 22  1  0  0  0  0
 11 12  1  0  0  0  0
 11 13  1  0  0  0  0
 11 14  1  0  0  0  0
 14 15  1  0  0  0  0
 14 20  2  0  0  0  0
 15 16  1  0  0  0  0
 15 17  1  0  0  0  0
 17 18  1  0  0  0  0
 17 19  2  0  0  0  0
 19 20  1  0  0  0  0
 20 21  1  0  0  0  0
 22 23  2  0  0  0  0
 22 24  1  0  0  0  0
 24 25  1  0  0  0  0
 24 26  1  0  0  0  0
 26 27  1  0  0  0  0
 26 28  1  0  0  0  0
 26 29  1  0  0  0  0
M  END
$$$$

  -OEChem-04042215593D

 29 29  0     1  0  0  0  0  0999 V2000
   -3.6842   -3.5140    1.7579 H   0  0  0  0  0  0  0  0  0  0  0  0
   -3.6119   -2.6349    1.1113 C   0  0  0  0  0  0  0  0  0  0  0  0
   -4.2121   -1.8306    1.5431 H   0  0  0  0  0  0  0  0  0  0  0  0
   -4.0085   -2.8894    0.1258 H   0  0  0  0  0  0  0  0  0  0  0  0
   -2.1652   -2.1954    0.9891 C   0  0  0  0  0  0  0  0  0  0  0  0
   -1.2874   -2.8389    1.5408 O   0  0  0  0  0  0  0  0  0  0  0  0
   -1.8558   -1.0541    0.2768 N   0  0  0  0  0  0  0  0  0  0  0  0
   -2.6298   -0.4609   -0.0156 H   0  0  0  0  0  0  0  0  0  0  0  0
   -0.5063   -0.4702    0.1899 C   0  0  1  0  0  0  0  0  0  0  0  0
    0.0899   -0.8658    1.0184 H   0  0  0  0  0  0  0  0  0  0  0  0
    0.2709   -0.7888   -1.1177 C   0  0  0  0  0  0  0  0  0  0  0  0
    0.2728    0.1080   -1.7469 H   0  0  0  0  0  0  0  0  0  0  0  0
    1.3143   -0.9947   -0.8572 H   0  0  0  0  0  0  0  0  0  0  0  0
   -0.2503   -1.9116   -1.9909 C   0  0  0  0  0  0  0  0  0  0  0  0
   -1.5397   -2.1912   -2.3891 N   0  0  0  0  0  0  0  0  0  0  0  0
   -2.3642   -1.6420   -2.1620 H   0  0  0  0  0  0  0  0  0  0  0  0
   -1.5266   -3.3298   -3.1710 C   0  0  0  0  0  0  0  0  0  0  0  0
   -2.4002   -3.7829   -3.6308 H   0  0  0  0  0  0  0  0  0  0  0  0
   -0.3029   -3.7843   -3.2825 N   0  0  0  0  0  0  0  0  0  0  0  0
    0.4981   -2.9175   -2.5459 C   0  0  0  0  0  0  0  0  0  0  0  0
    1.5723   -3.0241   -2.4290 H   0  0  0  0  0  0  0  0  0  0  0  0
   -0.5846    1.0548    0.3903 C   0  0  0  0  0  0  0  0  0  0  0  0
   -1.4886    1.6891   -0.1424 O   0  0  0  0  0  0  0  0  0  0  0  0
    0.3125    1.7053    1.2174 N   0  0  0  0  0  0  0  0  0  0  0  0
    1.0048    1.1394    1.7011 H   0  0  0  0  0  0  0  0  0  0  0  0
    0.2508    3.1346    1.4989 C   0  0  0  0  0  0  0  0  0  0  0  0
   -0.6982    3.3901    1.9818 H   0  0  0  0  0  0  0  0  0  0  0  0
    1.0677    3.4236    2.1672 H   0  0  0  0  0  0  0  0  0  0  0  0
    0.3423    3.7121    0.5729 H   0  0  0  0  0  0  0  0  0  0  0  0
  1  2  1  0  0  0  0
  2  3  1  0  0  0  0
  2  4  1  0  0  0  0
  2  5  1  0  0  0  0
  5  6  2  0  0  0  0
  5  7  1  0  0  0  0
  7  8  1  0  0  0  0
  7  9  1  0  0  0  0
  9 10  1  0  0  0  0
  9 11  1  0  0  0  0
  9 22  1  0  0  0  0
 11 12  1  0  0  0  0
 11 13  1  0  0  0  0
 11 14  1  0  0  0  0
 14 15  1  0  0  0  0
 14 20  2  0  0  0  0
 15 16  1  0  0  0  0
 15 17  1  0  0  0  0
 17 18  1  0  0  0  0
 17 19  2  0  0  0  0
 19 20  1  0  0  0  0
 20 21  1  0  0  0  0
 22 23  2  0  0  0  0
 22 24  1  0  0  0  0
 24 25  1  0  0  0  0
 24 26  1  0  0  0  0
 26 27  1  0  0  0  0
 26 28  1  0  0  0  0
 26 29  1  0  0  0  0
M  END
$$$$

  -OEChem-04042215593D

 29 29  0     1  0  0  0  0  0999 V2000
   -3.6412   -3.5877    1.6336 H   0  0  0  0  0  0  0  0  0  0  0  0
   -3.5643   -2.6997    0.9999 C   0  0  0  0  0  0  0  0  0  0  0  0
   -4.2224   -1.9239    1.3984 H   0  0  0  0  0  0  0  0  0  0  0  0
   -3.8863   -2.9604   -0.0110 H   0  0  0  0  0  0  0  0  0  0  0  0
   -2.1317   -2.2023    0.9722 C   0  0  0  0  0  0  0  0  0  0  0  0
   -1.2676   -2.8029    1.5910 O   0  0  0  0  0  0  0  0  0  0  0  0
   -1.8184   -1.0610    0.2625 N   0  0  0  0  0  0  0  0  0  0  0  0
   -2.5888   -0.5160   -0.1170 H   0  0  0  0  0  0  0  0  0  0  0  0
   -0.4744   -0.4623    0.1976 C   0  0  1  0  0  0  0  0  0  0  0  0
    0.1185   -0.8510    1.0316 H   0  0  0  0  0  0  0  0  0  0  0  0
    0.3030   -0.7817   -1.1077 C   0  0  0  0  0  0  0  0  0  0  0  0
    0.3187    0.1092   -1.7450 H   0  0  0  0  0  0  0  0  0  0  0  0
    1.3423   -1.0026   -0.8438 H   0  0  0  0  0  0  0  0  0  0  0  0
   -0.2436   -1.9121   -1.9515 C   0  0  0  0  0  0  0  0  0  0  0  0
   -1.4853   -2.0163   -2.5409 N   0  0  0  0  0  0  0  0  0  0  0  0
   -2.2170   -1.3102   -2.5220 H   0  0  0  0  0  0  0  0  0  0  0  0
   -1.5523   -3.2208   -3.2142 C   0  0  0  0  0  0  0  0  0  0  0  0
   -2.4091   -3.5729   -3.7815 H   0  0  0  0  0  0  0  0  0  0  0  0
   -0.4277   -3.8788   -3.0743 N   0  0  0  0  0  0  0  0  0  0  0  0
    0.3936   -3.0784   -2.2858 C   0  0  0  0  0  0  0  0  0  0  0  0
    1.4015   -3.3424   -1.9801 H   0  0  0  0  0  0  0  0  0  0  0  0
   -0.5668    1.0625    0.3892 C   0  0  0  0  0  0  0  0  0  0  0  0
   -1.4500    1.6913   -0.1838 O   0  0  0  0  0  0  0  0  0  0  0  0
    0.3105    1.7236    1.2290 N   0  0  0  0  0  0  0  0  0  0  0  0
    0.9852    1.1630    1.7428 H   0  0  0  0  0  0  0  0  0  0  0  0
    0.2350    3.1548    1.4968 C   0  0  0  0  0  0  0  0  0  0  0  0
   -0.7266    3.4085    1.9550 H   0  0  0  0  0  0  0  0  0  0  0  0
    1.0344    3.4543    2.1814 H   0  0  0  0  0  0  0  0  0  0  0  0
    0.3444    3.7247    0.5681 H   0  0  0  0  0  0  0  0  0  0  0  0
  1  2  1  0  0  0  0
  2  3  1  0  0  0  0
  2  4  1  0  0  0  0
  2  5  1  0  0  0  0
  5  6  2  0  0  0  0
  5  7  1  0  0  0  0
  7  8  1  0  0  0  0
  7  9  1  0  0  0  0
  9 10  1  0  0  0  0
  9 11  1  0  0  0  0
  9 22  1  0  0  0  0
 11 12  1  0  0  0  0
 11 13  1  0  0  0  0
 11 14  1  0  0  0  0
 14 15  1  0  0  0  0
 14 20  2  0  0  0  0
 15 16  1  0  0  0  0
 15 17  1  0  0  0  0
 17 18  1  0  0  0  0
 17 19  2  0  0  0  0
 19 20  1  0  0  0  0
 20 21  1  0  0  0  0
 22 23  2  0  0  0  0
 22 24  1  0  0  0  0
 24 25  1  0  0  0  0
 24 26  1  0  0  0  0
 26 27  1  0  0  0  0
 26 28  1  0  0  0  0
 26 29  1  0  0  0  0
M  END
$$$$

  -OEChem-04042215593D

 29 29  0     1  0  0  0  0  0999 V2000
   -3.5890   -3.6679    1.5124 H   0  0  0  0  0  0  0  0  0  0  0  0
   -3.5125   -2.7665    0.8979 C   0  0  0  0  0  0  0  0  0  0  0  0
   -4.2287   -2.0273    1.2644 H   0  0  0  0  0  0  0  0  0  0  0  0
   -3.7578   -3.0236   -0.1353 H   0  0  0  0  0  0  0  0  0  0  0  0
   -2.1051   -2.2061    0.9680 C   0  0  0  0  0  0  0  0  0  0  0  0
   -1.2614   -2.7600    1.6554 O   0  0  0  0  0  0  0  0  0  0  0  0
   -1.7872   -1.0664    0.2584 N   0  0  0  0  0  0  0  0  0  0  0  0
   -2.5369   -0.5933   -0.2390 H   0  0  0  0  0  0  0  0  0  0  0  0
   -0.4481   -0.4550    0.2130 C   0  0  1  0  0  0  0  0  0  0  0  0
    0.1434   -0.8384    1.0506 H   0  0  0  0  0  0  0  0  0  0  0  0
    0.3257   -0.7769   -1.0923 C   0  0  0  0  0  0  0  0  0  0  0  0
    0.3535    0.1082   -1.7372 H   0  0  0  0  0  0  0  0  0  0  0  0
    1.3620   -1.0129   -0.8290 H   0  0  0  0  0  0  0  0  0  0  0  0
   -0.2475   -1.9134   -1.9063 C   0  0  0  0  0  0  0  0  0  0  0  0
   -1.3774   -1.8873   -2.6950 N   0  0  0  0  0  0  0  0  0  0  0  0
   -1.9686   -1.0773   -2.8697 H   0  0  0  0  0  0  0  0  0  0  0  0
   -1.5425   -3.1371   -3.2606 C   0  0  0  0  0  0  0  0  0  0  0  0
   -2.3450   -3.4155   -3.9377 H   0  0  0  0  0  0  0  0  0  0  0  0
   -0.5866   -3.9416   -2.8642 N   0  0  0  0  0  0  0  0  0  0  0  0
    0.2277   -3.1934   -2.0184 C   0  0  0  0  0  0  0  0  0  0  0  0
    1.1128   -3.5726   -1.5165 H   0  0  0  0  0  0  0  0  0  0  0  0
   -0.5529    1.0702    0.3935 C   0  0  0  0  0  0  0  0  0  0  0  0
   -1.4031    1.6963   -0.2306 O   0  0  0  0  0  0  0  0  0  0  0  0
    0.3055    1.7424    1.2441 N   0  0  0  0  0  0  0  0  0  0  0  0
    0.9497    1.1861    1.7999 H   0  0  0  0  0  0  0  0  0  0  0  0
    0.2328    3.1796    1.4790 C   0  0  0  0  0  0  0  0  0  0  0  0
   -0.7381    3.4496    1.9078 H   0  0  0  0  0  0  0  0  0  0  0  0
    1.0174    3.4895    2.1760 H   0  0  0  0  0  0  0  0  0  0  0  0
    0.3686    3.7281    0.5409 H   0  0  0  0  0  0  0  0  0  0  0  0
  1  2  1  0  0  0  0
  2  3  1  0  0  0  0
  2  4  1  0  0  0  0
  2  5  1  0  0  0  0
  5  6  2  0  0  0  0
  5  7  1  0  0  0  0
  7  8  1  0  0  0  0
  7  9  1  0  0  0  0
  9 10  1  0  0  0  0
  9 11  1  0  0  0  0
  9 22  1  0  0  0  0
 11 12  1  0  0  0  0
 11 13  1  0  0  0  0
 11 14  1  0  0  0  0
 14 15  1  0  0  0  0
 14 20  2  0  0  0  0
 15 16  1  0  0  0  0
 15 17  1  0  0  0  0
 17 18  1  0  0  0  0
 17 19  2  0  0  0  0
 19 20  1  0  0  0  0
 20 21  1  0  0  0  0
 22 23  2  0  0  0  0
 22 24  1  0  0  0  0
 24 25  1  0  0  0  0
 24 26  1  0  0  0  0
 26 27  1  0  0  0  0
 26 28  1  0  0  0  0
 26 29  1  0  0  0  0
M  END
$$$$

  -OEChem-04042215593D

 29 29  0     1  0  0  0  0  0999 V2000
   -3.5624   -3.6984    1.4604 H   0  0  0  0  0  0  0  0  0  0  0  0
   -3.4878   -2.7914    0.8541 C   0  0  0  0  0  0  0  0  0  0  0  0
   -4.2279   -2.0690    1.2062 H   0  0  0  0  0  0  0  0  0  0  0  0
   -3.7001   -3.0460   -0.1871 H   0  0  0  0  0  0  0  0  0  0  0  0
   -2.0947   -2.2032    0.9651 C   0  0  0  0  0  0  0  0  0  0  0  0
   -1.2620   -2.7353    1.6827 O   0  0  0  0  0  0  0  0  0  0  0  0
   -1.7734   -1.0664    0.2528 N   0  0  0  0  0  0  0  0  0  0  0  0
   -2.5043   -0.6372   -0.3084 H   0  0  0  0  0  0  0  0  0  0  0  0
   -0.4360   -0.4496    0.2176 C   0  0  1  0  0  0  0  0  0  0  0  0
    0.1528   -0.8284    1.0590 H   0  0  0  0  0  0  0  0  0  0  0  0
    0.3375   -0.7786   -1.0853 C   0  0  0  0  0  0  0  0  0  0  0  0
    0.3735    0.1011   -1.7369 H   0  0  0  0  0  0  0  0  0  0  0  0
    1.3713   -1.0227   -0.8204 H   0  0  0  0  0  0  0  0  0  0  0  0
   -0.2482   -1.9205   -1.8803 C   0  0  0  0  0  0  0  0  0  0  0  0
   -1.2012   -1.8350   -2.8710 N   0  0  0  0  0  0  0  0  0  0  0  0
   -1.6330   -0.9811   -3.2188 H   0  0  0  0  0  0  0  0  0  0  0  0
   -1.4560   -3.1100   -3.3388 C   0  0  0  0  0  0  0  0  0  0  0  0
   -2.1617   -3.3567   -4.1268 H   0  0  0  0  0  0  0  0  0  0  0  0
   -0.7215   -3.9830   -2.6928 N   0  0  0  0  0  0  0  0  0  0  0  0
    0.0399   -3.2561   -1.7813 C   0  0  0  0  0  0  0  0  0  0  0  0
    0.7544   -3.6868   -1.0861 H   0  0  0  0  0  0  0  0  0  0  0  0
   -0.5432    1.0768    0.3882 C   0  0  0  0  0  0  0  0  0  0  0  0
   -1.3763    1.7031   -0.2581 O   0  0  0  0  0  0  0  0  0  0  0  0
    0.3074    1.7524    1.2438 N   0  0  0  0  0  0  0  0  0  0  0  0
    0.9357    1.1965    1.8179 H   0  0  0  0  0  0  0  0  0  0  0  0
    0.2306    3.1898    1.4741 C   0  0  0  0  0  0  0  0  0  0  0  0
   -0.7448    3.4592    1.8927 H   0  0  0  0  0  0  0  0  0  0  0  0
    1.0080    3.5022    2.1779 H   0  0  0  0  0  0  0  0  0  0  0  0
    0.3751    3.7364    0.5362 H   0  0  0  0  0  0  0  0  0  0  0  0
  1  2  1  0  0  0  0
  2  3  1  0  0  0  0
  2  4  1  0  0  0  0
  2  5  1  0  0  0  0
  5  6  2  0  0  0  0
  5  7  1  0  0  0  0
  7  8  1  0  0  0  0
  7  9  1  0  0  0  0
  9 10  1  0  0  0  0
  9 11  1  0  0  0  0
  9 22  1  0  0  0  0
 11 12  1  0  0  0  0
 11 13  1  0  0  0  0
 11 14  1  0  0  0  0
 14 15  1  0  0  0  0
 14 20  2  0  0  0  0
 15 16  1  0  0  0  0
 15 17  1  0  0  0  0
 17 18  1  0  0  0  0
 17 19  2  0  0  0  0
 19 20  1  0  0  0  0
 20 21  1  0  0  0  0
 22 23  2  0  0  0  0
 22 24  1  0  0  0  0
 24 25  1  0  0  0  0
 24 26  1  0  0  0  0
 26 27  1  0  0  0  0
 26 28  1  0  0  0  0
 26 29  1  0  0  0  0
M  END
$$$$

  -OEChem-04042215593D

 29 29  0     1  0  0  0  0  0999 V2000
   -3.5645   -3.7018    1.4612 H   0  0  0  0  0  0  0  0  0  0  0  0
   -3.4897   -2.7953    0.8541 C   0  0  0  0  0  0  0  0  0  0  0  0
   -4.2386   -2.0774    1.1968 H   0  0  0  0  0  0  0  0  0  0  0  0
   -3.6892   -3.0536   -0.1889 H   0  0  0  0  0  0  0  0  0  0  0  0
   -2.1019   -2.1975    0.9791 C   0  0  0  0  0  0  0  0  0  0  0  0
   -1.2728   -2.7229    1.7060 O   0  0  0  0  0  0  0  0  0  0  0  0
   -1.7763   -1.0653    0.2615 N   0  0  0  0  0  0  0  0  0  0  0  0
   -2.4981   -0.6547   -0.3257 H   0  0  0  0  0  0  0  0  0  0  0  0
   -0.4384   -0.4491    0.2255 C   0  0  1  0  0  0  0  0  0  0  0  0
    0.1489   -0.8244    1.0694 H   0  0  0  0  0  0  0  0  0  0  0  0
    0.3356   -0.7849   -1.0757 C   0  0  0  0  0  0  0  0  0  0  0  0
    0.3696    0.0935   -1.7291 H   0  0  0  0  0  0  0  0  0  0  0  0
    1.3702   -1.0265   -0.8116 H   0  0  0  0  0  0  0  0  0  0  0  0
   -0.2458   -1.9303   -1.8691 C   0  0  0  0  0  0  0  0  0  0  0  0
   -0.9694   -1.8446   -3.0373 N   0  0  0  0  0  0  0  0  0  0  0  0
   -1.2190   -0.9894   -3.5302 H   0  0  0  0  0  0  0  0  0  0  0  0
   -1.3058   -3.1245   -3.4349 C   0  0  0  0  0  0  0  0  0  0  0  0
   -1.8806   -3.3717   -4.3230 H   0  0  0  0  0  0  0  0  0  0  0  0
   -0.8326   -4.0011   -2.5823 N   0  0  0  0  0  0  0  0  0  0  0  0
   -0.1610   -3.2725   -1.6041 C   0  0  0  0  0  0  0  0  0  0  0  0
    0.3476   -3.7046   -0.7472 H   0  0  0  0  0  0  0  0  0  0  0  0
   -0.5416    1.0790    0.3868 C   0  0  0  0  0  0  0  0  0  0  0  0
   -1.3668    1.7067   -0.2680 O   0  0  0  0  0  0  0  0  0  0  0  0
    0.3103    1.7555    1.2407 N   0  0  0  0  0  0  0  0  0  0  0  0
    0.9320    1.1995    1.8218 H   0  0  0  0  0  0  0  0  0  0  0  0
    0.2357    3.1938    1.4668 C   0  0  0  0  0  0  0  0  0  0  0  0
   -0.7393    3.4657    1.8847 H   0  0  0  0  0  0  0  0  0  0  0  0
    1.0136    3.5071    2.1697 H   0  0  0  0  0  0  0  0  0  0  0  0
    0.3807    3.7375    0.5272 H   0  0  0  0  0  0  0  0  0  0  0  0
  1  2  1  0  0  0  0
  2  3  1  0  0  0  0
  2  4  1  0  0  0  0
  2  5  1  0  0  0  0
  5  6  2  0  0  0  0
  5  7  1  0  0  0  0
  7  8  1  0  0  0  0
  7  9  1  0  0  0  0
  9 10  1  0  0  0  0
  9 11  1  0  0  0  0
  9 22  1  0  0  0  0
 11 12  1  0  0  0  0
 11 13  1  0  0  0  0
 11 14  1  0  0  0  0
 14 15  1  0  0  0  0
 14 20  2  0  0  0  0
 15 16  1  0  0  0  0
 15 17  1  0  0  0  0
 17 18  1  0  0  0  0
 17 19  2  0  0  0  0
 19 20  1  0  0  0  0
 20 21  1  0  0  0  0
 22 23  2  0  0  0  0
 22 24  1  0  0  0  0
 24 25  1  0  0  0  0
 24 26  1  0  0  0  0
 26 27  1  0  0  0  0
 26 28  1  0  0  0  0
 26 29  1  0  0  0  0
M  END
$$$$

  -OEChem-04042215593D

 29 29  0     1  0  0  0  0  0999 V2000
   -3.5933   -3.6887    1.4967 H   0  0  0  0  0  0  0  0  0  0  0  0
   -3.5158   -2.7827    0.8892 C   0  0  0  0  0  0  0  0  0  0  0  0
   -4.2659   -2.0645    1.2278 H   0  0  0  0  0  0  0  0  0  0  0  0
   -3.7122   -3.0423   -0.1541 H   0  0  0  0  0  0  0  0  0  0  0  0
   -2.1286   -2.1838    1.0190 C   0  0  0  0  0  0  0  0  0  0  0  0
   -1.3050   -2.7028    1.7565 O   0  0  0  0  0  0  0  0  0  0  0  0
   -1.7932   -1.0623    0.2889 N   0  0  0  0  0  0  0  0  0  0  0  0
   -2.5094   -0.6612   -0.3122 H   0  0  0  0  0  0  0  0  0  0  0  0
   -0.4513   -0.4545    0.2412 C   0  0  1  0  0  0  0  0  0  0  0  0
    0.1369   -0.8256    1.0863 H   0  0  0  0  0  0  0  0  0  0  0  0
    0.3210   -0.7987   -1.0607 C   0  0  0  0  0  0  0  0  0  0  0  0
    0.3504    0.0804   -1.7136 H   0  0  0  0  0  0  0  0  0  0  0  0
    1.3575   -1.0344   -0.7989 H   0  0  0  0  0  0  0  0  0  0  0  0
   -0.2482   -1.9448   -1.8647 C   0  0  0  0  0  0  0  0  0  0  0  0
   -0.7067   -1.8955   -3.1627 N   0  0  0  0  0  0  0  0  0  0  0  0
   -0.7583   -1.0677   -3.7531 H   0  0  0  0  0  0  0  0  0  0  0  0
   -1.1075   -3.1654   -3.5323 C   0  0  0  0  0  0  0  0  0  0  0  0
   -1.5240   -3.4325   -4.4994 H   0  0  0  0  0  0  0  0  0  0  0  0
   -0.9145   -4.0054   -2.5447 N   0  0  0  0  0  0  0  0  0  0  0  0
   -0.3615   -3.2637   -1.5049 C   0  0  0  0  0  0  0  0  0  0  0  0
   -0.0648   -3.6723   -0.5432 H   0  0  0  0  0  0  0  0  0  0  0  0
   -0.5449    1.0763    0.3861 C   0  0  0  0  0  0  0  0  0  0  0  0
   -1.3694    1.7037   -0.2695 O   0  0  0  0  0  0  0  0  0  0  0  0
    0.3150    1.7554    1.2298 N   0  0  0  0  0  0  0  0  0  0  0  0
    0.9338    1.2001    1.8147 H   0  0  0  0  0  0  0  0  0  0  0  0
    0.2446    3.1950    1.4503 C   0  0  0  0  0  0  0  0  0  0  0  0
   -0.7283    3.4710    1.8707 H   0  0  0  0  0  0  0  0  0  0  0  0
    1.0256    3.5088    2.1494 H   0  0  0  0  0  0  0  0  0  0  0  0
    0.3878    3.7349    0.5083 H   0  0  0  0  0  0  0  0  0  0  0  0
  1  2  1  0  0  0  0
  2  3  1  0  0  0  0
  2  4  1  0  0  0  0
  2  5  1  0  0  0  0
  5  6  2  0  0  0  0
  5  7  1  0  0  0  0
  7  8  1  0  0  0  0
  7  9  1  0  0  0  0
  9 10  1  0  0  0  0
  9 11  1  0  0  0  0
  9 22  1  0  0  0  0
 11 12  1  0  0  0  0
 11 13  1  0  0  0  0
 11 14  1  0  0  0  0
 14 15  1  0  0  0  0
 14 20  2  0  0  0  0
 15 16  1  0  0  0  0
 15 17  1  0  0  0  0
 17 18  1  0  0  0  0
 17 19  2  0  0  0  0
 19 20  1  0  0  0  0
 20 21  1  0  0  0  0
 22 23  2  0  0  0  0
 22 24  1  0  0  0  0
 24 25  1  0  0  0  0
 24 26  1  0  0  0  0
 26 27  1  0  0  0  0
 26 28  1  0  0  0  0
 26 29  1  0  0  0  0
M  END
$$$$

  -OEChem-04042215593D

 29 29  0     1  0  0  0  0  0999 V2000
   -3.6559   -3.6431    1.5900 H   0  0  0  0  0  0  0  0  0  0  0  0
   -3.5640   -2.7527    0.9619 C   0  0  0  0  0  0  0  0  0  0  0  0
   -4.3064   -2.0170    1.2800 H   0  0  0  0  0  0  0  0  0  0  0  0
   -3.7588   -3.0336   -0.0763 H   0  0  0  0  0  0  0  0  0  0  0  0
   -2.1698   -2.1689    1.0842 C   0  0  0  0  0  0  0  0  0  0  0  0
   -1.3540   -2.6826    1.8338 O   0  0  0  0  0  0  0  0  0  0  0  0
   -1.8212   -1.0640    0.3358 N   0  0  0  0  0  0  0  0  0  0  0  0
   -2.5368   -0.6612   -0.2655 H   0  0  0  0  0  0  0  0  0  0  0  0
   -0.4738   -0.4713    0.2683 C   0  0  1  0  0  0  0  0  0  0  0  0
    0.1177   -0.8374    1.1132 H   0  0  0  0  0  0  0  0  0  0  0  0
    0.2921   -0.8230   -1.0385 C   0  0  0  0  0  0  0  0  0  0  0  0
    0.3125    0.0594   -1.6872 H   0  0  0  0  0  0  0  0  0  0  0  0
    1.3318   -1.0491   -0.7813 H   0  0  0  0  0  0  0  0  0  0  0  0
   -0.2557   -1.9638   -1.8683 C   0  0  0  0  0  0  0  0  0  0  0  0
   -0.4220   -1.9632   -3.2363 N   0  0  0  0  0  0  0  0  0  0  0  0
   -0.2648   -1.1751   -3.8612 H   0  0  0  0  0  0  0  0  0  0  0  0
   -0.8702   -3.2103   -3.6273 C   0  0  0  0  0  0  0  0  0  0  0  0
   -1.1107   -3.4969   -4.6472 H   0  0  0  0  0  0  0  0  0  0  0  0
   -0.9648   -4.0011   -2.5869 N   0  0  0  0  0  0  0  0  0  0  0  0
   -0.5569   -3.2486   -1.4899 C   0  0  0  0  0  0  0  0  0  0  0  0
   -0.4707   -3.6363   -0.4798 H   0  0  0  0  0  0  0  0  0  0  0  0
   -0.5583    1.0628    0.3909 C   0  0  0  0  0  0  0  0  0  0  0  0
   -1.3845    1.6867   -0.2658 O   0  0  0  0  0  0  0  0  0  0  0  0
    0.3121    1.7490    1.2182 N   0  0  0  0  0  0  0  0  0  0  0  0
    0.9300    1.1991    1.8090 H   0  0  0  0  0  0  0  0  0  0  0  0
    0.2590    3.1935    1.4099 C   0  0  0  0  0  0  0  0  0  0  0  0
   -0.7041    3.4876    1.8403 H   0  0  0  0  0  0  0  0  0  0  0  0
    1.0546    3.5149    2.0889 H   0  0  0  0  0  0  0  0  0  0  0  0
    0.3915    3.7123    0.4545 H   0  0  0  0  0  0  0  0  0  0  0  0
  1  2  1  0  0  0  0
  2  3  1  0  0  0  0
  2  4  1  0  0  0  0
  2  5  1  0  0  0  0
  5  6  2  0  0  0  0
  5  7  1  0  0  0  0
  7  8  1  0  0  0  0
  7  9  1  0  0  0  0
  9 10  1  0  0  0  0
  9 11  1  0  0  0  0
  9 22  1  0  0  0  0
 11 12  1  0  0  0  0
 11 13  1  0  0  0  0
 11 14  1  0  0  0  0
 14 15  1  0  0  0  0
 14 20  2  0  0  0  0
 15 16  1  0  0  0  0
 15 17  1  0  0  0  0
 17 18  1  0  0  0  0
 17 19  2  0  0  0  0
 19 20  1  0  0  0  0
 20 21  1  0  0  0  0
 22 23  2  0  0  0  0
 22 24  1  0  0  0  0
 24 25  1  0  0  0  0
 24 26  1  0  0  0  0
 26 27  1  0  0  0  0
 26 28  1  0  0  0  0
 26 29  1  0  0  0  0
M  END
$$$$

  -OEChem-04042215593D

 29 29  0     1  0  0  0  0  0999 V2000
   -3.7355   -3.5534    1.7558 H   0  0  0  0  0  0  0  0  0  0  0  0
   -3.6315   -2.6885    1.0947 C   0  0  0  0  0  0  0  0  0  0  0  0
   -4.3337   -1.9142    1.4127 H   0  0  0  0  0  0  0  0  0  0  0  0
   -3.8737   -2.9954    0.0740 H   0  0  0  0  0  0  0  0  0  0  0  0
   -2.2124   -2.1563    1.1508 C   0  0  0  0  0  0  0  0  0  0  0  0
   -1.3877   -2.6871    1.8779 O   0  0  0  0  0  0  0  0  0  0  0  0
   -1.8545   -1.0703    0.3790 N   0  0  0  0  0  0  0  0  0  0  0  0
   -2.5811   -0.6390   -0.1892 H   0  0  0  0  0  0  0  0  0  0  0  0
   -0.5000   -0.4985    0.2831 C   0  0  1  0  0  0  0  0  0  0  0  0
    0.0954   -0.8572    1.1284 H   0  0  0  0  0  0  0  0  0  0  0  0
    0.2657   -0.8571   -1.0253 C   0  0  0  0  0  0  0  0  0  0  0  0
    0.2812    0.0295   -1.6689 H   0  0  0  0  0  0  0  0  0  0  0  0
    1.3068   -1.0725   -0.7649 H   0  0  0  0  0  0  0  0  0  0  0  0
   -0.2472   -1.9910   -1.8907 C   0  0  0  0  0  0  0  0  0  0  0  0
   -0.0991   -2.0550   -3.2604 N   0  0  0  0  0  0  0  0  0  0  0  0
    0.2874   -1.3263   -3.8567 H   0  0  0  0  0  0  0  0  0  0  0  0
   -0.5990   -3.2617   -3.7096 C   0  0  0  0  0  0  0  0  0  0  0  0
   -0.6404   -3.5740   -4.7492 H   0  0  0  0  0  0  0  0  0  0  0  0
   -1.0178   -3.9777   -2.6967 N   0  0  0  0  0  0  0  0  0  0  0  0
   -0.7743   -3.2156   -1.5587 C   0  0  0  0  0  0  0  0  0  0  0  0
   -0.9447   -3.5743   -0.5509 H   0  0  0  0  0  0  0  0  0  0  0  0
   -0.5759    1.0386    0.3820 C   0  0  0  0  0  0  0  0  0  0  0  0
   -1.4177    1.6563   -0.2605 O   0  0  0  0  0  0  0  0  0  0  0  0
    0.3094    1.7322    1.1872 N   0  0  0  0  0  0  0  0  0  0  0  0
    0.9401    1.1877    1.7694 H   0  0  0  0  0  0  0  0  0  0  0  0
    0.2616    3.1785    1.3656 C   0  0  0  0  0  0  0  0  0  0  0  0
   -0.6934    3.4787    1.8095 H   0  0  0  0  0  0  0  0  0  0  0  0
    1.0693    3.5048    2.0278 H   0  0  0  0  0  0  0  0  0  0  0  0
    0.3781    3.6876    0.4031 H   0  0  0  0  0  0  0  0  0  0  0  0
  1  2  1  0  0  0  0
  2  3  1  0  0  0  0
  2  4  1  0  0  0  0
  2  5  1  0  0  0  0
  5  6  2  0  0  0  0
  5  7  1  0  0  0  0
  7  8  1  0  0  0  0
  7  9  1  0  0  0  0
  9 10  1  0  0  0  0
  9 11  1  0  0  0  0
  9 22  1  0  0  0  0
 11 12  1  0  0  0  0
 11 13  1  0  0  0  0
 11 14  1  0  0  0  0
 14 15  1  0  0  0  0
 14 20  2  0  0  0  0
 15 16  1  0  0  0  0
 15 17  1  0  0  0  0
 17 18  1  0  0  0  0
 17 19  2  0  0  0  0
 19 20  1  0  0  0  0
 20 21  1  0  0  0  0
 22 23  2  0  0  0  0
 22 24  1  0  0  0  0
 24 25  1  0  0  0  0
 24 26  1  0  0  0  0
 26 27  1  0  0  0  0
 26 28  1  0  0  0  0
 26 29  1  0  0  0  0
M  END
$$$$

  -OEChem-04042215593D

 29 29  0     1  0  0  0  0  0999 V2000
   -3.7854   -3.4911    1.8963 H   0  0  0  0  0  0  0  0  0  0  0  0
   -3.6864   -2.6161    1.2478 C   0  0  0  0  0  0  0  0  0  0  0  0
   -4.3261   -1.8174    1.6312 H   0  0  0  0  0  0  0  0  0  0  0  0
   -4.0153   -2.8862    0.2413 H   0  0  0  0  0  0  0  0  0  0  0  0
   -2.2425   -2.1528    1.2126 C   0  0  0  0  0  0  0  0  0  0  0  0
   -1.3990   -2.7260    1.8834 O   0  0  0  0  0  0  0  0  0  0  0  0
   -1.8856   -1.0822    0.4184 N   0  0  0  0  0  0  0  0  0  0  0  0
   -2.6286   -0.6015   -0.0862 H   0  0  0  0  0  0  0  0  0  0  0  0
   -0.5263   -0.5312    0.2935 C   0  0  1  0  0  0  0  0  0  0  0  0
    0.0720   -0.8815    1.1408 H   0  0  0  0  0  0  0  0  0  0  0  0
    0.2432   -0.9009   -1.0113 C   0  0  0  0  0  0  0  0  0  0  0  0
    0.2617   -0.0130   -1.6530 H   0  0  0  0  0  0  0  0  0  0  0  0
    1.2819   -1.1089   -0.7356 H   0  0  0  0  0  0  0  0  0  0  0  0
   -0.2278   -2.0303   -1.9103 C   0  0  0  0  0  0  0  0  0  0  0  0
    0.2323   -2.1879   -3.2016 N   0  0  0  0  0  0  0  0  0  0  0  0
    0.8712   -1.5641   -3.6894 H   0  0  0  0  0  0  0  0  0  0  0  0
   -0.3369   -3.3189   -3.7516 C   0  0  0  0  0  0  0  0  0  0  0  0
   -0.1686   -3.6752   -4.7638 H   0  0  0  0  0  0  0  0  0  0  0  0
   -1.1118   -3.9005   -2.8724 N   0  0  0  0  0  0  0  0  0  0  0  0
   -1.0359   -3.1261   -1.7194 C   0  0  0  0  0  0  0  0  0  0  0  0
   -1.5366   -3.3967   -0.8009 H   0  0  0  0  0  0  0  0  0  0  0  0
   -0.5947    1.0078    0.3739 C   0  0  0  0  0  0  0  0  0  0  0  0
   -1.4531    1.6185   -0.2532 O   0  0  0  0  0  0  0  0  0  0  0  0
    0.3044    1.7105    1.1555 N   0  0  0  0  0  0  0  0  0  0  0  0
    0.9472    1.1736    1.7313 H   0  0  0  0  0  0  0  0  0  0  0  0
    0.2637    3.1599    1.3111 C   0  0  0  0  0  0  0  0  0  0  0  0
   -0.6830    3.4707    1.7655 H   0  0  0  0  0  0  0  0  0  0  0  0
    1.0828    3.4947    1.9546 H   0  0  0  0  0  0  0  0  0  0  0  0
    0.3662    3.6529    0.3385 H   0  0  0  0  0  0  0  0  0  0  0  0
  1  2  1  0  0  0  0
  2  3  1  0  0  0  0
  2  4  1  0  0  0  0
  2  5  1  0  0  0  0
  5  6  2  0  0  0  0
  5  7  1  0  0  0  0
  7  8  1  0  0  0  0
  7  9  1  0  0  0  0
  9 10  1  0  0  0  0
  9 11  1  0  0  0  0
  9 22  1  0  0  0  0
 11 12  1  0  0  0  0
 11 13  1  0  0  0  0
 11 14  1  0  0  0  0
 14 15  1  0  0  0  0
 14 20  2  0  0  0  0
 15 16  1  0  0  0  0
 15 17  1  0  0  0  0
 17 18  1  0  0  0  0
 17 19  2  0  0  0  0
 19 20  1  0  0  0  0
 20 21  1  0  0  0  0
 22 23  2  0  0  0  0
 22 24  1  0  0  0  0
 24 25  1  0  0  0  0
 24 26  1  0  0  0  0
 26 27  1  0  0  0  0
 26 28  1  0  0  0  0
 26 29  1  0  0  0  0
M  END
$$$$

  -OEChem-04042215593D

 29 29  0     1  0  0  0  0  0999 V2000
   -3.6869   -3.4914    2.0137 H   0  0  0  0  0  0  0  0  0  0  0  0
   -3.6253   -2.6402    1.3301 C   0  0  0  0  0  0  0  0  0  0  0  0
   -4.2380   -1.8262    1.7245 H   0  0  0  0  0  0  0  0  0  0  0  0
   -4.0168   -2.9429    0.3560 H   0  0  0  0  0  0  0  0  0  0  0  0
   -2.1847   -2.1858    1.1905 C   0  0  0  0  0  0  0  0  0  0  0  0
   -1.2950   -2.7922    1.7660 O   0  0  0  0  0  0  0  0  0  0  0  0
   -1.8849   -1.0818    0.4182 N   0  0  0  0  0  0  0  0  0  0  0  0
   -2.6615   -0.5541    0.0224 H   0  0  0  0  0  0  0  0  0  0  0  0
   -0.5388   -0.5189    0.2497 C   0  0  1  0  0  0  0  0  0  0  0  0
    0.0902   -0.8742    1.0723 H   0  0  0  0  0  0  0  0  0  0  0  0
    0.1928   -0.8832   -1.0773 C   0  0  0  0  0  0  0  0  0  0  0  0
    0.4697    0.0461   -1.5873 H   0  0  0  0  0  0  0  0  0  0  0  0
    1.1288   -1.3742   -0.7926 H   0  0  0  0  0  0  0  0  0  0  0  0
   -0.4585   -1.7692   -2.1294 C   0  0  0  0  0  0  0  0  0  0  0  0
    0.1856   -2.0952   -3.3059 N   0  0  0  0  0  0  0  0  0  0  0  0
    1.1216   -1.8024   -3.5766 H   0  0  0  0  0  0  0  0  0  0  0  0
   -0.6424   -2.8894   -4.0739 C   0  0  0  0  0  0  0  0  0  0  0  0
   -0.3914   -3.2964   -5.0492 H   0  0  0  0  0  0  0  0  0  0  0  0
   -1.7788   -3.0801   -3.4547 N   0  0  0  0  0  0  0  0  0  0  0  0
   -1.6816   -2.3902   -2.2516 C   0  0  0  0  0  0  0  0  0  0  0  0
   -2.4921   -2.3612   -1.5353 H   0  0  0  0  0  0  0  0  0  0  0  0
   -0.6102    1.0151    0.3877 C   0  0  0  0  0  0  0  0  0  0  0  0
   -1.5140    1.6387   -0.1565 O   0  0  0  0  0  0  0  0  0  0  0  0
    0.3220    1.6948    1.1508 N   0  0  0  0  0  0  0  0  0  0  0  0
    1.0123    1.1432    1.6529 H   0  0  0  0  0  0  0  0  0  0  0  0
    0.2723    3.1343    1.3775 C   0  0  0  0  0  0  0  0  0  0  0  0
   -0.6751    3.4162    1.8490 H   0  0  0  0  0  0  0  0  0  0  0  0
    1.0904    3.4417    2.0360 H   0  0  0  0  0  0  0  0  0  0  0  0
    0.3692    3.6751    0.4302 H   0  0  0  0  0  0  0  0  0  0  0  0
  1  2  1  0  0  0  0
  2  3  1  0  0  0  0
  2  4  1  0  0  0  0
  2  5  1  0  0  0  0
  5  6  2  0  0  0  0
  5  7  1  0  0  0  0
  7  8  1  0  0  0  0
  7  9  1  0  0  0  0
  9 10  1  0  0  0  0
  9 11  1  0  0  0  0
  9 22  1  0  0  0  0
 11 12  1  0  0  0  0
 11 13  1  0  0  0  0
 11 14  1  0  0  0  0
 14 15  1  0  0  0  0
 14 20  2  0  0  0  0
 15 16  1  0  0  0  0
 15 17  1  0  0  0  0
 17 18  1  0  0  0  0
 17 19  2  0  0  0  0
 19 20  1  0  0  0  0
 20 21  1  0  0  0  0
 22 23  2  0  0  0  0
 22 24  1  0  0  0  0
 24 25  1  0  0  0  0
 24 26  1  0  0  0  0
 26 27  1  0  0  0  0
 26 28  1  0  0  0  0
 26 29  1  0  0  0  0
M  END
$$$$

  -OEChem-04042215593D

 29 29  0     1  0  0  0  0  0999 V2000
   -3.6724   -3.5153    1.9569 H   0  0  0  0  0  0  0  0  0  0  0  0
   -3.6058   -2.6683    1.2685 C   0  0  0  0  0  0  0  0  0  0  0  0
   -4.2421   -1.8615    1.6399 H   0  0  0  0  0  0  0  0  0  0  0  0
   -3.9644   -2.9839    0.2857 H   0  0  0  0  0  0  0  0  0  0  0  0
   -2.1697   -2.1922    1.1644 C   0  0  0  0  0  0  0  0  0  0  0  0
   -1.2831   -2.7929    1.7510 O   0  0  0  0  0  0  0  0  0  0  0  0
   -1.8711   -1.0791    0.4059 N   0  0  0  0  0  0  0  0  0  0  0  0
   -2.6491   -0.5530    0.0110 H   0  0  0  0  0  0  0  0  0  0  0  0
   -0.5272   -0.5071    0.2493 C   0  0  1  0  0  0  0  0  0  0  0  0
    0.0997   -0.8672    1.0714 H   0  0  0  0  0  0  0  0  0  0  0  0
    0.2045   -0.8696   -1.0771 C   0  0  0  0  0  0  0  0  0  0  0  0
    0.4933    0.0540   -1.5909 H   0  0  0  0  0  0  0  0  0  0  0  0
    1.1336   -1.3716   -0.7887 H   0  0  0  0  0  0  0  0  0  0  0  0
   -0.4677   -1.7580   -2.1134 C   0  0  0  0  0  0  0  0  0  0  0  0
    0.2219   -2.3567   -3.1478 N   0  0  0  0  0  0  0  0  0  0  0  0
    1.2265   -2.3127   -3.3020 H   0  0  0  0  0  0  0  0  0  0  0  0
   -0.6670   -3.0556   -3.9410 C   0  0  0  0  0  0  0  0  0  0  0  0
   -0.3992   -3.6375   -4.8183 H   0  0  0  0  0  0  0  0  0  0  0  0
   -1.8842   -2.9137   -3.4819 N   0  0  0  0  0  0  0  0  0  0  0  0
   -1.7783   -2.0991   -2.3603 C   0  0  0  0  0  0  0  0  0  0  0  0
   -2.6402   -1.7693   -1.7924 H   0  0  0  0  0  0  0  0  0  0  0  0
   -0.6011    1.0249    0.4013 C   0  0  0  0  0  0  0  0  0  0  0  0
   -1.5036    1.6505   -0.1428 O   0  0  0  0  0  0  0  0  0  0  0  0
    0.3257    1.7011    1.1740 N   0  0  0  0  0  0  0  0  0  0  0  0
    1.0119    1.1472    1.6791 H   0  0  0  0  0  0  0  0  0  0  0  0
    0.2707    3.1388    1.4107 C   0  0  0  0  0  0  0  0  0  0  0  0
   -0.6654    3.4099    1.9103 H   0  0  0  0  0  0  0  0  0  0  0  0
    1.1051    3.4496    2.0468 H   0  0  0  0  0  0  0  0  0  0  0  0
    0.3361    3.6860    0.4643 H   0  0  0  0  0  0  0  0  0  0  0  0
  1  2  1  0  0  0  0
  2  3  1  0  0  0  0
  2  4  1  0  0  0  0
  2  5  1  0  0  0  0
  5  6  2  0  0  0  0
  5  7  1  0  0  0  0
  7  8  1  0  0  0  0
  7  9  1  0  0  0  0
  9 10  1  0  0  0  0
  9 11  1  0  0  0  0
  9 22  1  0  0  0  0
 11 12  1  0  0  0  0
 11 13  1  0  0  0  0
 11 14  1  0  0  0  0
 14 15  1  0  0  0  0
 14 20  2  0  0  0  0
 15 16  1  0  0  0  0
 15 17  1  0  0  0  0
 17 18  1  0  0  0  0
 17 19  2  0  0  0  0
 19 20  1  0  0  0  0
 20 21  1  0  0  0  0
 22 23  2  0  0  0  0
 22 24  1  0  0  0  0
 24 25  1  0  0  0  0
 24 26  1  0  0  0  0
 26 27  1  0  0  0  0
 26 28  1  0  0  0  0
 26 29  1  0  0  0  0
M  END
$$$$

  -OEChem-04042215593D

 29 29  0     1  0  0  0  0  0999 V2000
   -3.6549   -3.5684    1.8452 H   0  0  0  0  0  0  0  0  0  0  0  0
   -3.5875   -2.6966    1.1887 C   0  0  0  0  0  0  0  0  0  0  0  0
   -4.2379   -1.9105    1.5793 H   0  0  0  0  0  0  0  0  0  0  0  0
   -3.9277   -2.9806    0.1896 H   0  0  0  0  0  0  0  0  0  0  0  0
   -2.1555   -2.2015    1.1239 C   0  0  0  0  0  0  0  0  0  0  0  0
   -1.2763   -2.7925    1.7317 O   0  0  0  0  0  0  0  0  0  0  0  0
   -1.8517   -1.0831    0.3761 N   0  0  0  0  0  0  0  0  0  0  0  0
   -2.6259   -0.5678   -0.0392 H   0  0  0  0  0  0  0  0  0  0  0  0
   -0.5083   -0.4985    0.2499 C   0  0  1  0  0  0  0  0  0  0  0  0
    0.1080   -0.8590    1.0796 H   0  0  0  0  0  0  0  0  0  0  0  0
    0.2370   -0.8567   -1.0683 C   0  0  0  0  0  0  0  0  0  0  0  0
    0.5298    0.0625   -1.5874 H   0  0  0  0  0  0  0  0  0  0  0  0
    1.1636   -1.3618   -0.7780 H   0  0  0  0  0  0  0  0  0  0  0  0
   -0.4592   -1.7461   -2.0825 C   0  0  0  0  0  0  0  0  0  0  0  0
    0.1837   -2.6089   -2.9448 N   0  0  0  0  0  0  0  0  0  0  0  0
    1.1820   -2.8050   -2.9645 H   0  0  0  0  0  0  0  0  0  0  0  0
   -0.7551   -3.1995   -3.7686 C   0  0  0  0  0  0  0  0  0  0  0  0
   -0.5377   -3.9392   -4.5338 H   0  0  0  0  0  0  0  0  0  0  0  0
   -1.9495   -2.7372   -3.4942 N   0  0  0  0  0  0  0  0  0  0  0  0
   -1.7771   -1.8176   -2.4659 C   0  0  0  0  0  0  0  0  0  0  0  0
   -2.5828   -1.2226   -2.0487 H   0  0  0  0  0  0  0  0  0  0  0  0
   -0.5931    1.0320    0.4049 C   0  0  0  0  0  0  0  0  0  0  0  0
   -1.4837    1.6537   -0.1628 O   0  0  0  0  0  0  0  0  0  0  0  0
    0.3133    1.7112    1.1987 N   0  0  0  0  0  0  0  0  0  0  0  0
    0.9894    1.1598    1.7198 H   0  0  0  0  0  0  0  0  0  0  0  0
    0.2520    3.1496    1.4290 C   0  0  0  0  0  0  0  0  0  0  0  0
   -0.6915    3.4204    1.9143 H   0  0  0  0  0  0  0  0  0  0  0  0
    1.0769    3.4650    2.0751 H   0  0  0  0  0  0  0  0  0  0  0  0
    0.3299    3.6932    0.4816 H   0  0  0  0  0  0  0  0  0  0  0  0
  1  2  1  0  0  0  0
  2  3  1  0  0  0  0
  2  4  1  0  0  0  0
  2  5  1  0  0  0  0
  5  6  2  0  0  0  0
  5  7  1  0  0  0  0
  7  8  1  0  0  0  0
  7  9  1  0  0  0  0
  9 10  1  0  0  0  0
  9 11  1  0  0  0  0
  9 22  1  0  0  0  0
 11 12  1  0  0  0  0
 11 13  1  0  0  0  0
 11 14  1  0  0  0  0
 14 15  1  0  0  0  0
 14 20  2  0  0  0  0
 15 16  1  0  0  0  0
 15 17  1  0  0  0  0
 17 18  1  0  0  0  0
 17 19  2  0  0  0  0
 19 20  1  0  0  0  0
 20 21  1  0  0  0  0
 22 23  2  0  0  0  0
 22 24  1  0  0  0  0
 24 25  1  0  0  0  0
 24 26  1  0  0  0  0
 26 27  1  0  0  0  0
 26 28  1  0  0  0  0
 26 29  1  0  0  0  0
M  END
$$$$

  -OEChem-04042215593D

 29 29  0     1  0  0  0  0  0999 V2000
   -3.6325   -3.6245    1.7155 H   0  0  0  0  0  0  0  0  0  0  0  0
   -3.5599   -2.7349    1.0839 C   0  0  0  0  0  0  0  0  0  0  0  0
   -4.2427   -1.9729    1.4670 H   0  0  0  0  0  0  0  0  0  0  0  0
   -3.8545   -3.0007    0.0654 H   0  0  0  0  0  0  0  0  0  0  0  0
   -2.1383   -2.2064    1.0856 C   0  0  0  0  0  0  0  0  0  0  0  0
   -1.2715   -2.7806    1.7269 O   0  0  0  0  0  0  0  0  0  0  0  0
   -1.8282   -1.0826    0.3493 N   0  0  0  0  0  0  0  0  0  0  0  0
   -2.5932   -0.5967   -0.1145 H   0  0  0  0  0  0  0  0  0  0  0  0
   -0.4874   -0.4830    0.2524 C   0  0  1  0  0  0  0  0  0  0  0  0
    0.1202   -0.8438    1.0883 H   0  0  0  0  0  0  0  0  0  0  0  0
    0.2670   -0.8387   -1.0594 C   0  0  0  0  0  0  0  0  0  0  0  0
    0.5454    0.0794   -1.5885 H   0  0  0  0  0  0  0  0  0  0  0  0
    1.1999   -1.3364   -0.7778 H   0  0  0  0  0  0  0  0  0  0  0  0
   -0.4588   -1.7316   -2.0439 C   0  0  0  0  0  0  0  0  0  0  0  0
    0.0691   -2.8158   -2.7103 N   0  0  0  0  0  0  0  0  0  0  0  0
    0.9983   -3.2092   -2.5783 H   0  0  0  0  0  0  0  0  0  0  0  0
   -0.8941   -3.3203   -3.5637 C   0  0  0  0  0  0  0  0  0  0  0  0
   -0.7693   -4.1906   -4.2016 H   0  0  0  0  0  0  0  0  0  0  0  0
   -1.9847   -2.5966   -3.4931 N   0  0  0  0  0  0  0  0  0  0  0  0
   -1.7186   -1.5909   -2.5704 C   0  0  0  0  0  0  0  0  0  0  0  0
   -2.4129   -0.7975   -2.3101 H   0  0  0  0  0  0  0  0  0  0  0  0
   -0.5829    1.0465    0.4097 C   0  0  0  0  0  0  0  0  0  0  0  0
   -1.4560    1.6664   -0.1864 O   0  0  0  0  0  0  0  0  0  0  0  0
    0.3035    1.7295    1.2227 N   0  0  0  0  0  0  0  0  0  0  0  0
    0.9728    1.1817    1.7564 H   0  0  0  0  0  0  0  0  0  0  0  0
    0.2397    3.1699    1.4403 C   0  0  0  0  0  0  0  0  0  0  0  0
   -0.7151    3.4464    1.8995 H   0  0  0  0  0  0  0  0  0  0  0  0
    1.0488    3.4882    2.1045 H   0  0  0  0  0  0  0  0  0  0  0  0
    0.3422    3.7064    0.4911 H   0  0  0  0  0  0  0  0  0  0  0  0
  1  2  1  0  0  0  0
  2  3  1  0  0  0  0
  2  4  1  0  0  0  0
  2  5  1  0  0  0  0
  5  6  2  0  0  0  0
  5  7  1  0  0  0  0
  7  8  1  0  0  0  0
  7  9  1  0  0  0  0
  9 10  1  0  0  0  0
  9 11  1  0  0  0  0
  9 22  1  0  0  0  0
 11 12  1  0  0  0  0
 11 13  1  0  0  0  0
 11 14  1  0  0  0  0
 14 15  1  0  0  0  0
 14 20  2  0  0  0  0
 15 16  1  0  0  0  0
 15 17  1  0  0  0  0
 17 18  1  0  0  0  0
 17 19  2  0  0  0  0
 19 20  1  0  0  0  0
 20 21  1  0  0  0  0
 22 23  2  0  0  0  0
 22 24  1  0  0  0  0
 24 25  1  0  0  0  0
 24 26  1  0  0  0  0
 26 27  1  0  0  0  0
 26 28  1  0  0  0  0
 26 29  1  0  0  0  0
M  END
$$$$

  -OEChem-04042215593D

 29 29  0     1  0  0  0  0  0999 V2000
   -3.6077   -3.6598    1.6179 H   0  0  0  0  0  0  0  0  0  0  0  0
   -3.5347   -2.7571    1.0053 C   0  0  0  0  0  0  0  0  0  0  0  0
   -4.2369   -2.0128    1.3877 H   0  0  0  0  0  0  0  0  0  0  0  0
   -3.8033   -3.0070   -0.0242 H   0  0  0  0  0  0  0  0  0  0  0  0
   -2.1221   -2.2073    1.0482 C   0  0  0  0  0  0  0  0  0  0  0  0
   -1.2621   -2.7764    1.7034 O   0  0  0  0  0  0  0  0  0  0  0  0
   -1.8094   -1.0779    0.3225 N   0  0  0  0  0  0  0  0  0  0  0  0
   -2.5650   -0.6164   -0.1797 H   0  0  0  0  0  0  0  0  0  0  0  0
   -0.4717   -0.4664    0.2469 C   0  0  1  0  0  0  0  0  0  0  0  0
    0.1303   -0.8290    1.0863 H   0  0  0  0  0  0  0  0  0  0  0  0
    0.2870   -0.8212   -1.0610 C   0  0  0  0  0  0  0  0  0  0  0  0
    0.5478    0.0977   -1.5980 H   0  0  0  0  0  0  0  0  0  0  0  0
    1.2285   -1.3097   -0.7917 H   0  0  0  0  0  0  0  0  0  0  0  0
   -0.4651   -1.7178   -2.0186 C   0  0  0  0  0  0  0  0  0  0  0  0
   -0.0884   -2.9629   -2.4704 N   0  0  0  0  0  0  0  0  0  0  0  0
    0.7265   -3.4928   -2.1683 H   0  0  0  0  0  0  0  0  0  0  0  0
   -1.0436   -3.4096   -3.3642 C   0  0  0  0  0  0  0  0  0  0  0  0
   -1.0248   -4.3713   -3.8690 H   0  0  0  0  0  0  0  0  0  0  0  0
   -1.9808   -2.5049   -3.5157 N   0  0  0  0  0  0  0  0  0  0  0  0
   -1.6216   -1.4370   -2.7002 C   0  0  0  0  0  0  0  0  0  0  0  0
   -2.1814   -0.5103   -2.6125 H   0  0  0  0  0  0  0  0  0  0  0  0
   -0.5745    1.0620    0.4090 C   0  0  0  0  0  0  0  0  0  0  0  0
   -1.4330    1.6827   -0.2071 O   0  0  0  0  0  0  0  0  0  0  0  0
    0.2987    1.7441    1.2368 N   0  0  0  0  0  0  0  0  0  0  0  0
    0.9513    1.1946    1.7889 H   0  0  0  0  0  0  0  0  0  0  0  0
    0.2347    3.1850    1.4508 C   0  0  0  0  0  0  0  0  0  0  0  0
   -0.7266    3.4642    1.8947 H   0  0  0  0  0  0  0  0  0  0  0  0
    1.0341    3.5024    2.1271 H   0  0  0  0  0  0  0  0  0  0  0  0
    0.3534    3.7196    0.5024 H   0  0  0  0  0  0  0  0  0  0  0  0
  1  2  1  0  0  0  0
  2  3  1  0  0  0  0
  2  4  1  0  0  0  0
  2  5  1  0  0  0  0
  5  6  2  0  0  0  0
  5  7  1  0  0  0  0
  7  8  1  0  0  0  0
  7  9  1  0  0  0  0
  9 10  1  0  0  0  0
  9 11  1  0  0  0  0
  9 22  1  0  0  0  0
 11 12  1  0  0  0  0
 11 13  1  0  0  0  0
 11 14  1  0  0  0  0
 14 15  1  0  0  0  0
 14 20  2  0  0  0  0
 15 16  1  0  0  0  0
 15 17  1  0  0  0  0
 17 18  1  0  0  0  0
 17 19  2  0  0  0  0
 19 20  1  0  0  0  0
 20 21  1  0  0  0  0
 22 23  2  0  0  0  0
 22 24  1  0  0  0  0
 24 25  1  0  0  0  0
 24 26  1  0  0  0  0
 26 27  1  0  0  0  0
 26 28  1  0  0  0  0
 26 29  1  0  0  0  0
M  END
$$$$

  -OEChem-04042215593D

 29 29  0     1  0  0  0  0  0999 V2000
   -3.5946   -3.6713    1.5729 H   0  0  0  0  0  0  0  0  0  0  0  0
   -3.5257   -2.7622    0.9691 C   0  0  0  0  0  0  0  0  0  0  0  0
   -4.2303   -2.0243    1.3599 H   0  0  0  0  0  0  0  0  0  0  0  0
   -3.7949   -3.0023   -0.0627 H   0  0  0  0  0  0  0  0  0  0  0  0
   -2.1151   -2.2076    1.0168 C   0  0  0  0  0  0  0  0  0  0  0  0
   -1.2521   -2.7838    1.6621 O   0  0  0  0  0  0  0  0  0  0  0  0
   -1.8049   -1.0716    0.3007 N   0  0  0  0  0  0  0  0  0  0  0  0
   -2.5555   -0.6220   -0.2198 H   0  0  0  0  0  0  0  0  0  0  0  0
   -0.4693   -0.4533    0.2360 C   0  0  1  0  0  0  0  0  0  0  0  0
    0.1305   -0.8204    1.0746 H   0  0  0  0  0  0  0  0  0  0  0  0
    0.2915   -0.8049   -1.0697 C   0  0  0  0  0  0  0  0  0  0  0  0
    0.5392    0.1164   -1.6087 H   0  0  0  0  0  0  0  0  0  0  0  0
    1.2395   -1.2866   -0.8119 H   0  0  0  0  0  0  0  0  0  0  0  0
   -0.4745   -1.7023   -2.0121 C   0  0  0  0  0  0  0  0  0  0  0  0
   -0.2687   -3.0436   -2.2440 N   0  0  0  0  0  0  0  0  0  0  0  0
    0.3940   -3.6445   -1.7578 H   0  0  0  0  0  0  0  0  0  0  0  0
   -1.1777   -3.4629   -3.1967 C   0  0  0  0  0  0  0  0  0  0  0  0
   -1.2673   -4.4795   -3.5691 H   0  0  0  0  0  0  0  0  0  0  0  0
   -1.9243   -2.4563   -3.5844 N   0  0  0  0  0  0  0  0  0  0  0  0
   -1.4856   -1.3481   -2.8663 C   0  0  0  0  0  0  0  0  0  0  0  0
   -1.8923   -0.3455   -2.9619 H   0  0  0  0  0  0  0  0  0  0  0  0
   -0.5720    1.0738    0.4079 C   0  0  0  0  0  0  0  0  0  0  0  0
   -1.4230    1.7006   -0.2122 O   0  0  0  0  0  0  0  0  0  0  0  0
    0.2983    1.7492    1.2443 N   0  0  0  0  0  0  0  0  0  0  0  0
    0.9481    1.1954    1.7956 H   0  0  0  0  0  0  0  0  0  0  0  0
    0.2387    3.1895    1.4632 C   0  0  0  0  0  0  0  0  0  0  0  0
   -0.7234    3.4710    1.9039 H   0  0  0  0  0  0  0  0  0  0  0  0
    1.0363    3.5022    2.1439 H   0  0  0  0  0  0  0  0  0  0  0  0
    0.3637    3.7260    0.5167 H   0  0  0  0  0  0  0  0  0  0  0  0
  1  2  1  0  0  0  0
  2  3  1  0  0  0  0
  2  4  1  0  0  0  0
  2  5  1  0  0  0  0
  5  6  2  0  0  0  0
  5  7  1  0  0  0  0
  7  8  1  0  0  0  0
  7  9  1  0  0  0  0
  9 10  1  0  0  0  0
  9 11  1  0  0  0  0
  9 22  1  0  0  0  0
 11 12  1  0  0  0  0
 11 13  1  0  0  0  0
 11 14  1  0  0  0  0
 14 15  1  0  0  0  0
 14 20  2  0  0  0  0
 15 16  1  0  0  0  0
 15 17  1  0  0  0  0
 17 18  1  0  0  0  0
 17 19  2  0  0  0  0
 19 20  1  0  0  0  0
 20 21  1  0  0  0  0
 22 23  2  0  0  0  0
 22 24  1  0  0  0  0
 24 25  1  0  0  0  0
 24 26  1  0  0  0  0
 26 27  1  0  0  0  0
 26 28  1  0  0  0  0
 26 29  1  0  0  0  0
M  END
$$$$

  -OEChem-04042215593D

 29 29  0     1  0  0  0  0  0999 V2000
   -3.6045   -3.6554    1.5652 H   0  0  0  0  0  0  0  0  0  0  0  0
   -3.5351   -2.7436    0.9656 C   0  0  0  0  0  0  0  0  0  0  0  0
   -4.2181   -1.9974    1.3786 H   0  0  0  0  0  0  0  0  0  0  0  0
   -3.8334   -2.9721   -0.0607 H   0  0  0  0  0  0  0  0  0  0  0  0
   -2.1150   -2.2114    0.9821 C   0  0  0  0  0  0  0  0  0  0  0  0
   -1.2374   -2.8245    1.5713 O   0  0  0  0  0  0  0  0  0  0  0  0
   -1.8096   -1.0650    0.2816 N   0  0  0  0  0  0  0  0  0  0  0  0
   -2.5691   -0.5947   -0.2072 H   0  0  0  0  0  0  0  0  0  0  0  0
   -0.4771   -0.4398    0.2174 C   0  0  1  0  0  0  0  0  0  0  0  0
    0.1228   -0.8148    1.0526 H   0  0  0  0  0  0  0  0  0  0  0  0
    0.2843   -0.7865   -1.0878 C   0  0  0  0  0  0  0  0  0  0  0  0
    0.5226    0.1376   -1.6261 H   0  0  0  0  0  0  0  0  0  0  0  0
    1.2363   -1.2634   -0.8350 H   0  0  0  0  0  0  0  0  0  0  0  0
   -0.4836   -1.6881   -2.0235 C   0  0  0  0  0  0  0  0  0  0  0  0
   -0.4658   -3.0645   -2.0430 N   0  0  0  0  0  0  0  0  0  0  0  0
    0.0139   -3.6686   -1.3775 H   0  0  0  0  0  0  0  0  0  0  0  0
   -1.2929   -3.4937   -3.0628 C   0  0  0  0  0  0  0  0  0  0  0  0
   -1.4907   -4.5327   -3.3106 H   0  0  0  0  0  0  0  0  0  0  0  0
   -1.8127   -2.4635   -3.6873 N   0  0  0  0  0  0  0  0  0  0  0  0
   -1.3067   -1.3298   -3.0578 C   0  0  0  0  0  0  0  0  0  0  0  0
   -1.5377   -0.3072   -3.3412 H   0  0  0  0  0  0  0  0  0  0  0  0
   -0.5765    1.0852    0.4094 C   0  0  0  0  0  0  0  0  0  0  0  0
   -1.4378    1.7200   -0.1874 O   0  0  0  0  0  0  0  0  0  0  0  0
    0.3005    1.7486    1.2486 N   0  0  0  0  0  0  0  0  0  0  0  0
    0.9640    1.1886    1.7767 H   0  0  0  0  0  0  0  0  0  0  0  0
    0.2471    3.1863    1.4854 C   0  0  0  0  0  0  0  0  0  0  0  0
   -0.7140    3.4661    1.9294 H   0  0  0  0  0  0  0  0  0  0  0  0
    1.0459    3.4869    2.1703 H   0  0  0  0  0  0  0  0  0  0  0  0
    0.3740    3.7348    0.5459 H   0  0  0  0  0  0  0  0  0  0  0  0
  1  2  1  0  0  0  0
  2  3  1  0  0  0  0
  2  4  1  0  0  0  0
  2  5  1  0  0  0  0
  5  6  2  0  0  0  0
  5  7  1  0  0  0  0
  7  8  1  0  0  0  0
  7  9  1  0  0  0  0
  9 10  1  0  0  0  0
  9 11  1  0  0  0  0
  9 22  1  0  0  0  0
 11 12  1  0  0  0  0
 11 13  1  0  0  0  0
 11 14  1  0  0  0  0
 14 15  1  0  0  0  0
 14 20  2  0  0  0  0
 15 16  1  0  0  0  0
 15 17  1  0  0  0  0
 17 18  1  0  0  0  0
 17 19  2  0  0  0  0
 19 20  1  0  0  0  0
 20 21  1  0  0  0  0
 22 23  2  0  0  0  0
 22 24  1  0  0  0  0
 24 25  1  0  0  0  0
 24 26  1  0  0  0  0
 26 27  1  0  0  0  0
 26 28  1  0  0  0  0
 26 29  1  0  0  0  0
M  END
$$$$

  -OEChem-04042215593D

 29 29  0     1  0  0  0  0  0999 V2000
   -3.6268   -3.6024    1.6162 H   0  0  0  0  0  0  0  0  0  0  0  0
   -3.5635   -2.6842    1.0258 C   0  0  0  0  0  0  0  0  0  0  0  0
   -4.1813   -1.9177    1.4996 H   0  0  0  0  0  0  0  0  0  0  0  0
   -3.9475   -2.8815    0.0219 H   0  0  0  0  0  0  0  0  0  0  0  0
   -2.1247   -2.2121    0.9434 C   0  0  0  0  0  0  0  0  0  0  0  0
   -1.2283   -2.8912    1.4221 O   0  0  0  0  0  0  0  0  0  0  0  0
   -1.8217   -1.0584    0.2547 N   0  0  0  0  0  0  0  0  0  0  0  0
   -2.5959   -0.5346   -0.1503 H   0  0  0  0  0  0  0  0  0  0  0  0
   -0.4881   -0.4358    0.1865 C   0  0  1  0  0  0  0  0  0  0  0  0
    0.1074   -0.8186    1.0214 H   0  0  0  0  0  0  0  0  0  0  0  0
    0.2843   -0.7791   -1.1130 C   0  0  0  0  0  0  0  0  0  0  0  0
    0.5283    0.1467   -1.6458 H   0  0  0  0  0  0  0  0  0  0  0  0
    1.2331   -1.2572   -0.8498 H   0  0  0  0  0  0  0  0  0  0  0  0
   -0.4668   -1.6834   -2.0591 C   0  0  0  0  0  0  0  0  0  0  0  0
   -0.6664   -3.0372   -1.9053 N   0  0  0  0  0  0  0  0  0  0  0  0
   -0.4040   -3.5916   -1.0899 H   0  0  0  0  0  0  0  0  0  0  0  0
   -1.3865   -3.4952   -2.9911 C   0  0  0  0  0  0  0  0  0  0  0  0
   -1.7074   -4.5225   -3.1389 H   0  0  0  0  0  0  0  0  0  0  0  0
   -1.6353   -2.5065   -3.8172 N   0  0  0  0  0  0  0  0  0  0  0  0
   -1.0608   -1.3709   -3.2523 C   0  0  0  0  0  0  0  0  0  0  0  0
   -1.0842   -0.3785   -3.6929 H   0  0  0  0  0  0  0  0  0  0  0  0
   -0.5847    1.0868    0.3976 C   0  0  0  0  0  0  0  0  0  0  0  0
   -1.4728    1.7240   -0.1557 O   0  0  0  0  0  0  0  0  0  0  0  0
    0.2996    1.7401    1.2370 N   0  0  0  0  0  0  0  0  0  0  0  0
    0.9898    1.1781    1.7272 H   0  0  0  0  0  0  0  0  0  0  0  0
    0.2281    3.1694    1.5165 C   0  0  0  0  0  0  0  0  0  0  0  0
   -0.7318    3.4222    1.9791 H   0  0  0  0  0  0  0  0  0  0  0  0
    1.0297    3.4617    2.2016 H   0  0  0  0  0  0  0  0  0  0  0  0
    0.3367    3.7463    0.5920 H   0  0  0  0  0  0  0  0  0  0  0  0
  1  2  1  0  0  0  0
  2  3  1  0  0  0  0
  2  4  1  0  0  0  0
  2  5  1  0  0  0  0
  5  6  2  0  0  0  0
  5  7  1  0  0  0  0
  7  8  1  0  0  0  0
  7  9  1  0  0  0  0
  9 10  1  0  0  0  0
  9 11  1  0  0  0  0
  9 22  1  0  0  0  0
 11 12  1  0  0  0  0
 11 13  1  0  0  0  0
 11 14  1  0  0  0  0
 14 15  1  0  0  0  0
 14 20  2  0  0  0  0
 15 16  1  0  0  0  0
 15 17  1  0  0  0  0
 17 18  1  0  0  0  0
 17 19  2  0  0  0  0
 19 20  1  0  0  0  0
 20 21  1  0  0  0  0
 22 23  2  0  0  0  0
 22 24  1  0  0  0  0
 24 25  1  0  0  0  0
 24 26  1  0  0  0  0
 26 27  1  0  0  0  0
 26 28  1  0  0  0  0
 26 29  1  0  0  0  0
M  END
$$$$

  -OEChem-04042215593D

 29 29  0     1  0  0  0  0  0999 V2000
   -3.6569   -3.5511    1.7033 H   0  0  0  0  0  0  0  0  0  0  0  0
   -3.5971   -2.6311    1.1154 C   0  0  0  0  0  0  0  0  0  0  0  0
   -4.1559   -1.8466    1.6314 H   0  0  0  0  0  0  0  0  0  0  0  0
   -4.0495   -2.8064    0.1362 H   0  0  0  0  0  0  0  0  0  0  0  0
   -2.1501   -2.2104    0.9473 C   0  0  0  0  0  0  0  0  0  0  0  0
   -1.2497   -2.9380    1.3382 O   0  0  0  0  0  0  0  0  0  0  0  0
   -1.8467   -1.0580    0.2577 N   0  0  0  0  0  0  0  0  0  0  0  0
   -2.6271   -0.4950   -0.0777 H   0  0  0  0  0  0  0  0  0  0  0  0
   -0.5112   -0.4413    0.1755 C   0  0  1  0  0  0  0  0  0  0  0  0
    0.0823   -0.8250    1.0115 H   0  0  0  0  0  0  0  0  0  0  0  0
    0.2740   -0.7794   -1.1196 C   0  0  0  0  0  0  0  0  0  0  0  0
    0.5305    0.1488   -1.6421 H   0  0  0  0  0  0  0  0  0  0  0  0
    1.2171   -1.2577   -0.8373 H   0  0  0  0  0  0  0  0  0  0  0  0
   -0.4377   -1.6871   -2.0948 C   0  0  0  0  0  0  0  0  0  0  0  0
   -0.8750   -2.9712   -1.8551 N   0  0  0  0  0  0  0  0  0  0  0  0
   -0.8006   -3.4695   -0.9662 H   0  0  0  0  0  0  0  0  0  0  0  0
   -1.4719   -3.4519   -3.0037 C   0  0  0  0  0  0  0  0  0  0  0  0
   -1.9140   -4.4381   -3.1124 H   0  0  0  0  0  0  0  0  0  0  0  0
   -1.4307   -2.5408   -3.9469 N   0  0  0  0  0  0  0  0  0  0  0  0
   -0.7872   -1.4364   -3.3947 C   0  0  0  0  0  0  0  0  0  0  0  0
   -0.5920   -0.5067   -3.9206 H   0  0  0  0  0  0  0  0  0  0  0  0
   -0.6042    1.0814    0.3903 C   0  0  0  0  0  0  0  0  0  0  0  0
   -1.5152    1.7160   -0.1276 O   0  0  0  0  0  0  0  0  0  0  0  0
    0.2905    1.7314    1.2214 N   0  0  0  0  0  0  0  0  0  0  0  0
    1.0012    1.1706    1.6830 H   0  0  0  0  0  0  0  0  0  0  0  0
    0.2181    3.1578    1.5155 C   0  0  0  0  0  0  0  0  0  0  0  0
   -0.7386    3.4039    1.9883 H   0  0  0  0  0  0  0  0  0  0  0  0
    1.0244    3.4445    2.1975 H   0  0  0  0  0  0  0  0  0  0  0  0
    0.3183    3.7442    0.5960 H   0  0  0  0  0  0  0  0  0  0  0  0
  1  2  1  0  0  0  0
  2  3  1  0  0  0  0
  2  4  1  0  0  0  0
  2  5  1  0  0  0  0
  5  6  2  0  0  0  0
  5  7  1  0  0  0  0
  7  8  1  0  0  0  0
  7  9  1  0  0  0  0
  9 10  1  0  0  0  0
  9 11  1  0  0  0  0
  9 22  1  0  0  0  0
 11 12  1  0  0  0  0
 11 13  1  0  0  0  0
 11 14  1  0  0  0  0
 14 15  1  0  0  0  0
 14 20  2  0  0  0  0
 15 16  1  0  0  0  0
 15 17  1  0  0  0  0
 17 18  1  0  0  0  0
 17 19  2  0  0  0  0
 19 20  1  0  0  0  0
 20 21  1  0  0  0  0
 22 23  2  0  0  0  0
 22 24  1  0  0  0  0
 24 25  1  0  0  0  0
 24 26  1  0  0  0  0
 26 27  1  0  0  0  0
 26 28  1  0  0  0  0
 26 29  1  0  0  0  0
M  END
$$$$

  -OEChem-04042215593D

 29 29  0     1  0  0  0  0  0999 V2000
   -3.6881   -3.4949    1.8217 H   0  0  0  0  0  0  0  0  0  0  0  0
   -3.6283   -2.5798    1.2257 C   0  0  0  0  0  0  0  0  0  0  0  0
   -4.1342   -1.7753    1.7652 H   0  0  0  0  0  0  0  0  0  0  0  0
   -4.1365   -2.7443    0.2724 H   0  0  0  0  0  0  0  0  0  0  0  0
   -2.1785   -2.2078    0.9821 C   0  0  0  0  0  0  0  0  0  0  0  0
   -1.2844   -2.9683    1.3175 O   0  0  0  0  0  0  0  0  0  0  0  0
   -1.8710   -1.0644    0.2805 N   0  0  0  0  0  0  0  0  0  0  0  0
   -2.6507   -0.4728   -0.0051 H   0  0  0  0  0  0  0  0  0  0  0  0
   -0.5316   -0.4588    0.1780 C   0  0  1  0  0  0  0  0  0  0  0  0
    0.0627   -0.8388    1.0152 H   0  0  0  0  0  0  0  0  0  0  0  0
    0.2631   -0.7926   -1.1155 C   0  0  0  0  0  0  0  0  0  0  0  0
    0.5344    0.1384   -1.6255 H   0  0  0  0  0  0  0  0  0  0  0  0
    1.1997   -1.2731   -0.8157 H   0  0  0  0  0  0  0  0  0  0  0  0
   -0.4061   -1.6994   -2.1241 C   0  0  0  0  0  0  0  0  0  0  0  0
   -1.0857   -2.8737   -1.8871 N   0  0  0  0  0  0  0  0  0  0  0  0
   -1.1774   -3.3309   -0.9782 H   0  0  0  0  0  0  0  0  0  0  0  0
   -1.5550   -3.3643   -3.0890 C   0  0  0  0  0  0  0  0  0  0  0  0
   -2.1158   -4.2864   -3.2116 H   0  0  0  0  0  0  0  0  0  0  0  0
   -1.2227   -2.5536   -4.0649 N   0  0  0  0  0  0  0  0  0  0  0  0
   -0.5114   -1.5111   -3.4773 C   0  0  0  0  0  0  0  0  0  0  0  0
   -0.0992   -0.6645   -4.0183 H   0  0  0  0  0  0  0  0  0  0  0  0
   -0.6232    1.0654    0.3834 C   0  0  0  0  0  0  0  0  0  0  0  0
   -1.5514    1.6933   -0.1117 O   0  0  0  0  0  0  0  0  0  0  0  0
    0.2801    1.7207    1.2006 N   0  0  0  0  0  0  0  0  0  0  0  0
    1.0081    1.1666    1.6429 H   0  0  0  0  0  0  0  0  0  0  0  0
    0.2073    3.1479    1.4906 C   0  0  0  0  0  0  0  0  0  0  0  0
   -0.7451    3.3935    1.9725 H   0  0  0  0  0  0  0  0  0  0  0  0
    1.0197    3.4393    2.1634 H   0  0  0  0  0  0  0  0  0  0  0  0
    0.2966    3.7313    0.5680 H   0  0  0  0  0  0  0  0  0  0  0  0
  1  2  1  0  0  0  0
  2  3  1  0  0  0  0
  2  4  1  0  0  0  0
  2  5  1  0  0  0  0
  5  6  2  0  0  0  0
  5  7  1  0  0  0  0
  7  8  1  0  0  0  0
  7  9  1  0  0  0  0
  9 10  1  0  0  0  0
  9 11  1  0  0  0  0
  9 22  1  0  0  0  0
 11 12  1  0  0  0  0
 11 13  1  0  0  0  0
 11 14  1  0  0  0  0
 14 15  1  0  0  0  0
 14 20  2  0  0  0  0
 15 16  1  0  0  0  0
 15 17  1  0  0  0  0
 17 18  1  0  0  0  0
 17 19  2  0  0  0  0
 19 20  1  0  0  0  0
 20 21  1  0  0  0  0
 22 23  2  0  0  0  0
 22 24  1  0  0  0  0
 24 25  1  0  0  0  0
 24 26  1  0  0  0  0
 26 27  1  0  0  0  0
 26 28  1  0  0  0  0
 26 29  1  0  0  0  0
M  END
$$$$

  -OEChem-04042215593D

 29 29  0     1  0  0  0  0  0999 V2000
   -3.7033   -3.4700    1.9086 H   0  0  0  0  0  0  0  0  0  0  0  0
   -3.6404   -2.5550    1.3129 C   0  0  0  0  0  0  0  0  0  0  0  0
   -4.1269   -1.7446    1.8614 H   0  0  0  0  0  0  0  0  0  0  0  0
   -4.1658   -2.7113    0.3676 H   0  0  0  0  0  0  0  0  0  0  0  0
   -2.1896   -2.2011    1.0485 C   0  0  0  0  0  0  0  0  0  0  0  0
   -1.2993   -2.9521    1.4094 O   0  0  0  0  0  0  0  0  0  0  0  0
   -1.8800   -1.0731    0.3225 N   0  0  0  0  0  0  0  0  0  0  0  0
   -2.6563   -0.4731    0.0442 H   0  0  0  0  0  0  0  0  0  0  0  0
   -0.5359   -0.4828    0.1956 C   0  0  1  0  0  0  0  0  0  0  0  0
    0.0681   -0.8544    1.0300 H   0  0  0  0  0  0  0  0  0  0  0  0
    0.2474   -0.8149   -1.1079 C   0  0  0  0  0  0  0  0  0  0  0  0
    0.5338    0.1175   -1.6070 H   0  0  0  0  0  0  0  0  0  0  0  0
    1.1773   -1.3072   -0.8061 H   0  0  0  0  0  0  0  0  0  0  0  0
   -0.4043   -1.7102   -2.1419 C   0  0  0  0  0  0  0  0  0  0  0  0
   -1.3106   -2.7334   -1.9763 N   0  0  0  0  0  0  0  0  0  0  0  0
   -1.5901   -3.1303   -1.0805 H   0  0  0  0  0  0  0  0  0  0  0  0
   -1.6565   -3.2310   -3.2169 C   0  0  0  0  0  0  0  0  0  0  0  0
   -2.3365   -4.0600   -3.3911 H   0  0  0  0  0  0  0  0  0  0  0  0
   -1.0376   -2.5593   -4.1569 N   0  0  0  0  0  0  0  0  0  0  0  0
   -0.2629   -1.6069   -3.5020 C   0  0  0  0  0  0  0  0  0  0  0  0
    0.3661   -0.8768   -4.0029 H   0  0  0  0  0  0  0  0  0  0  0  0
   -0.6270    1.0452    0.3781 C   0  0  0  0  0  0  0  0  0  0  0  0
   -1.5649    1.6641   -0.1108 O   0  0  0  0  0  0  0  0  0  0  0  0
    0.2835    1.7135    1.1766 N   0  0  0  0  0  0  0  0  0  0  0  0
    1.0164    1.1665    1.6200 H   0  0  0  0  0  0  0  0  0  0  0  0
    0.2046    3.1426    1.4560 C   0  0  0  0  0  0  0  0  0  0  0  0
   -0.7434    3.3856    1.9475 H   0  0  0  0  0  0  0  0  0  0  0  0
    1.0232    3.4447    2.1162 H   0  0  0  0  0  0  0  0  0  0  0  0
    0.2786    3.7191    0.5279 H   0  0  0  0  0  0  0  0  0  0  0  0
  1  2  1  0  0  0  0
  2  3  1  0  0  0  0
  2  4  1  0  0  0  0
  2  5  1  0  0  0  0
  5  6  2  0  0  0  0
  5  7  1  0  0  0  0
  7  8  1  0  0  0  0
  7  9  1  0  0  0  0
  9 10  1  0  0  0  0
  9 11  1  0  0  0  0
  9 22  1  0  0  0  0
 11 12  1  0  0  0  0
 11 13  1  0  0  0  0
 11 14  1  0  0  0  0
 14 15  1  0  0  0  0
 14 20  2  0  0  0  0
 15 16  1  0  0  0  0
 15 17  1  0  0  0  0
 17 18  1  0  0  0  0
 17 19  2  0  0  0  0
 19 20  1  0  0  0  0
 20 21  1  0  0  0  0
 22 23  2  0  0  0  0
 22 24  1  0  0  0  0
 24 25  1  0  0  0  0
 24 26  1  0  0  0  0
 26 27  1  0  0  0  0
 26 28  1  0  0  0  0
 26 29  1  0  0  0  0
M  END
$$$$

  -OEChem-04042215593D

 29 29  0     1  0  0  0  0  0999 V2000
   -3.6948   -3.4651    1.9714 H   0  0  0  0  0  0  0  0  0  0  0  0
   -3.6347   -2.5584    1.3627 C   0  0  0  0  0  0  0  0  0  0  0  0
   -4.1311   -1.7440    1.8963 H   0  0  0  0  0  0  0  0  0  0  0  0
   -4.1533   -2.7334    0.4171 H   0  0  0  0  0  0  0  0  0  0  0  0
   -2.1845   -2.1971    1.1032 C   0  0  0  0  0  0  0  0  0  0  0  0
   -1.2917   -2.9122    1.5244 O   0  0  0  0  0  0  0  0  0  0  0  0
   -1.8809   -1.0790    0.3568 N   0  0  0  0  0  0  0  0  0  0  0  0
   -2.6549   -0.4733    0.0836 H   0  0  0  0  0  0  0  0  0  0  0  0
   -0.5317   -0.5050    0.2119 C   0  0  1  0  0  0  0  0  0  0  0  0
    0.0860   -0.8739    1.0374 H   0  0  0  0  0  0  0  0  0  0  0  0
    0.2294   -0.8288   -1.1085 C   0  0  0  0  0  0  0  0  0  0  0  0
    0.5254    0.1070   -1.5957 H   0  0  0  0  0  0  0  0  0  0  0  0
    1.1559   -1.3362   -0.8211 H   0  0  0  0  0  0  0  0  0  0  0  0
   -0.4298   -1.6991   -2.1610 C   0  0  0  0  0  0  0  0  0  0  0  0
   -1.5263   -2.5290   -2.0983 N   0  0  0  0  0  0  0  0  0  0  0  0
   -2.0375   -2.7643   -1.2521 H   0  0  0  0  0  0  0  0  0  0  0  0
   -1.7538   -3.0717   -3.3471 C   0  0  0  0  0  0  0  0  0  0  0  0
   -2.5440   -3.7771   -3.5880 H   0  0  0  0  0  0  0  0  0  0  0  0
   -0.8725   -2.6134   -4.2012 N   0  0  0  0  0  0  0  0  0  0  0  0
   -0.0505   -1.7555   -3.4780 C   0  0  0  0  0  0  0  0  0  0  0  0
    0.7801   -1.2001   -3.9032 H   0  0  0  0  0  0  0  0  0  0  0  0
   -0.6223    1.0250    0.3806 C   0  0  0  0  0  0  0  0  0  0  0  0
   -1.5648    1.6386   -0.1069 O   0  0  0  0  0  0  0  0  0  0  0  0
    0.2935    1.7013    1.1660 N   0  0  0  0  0  0  0  0  0  0  0  0
    1.0252    1.1576    1.6154 H   0  0  0  0  0  0  0  0  0  0  0  0
    0.2139    3.1321    1.4349 C   0  0  0  0  0  0  0  0  0  0  0  0
   -0.7284    3.3765    1.9367 H   0  0  0  0  0  0  0  0  0  0  0  0
    1.0403    3.4419    2.0817 H   0  0  0  0  0  0  0  0  0  0  0  0
    0.2738    3.7010    0.5010 H   0  0  0  0  0  0  0  0  0  0  0  0
  1  2  1  0  0  0  0
  2  3  1  0  0  0  0
  2  4  1  0  0  0  0
  2  5  1  0  0  0  0
  5  6  2  0  0  0  0
  5  7  1  0  0  0  0
  7  8  1  0  0  0  0
  7  9  1  0  0  0  0
  9 10  1  0  0  0  0
  9 11  1  0  0  0  0
  9 22  1  0  0  0  0
 11 12  1  0  0  0  0
 11 13  1  0  0  0  0
 11 14  1  0  0  0  0
 14 15  1  0  0  0  0
 14 20  2  0  0  0  0
 15 16  1  0  0  0  0
 15 17  1  0  0  0  0
 17 18  1  0  0  0  0
 17 19  2  0  0  0  0
 19 20  1  0  0  0  0
 20 21  1  0  0  0  0
 22 23  2  0  0  0  0
 22 24  1  0  0  0  0
 24 25  1  0  0  0  0
 24 26  1  0  0  0  0
 26 27  1  0  0  0  0
 26 28  1  0  0  0  0
 26 29  1  0  0  0  0
M  END
$$$$

  -OEChem-04042215593D

 29 29  0     1  0  0  0  0  0999 V2000
   -3.6703   -3.4455    2.0177 H   0  0  0  0  0  0  0  0  0  0  0  0
   -3.6223   -2.5752    1.3571 C   0  0  0  0  0  0  0  0  0  0  0  0
   -4.1422   -1.7420    1.8362 H   0  0  0  0  0  0  0  0  0  0  0  0
   -4.1253   -2.8184    0.4186 H   0  0  0  0  0  0  0  0  0  0  0  0
   -2.1766   -2.2003    1.0913 C   0  0  0  0  0  0  0  0  0  0  0  0
   -1.2773   -2.8975    1.5289 O   0  0  0  0  0  0  0  0  0  0  0  0
   -1.8872   -1.0714    0.3526 N   0  0  0  0  0  0  0  0  0  0  0  0
   -2.6622   -0.4487    0.1250 H   0  0  0  0  0  0  0  0  0  0  0  0
   -0.5360   -0.5020    0.2039 C   0  0  1  0  0  0  0  0  0  0  0  0
    0.0887   -0.8820    1.0188 H   0  0  0  0  0  0  0  0  0  0  0  0
    0.2124   -0.8138   -1.1273 C   0  0  0  0  0  0  0  0  0  0  0  0
    0.4925    0.1297   -1.6085 H   0  0  0  0  0  0  0  0  0  0  0  0
    1.1478   -1.3160   -0.8594 H   0  0  0  0  0  0  0  0  0  0  0  0
   -0.4567   -1.6658   -2.1889 C   0  0  0  0  0  0  0  0  0  0  0  0
   -1.6903   -2.2754   -2.2313 N   0  0  0  0  0  0  0  0  0  0  0  0
   -2.3775   -2.2640   -1.4837 H   0  0  0  0  0  0  0  0  0  0  0  0
   -1.8281   -2.9346   -3.4365 C   0  0  0  0  0  0  0  0  0  0  0  0
   -2.6996   -3.5073   -3.7408 H   0  0  0  0  0  0  0  0  0  0  0  0
   -0.7503   -2.7690   -4.1622 N   0  0  0  0  0  0  0  0  0  0  0  0
    0.1067   -1.9834   -3.3988 C   0  0  0  0  0  0  0  0  0  0  0  0
    1.0929   -1.6630   -3.7213 H   0  0  0  0  0  0  0  0  0  0  0  0
   -0.6203    1.0260    0.3934 C   0  0  0  0  0  0  0  0  0  0  0  0
   -1.5662    1.6470   -0.0786 O   0  0  0  0  0  0  0  0  0  0  0  0
    0.3033    1.6905    1.1799 N   0  0  0  0  0  0  0  0  0  0  0  0
    1.0359    1.1392    1.6186 H   0  0  0  0  0  0  0  0  0  0  0  0
    0.2360    3.1201    1.4587 C   0  0  0  0  0  0  0  0  0  0  0  0
   -0.6991    3.3678    1.9719 H   0  0  0  0  0  0  0  0  0  0  0  0
    1.0712    3.4207    2.0985 H   0  0  0  0  0  0  0  0  0  0  0  0
    0.2899    3.6946    0.5279 H   0  0  0  0  0  0  0  0  0  0  0  0
  1  2  1  0  0  0  0
  2  3  1  0  0  0  0
  2  4  1  0  0  0  0
  2  5  1  0  0  0  0
  5  6  2  0  0  0  0
  5  7  1  0  0  0  0
  7  8  1  0  0  0  0
  7  9  1  0  0  0  0
  9 10  1  0  0  0  0
  9 11  1  0  0  0  0
  9 22  1  0  0  0  0
 11 12  1  0  0  0  0
 11 13  1  0  0  0  0
 11 14  1  0  0  0  0
 14 15  1  0  0  0  0
 14 20  2  0  0  0  0
 15 16  1  0  0  0  0
 15 17  1  0  0  0  0
 17 18  1  0  0  0  0
 17 19  2  0  0  0  0
 19 20  1  0  0  0  0
 20 21  1  0  0  0  0
 22 23  2  0  0  0  0
 22 24  1  0  0  0  0
 24 25  1  0  0  0  0
 24 26  1  0  0  0  0
 26 27  1  0  0  0  0
 26 28  1  0  0  0  0
 26 29  1  0  0  0  0
M  END
$$$$

  -OEChem-04042215593D

 29 29  0     1  0  0  0  0  0999 V2000
   -3.6540   -3.4604    1.9593 H   0  0  0  0  0  0  0  0  0  0  0  0
   -3.6080   -2.5978    1.2883 C   0  0  0  0  0  0  0  0  0  0  0  0
   -4.1537   -1.7684    1.7448 H   0  0  0  0  0  0  0  0  0  0  0  0
   -4.0844   -2.8628    0.3416 H   0  0  0  0  0  0  0  0  0  0  0  0
   -2.1635   -2.2007    1.0487 C   0  0  0  0  0  0  0  0  0  0  0  0
   -1.2623   -2.8843    1.5050 O   0  0  0  0  0  0  0  0  0  0  0  0
   -1.8786   -1.0593    0.3268 N   0  0  0  0  0  0  0  0  0  0  0  0
   -2.6541   -0.4280    0.1292 H   0  0  0  0  0  0  0  0  0  0  0  0
   -0.5275   -0.4876    0.1889 C   0  0  1  0  0  0  0  0  0  0  0  0
    0.0961   -0.8781    0.9999 H   0  0  0  0  0  0  0  0  0  0  0  0
    0.2184   -0.7936   -1.1441 C   0  0  0  0  0  0  0  0  0  0  0  0
    0.4797    0.1555   -1.6245 H   0  0  0  0  0  0  0  0  0  0  0  0
    1.1632   -1.2840   -0.8880 H   0  0  0  0  0  0  0  0  0  0  0  0
   -0.4621   -1.6388   -2.2043 C   0  0  0  0  0  0  0  0  0  0  0  0
   -1.7776   -2.0138   -2.3645 N   0  0  0  0  0  0  0  0  0  0  0  0
   -2.5443   -1.7511   -1.7521 H   0  0  0  0  0  0  0  0  0  0  0  0
   -1.8860   -2.8104   -3.4869 C   0  0  0  0  0  0  0  0  0  0  0  0
   -2.8085   -3.2493   -3.8561 H   0  0  0  0  0  0  0  0  0  0  0  0
   -0.7104   -2.9596   -4.0449 N   0  0  0  0  0  0  0  0  0  0  0  0
    0.1815   -2.2422   -3.2547 C   0  0  0  0  0  0  0  0  0  0  0  0
    1.2480   -2.1704   -3.4462 H   0  0  0  0  0  0  0  0  0  0  0  0
   -0.6099    1.0370    0.4011 C   0  0  0  0  0  0  0  0  0  0  0  0
   -1.5541    1.6641   -0.0667 O   0  0  0  0  0  0  0  0  0  0  0  0
    0.3125    1.6901    1.1983 N   0  0  0  0  0  0  0  0  0  0  0  0
    1.0430    1.1319    1.6318 H   0  0  0  0  0  0  0  0  0  0  0  0
    0.2437    3.1154    1.4986 C   0  0  0  0  0  0  0  0  0  0  0  0
   -0.6936    3.3551    2.0115 H   0  0  0  0  0  0  0  0  0  0  0  0
    1.0760    3.4061    2.1467 H   0  0  0  0  0  0  0  0  0  0  0  0
    0.3018    3.7042    0.5772 H   0  0  0  0  0  0  0  0  0  0  0  0
  1  2  1  0  0  0  0
  2  3  1  0  0  0  0
  2  4  1  0  0  0  0
  2  5  1  0  0  0  0
  5  6  2  0  0  0  0
  5  7  1  0  0  0  0
  7  8  1  0  0  0  0
  7  9  1  0  0  0  0
  9 10  1  0  0  0  0
  9 11  1  0  0  0  0
  9 22  1  0  0  0  0
 11 12  1  0  0  0  0
 11 13  1  0  0  0  0
 11 14  1  0  0  0  0
 14 15  1  0  0  0  0
 14 20  2  0  0  0  0
 15 16  1  0  0  0  0
 15 17  1  0  0  0  0
 17 18  1  0  0  0  0
 17 19  2  0  0  0  0
 19 20  1  0  0  0  0
 20 21  1  0  0  0  0
 22 23  2  0  0  0  0
 22 24  1  0  0  0  0
 24 25  1  0  0  0  0
 24 26  1  0  0  0  0
 26 27  1  0  0  0  0
 26 28  1  0  0  0  0
 26 29  1  0  0  0  0
M  END
$$$$

  -OEChem-04042215593D

 29 29  0     1  0  0  0  0  0999 V2000
   -3.6400   -3.5076    1.8480 H   0  0  0  0  0  0  0  0  0  0  0  0
   -3.5884   -2.6318    1.1948 C   0  0  0  0  0  0  0  0  0  0  0  0
   -4.1618   -1.8203    1.6492 H   0  0  0  0  0  0  0  0  0  0  0  0
   -4.0304   -2.8870    0.2289 H   0  0  0  0  0  0  0  0  0  0  0  0
   -2.1447   -2.2069    1.0059 C   0  0  0  0  0  0  0  0  0  0  0  0
   -1.2471   -2.8705    1.4991 O   0  0  0  0  0  0  0  0  0  0  0  0
   -1.8565   -1.0589    0.2962 N   0  0  0  0  0  0  0  0  0  0  0  0
   -2.6355   -0.4420    0.0742 H   0  0  0  0  0  0  0  0  0  0  0  0
   -0.5078   -0.4786    0.1832 C   0  0  1  0  0  0  0  0  0  0  0  0
    0.1098   -0.8720    0.9971 H   0  0  0  0  0  0  0  0  0  0  0  0
    0.2449   -0.7797   -1.1452 C   0  0  0  0  0  0  0  0  0  0  0  0
    0.4996    0.1707   -1.6268 H   0  0  0  0  0  0  0  0  0  0  0  0
    1.1926   -1.2657   -0.8909 H   0  0  0  0  0  0  0  0  0  0  0  0
   -0.4468   -1.6231   -2.1984 C   0  0  0  0  0  0  0  0  0  0  0  0
   -1.7847   -1.7620   -2.4985 N   0  0  0  0  0  0  0  0  0  0  0  0
   -2.5468   -1.2530   -2.0594 H   0  0  0  0  0  0  0  0  0  0  0  0
   -1.9202   -2.6768   -3.5242 C   0  0  0  0  0  0  0  0  0  0  0  0
   -2.8622   -2.9767   -3.9744 H   0  0  0  0  0  0  0  0  0  0  0  0
   -0.7436   -3.1301   -3.8795 N   0  0  0  0  0  0  0  0  0  0  0  0
    0.1781   -2.4904   -3.0572 C   0  0  0  0  0  0  0  0  0  0  0  0
    1.2504   -2.6576   -3.0918 H   0  0  0  0  0  0  0  0  0  0  0  0
   -0.5987    1.0437    0.4033 C   0  0  0  0  0  0  0  0  0  0  0  0
   -1.5303    1.6714   -0.0888 O   0  0  0  0  0  0  0  0  0  0  0  0
    0.3089    1.6950    1.2184 N   0  0  0  0  0  0  0  0  0  0  0  0
    1.0278    1.1345    1.6682 H   0  0  0  0  0  0  0  0  0  0  0  0
    0.2356    3.1197    1.5195 C   0  0  0  0  0  0  0  0  0  0  0  0
   -0.7090    3.3584    2.0194 H   0  0  0  0  0  0  0  0  0  0  0  0
    1.0587    3.4093    2.1796 H   0  0  0  0  0  0  0  0  0  0  0  0
    0.3067    3.7098    0.5998 H   0  0  0  0  0  0  0  0  0  0  0  0
  1  2  1  0  0  0  0
  2  3  1  0  0  0  0
  2  4  1  0  0  0  0
  2  5  1  0  0  0  0
  5  6  2  0  0  0  0
  5  7  1  0  0  0  0
  7  8  1  0  0  0  0
  7  9  1  0  0  0  0
  9 10  1  0  0  0  0
  9 11  1  0  0  0  0
  9 22  1  0  0  0  0
 11 12  1  0  0  0  0
 11 13  1  0  0  0  0
 11 14  1  0  0  0  0
 14 15  1  0  0  0  0
 14 20  2  0  0  0  0
 15 16  1  0  0  0  0
 15 17  1  0  0  0  0
 17 18  1  0  0  0  0
 17 19  2  0  0  0  0
 19 20  1  0  0  0  0
 20 21  1  0  0  0  0
 22 23  2  0  0  0  0
 22 24  1  0  0  0  0
 24 25  1  0  0  0  0
 24 26  1  0  0  0  0
 26 27  1  0  0  0  0
 26 28  1  0  0  0  0
 26 29  1  0  0  0  0
M  END
$$$$

  -OEChem-04042215593D

 29 29  0     1  0  0  0  0  0999 V2000
   -3.6257   -3.5726    1.7041 H   0  0  0  0  0  0  0  0  0  0  0  0
   -3.5562   -2.6850    1.0692 C   0  0  0  0  0  0  0  0  0  0  0  0
   -4.1839   -1.8980    1.4936 H   0  0  0  0  0  0  0  0  0  0  0  0
   -3.9216   -2.9373    0.0710 H   0  0  0  0  0  0  0  0  0  0  0  0
   -2.1170   -2.2137    0.9871 C   0  0  0  0  0  0  0  0  0  0  0  0
   -1.2380   -2.8372    1.5604 O   0  0  0  0  0  0  0  0  0  0  0  0
   -1.8120   -1.0707    0.2777 N   0  0  0  0  0  0  0  0  0  0  0  0
   -2.5883   -0.5011   -0.0496 H   0  0  0  0  0  0  0  0  0  0  0  0
   -0.4659   -0.4804    0.1942 C   0  0  1  0  0  0  0  0  0  0  0  0
    0.1439   -0.8660    1.0175 H   0  0  0  0  0  0  0  0  0  0  0  0
    0.2932   -0.7803   -1.1292 C   0  0  0  0  0  0  0  0  0  0  0  0
    0.5594    0.1649   -1.6148 H   0  0  0  0  0  0  0  0  0  0  0  0
    1.2338   -1.2781   -0.8722 H   0  0  0  0  0  0  0  0  0  0  0  0
   -0.4237   -1.6238   -2.1626 C   0  0  0  0  0  0  0  0  0  0  0  0
   -1.7254   -1.5286   -2.6071 N   0  0  0  0  0  0  0  0  0  0  0  0
   -2.3908   -0.8034   -2.3498 H   0  0  0  0  0  0  0  0  0  0  0  0
   -1.9506   -2.5289   -3.5324 C   0  0  0  0  0  0  0  0  0  0  0  0
   -2.8840   -2.6894   -4.0643 H   0  0  0  0  0  0  0  0  0  0  0  0
   -0.8707   -3.2561   -3.6808 N   0  0  0  0  0  0  0  0  0  0  0  0
    0.0837   -2.7089   -2.8286 C   0  0  0  0  0  0  0  0  0  0  0  0
    1.0922   -3.0927   -2.7069 H   0  0  0  0  0  0  0  0  0  0  0  0
   -0.5767    1.0419    0.3984 C   0  0  0  0  0  0  0  0  0  0  0  0
   -1.4819    1.6603   -0.1524 O   0  0  0  0  0  0  0  0  0  0  0  0
    0.3022    1.7101    1.2307 N   0  0  0  0  0  0  0  0  0  0  0  0
    0.9983    1.1575    1.7241 H   0  0  0  0  0  0  0  0  0  0  0  0
    0.2087    3.1381    1.5095 C   0  0  0  0  0  0  0  0  0  0  0  0
   -0.7521    3.3747    1.9786 H   0  0  0  0  0  0  0  0  0  0  0  0
    1.0103    3.4440    2.1887 H   0  0  0  0  0  0  0  0  0  0  0  0
    0.3011    3.7165    0.5842 H   0  0  0  0  0  0  0  0  0  0  0  0
  1  2  1  0  0  0  0
  2  3  1  0  0  0  0
  2  4  1  0  0  0  0
  2  5  1  0  0  0  0
  5  6  2  0  0  0  0
  5  7  1  0  0  0  0
  7  8  1  0  0  0  0
  7  9  1  0  0  0  0
  9 10  1  0  0  0  0
  9 11  1  0  0  0  0
  9 22  1  0  0  0  0
 11 12  1  0  0  0  0
 11 13  1  0  0  0  0
 11 14  1  0  0  0  0
 14 15  1  0  0  0  0
 14 20  2  0  0  0  0
 15 16  1  0  0  0  0
 15 17  1  0  0  0  0
 17 18  1  0  0  0  0
 17 19  2  0  0  0  0
 19 20  1  0  0  0  0
 20 21  1  0  0  0  0
 22 23  2  0  0  0  0
 22 24  1  0  0  0  0
 24 25  1  0  0  0  0
 24 26  1  0  0  0  0
 26 27  1  0  0  0  0
 26 28  1  0  0  0  0
 26 29  1  0  0  0  0
M  END
$$$$

  -OEChem-04042215593D

 29 29  0     1  0  0  0  0  0999 V2000
   -3.5855   -3.6703    1.5428 H   0  0  0  0  0  0  0  0  0  0  0  0
   -3.5070   -2.7697    0.9274 C   0  0  0  0  0  0  0  0  0  0  0  0
   -4.2213   -2.0285    1.2935 H   0  0  0  0  0  0  0  0  0  0  0  0
   -3.7536   -3.0271   -0.1055 H   0  0  0  0  0  0  0  0  0  0  0  0
   -2.0985   -2.2123    0.9967 C   0  0  0  0  0  0  0  0  0  0  0  0
   -1.2565   -2.7637    1.6881 O   0  0  0  0  0  0  0  0  0  0  0  0
   -1.7755   -1.0804    0.2788 N   0  0  0  0  0  0  0  0  0  0  0  0
   -2.5186   -0.6199   -0.2387 H   0  0  0  0  0  0  0  0  0  0  0  0
   -0.4322   -0.4800    0.2246 C   0  0  1  0  0  0  0  0  0  0  0  0
    0.1707   -0.8538    1.0584 H   0  0  0  0  0  0  0  0  0  0  0  0
    0.3284   -0.7865   -1.0950 C   0  0  0  0  0  0  0  0  0  0  0  0
    0.6112    0.1484   -1.5913 H   0  0  0  0  0  0  0  0  0  0  0  0
    1.2594   -1.3012   -0.8359 H   0  0  0  0  0  0  0  0  0  0  0  0
   -0.4211   -1.6332   -2.0986 C   0  0  0  0  0  0  0  0  0  0  0  0
   -1.6241   -1.3381   -2.7040 N   0  0  0  0  0  0  0  0  0  0  0  0
   -2.1378   -0.4628   -2.6173 H   0  0  0  0  0  0  0  0  0  0  0  0
   -1.9632   -2.3882   -3.5350 C   0  0  0  0  0  0  0  0  0  0  0  0
   -2.8528   -2.4309   -4.1568 H   0  0  0  0  0  0  0  0  0  0  0  0
   -1.0517   -3.3283   -3.4679 N   0  0  0  0  0  0  0  0  0  0  0  0
   -0.0860   -2.8731   -2.5747 C   0  0  0  0  0  0  0  0  0  0  0  0
    0.8043   -3.4263   -2.2915 H   0  0  0  0  0  0  0  0  0  0  0  0
   -0.5566    1.0452    0.3980 C   0  0  0  0  0  0  0  0  0  0  0  0
   -1.4092    1.6576   -0.2376 O   0  0  0  0  0  0  0  0  0  0  0  0
    0.2937    1.7329    1.2441 N   0  0  0  0  0  0  0  0  0  0  0  0
    0.9433    1.1876    1.8045 H   0  0  0  0  0  0  0  0  0  0  0  0
    0.2075    3.1712    1.4665 C   0  0  0  0  0  0  0  0  0  0  0  0
   -0.7672    3.4361    1.8898 H   0  0  0  0  0  0  0  0  0  0  0  0
    0.9869    3.4936    2.1636 H   0  0  0  0  0  0  0  0  0  0  0  0
    0.3418    3.7131    0.5243 H   0  0  0  0  0  0  0  0  0  0  0  0
  1  2  1  0  0  0  0
  2  3  1  0  0  0  0
  2  4  1  0  0  0  0
  2  5  1  0  0  0  0
  5  6  2  0  0  0  0
  5  7  1  0  0  0  0
  7  8  1  0  0  0  0
  7  9  1  0  0  0  0
  9 10  1  0  0  0  0
  9 11  1  0  0  0  0
  9 22  1  0  0  0  0
 11 12  1  0  0  0  0
 11 13  1  0  0  0  0
 11 14  1  0  0  0  0
 14 15  1  0  0  0  0
 14 20  2  0  0  0  0
 15 16  1  0  0  0  0
 15 17  1  0  0  0  0
 17 18  1  0  0  0  0
 17 19  2  0  0  0  0
 19 20  1  0  0  0  0
 20 21  1  0  0  0  0
 22 23  2  0  0  0  0
 22 24  1  0  0  0  0
 24 25  1  0  0  0  0
 24 26  1  0  0  0  0
 26 27  1  0  0  0  0
 26 28  1  0  0  0  0
 26 29  1  0  0  0  0
M  END
$$$$

  -OEChem-04042215593D

 29 29  0     1  0  0  0  0  0999 V2000
   -3.5597   -3.7083    1.4700 H   0  0  0  0  0  0  0  0  0  0  0  0
   -3.4815   -2.8001    0.8659 C   0  0  0  0  0  0  0  0  0  0  0  0
   -4.2285   -2.0810    1.2105 H   0  0  0  0  0  0  0  0  0  0  0  0
   -3.6814   -3.0542   -0.1781 H   0  0  0  0  0  0  0  0  0  0  0  0
   -2.0922   -2.2062    0.9944 C   0  0  0  0  0  0  0  0  0  0  0  0
   -1.2719   -2.7235    1.7367 O   0  0  0  0  0  0  0  0  0  0  0  0
   -1.7596   -1.0822    0.2689 N   0  0  0  0  0  0  0  0  0  0  0  0
   -2.4694   -0.6883   -0.3425 H   0  0  0  0  0  0  0  0  0  0  0  0
   -0.4170   -0.4770    0.2329 C   0  0  1  0  0  0  0  0  0  0  0  0
    0.1779   -0.8427    1.0759 H   0  0  0  0  0  0  0  0  0  0  0  0
    0.3493   -0.7968   -1.0787 C   0  0  0  0  0  0  0  0  0  0  0  0
    0.6482    0.1266   -1.5870 H   0  0  0  0  0  0  0  0  0  0  0  0
    1.2708   -1.3237   -0.8107 H   0  0  0  0  0  0  0  0  0  0  0  0
   -0.4201   -1.6520   -2.0561 C   0  0  0  0  0  0  0  0  0  0  0  0
   -1.4630   -1.2378   -2.8550 N   0  0  0  0  0  0  0  0  0  0  0  0
   -1.8311   -0.2894   -2.9180 H   0  0  0  0  0  0  0  0  0  0  0  0
   -1.8959   -2.3194   -3.5979 C   0  0  0  0  0  0  0  0  0  0  0  0
   -2.7032   -2.2955   -4.3245 H   0  0  0  0  0  0  0  0  0  0  0  0
   -1.1901   -3.3835   -3.2979 N   0  0  0  0  0  0  0  0  0  0  0  0
   -0.2620   -2.9822   -2.3406 C   0  0  0  0  0  0  0  0  0  0  0  0
    0.4756   -3.6326   -1.8800 H   0  0  0  0  0  0  0  0  0  0  0  0
   -0.5430    1.0503    0.3847 C   0  0  0  0  0  0  0  0  0  0  0  0
   -1.3634    1.6618   -0.2928 O   0  0  0  0  0  0  0  0  0  0  0  0
    0.2932    1.7456    1.2388 N   0  0  0  0  0  0  0  0  0  0  0  0
    0.9132    1.2029    1.8342 H   0  0  0  0  0  0  0  0  0  0  0  0
    0.2024    3.1858    1.4469 C   0  0  0  0  0  0  0  0  0  0  0  0
   -0.7778    3.4527    1.8558 H   0  0  0  0  0  0  0  0  0  0  0  0
    0.9729    3.5159    2.1505 H   0  0  0  0  0  0  0  0  0  0  0  0
    0.3474    3.7199    0.5019 H   0  0  0  0  0  0  0  0  0  0  0  0
  1  2  1  0  0  0  0
  2  3  1  0  0  0  0
  2  4  1  0  0  0  0
  2  5  1  0  0  0  0
  5  6  2  0  0  0  0
  5  7  1  0  0  0  0
  7  8  1  0  0  0  0
  7  9  1  0  0  0  0
  9 10  1  0  0  0  0
  9 11  1  0  0  0  0
  9 22  1  0  0  0  0
 11 12  1  0  0  0  0
 11 13  1  0  0  0  0
 11 14  1  0  0  0  0
 14 15  1  0  0  0  0
 14 20  2  0  0  0  0
 15 16  1  0  0  0  0
 15 17  1  0  0  0  0
 17 18  1  0  0  0  0
 17 19  2  0  0  0  0
 19 20  1  0  0  0  0
 20 21  1  0  0  0  0
 22 23  2  0  0  0  0
 22 24  1  0  0  0  0
 24 25  1  0  0  0  0
 24 26  1  0  0  0  0
 26 27  1  0  0  0  0
 26 28  1  0  0  0  0
 26 29  1  0  0  0  0
M  END
$$$$

  -OEChem-04042215593D

 29 29  0     1  0  0  0  0  0999 V2000
   -3.5665   -3.7021    1.4697 H   0  0  0  0  0  0  0  0  0  0  0  0
   -3.4734   -2.8194    0.8310 C   0  0  0  0  0  0  0  0  0  0  0  0
   -4.2432   -2.0969    1.1122 H   0  0  0  0  0  0  0  0  0  0  0  0
   -3.6254   -3.1199   -0.2090 H   0  0  0  0  0  0  0  0  0  0  0  0
   -2.0979   -2.2015    0.9920 C   0  0  0  0  0  0  0  0  0  0  0  0
   -1.2803   -2.7116    1.7422 O   0  0  0  0  0  0  0  0  0  0  0  0
   -1.7667   -1.0752    0.2694 N   0  0  0  0  0  0  0  0  0  0  0  0
   -2.4665   -0.7045   -0.3685 H   0  0  0  0  0  0  0  0  0  0  0  0
   -0.4268   -0.4629    0.2365 C   0  0  1  0  0  0  0  0  0  0  0  0
    0.1655   -0.8284    1.0813 H   0  0  0  0  0  0  0  0  0  0  0  0
    0.3408   -0.7911   -1.0717 C   0  0  0  0  0  0  0  0  0  0  0  0
    0.6420    0.1269   -1.5882 H   0  0  0  0  0  0  0  0  0  0  0  0
    1.2607   -1.3180   -0.7981 H   0  0  0  0  0  0  0  0  0  0  0  0
   -0.4321   -1.6585   -2.0351 C   0  0  0  0  0  0  0  0  0  0  0  0
   -1.2757   -1.2259   -3.0332 N   0  0  0  0  0  0  0  0  0  0  0  0
   -1.5013   -0.2568   -3.2530 H   0  0  0  0  0  0  0  0  0  0  0  0
   -1.7765   -2.3349   -3.6876 C   0  0  0  0  0  0  0  0  0  0  0  0
   -2.4729   -2.3067   -4.5209 H   0  0  0  0  0  0  0  0  0  0  0  0
   -1.2923   -3.4308   -3.1535 N   0  0  0  0  0  0  0  0  0  0  0  0
   -0.4420   -3.0250   -2.1287 C   0  0  0  0  0  0  0  0  0  0  0  0
    0.1241   -3.6956   -1.4887 H   0  0  0  0  0  0  0  0  0  0  0  0
   -0.5432    1.0654    0.3886 C   0  0  0  0  0  0  0  0  0  0  0  0
   -1.3513    1.6864   -0.2942 O   0  0  0  0  0  0  0  0  0  0  0  0
    0.2984    1.7523    1.2444 N   0  0  0  0  0  0  0  0  0  0  0  0
    0.9122    1.2031    1.8400 H   0  0  0  0  0  0  0  0  0  0  0  0
    0.2284    3.1945    1.4466 C   0  0  0  0  0  0  0  0  0  0  0  0
   -0.7482    3.4774    1.8533 H   0  0  0  0  0  0  0  0  0  0  0  0
    1.0028    3.5159    2.1498 H   0  0  0  0  0  0  0  0  0  0  0  0
    0.3824    3.7225    0.4996 H   0  0  0  0  0  0  0  0  0  0  0  0
  1  2  1  0  0  0  0
  2  3  1  0  0  0  0
  2  4  1  0  0  0  0
  2  5  1  0  0  0  0
  5  6  2  0  0  0  0
  5  7  1  0  0  0  0
  7  8  1  0  0  0  0
  7  9  1  0  0  0  0
  9 10  1  0  0  0  0
  9 11  1  0  0  0  0
  9 22  1  0  0  0  0
 11 12  1  0  0  0  0
 11 13  1  0  0  0  0
 11 14  1  0  0  0  0
 14 15  1  0  0  0  0
 14 20  2  0  0  0  0
 15 16  1  0  0  0  0
 15 17  1  0  0  0  0
 17 18  1  0  0  0  0
 17 19  2  0  0  0  0
 19 20  1  0  0  0  0
 20 21  1  0  0  0  0
 22 23  2  0  0  0  0
 22 24  1  0  0  0  0
 24 25  1  0  0  0  0
 24 26  1  0  0  0  0
 26 27  1  0  0  0  0
 26 28  1  0  0  0  0
 26 29  1  0  0  0  0
M  END
$$$$

  -OEChem-04042215593D

 29 29  0     1  0  0  0  0  0999 V2000
   -3.5787   -3.6986    1.4755 H   0  0  0  0  0  0  0  0  0  0  0  0
   -3.4977   -2.7922    0.8691 C   0  0  0  0  0  0  0  0  0  0  0  0
   -4.2454   -2.0717    1.2088 H   0  0  0  0  0  0  0  0  0  0  0  0
   -3.6950   -3.0483   -0.1750 H   0  0  0  0  0  0  0  0  0  0  0  0
   -2.1082   -2.1989    0.9991 C   0  0  0  0  0  0  0  0  0  0  0  0
   -1.2796   -2.7295    1.7225 O   0  0  0  0  0  0  0  0  0  0  0  0
   -1.7743   -1.0742    0.2752 N   0  0  0  0  0  0  0  0  0  0  0  0
   -2.4864   -0.6770   -0.3335 H   0  0  0  0  0  0  0  0  0  0  0  0
   -0.4336   -0.4647    0.2351 C   0  0  1  0  0  0  0  0  0  0  0  0
    0.1585   -0.8296    1.0805 H   0  0  0  0  0  0  0  0  0  0  0  0
    0.3348   -0.7993   -1.0713 C   0  0  0  0  0  0  0  0  0  0  0  0
    0.6358    0.1184   -1.5883 H   0  0  0  0  0  0  0  0  0  0  0  0
    1.2557   -1.3230   -0.7949 H   0  0  0  0  0  0  0  0  0  0  0  0
   -0.4279   -1.6727   -2.0390 C   0  0  0  0  0  0  0  0  0  0  0  0
   -1.0343   -1.2772   -3.2097 N   0  0  0  0  0  0  0  0  0  0  0  0
   -1.0911   -0.3249   -3.5664 H   0  0  0  0  0  0  0  0  0  0  0  0
   -1.5966   -2.3904   -3.8052 C   0  0  0  0  0  0  0  0  0  0  0  0
   -2.1553   -2.3854   -4.7369 H   0  0  0  0  0  0  0  0  0  0  0  0
   -1.3628   -3.4575   -3.0792 N   0  0  0  0  0  0  0  0  0  0  0  0
   -0.6195   -3.0288   -1.9834 C   0  0  0  0  0  0  0  0  0  0  0  0
   -0.2524   -3.6750   -1.1913 H   0  0  0  0  0  0  0  0  0  0  0  0
   -0.5451    1.0643    0.3864 C   0  0  0  0  0  0  0  0  0  0  0  0
   -1.3596    1.6869   -0.2865 O   0  0  0  0  0  0  0  0  0  0  0  0
    0.3023    1.7507    1.2372 N   0  0  0  0  0  0  0  0  0  0  0  0
    0.9168    1.2009    1.8318 H   0  0  0  0  0  0  0  0  0  0  0  0
    0.2258    3.1915    1.4471 C   0  0  0  0  0  0  0  0  0  0  0  0
   -0.7501    3.4673    1.8603 H   0  0  0  0  0  0  0  0  0  0  0  0
    1.0021    3.5135    2.1477 H   0  0  0  0  0  0  0  0  0  0  0  0
    0.3722    3.7249    0.5019 H   0  0  0  0  0  0  0  0  0  0  0  0
  1  2  1  0  0  0  0
  2  3  1  0  0  0  0
  2  4  1  0  0  0  0
  2  5  1  0  0  0  0
  5  6  2  0  0  0  0
  5  7  1  0  0  0  0
  7  8  1  0  0  0  0
  7  9  1  0  0  0  0
  9 10  1  0  0  0  0
  9 11  1  0  0  0  0
  9 22  1  0  0  0  0
 11 12  1  0  0  0  0
 11 13  1  0  0  0  0
 11 14  1  0  0  0  0
 14 15  1  0  0  0  0
 14 20  2  0  0  0  0
 15 16  1  0  0  0  0
 15 17  1  0  0  0  0
 17 18  1  0  0  0  0
 17 19  2  0  0  0  0
 19 20  1  0  0  0  0
 20 21  1  0  0  0  0
 22 23  2  0  0  0  0
 22 24  1  0  0  0  0
 24 25  1  0  0  0  0
 24 26  1  0  0  0  0
 26 27  1  0  0  0  0
 26 28  1  0  0  0  0
 26 29  1  0  0  0  0
M  END
$$$$

  -OEChem-04042215593D

 29 29  0     1  0  0  0  0  0999 V2000
   -3.6091   -3.6730    1.5422 H   0  0  0  0  0  0  0  0  0  0  0  0
   -3.5298   -2.7700    0.9304 C   0  0  0  0  0  0  0  0  0  0  0  0
   -4.2640   -2.0405    1.2801 H   0  0  0  0  0  0  0  0  0  0  0  0
   -3.7483   -3.0286   -0.1089 H   0  0  0  0  0  0  0  0  0  0  0  0
   -2.1321   -2.1908    1.0337 C   0  0  0  0  0  0  0  0  0  0  0  0
   -1.2950   -2.7316    1.7394 O   0  0  0  0  0  0  0  0  0  0  0  0
   -1.7986   -1.0712    0.3014 N   0  0  0  0  0  0  0  0  0  0  0  0
   -2.5210   -0.6590   -0.2855 H   0  0  0  0  0  0  0  0  0  0  0  0
   -0.4559   -0.4684    0.2427 C   0  0  1  0  0  0  0  0  0  0  0  0
    0.1403   -0.8315    1.0859 H   0  0  0  0  0  0  0  0  0  0  0  0
    0.3095   -0.8074   -1.0662 C   0  0  0  0  0  0  0  0  0  0  0  0
    0.6036    0.1137   -1.5809 H   0  0  0  0  0  0  0  0  0  0  0  0
    1.2351   -1.3231   -0.7908 H   0  0  0  0  0  0  0  0  0  0  0  0
   -0.4343   -1.6847   -2.0477 C   0  0  0  0  0  0  0  0  0  0  0  0
   -0.7797   -1.3657   -3.3420 N   0  0  0  0  0  0  0  0  0  0  0  0
   -0.6468   -0.4639   -3.7956 H   0  0  0  0  0  0  0  0  0  0  0  0
   -1.3889   -2.4654   -3.9159 C   0  0  0  0  0  0  0  0  0  0  0  0
   -1.7878   -2.5016   -4.9257 H   0  0  0  0  0  0  0  0  0  0  0  0
   -1.4200   -3.4610   -3.0631 N   0  0  0  0  0  0  0  0  0  0  0  0
   -0.8052   -2.9976   -1.9041 C   0  0  0  0  0  0  0  0  0  0  0  0
   -0.6406   -3.5940   -1.0113 H   0  0  0  0  0  0  0  0  0  0  0  0
   -0.5584    1.0624    0.3887 C   0  0  0  0  0  0  0  0  0  0  0  0
   -1.3834    1.6875   -0.2682 O   0  0  0  0  0  0  0  0  0  0  0  0
    0.3036    1.7464    1.2268 N   0  0  0  0  0  0  0  0  0  0  0  0
    0.9266    1.1948    1.8105 H   0  0  0  0  0  0  0  0  0  0  0  0
    0.2372    3.1879    1.4362 C   0  0  0  0  0  0  0  0  0  0  0  0
   -0.7327    3.4694    1.8598 H   0  0  0  0  0  0  0  0  0  0  0  0
    1.0229    3.5064    2.1281 H   0  0  0  0  0  0  0  0  0  0  0  0
    0.3761    3.7196    0.4889 H   0  0  0  0  0  0  0  0  0  0  0  0
  1  2  1  0  0  0  0
  2  3  1  0  0  0  0
  2  4  1  0  0  0  0
  2  5  1  0  0  0  0
  5  6  2  0  0  0  0
  5  7  1  0  0  0  0
  7  8  1  0  0  0  0
  7  9  1  0  0  0  0
  9 10  1  0  0  0  0
  9 11  1  0  0  0  0
  9 22  1  0  0  0  0
 11 12  1  0  0  0  0
 11 13  1  0  0  0  0
 11 14  1  0  0  0  0
 14 15  1  0  0  0  0
 14 20  2  0  0  0  0
 15 16  1  0  0  0  0
 15 17  1  0  0  0  0
 17 18  1  0  0  0  0
 17 19  2  0  0  0  0
 19 20  1  0  0  0  0
 20 21  1  0  0  0  0
 22 23  2  0  0  0  0
 22 24  1  0  0  0  0
 24 25  1  0  0  0  0
 24 26  1  0  0  0  0
 26 27  1  0  0  0  0
 26 28  1  0  0  0  0
 26 29  1  0  0  0  0
M  END
$$$$

  -OEChem-04042215593D

 29 29  0     1  0  0  0  0  0999 V2000
   -3.6623   -3.6216    1.6704 H   0  0  0  0  0  0  0  0  0  0  0  0
   -3.5783   -2.7307    1.0419 C   0  0  0  0  0  0  0  0  0  0  0  0
   -4.2805   -1.9761    1.4038 H   0  0  0  0  0  0  0  0  0  0  0  0
   -3.8384   -2.9990    0.0148 H   0  0  0  0  0  0  0  0  0  0  0  0
   -2.1627   -2.1883    1.0898 C   0  0  0  0  0  0  0  0  0  0  0  0
   -1.3147   -2.7460    1.7685 O   0  0  0  0  0  0  0  0  0  0  0  0
   -1.8284   -1.0784    0.3426 N   0  0  0  0  0  0  0  0  0  0  0  0
   -2.5660   -0.6373   -0.2039 H   0  0  0  0  0  0  0  0  0  0  0  0
   -0.4825   -0.4872    0.2557 C   0  0  1  0  0  0  0  0  0  0  0  0
    0.1225   -0.8471    1.0940 H   0  0  0  0  0  0  0  0  0  0  0  0
    0.2766   -0.8239   -1.0603 C   0  0  0  0  0  0  0  0  0  0  0  0
    0.5609    0.1052   -1.5662 H   0  0  0  0  0  0  0  0  0  0  0  0
    1.2092   -1.3288   -0.7895 H   0  0  0  0  0  0  0  0  0  0  0  0
   -0.4383   -1.6979   -2.0694 C   0  0  0  0  0  0  0  0  0  0  0  0
   -0.5024   -1.4744   -3.4277 N   0  0  0  0  0  0  0  0  0  0  0  0
   -0.1628   -0.6496   -3.9180 H   0  0  0  0  0  0  0  0  0  0  0  0
   -1.1514   -2.5396   -4.0220 C   0  0  0  0  0  0  0  0  0  0  0  0
   -1.3720   -2.6242   -5.0824 H   0  0  0  0  0  0  0  0  0  0  0  0
   -1.4641   -3.4367   -3.1196 N   0  0  0  0  0  0  0  0  0  0  0  0
   -0.9969   -2.9417   -1.9067 C   0  0  0  0  0  0  0  0  0  0  0  0
   -1.0473   -3.4838   -0.9682 H   0  0  0  0  0  0  0  0  0  0  0  0
   -0.5801    1.0454    0.3914 C   0  0  0  0  0  0  0  0  0  0  0  0
   -1.4237    1.6668   -0.2449 O   0  0  0  0  0  0  0  0  0  0  0  0
    0.2972    1.7341    1.2095 N   0  0  0  0  0  0  0  0  0  0  0  0
    0.9370    1.1871    1.7791 H   0  0  0  0  0  0  0  0  0  0  0  0
    0.2443    3.1786    1.4015 C   0  0  0  0  0  0  0  0  0  0  0  0
   -0.7144    3.4718    1.8421 H   0  0  0  0  0  0  0  0  0  0  0  0
    1.0471    3.5005    2.0719 H   0  0  0  0  0  0  0  0  0  0  0  0
    0.3658    3.6976    0.4447 H   0  0  0  0  0  0  0  0  0  0  0  0
  1  2  1  0  0  0  0
  2  3  1  0  0  0  0
  2  4  1  0  0  0  0
  2  5  1  0  0  0  0
  5  6  2  0  0  0  0
  5  7  1  0  0  0  0
  7  8  1  0  0  0  0
  7  9  1  0  0  0  0
  9 10  1  0  0  0  0
  9 11  1  0  0  0  0
  9 22  1  0  0  0  0
 11 12  1  0  0  0  0
 11 13  1  0  0  0  0
 11 14  1  0  0  0  0
 14 15  1  0  0  0  0
 14 20  2  0  0  0  0
 15 16  1  0  0  0  0
 15 17  1  0  0  0  0
 17 18  1  0  0  0  0
 17 19  2  0  0  0  0
 19 20  1  0  0  0  0
 20 21  1  0  0  0  0
 22 23  2  0  0  0  0
 22 24  1  0  0  0  0
 24 25  1  0  0  0  0
 24 26  1  0  0  0  0
 26 27  1  0  0  0  0
 26 28  1  0  0  0  0
 26 29  1  0  0  0  0
M  END
$$$$

  -OEChem-04042215593D

 29 29  0     1  0  0  0  0  0999 V2000
   -3.6984   -3.5650    1.8265 H   0  0  0  0  0  0  0  0  0  0  0  0
   -3.6207   -2.6752    1.1956 C   0  0  0  0  0  0  0  0  0  0  0  0
   -4.2692   -1.8959    1.6027 H   0  0  0  0  0  0  0  0  0  0  0  0
   -3.9564   -2.9291    0.1870 H   0  0  0  0  0  0  0  0  0  0  0  0
   -2.1853   -2.1865    1.1553 C   0  0  0  0  0  0  0  0  0  0  0  0
   -1.3216   -2.7686    1.7920 O   0  0  0  0  0  0  0  0  0  0  0  0
   -1.8563   -1.0897    0.3859 N   0  0  0  0  0  0  0  0  0  0  0  0
   -2.6114   -0.6098   -0.1014 H   0  0  0  0  0  0  0  0  0  0  0  0
   -0.5069   -0.5157    0.2619 C   0  0  1  0  0  0  0  0  0  0  0  0
    0.1079   -0.8688    1.0960 H   0  0  0  0  0  0  0  0  0  0  0  0
    0.2462   -0.8560   -1.0597 C   0  0  0  0  0  0  0  0  0  0  0  0
    0.5187    0.0801   -1.5593 H   0  0  0  0  0  0  0  0  0  0  0  0
    1.1862   -1.3471   -0.7882 H   0  0  0  0  0  0  0  0  0  0  0  0
   -0.4291   -1.7277   -2.1022 C   0  0  0  0  0  0  0  0  0  0  0  0
   -0.1965   -1.6275   -3.4581 N   0  0  0  0  0  0  0  0  0  0  0  0
    0.3778   -0.9241   -3.9173 H   0  0  0  0  0  0  0  0  0  0  0  0
   -0.9062   -2.6161   -4.1109 C   0  0  0  0  0  0  0  0  0  0  0  0
   -0.9324   -2.7601   -5.1872 H   0  0  0  0  0  0  0  0  0  0  0  0
   -1.5448   -3.3575   -3.2411 N   0  0  0  0  0  0  0  0  0  0  0  0
   -1.2346   -2.8355   -1.9900 C   0  0  0  0  0  0  0  0  0  0  0  0
   -1.5641   -3.2833   -1.0608 H   0  0  0  0  0  0  0  0  0  0  0  0
   -0.5996    1.0192    0.3828 C   0  0  0  0  0  0  0  0  0  0  0  0
   -1.4689    1.6327   -0.2259 O   0  0  0  0  0  0  0  0  0  0  0  0
    0.2958    1.7164    1.1739 N   0  0  0  0  0  0  0  0  0  0  0  0
    0.9565    1.1762    1.7260 H   0  0  0  0  0  0  0  0  0  0  0  0
    0.2382    3.1613    1.3606 C   0  0  0  0  0  0  0  0  0  0  0  0
   -0.7130    3.4505    1.8195 H   0  0  0  0  0  0  0  0  0  0  0  0
    1.0521    3.4917    2.0130 H   0  0  0  0  0  0  0  0  0  0  0  0
    0.3365    3.6762    0.3992 H   0  0  0  0  0  0  0  0  0  0  0  0
  1  2  1  0  0  0  0
  2  3  1  0  0  0  0
  2  4  1  0  0  0  0
  2  5  1  0  0  0  0
  5  6  2  0  0  0  0
  5  7  1  0  0  0  0
  7  8  1  0  0  0  0
  7  9  1  0  0  0  0
  9 10  1  0  0  0  0
  9 11  1  0  0  0  0
  9 22  1  0  0  0  0
 11 12  1  0  0  0  0
 11 13  1  0  0  0  0
 11 14  1  0  0  0  0
 14 15  1  0  0  0  0
 14 20  2  0  0  0  0
 15 16  1  0  0  0  0
 15 17  1  0  0  0  0
 17 18  1  0  0  0  0
 17 19  2  0  0  0  0
 19 20  1  0  0  0  0
 20 21  1  0  0  0  0
 22 23  2  0  0  0  0
 22 24  1  0  0  0  0
 24 25  1  0  0  0  0
 24 26  1  0  0  0  0
 26 27  1  0  0  0  0
 26 28  1  0  0  0  0
 26 29  1  0  0  0  0
M  END
$$$$

  -OEChem-04042215593D

 29 29  0     1  0  0  0  0  0999 V2000
   -3.6934   -3.5476    1.9177 H   0  0  0  0  0  0  0  0  0  0  0  0
   -3.6350   -2.6315    1.3234 C   0  0  0  0  0  0  0  0  0  0  0  0
   -4.2208   -1.8523    1.8166 H   0  0  0  0  0  0  0  0  0  0  0  0
   -4.0588   -2.8263    0.3352 H   0  0  0  0  0  0  0  0  0  0  0  0
   -2.1911   -2.1862    1.1909 C   0  0  0  0  0  0  0  0  0  0  0  0
   -1.3088   -2.7887    1.7813 O   0  0  0  0  0  0  0  0  0  0  0  0
   -1.8796   -1.0919    0.4094 N   0  0  0  0  0  0  0  0  0  0  0  0
   -2.6496   -0.5754   -0.0136 H   0  0  0  0  0  0  0  0  0  0  0  0
   -0.5308   -0.5288    0.2549 C   0  0  1  0  0  0  0  0  0  0  0  0
    0.0916   -0.8773    1.0854 H   0  0  0  0  0  0  0  0  0  0  0  0
    0.2155   -0.8848   -1.0670 C   0  0  0  0  0  0  0  0  0  0  0  0
    0.4853    0.0499   -1.5704 H   0  0  0  0  0  0  0  0  0  0  0  0
    1.1561   -1.3683   -0.7847 H   0  0  0  0  0  0  0  0  0  0  0  0
   -0.4289   -1.7658   -2.1257 C   0  0  0  0  0  0  0  0  0  0  0  0
    0.0636   -1.8499   -3.4122 N   0  0  0  0  0  0  0  0  0  0  0  0
    0.8578   -1.3337   -3.7837 H   0  0  0  0  0  0  0  0  0  0  0  0
   -0.7084   -2.7356   -4.1377 C   0  0  0  0  0  0  0  0  0  0  0  0
   -0.5561   -2.9887   -5.1830 H   0  0  0  0  0  0  0  0  0  0  0  0
   -1.6544   -3.2280   -3.3800 N   0  0  0  0  0  0  0  0  0  0  0  0
   -1.4870   -2.6454   -2.1284 C   0  0  0  0  0  0  0  0  0  0  0  0
   -2.1178   -2.8896   -1.2845 H   0  0  0  0  0  0  0  0  0  0  0  0
   -0.6153    1.0066    0.3747 C   0  0  0  0  0  0  0  0  0  0  0  0
   -1.5078    1.6200   -0.1993 O   0  0  0  0  0  0  0  0  0  0  0  0
    0.2998    1.7012    1.1450 N   0  0  0  0  0  0  0  0  0  0  0  0
    0.9755    1.1592    1.6768 H   0  0  0  0  0  0  0  0  0  0  0  0
    0.2424    3.1444    1.3444 C   0  0  0  0  0  0  0  0  0  0  0  0
   -0.7035    3.4289    1.8173 H   0  0  0  0  0  0  0  0  0  0  0  0
    1.0639    3.4700    1.9897 H   0  0  0  0  0  0  0  0  0  0  0  0
    0.3281    3.6673    0.3861 H   0  0  0  0  0  0  0  0  0  0  0  0
  1  2  1  0  0  0  0
  2  3  1  0  0  0  0
  2  4  1  0  0  0  0
  2  5  1  0  0  0  0
  5  6  2  0  0  0  0
  5  7  1  0  0  0  0
  7  8  1  0  0  0  0
  7  9  1  0  0  0  0
  9 10  1  0  0  0  0
  9 11  1  0  0  0  0
  9 22  1  0  0  0  0
 11 12  1  0  0  0  0
 11 13  1  0  0  0  0
 11 14  1  0  0  0  0
 14 15  1  0  0  0  0
 14 20  2  0  0  0  0
 15 16  1  0  0  0  0
 15 17  1  0  0  0  0
 17 18  1  0  0  0  0
 17 19  2  0  0  0  0
 19 20  1  0  0  0  0
 20 21  1  0  0  0  0
 22 23  2  0  0  0  0
 22 24  1  0  0  0  0
 24 25  1  0  0  0  0
 24 26  1  0  0  0  0
 26 27  1  0  0  0  0
 26 28  1  0  0  0  0
 26 29  1  0  0  0  0
M  END
$$$$

  -OEChem-04042215593D

 29 29  0     1  0  0  0  0  0999 V2000
   -3.6058   -3.5601    1.9724 H   0  0  0  0  0  0  0  0  0  0  0  0
   -3.5584   -2.7018    1.2966 C   0  0  0  0  0  0  0  0  0  0  0  0
   -4.1791   -1.8994    1.7023 H   0  0  0  0  0  0  0  0  0  0  0  0
   -3.9504   -2.9995    0.3209 H   0  0  0  0  0  0  0  0  0  0  0  0
   -2.1248   -2.2276    1.1538 C   0  0  0  0  0  0  0  0  0  0  0  0
   -1.2217   -2.8333    1.7091 O   0  0  0  0  0  0  0  0  0  0  0  0
   -1.8453   -1.1096    0.3966 N   0  0  0  0  0  0  0  0  0  0  0  0
   -2.6333   -0.5741    0.0353 H   0  0  0  0  0  0  0  0  0  0  0  0
   -0.5086   -0.5249    0.2307 C   0  0  1  0  0  0  0  0  0  0  0  0
    0.1399   -0.8769    1.0394 H   0  0  0  0  0  0  0  0  0  0  0  0
    0.1969   -0.8608   -1.1137 C   0  0  0  0  0  0  0  0  0  0  0  0
    0.7206    0.0319   -1.4720 H   0  0  0  0  0  0  0  0  0  0  0  0
    0.9667   -1.6024   -0.8774 H   0  0  0  0  0  0  0  0  0  0  0  0
   -0.5889   -1.4321   -2.2843 C   0  0  0  0  0  0  0  0  0  0  0  0
    0.0052   -1.7432   -3.4902 N   0  0  0  0  0  0  0  0  0  0  0  0
    0.9956   -1.6608   -3.7085 H   0  0  0  0  0  0  0  0  0  0  0  0
   -0.9593   -2.1963   -4.3681 C   0  0  0  0  0  0  0  0  0  0  0  0
   -0.7741   -2.5230   -5.3874 H   0  0  0  0  0  0  0  0  0  0  0  0
   -2.1341   -2.1747   -3.7924 N   0  0  0  0  0  0  0  0  0  0  0  0
   -1.9233   -1.6883   -2.5071 C   0  0  0  0  0  0  0  0  0  0  0  0
   -2.7323   -1.5261   -1.8053 H   0  0  0  0  0  0  0  0  0  0  0  0
   -0.6095    1.0048    0.3904 C   0  0  0  0  0  0  0  0  0  0  0  0
   -1.5341    1.6160   -0.1326 O   0  0  0  0  0  0  0  0  0  0  0  0
    0.3113    1.6932    1.1597 N   0  0  0  0  0  0  0  0  0  0  0  0
    1.0140    1.1495    1.6530 H   0  0  0  0  0  0  0  0  0  0  0  0
    0.2257    3.1265    1.4137 C   0  0  0  0  0  0  0  0  0  0  0  0
   -0.7103    3.3690    1.9278 H   0  0  0  0  0  0  0  0  0  0  0  0
    1.0602    3.4500    2.0432 H   0  0  0  0  0  0  0  0  0  0  0  0
    0.2667    3.6857    0.4729 H   0  0  0  0  0  0  0  0  0  0  0  0
  1  2  1  0  0  0  0
  2  3  1  0  0  0  0
  2  4  1  0  0  0  0
  2  5  1  0  0  0  0
  5  6  2  0  0  0  0
  5  7  1  0  0  0  0
  7  8  1  0  0  0  0
  7  9  1  0  0  0  0
  9 10  1  0  0  0  0
  9 11  1  0  0  0  0
  9 22  1  0  0  0  0
 11 12  1  0  0  0  0
 11 13  1  0  0  0  0
 11 14  1  0  0  0  0
 14 15  1  0  0  0  0
 14 20  2  0  0  0  0
 15 16  1  0  0  0  0
 15 17  1  0  0  0  0
 17 18  1  0  0  0  0
 17 19  2  0  0  0  0
 19 20  1  0  0  0  0
 20 21  1  0  0  0  0
 22 23  2  0  0  0  0
 22 24  1  0  0  0  0
 24 25  1  0  0  0  0
 24 26  1  0  0  0  0
 26 27  1  0  0  0  0
 26 28  1  0  0  0  0
 26 29  1  0  0  0  0
M  END
$$$$

  -OEChem-04042215593D

 29 29  0     1  0  0  0  0  0999 V2000
   -3.6091   -3.5950    1.8884 H   0  0  0  0  0  0  0  0  0  0  0  0
   -3.5577   -2.7146    1.2417 C   0  0  0  0  0  0  0  0  0  0  0  0
   -4.1797   -1.9251    1.6701 H   0  0  0  0  0  0  0  0  0  0  0  0
   -3.9452   -2.9793    0.2547 H   0  0  0  0  0  0  0  0  0  0  0  0
   -2.1228   -2.2374    1.1220 C   0  0  0  0  0  0  0  0  0  0  0  0
   -1.2269   -2.8416    1.6913 O   0  0  0  0  0  0  0  0  0  0  0  0
   -1.8344   -1.1159    0.3734 N   0  0  0  0  0  0  0  0  0  0  0  0
   -2.6189   -0.5834    0.0008 H   0  0  0  0  0  0  0  0  0  0  0  0
   -0.4958   -0.5235    0.2355 C   0  0  1  0  0  0  0  0  0  0  0  0
    0.1416   -0.8769    1.0525 H   0  0  0  0  0  0  0  0  0  0  0  0
    0.2230   -0.8563   -1.1014 C   0  0  0  0  0  0  0  0  0  0  0  0
    0.7593    0.0283   -1.4610 H   0  0  0  0  0  0  0  0  0  0  0  0
    0.9811   -1.6078   -0.8592 H   0  0  0  0  0  0  0  0  0  0  0  0
   -0.5801   -1.4225   -2.2594 C   0  0  0  0  0  0  0  0  0  0  0  0
   -0.0167   -2.0260   -3.3641 N   0  0  0  0  0  0  0  0  0  0  0  0
    0.9733   -2.2128   -3.5060 H   0  0  0  0  0  0  0  0  0  0  0  0
   -1.0193   -2.3633   -4.2524 C   0  0  0  0  0  0  0  0  0  0  0  0
   -0.8695   -2.8698   -5.2016 H   0  0  0  0  0  0  0  0  0  0  0  0
   -2.1810   -1.9824   -3.7843 N   0  0  0  0  0  0  0  0  0  0  0  0
   -1.9211   -1.3751   -2.5607 C   0  0  0  0  0  0  0  0  0  0  0  0
   -2.6873   -0.9053   -1.9536 H   0  0  0  0  0  0  0  0  0  0  0  0
   -0.6034    1.0053    0.3965 C   0  0  0  0  0  0  0  0  0  0  0  0
   -1.5176    1.6140   -0.1473 O   0  0  0  0  0  0  0  0  0  0  0  0
    0.2998    1.6954    1.1848 N   0  0  0  0  0  0  0  0  0  0  0  0
    0.9979    1.1542    1.6874 H   0  0  0  0  0  0  0  0  0  0  0  0
    0.2154    3.1312    1.4245 C   0  0  0  0  0  0  0  0  0  0  0  0
   -0.7276    3.3821    1.9216 H   0  0  0  0  0  0  0  0  0  0  0  0
    1.0412    3.4578    2.0638 H   0  0  0  0  0  0  0  0  0  0  0  0
    0.2726    3.6813    0.4791 H   0  0  0  0  0  0  0  0  0  0  0  0
  1  2  1  0  0  0  0
  2  3  1  0  0  0  0
  2  4  1  0  0  0  0
  2  5  1  0  0  0  0
  5  6  2  0  0  0  0
  5  7  1  0  0  0  0
  7  8  1  0  0  0  0
  7  9  1  0  0  0  0
  9 10  1  0  0  0  0
  9 11  1  0  0  0  0
  9 22  1  0  0  0  0
 11 12  1  0  0  0  0
 11 13  1  0  0  0  0
 11 14  1  0  0  0  0
 14 15  1  0  0  0  0
 14 20  2  0  0  0  0
 15 16  1  0  0  0  0
 15 17  1  0  0  0  0
 17 18  1  0  0  0  0
 17 19  2  0  0  0  0
 19 20  1  0  0  0  0
 20 21  1  0  0  0  0
 22 23  2  0  0  0  0
 22 24  1  0  0  0  0
 24 25  1  0  0  0  0
 24 26  1  0  0  0  0
 26 27  1  0  0  0  0
 26 28  1  0  0  0  0
 26 29  1  0  0  0  0
M  END
$$$$

  -OEChem-04042215593D

 29 29  0     1  0  0  0  0  0999 V2000
   -3.6074   -3.6246    1.7743 H   0  0  0  0  0  0  0  0  0  0  0  0
   -3.5473   -2.7318    1.1459 C   0  0  0  0  0  0  0  0  0  0  0  0
   -4.1967   -1.9603    1.5664 H   0  0  0  0  0  0  0  0  0  0  0  0
   -3.8947   -2.9840    0.1408 H   0  0  0  0  0  0  0  0  0  0  0  0
   -2.1170   -2.2310    1.0855 C   0  0  0  0  0  0  0  0  0  0  0  0
   -1.2344   -2.8236    1.6869 O   0  0  0  0  0  0  0  0  0  0  0  0
   -1.8164   -1.1082    0.3449 N   0  0  0  0  0  0  0  0  0  0  0  0
   -2.5920   -0.5958   -0.0710 H   0  0  0  0  0  0  0  0  0  0  0  0
   -0.4769   -0.5084    0.2375 C   0  0  1  0  0  0  0  0  0  0  0  0
    0.1476   -0.8619    1.0643 H   0  0  0  0  0  0  0  0  0  0  0  0
    0.2550   -0.8461   -1.0893 C   0  0  0  0  0  0  0  0  0  0  0  0
    0.7934    0.0340   -1.4572 H   0  0  0  0  0  0  0  0  0  0  0  0
    1.0104   -1.5990   -0.8435 H   0  0  0  0  0  0  0  0  0  0  0  0
   -0.5729   -1.4127   -2.2259 C   0  0  0  0  0  0  0  0  0  0  0  0
   -0.1182   -2.2817   -3.1942 N   0  0  0  0  0  0  0  0  0  0  0  0
    0.8081   -2.7006   -3.2392 H   0  0  0  0  0  0  0  0  0  0  0  0
   -1.1416   -2.5211   -4.0914 C   0  0  0  0  0  0  0  0  0  0  0  0
   -1.0766   -3.1821   -4.9509 H   0  0  0  0  0  0  0  0  0  0  0  0
   -2.2057   -1.8341   -3.7560 N   0  0  0  0  0  0  0  0  0  0  0  0
   -1.8588   -1.1223   -2.6126 C   0  0  0  0  0  0  0  0  0  0  0  0
   -2.5165   -0.4204   -2.1090 H   0  0  0  0  0  0  0  0  0  0  0  0
   -0.5881    1.0202    0.3957 C   0  0  0  0  0  0  0  0  0  0  0  0
   -1.4852    1.6291   -0.1759 O   0  0  0  0  0  0  0  0  0  0  0  0
    0.2967    1.7114    1.2036 N   0  0  0  0  0  0  0  0  0  0  0  0
    0.9815    1.1704    1.7242 H   0  0  0  0  0  0  0  0  0  0  0  0
    0.2048    3.1469    1.4426 C   0  0  0  0  0  0  0  0  0  0  0  0
   -0.7515    3.3962    1.9145 H   0  0  0  0  0  0  0  0  0  0  0  0
    1.0130    3.4728    2.1045 H   0  0  0  0  0  0  0  0  0  0  0  0
    0.2875    3.6990    0.5004 H   0  0  0  0  0  0  0  0  0  0  0  0
  1  2  1  0  0  0  0
  2  3  1  0  0  0  0
  2  4  1  0  0  0  0
  2  5  1  0  0  0  0
  5  6  2  0  0  0  0
  5  7  1  0  0  0  0
  7  8  1  0  0  0  0
  7  9  1  0  0  0  0
  9 10  1  0  0  0  0
  9 11  1  0  0  0  0
  9 22  1  0  0  0  0
 11 12  1  0  0  0  0
 11 13  1  0  0  0  0
 11 14  1  0  0  0  0
 14 15  1  0  0  0  0
 14 20  2  0  0  0  0
 15 16  1  0  0  0  0
 15 17  1  0  0  0  0
 17 18  1  0  0  0  0
 17 19  2  0  0  0  0
 19 20  1  0  0  0  0
 20 21  1  0  0  0  0
 22 23  2  0  0  0  0
 22 24  1  0  0  0  0
 24 25  1  0  0  0  0
 24 26  1  0  0  0  0
 26 27  1  0  0  0  0
 26 28  1  0  0  0  0
 26 29  1  0  0  0  0
M  END
$$$$

  -OEChem-04042215593D

 29 29  0     1  0  0  0  0  0999 V2000
   -3.6010   -3.6562    1.6663 H   0  0  0  0  0  0  0  0  0  0  0  0
   -3.5336   -2.7539    1.0523 C   0  0  0  0  0  0  0  0  0  0  0  0
   -4.2105   -1.9987    1.4586 H   0  0  0  0  0  0  0  0  0  0  0  0
   -3.8409   -2.9978    0.0322 H   0  0  0  0  0  0  0  0  0  0  0  0
   -2.1111   -2.2278    1.0503 C   0  0  0  0  0  0  0  0  0  0  0  0
   -1.2427   -2.8069    1.6848 O   0  0  0  0  0  0  0  0  0  0  0  0
   -1.7999   -1.1016    0.3196 N   0  0  0  0  0  0  0  0  0  0  0  0
   -2.5619   -0.6234   -0.1573 H   0  0  0  0  0  0  0  0  0  0  0  0
   -0.4620   -0.4918    0.2411 C   0  0  1  0  0  0  0  0  0  0  0  0
    0.1514   -0.8471    1.0754 H   0  0  0  0  0  0  0  0  0  0  0  0
    0.2816   -0.8313   -1.0772 C   0  0  0  0  0  0  0  0  0  0  0  0
    0.8117    0.0509   -1.4522 H   0  0  0  0  0  0  0  0  0  0  0  0
    1.0427   -1.5791   -0.8339 H   0  0  0  0  0  0  0  0  0  0  0  0
   -0.5696   -1.3991   -2.1927 C   0  0  0  0  0  0  0  0  0  0  0  0
   -0.2682   -2.4785   -2.9938 N   0  0  0  0  0  0  0  0  0  0  0  0
    0.5516   -3.0765   -2.9162 H   0  0  0  0  0  0  0  0  0  0  0  0
   -1.2909   -2.6448   -3.9084 C   0  0  0  0  0  0  0  0  0  0  0  0
   -1.3355   -3.4284   -4.6592 H   0  0  0  0  0  0  0  0  0  0  0  0
   -2.2047   -1.7205   -3.7388 N   0  0  0  0  0  0  0  0  0  0  0  0
   -1.7589   -0.9255   -2.6881 C   0  0  0  0  0  0  0  0  0  0  0  0
   -2.2821   -0.0508   -2.3130 H   0  0  0  0  0  0  0  0  0  0  0  0
   -0.5772    1.0366    0.3990 C   0  0  0  0  0  0  0  0  0  0  0  0
   -1.4528    1.6475   -0.2027 O   0  0  0  0  0  0  0  0  0  0  0  0
    0.2904    1.7281    1.2253 N   0  0  0  0  0  0  0  0  0  0  0  0
    0.9602    1.1875    1.7655 H   0  0  0  0  0  0  0  0  0  0  0  0
    0.2058    3.1670    1.4458 C   0  0  0  0  0  0  0  0  0  0  0  0
   -0.7584    3.4302    1.8932 H   0  0  0  0  0  0  0  0  0  0  0  0
    1.0018    3.4940    2.1219 H   0  0  0  0  0  0  0  0  0  0  0  0
    0.3138    3.7064    0.4989 H   0  0  0  0  0  0  0  0  0  0  0  0
  1  2  1  0  0  0  0
  2  3  1  0  0  0  0
  2  4  1  0  0  0  0
  2  5  1  0  0  0  0
  5  6  2  0  0  0  0
  5  7  1  0  0  0  0
  7  8  1  0  0  0  0
  7  9  1  0  0  0  0
  9 10  1  0  0  0  0
  9 11  1  0  0  0  0
  9 22  1  0  0  0  0
 11 12  1  0  0  0  0
 11 13  1  0  0  0  0
 11 14  1  0  0  0  0
 14 15  1  0  0  0  0
 14 20  2  0  0  0  0
 15 16  1  0  0  0  0
 15 17  1  0  0  0  0
 17 18  1  0  0  0  0
 17 19  2  0  0  0  0
 19 20  1  0  0  0  0
 20 21  1  0  0  0  0
 22 23  2  0  0  0  0
 22 24  1  0  0  0  0
 24 25  1  0  0  0  0
 24 26  1  0  0  0  0
 26 27  1  0  0  0  0
 26 28  1  0  0  0  0
 26 29  1  0  0  0  0
M  END
$$$$

  -OEChem-04042215593D

 29 29  0     1  0  0  0  0  0999 V2000
   -3.5830   -3.6851    1.5713 H   0  0  0  0  0  0  0  0  0  0  0  0
   -3.5141   -2.7711    0.9753 C   0  0  0  0  0  0  0  0  0  0  0  0
   -4.2163   -2.0352    1.3740 H   0  0  0  0  0  0  0  0  0  0  0  0
   -3.7864   -3.0018   -0.0576 H   0  0  0  0  0  0  0  0  0  0  0  0
   -2.1022   -2.2201    1.0245 C   0  0  0  0  0  0  0  0  0  0  0  0
   -1.2444   -2.7880    1.6832 O   0  0  0  0  0  0  0  0  0  0  0  0
   -1.7855   -1.0918    0.3006 N   0  0  0  0  0  0  0  0  0  0  0  0
   -2.5328   -0.6442   -0.2269 H   0  0  0  0  0  0  0  0  0  0  0  0
   -0.4493   -0.4754    0.2400 C   0  0  1  0  0  0  0  0  0  0  0  0
    0.1578   -0.8319    1.0782 H   0  0  0  0  0  0  0  0  0  0  0  0
    0.2992   -0.8195   -1.0734 C   0  0  0  0  0  0  0  0  0  0  0  0
    0.8146    0.0673   -1.4582 H   0  0  0  0  0  0  0  0  0  0  0  0
    1.0706   -1.5593   -0.8382 H   0  0  0  0  0  0  0  0  0  0  0  0
   -0.5747   -1.3894   -2.1674 C   0  0  0  0  0  0  0  0  0  0  0  0
   -0.4584   -2.6192   -2.7764 N   0  0  0  0  0  0  0  0  0  0  0  0
    0.2182   -3.3444   -2.5470 H   0  0  0  0  0  0  0  0  0  0  0  0
   -1.4556   -2.7297   -3.7269 C   0  0  0  0  0  0  0  0  0  0  0  0
   -1.6225   -3.5976   -4.3585 H   0  0  0  0  0  0  0  0  0  0  0  0
   -2.1776   -1.6354   -3.7546 N   0  0  0  0  0  0  0  0  0  0  0  0
   -1.6303   -0.7839   -2.7997 C   0  0  0  0  0  0  0  0  0  0  0  0
   -1.9940    0.2155   -2.5787 H   0  0  0  0  0  0  0  0  0  0  0  0
   -0.5675    1.0526    0.3985 C   0  0  0  0  0  0  0  0  0  0  0  0
   -1.4218    1.6679   -0.2288 O   0  0  0  0  0  0  0  0  0  0  0  0
    0.2899    1.7421    1.2368 N   0  0  0  0  0  0  0  0  0  0  0  0
    0.9392    1.1981    1.7983 H   0  0  0  0  0  0  0  0  0  0  0  0
    0.2098    3.1822    1.4504 C   0  0  0  0  0  0  0  0  0  0  0  0
   -0.7617    3.4531    1.8772 H   0  0  0  0  0  0  0  0  0  0  0  0
    0.9940    3.5073    2.1409 H   0  0  0  0  0  0  0  0  0  0  0  0
    0.3406    3.7170    0.5036 H   0  0  0  0  0  0  0  0  0  0  0  0
  1  2  1  0  0  0  0
  2  3  1  0  0  0  0
  2  4  1  0  0  0  0
  2  5  1  0  0  0  0
  5  6  2  0  0  0  0
  5  7  1  0  0  0  0
  7  8  1  0  0  0  0
  7  9  1  0  0  0  0
  9 10  1  0  0  0  0
  9 11  1  0  0  0  0
  9 22  1  0  0  0  0
 11 12  1  0  0  0  0
 11 13  1  0  0  0  0
 11 14  1  0  0  0  0
 14 15  1  0  0  0  0
 14 20  2  0  0  0  0
 15 16  1  0  0  0  0
 15 17  1  0  0  0  0
 17 18  1  0  0  0  0
 17 19  2  0  0  0  0
 19 20  1  0  0  0  0
 20 21  1  0  0  0  0
 22 23  2  0  0  0  0
 22 24  1  0  0  0  0
 24 25  1  0  0  0  0
 24 26  1  0  0  0  0
 26 27  1  0  0  0  0
 26 28  1  0  0  0  0
 26 29  1  0  0  0  0
M  END
$$$$

  -OEChem-04042215593D

 29 29  0     1  0  0  0  0  0999 V2000
   -3.5916   -3.6740    1.5597 H   0  0  0  0  0  0  0  0  0  0  0  0
   -3.5159   -2.7605    0.9637 C   0  0  0  0  0  0  0  0  0  0  0  0
   -4.2072   -2.0172    1.3678 H   0  0  0  0  0  0  0  0  0  0  0  0
   -3.7974   -2.9866   -0.0676 H   0  0  0  0  0  0  0  0  0  0  0  0
   -2.0978   -2.2245    1.0037 C   0  0  0  0  0  0  0  0  0  0  0  0
   -1.2374   -2.8098    1.6434 O   0  0  0  0  0  0  0  0  0  0  0  0
   -1.7778   -1.0930    0.2870 N   0  0  0  0  0  0  0  0  0  0  0  0
   -2.5224   -0.6422   -0.2420 H   0  0  0  0  0  0  0  0  0  0  0  0
   -0.4430   -0.4729    0.2334 C   0  0  1  0  0  0  0  0  0  0  0  0
    0.1627   -0.8322    1.0716 H   0  0  0  0  0  0  0  0  0  0  0  0
    0.3078   -0.8106   -1.0793 C   0  0  0  0  0  0  0  0  0  0  0  0
    0.8100    0.0842   -1.4634 H   0  0  0  0  0  0  0  0  0  0  0  0
    1.0885   -1.5445   -0.8561 H   0  0  0  0  0  0  0  0  0  0  0  0
   -0.5775   -1.3771   -2.1631 C   0  0  0  0  0  0  0  0  0  0  0  0
   -0.6570   -2.6882   -2.5754 N   0  0  0  0  0  0  0  0  0  0  0  0
   -0.1450   -3.4756   -2.1822 H   0  0  0  0  0  0  0  0  0  0  0  0
   -1.5916   -2.7674   -3.5899 C   0  0  0  0  0  0  0  0  0  0  0  0
   -1.8767   -3.6795   -4.1062 H   0  0  0  0  0  0  0  0  0  0  0  0
   -2.0916   -1.5804   -3.8374 N   0  0  0  0  0  0  0  0  0  0  0  0
   -1.4600   -0.6999   -2.9635 C   0  0  0  0  0  0  0  0  0  0  0  0
   -1.6480    0.3688   -2.9147 H   0  0  0  0  0  0  0  0  0  0  0  0
   -0.5660    1.0540    0.3976 C   0  0  0  0  0  0  0  0  0  0  0  0
   -1.4189    1.6694   -0.2313 O   0  0  0  0  0  0  0  0  0  0  0  0
    0.2865    1.7429    1.2414 N   0  0  0  0  0  0  0  0  0  0  0  0
    0.9426    1.2002    1.7960 H   0  0  0  0  0  0  0  0  0  0  0  0
    0.2053    3.1829    1.4561 C   0  0  0  0  0  0  0  0  0  0  0  0
   -0.7666    3.4530    1.8825 H   0  0  0  0  0  0  0  0  0  0  0  0
    0.9891    3.5073    2.1474 H   0  0  0  0  0  0  0  0  0  0  0  0
    0.3362    3.7193    0.5102 H   0  0  0  0  0  0  0  0  0  0  0  0
  1  2  1  0  0  0  0
  2  3  1  0  0  0  0
  2  4  1  0  0  0  0
  2  5  1  0  0  0  0
  5  6  2  0  0  0  0
  5  7  1  0  0  0  0
  7  8  1  0  0  0  0
  7  9  1  0  0  0  0
  9 10  1  0  0  0  0
  9 11  1  0  0  0  0
  9 22  1  0  0  0  0
 11 12  1  0  0  0  0
 11 13  1  0  0  0  0
 11 14  1  0  0  0  0
 14 15  1  0  0  0  0
 14 20  2  0  0  0  0
 15 16  1  0  0  0  0
 15 17  1  0  0  0  0
 17 18  1  0  0  0  0
 17 19  2  0  0  0  0
 19 20  1  0  0  0  0
 20 21  1  0  0  0  0
 22 23  2  0  0  0  0
 22 24  1  0  0  0  0
 24 25  1  0  0  0  0
 24 26  1  0  0  0  0
 26 27  1  0  0  0  0
 26 28  1  0  0  0  0
 26 29  1  0  0  0  0
M  END
$$$$

  -OEChem-04042215593D

 29 29  0     1  0  0  0  0  0999 V2000
   -3.5974   -3.6632    1.5664 H   0  0  0  0  0  0  0  0  0  0  0  0
   -3.5240   -2.7473    0.9736 C   0  0  0  0  0  0  0  0  0  0  0  0
   -4.1985   -1.9987    1.3961 H   0  0  0  0  0  0  0  0  0  0  0  0
   -3.8297   -2.9647   -0.0527 H   0  0  0  0  0  0  0  0  0  0  0  0
   -2.0998   -2.2260    0.9880 C   0  0  0  0  0  0  0  0  0  0  0  0
   -1.2281   -2.8386    1.5853 O   0  0  0  0  0  0  0  0  0  0  0  0
   -1.7841   -1.0878    0.2806 N   0  0  0  0  0  0  0  0  0  0  0  0
   -2.5359   -0.6204   -0.2236 H   0  0  0  0  0  0  0  0  0  0  0  0
   -0.4513   -0.4639    0.2238 C   0  0  1  0  0  0  0  0  0  0  0  0
    0.1558   -0.8287    1.0584 H   0  0  0  0  0  0  0  0  0  0  0  0
    0.2992   -0.7951   -1.0898 C   0  0  0  0  0  0  0  0  0  0  0  0
    0.7944    0.1047   -1.4713 H   0  0  0  0  0  0  0  0  0  0  0  0
    1.0861   -1.5240   -0.8721 H   0  0  0  0  0  0  0  0  0  0  0  0
   -0.5859   -1.3633   -2.1723 C   0  0  0  0  0  0  0  0  0  0  0  0
   -0.8717   -2.6918   -2.3949 N   0  0  0  0  0  0  0  0  0  0  0  0
   -0.5401   -3.4794   -1.8406 H   0  0  0  0  0  0  0  0  0  0  0  0
   -1.7136   -2.7764   -3.4871 C   0  0  0  0  0  0  0  0  0  0  0  0
   -2.1133   -3.6991   -3.8976 H   0  0  0  0  0  0  0  0  0  0  0  0
   -1.9656   -1.5781   -3.9569 N   0  0  0  0  0  0  0  0  0  0  0  0
   -1.2631   -0.6859   -3.1512 C   0  0  0  0  0  0  0  0  0  0  0  0
   -1.2587    0.3929   -3.2762 H   0  0  0  0  0  0  0  0  0  0  0  0
   -0.5710    1.0620    0.4016 C   0  0  0  0  0  0  0  0  0  0  0  0
   -1.4307    1.6836   -0.2115 O   0  0  0  0  0  0  0  0  0  0  0  0
    0.2886    1.7423    1.2452 N   0  0  0  0  0  0  0  0  0  0  0  0
    0.9519    1.1942    1.7860 H   0  0  0  0  0  0  0  0  0  0  0  0
    0.2150    3.1812    1.4701 C   0  0  0  0  0  0  0  0  0  0  0  0
   -0.7554    3.4533    1.8982 H   0  0  0  0  0  0  0  0  0  0  0  0
    1.0002    3.4962    2.1640 H   0  0  0  0  0  0  0  0  0  0  0  0
    0.3491    3.7238    0.5283 H   0  0  0  0  0  0  0  0  0  0  0  0
  1  2  1  0  0  0  0
  2  3  1  0  0  0  0
  2  4  1  0  0  0  0
  2  5  1  0  0  0  0
  5  6  2  0  0  0  0
  5  7  1  0  0  0  0
  7  8  1  0  0  0  0
  7  9  1  0  0  0  0
  9 10  1  0  0  0  0
  9 11  1  0  0  0  0
  9 22  1  0  0  0  0
 11 12  1  0  0  0  0
 11 13  1  0  0  0  0
 11 14  1  0  0  0  0
 14 15  1  0  0  0  0
 14 20  2  0  0  0  0
 15 16  1  0  0  0  0
 15 17  1  0  0  0  0
 17 18  1  0  0  0  0
 17 19  2  0  0  0  0
 19 20  1  0  0  0  0
 20 21  1  0  0  0  0
 22 23  2  0  0  0  0
 22 24  1  0  0  0  0
 24 25  1  0  0  0  0
 24 26  1  0  0  0  0
 26 27  1  0  0  0  0
 26 28  1  0  0  0  0
 26 29  1  0  0  0  0
M  END
$$$$

  -OEChem-04042215593D

 29 29  0     1  0  0  0  0  0999 V2000
   -3.6170   -3.6157    1.6442 H   0  0  0  0  0  0  0  0  0  0  0  0
   -3.5498   -2.6989    1.0521 C   0  0  0  0  0  0  0  0  0  0  0  0
   -4.1667   -1.9297    1.5231 H   0  0  0  0  0  0  0  0  0  0  0  0
   -3.9317   -2.8977    0.0478 H   0  0  0  0  0  0  0  0  0  0  0  0
   -2.1097   -2.2301    0.9741 C   0  0  0  0  0  0  0  0  0  0  0  0
   -1.2199   -2.8932    1.4836 O   0  0  0  0  0  0  0  0  0  0  0  0
   -1.8006   -1.0865    0.2732 N   0  0  0  0  0  0  0  0  0  0  0  0
   -2.5693   -0.5703   -0.1525 H   0  0  0  0  0  0  0  0  0  0  0  0
   -0.4674   -0.4649    0.2050 C   0  0  1  0  0  0  0  0  0  0  0  0
    0.1406   -0.8346    1.0368 H   0  0  0  0  0  0  0  0  0  0  0  0
    0.2905   -0.7857   -1.1074 C   0  0  0  0  0  0  0  0  0  0  0  0
    0.7888    0.1174   -1.4767 H   0  0  0  0  0  0  0  0  0  0  0  0
    1.0759   -1.5149   -0.8852 H   0  0  0  0  0  0  0  0  0  0  0  0
   -0.5715   -1.3552   -2.2079 C   0  0  0  0  0  0  0  0  0  0  0  0
   -1.0731   -2.6358   -2.2856 N   0  0  0  0  0  0  0  0  0  0  0  0
   -0.9388   -3.3744   -1.5965 H   0  0  0  0  0  0  0  0  0  0  0  0
   -1.7990   -2.7479   -3.4555 C   0  0  0  0  0  0  0  0  0  0  0  0
   -2.3139   -3.6448   -3.7876 H   0  0  0  0  0  0  0  0  0  0  0  0
   -1.7786   -1.6112   -4.1095 N   0  0  0  0  0  0  0  0  0  0  0  0
   -1.0138   -0.7338   -3.3454 C   0  0  0  0  0  0  0  0  0  0  0  0
   -0.8001    0.2970   -3.6123 H   0  0  0  0  0  0  0  0  0  0  0  0
   -0.5855    1.0593    0.3984 C   0  0  0  0  0  0  0  0  0  0  0  0
   -1.4747    1.6816   -0.1704 O   0  0  0  0  0  0  0  0  0  0  0  0
    0.2846    1.7322    1.2373 N   0  0  0  0  0  0  0  0  0  0  0  0
    0.9752    1.1834    1.7418 H   0  0  0  0  0  0  0  0  0  0  0  0
    0.2025    3.1662    1.4892 C   0  0  0  0  0  0  0  0  0  0  0  0
   -0.7624    3.4216    1.9397 H   0  0  0  0  0  0  0  0  0  0  0  0
    0.9971    3.4769    2.1745 H   0  0  0  0  0  0  0  0  0  0  0  0
    0.3145    3.7266    0.5548 H   0  0  0  0  0  0  0  0  0  0  0  0
  1  2  1  0  0  0  0
  2  3  1  0  0  0  0
  2  4  1  0  0  0  0
  2  5  1  0  0  0  0
  5  6  2  0  0  0  0
  5  7  1  0  0  0  0
  7  8  1  0  0  0  0
  7  9  1  0  0  0  0
  9 10  1  0  0  0  0
  9 11  1  0  0  0  0
  9 22  1  0  0  0  0
 11 12  1  0  0  0  0
 11 13  1  0  0  0  0
 11 14  1  0  0  0  0
 14 15  1  0  0  0  0
 14 20  2  0  0  0  0
 15 16  1  0  0  0  0
 15 17  1  0  0  0  0
 17 18  1  0  0  0  0
 17 19  2  0  0  0  0
 19 20  1  0  0  0  0
 20 21  1  0  0  0  0
 22 23  2  0  0  0  0
 22 24  1  0  0  0  0
 24 25  1  0  0  0  0
 24 26  1  0  0  0  0
 26 27  1  0  0  0  0
 26 28  1  0  0  0  0
 26 29  1  0  0  0  0
M  END
$$$$

  -OEChem-04042215593D

 29 29  0     1  0  0  0  0  0999 V2000
   -3.6275   -3.5770    1.7362 H   0  0  0  0  0  0  0  0  0  0  0  0
   -3.5684   -2.6577    1.1467 C   0  0  0  0  0  0  0  0  0  0  0  0
   -4.1376   -1.8761    1.6559 H   0  0  0  0  0  0  0  0  0  0  0  0
   -4.0107   -2.8382    0.1640 H   0  0  0  0  0  0  0  0  0  0  0  0
   -2.1223   -2.2269    0.9933 C   0  0  0  0  0  0  0  0  0  0  0  0
   -1.2249   -2.9204    1.4439 O   0  0  0  0  0  0  0  0  0  0  0  0
   -1.8182   -1.0865    0.2850 N   0  0  0  0  0  0  0  0  0  0  0  0
   -2.5949   -0.5351   -0.0783 H   0  0  0  0  0  0  0  0  0  0  0  0
   -0.4825   -0.4735    0.1963 C   0  0  1  0  0  0  0  0  0  0  0  0
    0.1294   -0.8419    1.0261 H   0  0  0  0  0  0  0  0  0  0  0  0
    0.2790   -0.7882   -1.1177 C   0  0  0  0  0  0  0  0  0  0  0  0
    0.7910    0.1126   -1.4731 H   0  0  0  0  0  0  0  0  0  0  0  0
    1.0562   -1.5232   -0.8856 H   0  0  0  0  0  0  0  0  0  0  0  0
   -0.5508   -1.3583   -2.2452 C   0  0  0  0  0  0  0  0  0  0  0  0
   -1.2783   -2.5285   -2.2485 N   0  0  0  0  0  0  0  0  0  0  0  0
   -1.3323   -3.1980   -1.4824 H   0  0  0  0  0  0  0  0  0  0  0  0
   -1.8858   -2.6645   -3.4815 C   0  0  0  0  0  0  0  0  0  0  0  0
   -2.5189   -3.4956   -3.7784 H   0  0  0  0  0  0  0  0  0  0  0  0
   -1.5855   -1.6424   -4.2458 N   0  0  0  0  0  0  0  0  0  0  0  0
   -0.7561   -0.8202   -3.4883 C   0  0  0  0  0  0  0  0  0  0  0  0
   -0.3326    0.1177   -3.8351 H   0  0  0  0  0  0  0  0  0  0  0  0
   -0.5992    1.0509    0.3900 C   0  0  0  0  0  0  0  0  0  0  0  0
   -1.5158    1.6675   -0.1401 O   0  0  0  0  0  0  0  0  0  0  0  0
    0.2825    1.7243    1.2163 N   0  0  0  0  0  0  0  0  0  0  0  0
    0.9945    1.1790    1.6943 H   0  0  0  0  0  0  0  0  0  0  0  0
    0.1873    3.1533    1.4903 C   0  0  0  0  0  0  0  0  0  0  0  0
   -0.7740    3.3906    1.9582 H   0  0  0  0  0  0  0  0  0  0  0  0
    0.9879    3.4633    2.1687 H   0  0  0  0  0  0  0  0  0  0  0  0
    0.2788    3.7285    0.5628 H   0  0  0  0  0  0  0  0  0  0  0  0
  1  2  1  0  0  0  0
  2  3  1  0  0  0  0
  2  4  1  0  0  0  0
  2  5  1  0  0  0  0
  5  6  2  0  0  0  0
  5  7  1  0  0  0  0
  7  8  1  0  0  0  0
  7  9  1  0  0  0  0
  9 10  1  0  0  0  0
  9 11  1  0  0  0  0
  9 22  1  0  0  0  0
 11 12  1  0  0  0  0
 11 13  1  0  0  0  0
 11 14  1  0  0  0  0
 14 15  1  0  0  0  0
 14 20  2  0  0  0  0
 15 16  1  0  0  0  0
 15 17  1  0  0  0  0
 17 18  1  0  0  0  0
 17 19  2  0  0  0  0
 19 20  1  0  0  0  0
 20 21  1  0  0  0  0
 22 23  2  0  0  0  0
 22 24  1  0  0  0  0
 24 25  1  0  0  0  0
 24 26  1  0  0  0  0
 26 27  1  0  0  0  0
 26 28  1  0  0  0  0
 26 29  1  0  0  0  0
M  END
$$$$

  -OEChem-04042215593D

 29 29  0     1  0  0  0  0  0999 V2000
   -3.6302   -3.5494    1.8387 H   0  0  0  0  0  0  0  0  0  0  0  0
   -3.5764   -2.6344    1.2421 C   0  0  0  0  0  0  0  0  0  0  0  0
   -4.1156   -1.8412    1.7657 H   0  0  0  0  0  0  0  0  0  0  0  0
   -4.0546   -2.8137    0.2762 H   0  0  0  0  0  0  0  0  0  0  0  0
   -2.1293   -2.2278    1.0386 C   0  0  0  0  0  0  0  0  0  0  0  0
   -1.2296   -2.9260    1.4755 O   0  0  0  0  0  0  0  0  0  0  0  0
   -1.8305   -1.0959    0.3136 N   0  0  0  0  0  0  0  0  0  0  0  0
   -2.6098   -0.5229   -0.0092 H   0  0  0  0  0  0  0  0  0  0  0  0
   -0.4920   -0.4936    0.1996 C   0  0  1  0  0  0  0  0  0  0  0  0
    0.1296   -0.8567    1.0245 H   0  0  0  0  0  0  0  0  0  0  0  0
    0.2643   -0.7991   -1.1222 C   0  0  0  0  0  0  0  0  0  0  0  0
    0.7923    0.0985   -1.4629 H   0  0  0  0  0  0  0  0  0  0  0  0
    1.0312   -1.5441   -0.8867 H   0  0  0  0  0  0  0  0  0  0  0  0
   -0.5401   -1.3617   -2.2751 C   0  0  0  0  0  0  0  0  0  0  0  0
   -1.4819   -2.3672   -2.2721 N   0  0  0  0  0  0  0  0  0  0  0  0
   -1.7341   -2.9390   -1.4689 H   0  0  0  0  0  0  0  0  0  0  0  0
   -1.9700   -2.5234   -3.5545 C   0  0  0  0  0  0  0  0  0  0  0  0
   -2.7172   -3.2521   -3.8552 H   0  0  0  0  0  0  0  0  0  0  0  0
   -1.3964   -1.6639   -4.3605 N   0  0  0  0  0  0  0  0  0  0  0  0
   -0.5103   -0.9315   -3.5764 C   0  0  0  0  0  0  0  0  0  0  0  0
    0.1177   -0.1268   -3.9471 H   0  0  0  0  0  0  0  0  0  0  0  0
   -0.6116    1.0324    0.3833 C   0  0  0  0  0  0  0  0  0  0  0  0
   -1.5479    1.6399   -0.1226 O   0  0  0  0  0  0  0  0  0  0  0  0
    0.2795    1.7141    1.1925 N   0  0  0  0  0  0  0  0  0  0  0  0
    1.0069    1.1756    1.6547 H   0  0  0  0  0  0  0  0  0  0  0  0
    0.1759    3.1417    1.4711 C   0  0  0  0  0  0  0  0  0  0  0  0
   -0.7797    3.3695    1.9549 H   0  0  0  0  0  0  0  0  0  0  0  0
    0.9845    3.4565    2.1375 H   0  0  0  0  0  0  0  0  0  0  0  0
    0.2482    3.7192    0.5436 H   0  0  0  0  0  0  0  0  0  0  0  0
  1  2  1  0  0  0  0
  2  3  1  0  0  0  0
  2  4  1  0  0  0  0
  2  5  1  0  0  0  0
  5  6  2  0  0  0  0
  5  7  1  0  0  0  0
  7  8  1  0  0  0  0
  7  9  1  0  0  0  0
  9 10  1  0  0  0  0
  9 11  1  0  0  0  0
  9 22  1  0  0  0  0
 11 12  1  0  0  0  0
 11 13  1  0  0  0  0
 11 14  1  0  0  0  0
 14 15  1  0  0  0  0
 14 20  2  0  0  0  0
 15 16  1  0  0  0  0
 15 17  1  0  0  0  0
 17 18  1  0  0  0  0
 17 19  2  0  0  0  0
 19 20  1  0  0  0  0
 20 21  1  0  0  0  0
 22 23  2  0  0  0  0
 22 24  1  0  0  0  0
 24 25  1  0  0  0  0
 24 26  1  0  0  0  0
 26 27  1  0  0  0  0
 26 28  1  0  0  0  0
 26 29  1  0  0  0  0
M  END
$$$$

  -OEChem-04042215593D

 29 29  0     1  0  0  0  0  0999 V2000
   -3.6183   -3.5242    1.9440 H   0  0  0  0  0  0  0  0  0  0  0  0
   -3.5733   -2.6299    1.3159 C   0  0  0  0  0  0  0  0  0  0  0  0
   -4.1038   -1.8189    1.8210 H   0  0  0  0  0  0  0  0  0  0  0  0
   -4.0674   -2.8420    0.3649 H   0  0  0  0  0  0  0  0  0  0  0  0
   -2.1293   -2.2320    1.0760 C   0  0  0  0  0  0  0  0  0  0  0  0
   -1.2243   -2.9214    1.5151 O   0  0  0  0  0  0  0  0  0  0  0  0
   -1.8430   -1.1039    0.3379 N   0  0  0  0  0  0  0  0  0  0  0  0
   -2.6245   -0.5098    0.0608 H   0  0  0  0  0  0  0  0  0  0  0  0
   -0.5014   -0.5114    0.2034 C   0  0  1  0  0  0  0  0  0  0  0  0
    0.1307   -0.8736    1.0208 H   0  0  0  0  0  0  0  0  0  0  0  0
    0.2430   -0.8070   -1.1290 C   0  0  0  0  0  0  0  0  0  0  0  0
    0.7841    0.0872   -1.4576 H   0  0  0  0  0  0  0  0  0  0  0  0
    1.0005   -1.5627   -0.8979 H   0  0  0  0  0  0  0  0  0  0  0  0
   -0.5482   -1.3553   -2.3000 C   0  0  0  0  0  0  0  0  0  0  0  0
   -1.6706   -2.1527   -2.3293 N   0  0  0  0  0  0  0  0  0  0  0  0
   -2.1229   -2.5635   -1.5169 H   0  0  0  0  0  0  0  0  0  0  0  0
   -2.0436   -2.3546   -3.6435 C   0  0  0  0  0  0  0  0  0  0  0  0
   -2.8888   -2.9539   -3.9693 H   0  0  0  0  0  0  0  0  0  0  0  0
   -1.2250   -1.7181   -4.4442 N   0  0  0  0  0  0  0  0  0  0  0  0
   -0.2974   -1.0874   -3.6215 C   0  0  0  0  0  0  0  0  0  0  0  0
    0.5158   -0.4632   -3.9799 H   0  0  0  0  0  0  0  0  0  0  0  0
   -0.6194    1.0156    0.3833 C   0  0  0  0  0  0  0  0  0  0  0  0
   -1.5706    1.6182   -0.1010 O   0  0  0  0  0  0  0  0  0  0  0  0
    0.2815    1.7007    1.1788 N   0  0  0  0  0  0  0  0  0  0  0  0
    1.0206    1.1660    1.6267 H   0  0  0  0  0  0  0  0  0  0  0  0
    0.1791    3.1288    1.4548 C   0  0  0  0  0  0  0  0  0  0  0  0
   -0.7707    3.3569    1.9499 H   0  0  0  0  0  0  0  0  0  0  0  0
    0.9954    3.4471    2.1103 H   0  0  0  0  0  0  0  0  0  0  0  0
    0.2386    3.7034    0.5244 H   0  0  0  0  0  0  0  0  0  0  0  0
  1  2  1  0  0  0  0
  2  3  1  0  0  0  0
  2  4  1  0  0  0  0
  2  5  1  0  0  0  0
  5  6  2  0  0  0  0
  5  7  1  0  0  0  0
  7  8  1  0  0  0  0
  7  9  1  0  0  0  0
  9 10  1  0  0  0  0
  9 11  1  0  0  0  0
  9 22  1  0  0  0  0
 11 12  1  0  0  0  0
 11 13  1  0  0  0  0
 11 14  1  0  0  0  0
 14 15  1  0  0  0  0
 14 20  2  0  0  0  0
 15 16  1  0  0  0  0
 15 17  1  0  0  0  0
 17 18  1  0  0  0  0
 17 19  2  0  0  0  0
 19 20  1  0  0  0  0
 20 21  1  0  0  0  0
 22 23  2  0  0  0  0
 22 24  1  0  0  0  0
 24 25  1  0  0  0  0
 24 26  1  0  0  0  0
 26 27  1  0  0  0  0
 26 28  1  0  0  0  0
 26 29  1  0  0  0  0
M  END
$$$$

  -OEChem-04042215593D

 29 29  0     1  0  0  0  0  0999 V2000
   -3.5995   -3.4988    2.0048 H   0  0  0  0  0  0  0  0  0  0  0  0
   -3.5672   -2.6233    1.3500 C   0  0  0  0  0  0  0  0  0  0  0  0
   -4.0936   -1.7998    1.8389 H   0  0  0  0  0  0  0  0  0  0  0  0
   -4.0739   -2.8658    0.4130 H   0  0  0  0  0  0  0  0  0  0  0  0
   -2.1277   -2.2304    1.0766 C   0  0  0  0  0  0  0  0  0  0  0  0
   -1.2164   -2.9184    1.5052 O   0  0  0  0  0  0  0  0  0  0  0  0
   -1.8545   -1.0972    0.3394 N   0  0  0  0  0  0  0  0  0  0  0  0
   -2.6352   -0.4756    0.1284 H   0  0  0  0  0  0  0  0  0  0  0  0
   -0.5103   -0.5124    0.1924 C   0  0  1  0  0  0  0  0  0  0  0  0
    0.1285   -0.8803    1.0023 H   0  0  0  0  0  0  0  0  0  0  0  0
    0.2251   -0.8037   -1.1467 C   0  0  0  0  0  0  0  0  0  0  0  0
    0.7677    0.0909   -1.4716 H   0  0  0  0  0  0  0  0  0  0  0  0
    0.9822   -1.5619   -0.9215 H   0  0  0  0  0  0  0  0  0  0  0  0
   -0.5622   -1.3414   -2.3259 C   0  0  0  0  0  0  0  0  0  0  0  0
   -1.8181   -1.9005   -2.4041 N   0  0  0  0  0  0  0  0  0  0  0  0
   -2.4318   -2.0823   -1.6151 H   0  0  0  0  0  0  0  0  0  0  0  0
   -2.0966   -2.2018   -3.7227 C   0  0  0  0  0  0  0  0  0  0  0  0
   -3.0140   -2.6608   -4.0800 H   0  0  0  0  0  0  0  0  0  0  0  0
   -1.0885   -1.8541   -4.4835 N   0  0  0  0  0  0  0  0  0  0  0  0
   -0.1341   -1.3125   -3.6288 C   0  0  0  0  0  0  0  0  0  0  0  0
    0.8237   -0.9166   -3.9529 H   0  0  0  0  0  0  0  0  0  0  0  0
   -0.6224    1.0134    0.3854 C   0  0  0  0  0  0  0  0  0  0  0  0
   -1.5882    1.6179   -0.0674 O   0  0  0  0  0  0  0  0  0  0  0  0
    0.2898    1.6897    1.1752 N   0  0  0  0  0  0  0  0  0  0  0  0
    1.0402    1.1512    1.5991 H   0  0  0  0  0  0  0  0  0  0  0  0
    0.1878    3.1129    1.4756 C   0  0  0  0  0  0  0  0  0  0  0  0
   -0.7485    3.3281    2.0014 H   0  0  0  0  0  0  0  0  0  0  0  0
    1.0212    3.4259    2.1118 H   0  0  0  0  0  0  0  0  0  0  0  0
    0.2174    3.7023    0.5531 H   0  0  0  0  0  0  0  0  0  0  0  0
  1  2  1  0  0  0  0
  2  3  1  0  0  0  0
  2  4  1  0  0  0  0
  2  5  1  0  0  0  0
  5  6  2  0  0  0  0
  5  7  1  0  0  0  0
  7  8  1  0  0  0  0
  7  9  1  0  0  0  0
  9 10  1  0  0  0  0
  9 11  1  0  0  0  0
  9 22  1  0  0  0  0
 11 12  1  0  0  0  0
 11 13  1  0  0  0  0
 11 14  1  0  0  0  0
 14 15  1  0  0  0  0
 14 20  2  0  0  0  0
 15 16  1  0  0  0  0
 15 17  1  0  0  0  0
 17 18  1  0  0  0  0
 17 19  2  0  0  0  0
 19 20  1  0  0  0  0
 20 21  1  0  0  0  0
 22 23  2  0  0  0  0
 22 24  1  0  0  0  0
 24 25  1  0  0  0  0
 24 26  1  0  0  0  0
 26 27  1  0  0  0  0
 26 28  1  0  0  0  0
 26 29  1  0  0  0  0
M  END
$$$$

  -OEChem-04042215593D

 29 29  0     1  0  0  0  0  0999 V2000
   -3.5875   -3.5042    1.9723 H   0  0  0  0  0  0  0  0  0  0  0  0
   -3.5603   -2.6206    1.3285 C   0  0  0  0  0  0  0  0  0  0  0  0
   -4.0788   -1.8020    1.8335 H   0  0  0  0  0  0  0  0  0  0  0  0
   -4.0774   -2.8502    0.3941 H   0  0  0  0  0  0  0  0  0  0  0  0
   -2.1231   -2.2284    1.0434 C   0  0  0  0  0  0  0  0  0  0  0  0
   -1.2092   -2.9183    1.4642 O   0  0  0  0  0  0  0  0  0  0  0  0
   -1.8564   -1.0844    0.3198 N   0  0  0  0  0  0  0  0  0  0  0  0
   -2.6345   -0.4446    0.1626 H   0  0  0  0  0  0  0  0  0  0  0  0
   -0.5104   -0.5025    0.1777 C   0  0  1  0  0  0  0  0  0  0  0  0
    0.1278   -0.8814    0.9828 H   0  0  0  0  0  0  0  0  0  0  0  0
    0.2214   -0.7893   -1.1643 C   0  0  0  0  0  0  0  0  0  0  0  0
    0.7514    0.1131   -1.4879 H   0  0  0  0  0  0  0  0  0  0  0  0
    0.9878   -1.5409   -0.9482 H   0  0  0  0  0  0  0  0  0  0  0  0
   -0.5697   -1.3163   -2.3462 C   0  0  0  0  0  0  0  0  0  0  0  0
   -1.9061   -1.6167   -2.4886 N   0  0  0  0  0  0  0  0  0  0  0  0
   -2.6113   -1.5255   -1.7632 H   0  0  0  0  0  0  0  0  0  0  0  0
   -2.1334   -2.0624   -3.7755 C   0  0  0  0  0  0  0  0  0  0  0  0
   -3.0975   -2.3700   -4.1701 H   0  0  0  0  0  0  0  0  0  0  0  0
   -1.0131   -2.0604   -4.4544 N   0  0  0  0  0  0  0  0  0  0  0  0
   -0.0367   -1.5981   -3.5783 C   0  0  0  0  0  0  0  0  0  0  0  0
    1.0105   -1.4760   -3.8386 H   0  0  0  0  0  0  0  0  0  0  0  0
   -0.6173    1.0203    0.3926 C   0  0  0  0  0  0  0  0  0  0  0  0
   -1.5866    1.6297   -0.0470 O   0  0  0  0  0  0  0  0  0  0  0  0
    0.2975    1.6851    1.1892 N   0  0  0  0  0  0  0  0  0  0  0  0
    1.0477    1.1400    1.6053 H   0  0  0  0  0  0  0  0  0  0  0  0
    0.1944    3.1033    1.5130 C   0  0  0  0  0  0  0  0  0  0  0  0
   -0.7338    3.3059    2.0577 H   0  0  0  0  0  0  0  0  0  0  0  0
    1.0374    3.4102    2.1397 H   0  0  0  0  0  0  0  0  0  0  0  0
    0.2059    3.7068    0.5993 H   0  0  0  0  0  0  0  0  0  0  0  0
  1  2  1  0  0  0  0
  2  3  1  0  0  0  0
  2  4  1  0  0  0  0
  2  5  1  0  0  0  0
  5  6  2  0  0  0  0
  5  7  1  0  0  0  0
  7  8  1  0  0  0  0
  7  9  1  0  0  0  0
  9 10  1  0  0  0  0
  9 11  1  0  0  0  0
  9 22  1  0  0  0  0
 11 12  1  0  0  0  0
 11 13  1  0  0  0  0
 11 14  1  0  0  0  0
 14 15  1  0  0  0  0
 14 20  2  0  0  0  0
 15 16  1  0  0  0  0
 15 17  1  0  0  0  0
 17 18  1  0  0  0  0
 17 19  2  0  0  0  0
 19 20  1  0  0  0  0
 20 21  1  0  0  0  0
 22 23  2  0  0  0  0
 22 24  1  0  0  0  0
 24 25  1  0  0  0  0
 24 26  1  0  0  0  0
 26 27  1  0  0  0  0
 26 28  1  0  0  0  0
 26 29  1  0  0  0  0
M  END
$$$$

  -OEChem-04042215593D

 29 29  0     1  0  0  0  0  0999 V2000
   -3.5912   -3.5315    1.8802 H   0  0  0  0  0  0  0  0  0  0  0  0
   -3.5521   -2.6465    1.2386 C   0  0  0  0  0  0  0  0  0  0  0  0
   -4.1052   -1.8376    1.7217 H   0  0  0  0  0  0  0  0  0  0  0  0
   -4.0248   -2.8838    0.2826 H   0  0  0  0  0  0  0  0  0  0  0  0
   -2.1113   -2.2296    1.0124 C   0  0  0  0  0  0  0  0  0  0  0  0
   -1.2033   -2.9026    1.4730 O   0  0  0  0  0  0  0  0  0  0  0  0
   -1.8349   -1.0808    0.3001 N   0  0  0  0  0  0  0  0  0  0  0  0
   -2.6145   -0.4499    0.1242 H   0  0  0  0  0  0  0  0  0  0  0  0
   -0.4877   -0.4981    0.1789 C   0  0  1  0  0  0  0  0  0  0  0  0
    0.1472   -0.8831    0.9838 H   0  0  0  0  0  0  0  0  0  0  0  0
    0.2429   -0.7769   -1.1648 C   0  0  0  0  0  0  0  0  0  0  0  0
    0.7608    0.1333   -1.4857 H   0  0  0  0  0  0  0  0  0  0  0  0
    1.0182   -1.5232   -0.9615 H   0  0  0  0  0  0  0  0  0  0  0  0
   -0.5616   -1.2875   -2.3443 C   0  0  0  0  0  0  0  0  0  0  0  0
   -1.9211   -1.3165   -2.5662 N   0  0  0  0  0  0  0  0  0  0  0  0
   -2.6290   -0.9209   -1.9541 H   0  0  0  0  0  0  0  0  0  0  0  0
   -2.1638   -1.9106   -3.7888 C   0  0  0  0  0  0  0  0  0  0  0  0
   -3.1459   -2.0567   -4.2292 H   0  0  0  0  0  0  0  0  0  0  0  0
   -1.0334   -2.2709   -4.3443 N   0  0  0  0  0  0  0  0  0  0  0  0
   -0.0325   -1.8947   -3.4544 C   0  0  0  0  0  0  0  0  0  0  0  0
    1.0279   -2.0620   -3.6182 H   0  0  0  0  0  0  0  0  0  0  0  0
   -0.6023    1.0225    0.4025 C   0  0  0  0  0  0  0  0  0  0  0  0
   -1.5593    1.6322   -0.0641 O   0  0  0  0  0  0  0  0  0  0  0  0
    0.2978    1.6874    1.2150 N   0  0  0  0  0  0  0  0  0  0  0  0
    1.0397    1.1422    1.6456 H   0  0  0  0  0  0  0  0  0  0  0  0
    0.1930    3.1071    1.5303 C   0  0  0  0  0  0  0  0  0  0  0  0
   -0.7570    3.3202    2.0318 H   0  0  0  0  0  0  0  0  0  0  0  0
    1.0089    3.4088    2.1941 H   0  0  0  0  0  0  0  0  0  0  0  0
    0.2515    3.7075    0.6162 H   0  0  0  0  0  0  0  0  0  0  0  0
  1  2  1  0  0  0  0
  2  3  1  0  0  0  0
  2  4  1  0  0  0  0
  2  5  1  0  0  0  0
  5  6  2  0  0  0  0
  5  7  1  0  0  0  0
  7  8  1  0  0  0  0
  7  9  1  0  0  0  0
  9 10  1  0  0  0  0
  9 11  1  0  0  0  0
  9 22  1  0  0  0  0
 11 12  1  0  0  0  0
 11 13  1  0  0  0  0
 11 14  1  0  0  0  0
 14 15  1  0  0  0  0
 14 20  2  0  0  0  0
 15 16  1  0  0  0  0
 15 17  1  0  0  0  0
 17 18  1  0  0  0  0
 17 19  2  0  0  0  0
 19 20  1  0  0  0  0
 20 21  1  0  0  0  0
 22 23  2  0  0  0  0
 22 24  1  0  0  0  0
 24 25  1  0  0  0  0
 24 26  1  0  0  0  0
 26 27  1  0  0  0  0
 26 28  1  0  0  0  0
 26 29  1  0  0  0  0
M  END
$$$$

  -OEChem-04042215593D

 29 29  0     1  0  0  0  0  0999 V2000
   -3.5985   -3.5925    1.7378 H   0  0  0  0  0  0  0  0  0  0  0  0
   -3.5366   -2.7064    1.0998 C   0  0  0  0  0  0  0  0  0  0  0  0
   -4.1580   -1.9180    1.5309 H   0  0  0  0  0  0  0  0  0  0  0  0
   -3.9158   -2.9603    0.1070 H   0  0  0  0  0  0  0  0  0  0  0  0
   -2.0975   -2.2383    0.9966 C   0  0  0  0  0  0  0  0  0  0  0  0
   -1.2105   -2.8699    1.5483 O   0  0  0  0  0  0  0  0  0  0  0  0
   -1.7971   -1.0956    0.2854 N   0  0  0  0  0  0  0  0  0  0  0  0
   -2.5762   -0.5156   -0.0150 H   0  0  0  0  0  0  0  0  0  0  0  0
   -0.4503   -0.5059    0.2003 C   0  0  1  0  0  0  0  0  0  0  0  0
    0.1745   -0.8858    1.0153 H   0  0  0  0  0  0  0  0  0  0  0  0
    0.2899   -0.7751   -1.1388 C   0  0  0  0  0  0  0  0  0  0  0  0
    0.8081    0.1366   -1.4555 H   0  0  0  0  0  0  0  0  0  0  0  0
    1.0640   -1.5241   -0.9415 H   0  0  0  0  0  0  0  0  0  0  0  0
   -0.5337   -1.2706   -2.3096 C   0  0  0  0  0  0  0  0  0  0  0  0
   -1.8559   -1.0262   -2.6142 N   0  0  0  0  0  0  0  0  0  0  0  0
   -2.4552   -0.3483   -2.1484 H   0  0  0  0  0  0  0  0  0  0  0  0
   -2.1861   -1.7332   -3.7536 C   0  0  0  0  0  0  0  0  0  0  0  0
   -3.1560   -1.7137   -4.2421 H   0  0  0  0  0  0  0  0  0  0  0  0
   -1.1547   -2.4283   -4.1662 N   0  0  0  0  0  0  0  0  0  0  0  0
   -0.1240   -2.1568   -3.2718 C   0  0  0  0  0  0  0  0  0  0  0  0
    0.8689   -2.5933   -3.3269 H   0  0  0  0  0  0  0  0  0  0  0  0
   -0.5853    1.0150    0.4065 C   0  0  0  0  0  0  0  0  0  0  0  0
   -1.5058    1.6176   -0.1382 O   0  0  0  0  0  0  0  0  0  0  0  0
    0.2815    1.6970    1.2403 N   0  0  0  0  0  0  0  0  0  0  0  0
    0.9983    1.1589    1.7196 H   0  0  0  0  0  0  0  0  0  0  0  0
    0.1826    3.1281    1.5006 C   0  0  0  0  0  0  0  0  0  0  0  0
   -0.7833    3.3696    1.9564 H   0  0  0  0  0  0  0  0  0  0  0  0
    0.9762    3.4435    2.1848 H   0  0  0  0  0  0  0  0  0  0  0  0
    0.2847    3.6949    0.5691 H   0  0  0  0  0  0  0  0  0  0  0  0
  1  2  1  0  0  0  0
  2  3  1  0  0  0  0
  2  4  1  0  0  0  0
  2  5  1  0  0  0  0
  5  6  2  0  0  0  0
  5  7  1  0  0  0  0
  7  8  1  0  0  0  0
  7  9  1  0  0  0  0
  9 10  1  0  0  0  0
  9 11  1  0  0  0  0
  9 22  1  0  0  0  0
 11 12  1  0  0  0  0
 11 13  1  0  0  0  0
 11 14  1  0  0  0  0
 14 15  1  0  0  0  0
 14 20  2  0  0  0  0
 15 16  1  0  0  0  0
 15 17  1  0  0  0  0
 17 18  1  0  0  0  0
 17 19  2  0  0  0  0
 19 20  1  0  0  0  0
 20 21  1  0  0  0  0
 22 23  2  0  0  0  0
 22 24  1  0  0  0  0
 24 25  1  0  0  0  0
 24 26  1  0  0  0  0
 26 27  1  0  0  0  0
 26 28  1  0  0  0  0
 26 29  1  0  0  0  0
M  END
$$$$

  -OEChem-04042215593D

 29 29  0     1  0  0  0  0  0999 V2000
   -3.5724   -3.6951    1.5199 H   0  0  0  0  0  0  0  0  0  0  0  0
   -3.4911   -2.7850    0.9191 C   0  0  0  0  0  0  0  0  0  0  0  0
   -4.2162   -2.0543    1.2850 H   0  0  0  0  0  0  0  0  0  0  0  0
   -3.7203   -3.0285   -0.1213 H   0  0  0  0  0  0  0  0  0  0  0  0
   -2.0882   -2.2178    1.0183 C   0  0  0  0  0  0  0  0  0  0  0  0
   -1.2637   -2.7469    1.7472 O   0  0  0  0  0  0  0  0  0  0  0  0
   -1.7499   -1.1005    0.2860 N   0  0  0  0  0  0  0  0  0  0  0  0
   -2.4649   -0.6930   -0.3087 H   0  0  0  0  0  0  0  0  0  0  0  0
   -0.4009   -0.5119    0.2371 C   0  0  1  0  0  0  0  0  0  0  0  0
    0.2110   -0.8750    1.0690 H   0  0  0  0  0  0  0  0  0  0  0  0
    0.3429   -0.7989   -1.0954 C   0  0  0  0  0  0  0  0  0  0  0  0
    0.8783    0.0975   -1.4266 H   0  0  0  0  0  0  0  0  0  0  0  0
    1.1005   -1.5639   -0.8965 H   0  0  0  0  0  0  0  0  0  0  0  0
   -0.5214   -1.2895   -2.2357 C   0  0  0  0  0  0  0  0  0  0  0  0
   -1.7407   -0.7809   -2.6316 N   0  0  0  0  0  0  0  0  0  0  0  0
   -2.1541    0.0920   -2.3010 H   0  0  0  0  0  0  0  0  0  0  0  0
   -2.2127   -1.5458   -3.6808 C   0  0  0  0  0  0  0  0  0  0  0  0
   -3.1389   -1.3656   -4.2187 H   0  0  0  0  0  0  0  0  0  0  0  0
   -1.3753   -2.5216   -3.9385 N   0  0  0  0  0  0  0  0  0  0  0  0
   -0.3189   -2.3770   -3.0436 C   0  0  0  0  0  0  0  0  0  0  0  0
    0.5400   -3.0393   -2.9890 H   0  0  0  0  0  0  0  0  0  0  0  0
   -0.5481    1.0144    0.3877 C   0  0  0  0  0  0  0  0  0  0  0  0
   -1.3934    1.6083   -0.2776 O   0  0  0  0  0  0  0  0  0  0  0  0
    0.2817    1.7249    1.2354 N   0  0  0  0  0  0  0  0  0  0  0  0
    0.9249    1.1947    1.8173 H   0  0  0  0  0  0  0  0  0  0  0  0
    0.1683    3.1635    1.4429 C   0  0  0  0  0  0  0  0  0  0  0  0
   -0.8178    3.4161    1.8466 H   0  0  0  0  0  0  0  0  0  0  0  0
    0.9297    3.5048    2.1509 H   0  0  0  0  0  0  0  0  0  0  0  0
    0.3107    3.6992    0.4985 H   0  0  0  0  0  0  0  0  0  0  0  0
  1  2  1  0  0  0  0
  2  3  1  0  0  0  0
  2  4  1  0  0  0  0
  2  5  1  0  0  0  0
  5  6  2  0  0  0  0
  5  7  1  0  0  0  0
  7  8  1  0  0  0  0
  7  9  1  0  0  0  0
  9 10  1  0  0  0  0
  9 11  1  0  0  0  0
  9 22  1  0  0  0  0
 11 12  1  0  0  0  0
 11 13  1  0  0  0  0
 11 14  1  0  0  0  0
 14 15  1  0  0  0  0
 14 20  2  0  0  0  0
 15 16  1  0  0  0  0
 15 17  1  0  0  0  0
 17 18  1  0  0  0  0
 17 19  2  0  0  0  0
 19 20  1  0  0  0  0
 20 21  1  0  0  0  0
 22 23  2  0  0  0  0
 22 24  1  0  0  0  0
 24 25  1  0  0  0  0
 24 26  1  0  0  0  0
 26 27  1  0  0  0  0
 26 28  1  0  0  0  0
 26 29  1  0  0  0  0
M  END
$$$$

  -OEChem-04042215593D

 29 29  0     1  0  0  0  0  0999 V2000
   -3.5578   -3.7257    1.4620 H   0  0  0  0  0  0  0  0  0  0  0  0
   -3.4539   -2.8492    0.8165 C   0  0  0  0  0  0  0  0  0  0  0  0
   -4.2448   -2.1357    1.0593 H   0  0  0  0  0  0  0  0  0  0  0  0
   -3.5618   -3.1639   -0.2247 H   0  0  0  0  0  0  0  0  0  0  0  0
   -2.0961   -2.2065    1.0238 C   0  0  0  0  0  0  0  0  0  0  0  0
   -1.3172   -2.6694    1.8424 O   0  0  0  0  0  0  0  0  0  0  0  0
   -1.7421   -1.1037    0.2772 N   0  0  0  0  0  0  0  0  0  0  0  0
   -2.3891   -0.8073   -0.4486 H   0  0  0  0  0  0  0  0  0  0  0  0
   -0.3933   -0.5112    0.2600 C   0  0  1  0  0  0  0  0  0  0  0  0
    0.2026   -0.8615    1.1088 H   0  0  0  0  0  0  0  0  0  0  0  0
    0.3643   -0.8195   -1.0579 C   0  0  0  0  0  0  0  0  0  0  0  0
    0.9140    0.0622   -1.4054 H   0  0  0  0  0  0  0  0  0  0  0  0
    1.1076   -1.5946   -0.8443 H   0  0  0  0  0  0  0  0  0  0  0  0
   -0.5255   -1.3195   -2.1703 C   0  0  0  0  0  0  0  0  0  0  0  0
   -1.5828   -0.6237   -2.7147 N   0  0  0  0  0  0  0  0  0  0  0  0
   -1.8557    0.3318   -2.4742 H   0  0  0  0  0  0  0  0  0  0  0  0
   -2.1613   -1.4094   -3.6925 C   0  0  0  0  0  0  0  0  0  0  0  0
   -3.0090   -1.1197   -4.3068 H   0  0  0  0  0  0  0  0  0  0  0  0
   -1.5373   -2.5614   -3.7696 N   0  0  0  0  0  0  0  0  0  0  0  0
   -0.5104   -2.5188   -2.8300 C   0  0  0  0  0  0  0  0  0  0  0  0
    0.1941   -3.3238   -2.6430 H   0  0  0  0  0  0  0  0  0  0  0  0
   -0.5371    1.0195    0.3725 C   0  0  0  0  0  0  0  0  0  0  0  0
   -1.3231    1.6112   -0.3641 O   0  0  0  0  0  0  0  0  0  0  0  0
    0.2702    1.7417    1.2321 N   0  0  0  0  0  0  0  0  0  0  0  0
    0.8667    1.2178    1.8670 H   0  0  0  0  0  0  0  0  0  0  0  0
    0.1832    3.1891    1.3832 C   0  0  0  0  0  0  0  0  0  0  0  0
   -0.8071    3.4770    1.7516 H   0  0  0  0  0  0  0  0  0  0  0  0
    0.9341    3.5407    2.0973 H   0  0  0  0  0  0  0  0  0  0  0  0
    0.3612    3.6866    0.4240 H   0  0  0  0  0  0  0  0  0  0  0  0
  1  2  1  0  0  0  0
  2  3  1  0  0  0  0
  2  4  1  0  0  0  0
  2  5  1  0  0  0  0
  5  6  2  0  0  0  0
  5  7  1  0  0  0  0
  7  8  1  0  0  0  0
  7  9  1  0  0  0  0
  9 10  1  0  0  0  0
  9 11  1  0  0  0  0
  9 22  1  0  0  0  0
 11 12  1  0  0  0  0
 11 13  1  0  0  0  0
 11 14  1  0  0  0  0
 14 15  1  0  0  0  0
 14 20  2  0  0  0  0
 15 16  1  0  0  0  0
 15 17  1  0  0  0  0
 17 18  1  0  0  0  0
 17 19  2  0  0  0  0
 19 20  1  0  0  0  0
 20 21  1  0  0  0  0
 22 23  2  0  0  0  0
 22 24  1  0  0  0  0
 24 25  1  0  0  0  0
 24 26  1  0  0  0  0
 26 27  1  0  0  0  0
 26 28  1  0  0  0  0
 26 29  1  0  0  0  0
M  END
$$$$

  -OEChem-04042215593D

 29 29  0     1  0  0  0  0  0999 V2000
   -3.5602   -3.7333    1.4413 H   0  0  0  0  0  0  0  0  0  0  0  0
   -3.4604   -2.8469    0.8089 C   0  0  0  0  0  0  0  0  0  0  0  0
   -4.2463   -2.1351    1.0718 H   0  0  0  0  0  0  0  0  0  0  0  0
   -3.5811   -3.1444   -0.2358 H   0  0  0  0  0  0  0  0  0  0  0  0
   -2.0978   -2.2123    1.0099 C   0  0  0  0  0  0  0  0  0  0  0  0
   -1.3114   -2.6887    1.8135 O   0  0  0  0  0  0  0  0  0  0  0  0
   -1.7443   -1.1064    0.2679 N   0  0  0  0  0  0  0  0  0  0  0  0
   -2.4014   -0.7905   -0.4414 H   0  0  0  0  0  0  0  0  0  0  0  0
   -0.4006   -0.5021    0.2567 C   0  0  1  0  0  0  0  0  0  0  0  0
    0.1909   -0.8502    1.1095 H   0  0  0  0  0  0  0  0  0  0  0  0
    0.3650   -0.8181   -1.0531 C   0  0  0  0  0  0  0  0  0  0  0  0
    0.9149    0.0593   -1.4107 H   0  0  0  0  0  0  0  0  0  0  0  0
    1.1079   -1.5900   -0.8281 H   0  0  0  0  0  0  0  0  0  0  0  0
   -0.5281   -1.3374   -2.1518 C   0  0  0  0  0  0  0  0  0  0  0  0
   -1.3971   -0.5735   -2.8968 N   0  0  0  0  0  0  0  0  0  0  0  0
   -1.5630    0.4278   -2.7830 H   0  0  0  0  0  0  0  0  0  0  0  0
   -2.0350   -1.4016   -3.7999 C   0  0  0  0  0  0  0  0  0  0  0  0
   -2.7822   -1.0820   -4.5207 H   0  0  0  0  0  0  0  0  0  0  0  0
   -1.6120   -2.6358   -3.6551 N   0  0  0  0  0  0  0  0  0  0  0  0
   -0.6614   -2.6101   -2.6382 C   0  0  0  0  0  0  0  0  0  0  0  0
   -0.1140   -3.4755   -2.2766 H   0  0  0  0  0  0  0  0  0  0  0  0
   -0.5394    1.0287    0.3688 C   0  0  0  0  0  0  0  0  0  0  0  0
   -1.3068    1.6278   -0.3803 O   0  0  0  0  0  0  0  0  0  0  0  0
    0.2690    1.7452    1.2323 N   0  0  0  0  0  0  0  0  0  0  0  0
    0.8521    1.2166    1.8758 H   0  0  0  0  0  0  0  0  0  0  0  0
    0.1997    3.1945    1.3754 C   0  0  0  0  0  0  0  0  0  0  0  0
   -0.7886    3.4968    1.7375 H   0  0  0  0  0  0  0  0  0  0  0  0
    0.9520    3.5402    2.0910 H   0  0  0  0  0  0  0  0  0  0  0  0
    0.3884    3.6846    0.4144 H   0  0  0  0  0  0  0  0  0  0  0  0
  1  2  1  0  0  0  0
  2  3  1  0  0  0  0
  2  4  1  0  0  0  0
  2  5  1  0  0  0  0
  5  6  2  0  0  0  0
  5  7  1  0  0  0  0
  7  8  1  0  0  0  0
  7  9  1  0  0  0  0
  9 10  1  0  0  0  0
  9 11  1  0  0  0  0
  9 22  1  0  0  0  0
 11 12  1  0  0  0  0
 11 13  1  0  0  0  0
 11 14  1  0  0  0  0
 14 15  1  0  0  0  0
 14 20  2  0  0  0  0
 15 16  1  0  0  0  0
 15 17  1  0  0  0  0
 17 18  1  0  0  0  0
 17 19  2  0  0  0  0
 19 20  1  0  0  0  0
 20 21  1  0  0  0  0
 22 23  2  0  0  0  0
 22 24  1  0  0  0  0
 24 25  1  0  0  0  0
 24 26  1  0  0  0  0
 26 27  1  0  0  0  0
 26 28  1  0  0  0  0
 26 29  1  0  0  0  0
M  END
$$$$

  -OEChem-04042215593D

 29 29  0     1  0  0  0  0  0999 V2000
   -3.5729   -3.7193    1.4543 H   0  0  0  0  0  0  0  0  0  0  0  0
   -3.4786   -2.8244    0.8329 C   0  0  0  0  0  0  0  0  0  0  0  0
   -4.2445   -2.1048    1.1317 H   0  0  0  0  0  0  0  0  0  0  0  0
   -3.6364   -3.1027   -0.2123 H   0  0  0  0  0  0  0  0  0  0  0  0
   -2.1008   -2.2138    1.0009 C   0  0  0  0  0  0  0  0  0  0  0  0
   -1.2972   -2.7146    1.7720 O   0  0  0  0  0  0  0  0  0  0  0  0
   -1.7523   -1.1014    0.2662 N   0  0  0  0  0  0  0  0  0  0  0  0
   -2.4311   -0.7499   -0.4058 H   0  0  0  0  0  0  0  0  0  0  0  0
   -0.4116   -0.4920    0.2493 C   0  0  1  0  0  0  0  0  0  0  0  0
    0.1805   -0.8436    1.1003 H   0  0  0  0  0  0  0  0  0  0  0  0
    0.3537   -0.8138   -1.0586 C   0  0  0  0  0  0  0  0  0  0  0  0
    0.9059    0.0603   -1.4204 H   0  0  0  0  0  0  0  0  0  0  0  0
    1.0959   -1.5842   -0.8257 H   0  0  0  0  0  0  0  0  0  0  0  0
   -0.5335   -1.3472   -2.1564 C   0  0  0  0  0  0  0  0  0  0  0  0
   -1.1910   -0.5982   -3.1047 N   0  0  0  0  0  0  0  0  0  0  0  0
   -1.2226    0.4202   -3.1487 H   0  0  0  0  0  0  0  0  0  0  0  0
   -1.8780   -1.4609   -3.9372 C   0  0  0  0  0  0  0  0  0  0  0  0
   -2.5032   -1.1577   -4.7721 H   0  0  0  0  0  0  0  0  0  0  0  0
   -1.6732   -2.7035   -3.5674 N   0  0  0  0  0  0  0  0  0  0  0  0
   -0.8217   -2.6494   -2.4679 C   0  0  0  0  0  0  0  0  0  0  0  0
   -0.4483   -3.5143   -1.9276 H   0  0  0  0  0  0  0  0  0  0  0  0
   -0.5419    1.0386    0.3731 C   0  0  0  0  0  0  0  0  0  0  0  0
   -1.3183    1.6483   -0.3563 O   0  0  0  0  0  0  0  0  0  0  0  0
    0.2774    1.7447    1.2350 N   0  0  0  0  0  0  0  0  0  0  0  0
    0.8701    1.2092    1.8638 H   0  0  0  0  0  0  0  0  0  0  0  0
    0.2110    3.1924    1.3943 C   0  0  0  0  0  0  0  0  0  0  0  0
   -0.7717    3.4916    1.7737 H   0  0  0  0  0  0  0  0  0  0  0  0
    0.9738    3.5301    2.1024 H   0  0  0  0  0  0  0  0  0  0  0  0
    0.3860    3.6922    0.4358 H   0  0  0  0  0  0  0  0  0  0  0  0
  1  2  1  0  0  0  0
  2  3  1  0  0  0  0
  2  4  1  0  0  0  0
  2  5  1  0  0  0  0
  5  6  2  0  0  0  0
  5  7  1  0  0  0  0
  7  8  1  0  0  0  0
  7  9  1  0  0  0  0
  9 10  1  0  0  0  0
  9 11  1  0  0  0  0
  9 22  1  0  0  0  0
 11 12  1  0  0  0  0
 11 13  1  0  0  0  0
 11 14  1  0  0  0  0
 14 15  1  0  0  0  0
 14 20  2  0  0  0  0
 15 16  1  0  0  0  0
 15 17  1  0  0  0  0
 17 18  1  0  0  0  0
 17 19  2  0  0  0  0
 19 20  1  0  0  0  0
 20 21  1  0  0  0  0
 22 23  2  0  0  0  0
 22 24  1  0  0  0  0
 24 25  1  0  0  0  0
 24 26  1  0  0  0  0
 26 27  1  0  0  0  0
 26 28  1  0  0  0  0
 26 29  1  0  0  0  0
M  END
$$$$

  -OEChem-04042215593D

 29 29  0     1  0  0  0  0  0999 V2000
   -3.5888   -3.6976    1.4846 H   0  0  0  0  0  0  0  0  0  0  0  0
   -3.5046   -2.7881    0.8834 C   0  0  0  0  0  0  0  0  0  0  0  0
   -4.2411   -2.0620    1.2353 H   0  0  0  0  0  0  0  0  0  0  0  0
   -3.7153   -3.0352   -0.1603 H   0  0  0  0  0  0  0  0  0  0  0  0
   -2.1087   -2.2085    1.0049 C   0  0  0  0  0  0  0  0  0  0  0  0
   -1.2830   -2.7418    1.7294 O   0  0  0  0  0  0  0  0  0  0  0  0
   -1.7666   -1.0919    0.2733 N   0  0  0  0  0  0  0  0  0  0  0  0
   -2.4742   -0.6944   -0.3415 H   0  0  0  0  0  0  0  0  0  0  0  0
   -0.4260   -0.4837    0.2387 C   0  0  1  0  0  0  0  0  0  0  0  0
    0.1701   -0.8379    1.0857 H   0  0  0  0  0  0  0  0  0  0  0  0
    0.3365   -0.8124   -1.0701 C   0  0  0  0  0  0  0  0  0  0  0  0
    0.8850    0.0630   -1.4340 H   0  0  0  0  0  0  0  0  0  0  0  0
    1.0827   -1.5776   -0.8319 H   0  0  0  0  0  0  0  0  0  0  0  0
   -0.5373   -1.3590   -2.1738 C   0  0  0  0  0  0  0  0  0  0  0  0
   -0.9648   -0.6870   -3.2958 N   0  0  0  0  0  0  0  0  0  0  0  0
   -0.8255    0.3026   -3.4932 H   0  0  0  0  0  0  0  0  0  0  0  0
   -1.6989   -1.5622   -4.0733 C   0  0  0  0  0  0  0  0  0  0  0  0
   -2.1842   -1.3069   -5.0110 H   0  0  0  0  0  0  0  0  0  0  0  0
   -1.7309   -2.7477   -3.5121 N   0  0  0  0  0  0  0  0  0  0  0  0
   -0.9908   -2.6419   -2.3389 C   0  0  0  0  0  0  0  0  0  0  0  0
   -0.8036   -3.4593   -1.6486 H   0  0  0  0  0  0  0  0  0  0  0  0
   -0.5460    1.0469    0.3738 C   0  0  0  0  0  0  0  0  0  0  0  0
   -1.3475    1.6647   -0.3192 O   0  0  0  0  0  0  0  0  0  0  0  0
    0.2919    1.7424    1.2265 N   0  0  0  0  0  0  0  0  0  0  0  0
    0.8952    1.1984    1.8375 H   0  0  0  0  0  0  0  0  0  0  0  0
    0.2134    3.1853    1.4207 C   0  0  0  0  0  0  0  0  0  0  0  0
   -0.7648    3.4641    1.8264 H   0  0  0  0  0  0  0  0  0  0  0  0
    0.9862    3.5151    2.1216 H   0  0  0  0  0  0  0  0  0  0  0  0
    0.3637    3.7095    0.4710 H   0  0  0  0  0  0  0  0  0  0  0  0
  1  2  1  0  0  0  0
  2  3  1  0  0  0  0
  2  4  1  0  0  0  0
  2  5  1  0  0  0  0
  5  6  2  0  0  0  0
  5  7  1  0  0  0  0
  7  8  1  0  0  0  0
  7  9  1  0  0  0  0
  9 10  1  0  0  0  0
  9 11  1  0  0  0  0
  9 22  1  0  0  0  0
 11 12  1  0  0  0  0
 11 13  1  0  0  0  0
 11 14  1  0  0  0  0
 14 15  1  0  0  0  0
 14 20  2  0  0  0  0
 15 16  1  0  0  0  0
 15 17  1  0  0  0  0
 17 18  1  0  0  0  0
 17 19  2  0  0  0  0
 19 20  1  0  0  0  0
 20 21  1  0  0  0  0
 22 23  2  0  0  0  0
 22 24  1  0  0  0  0
 24 25  1  0  0  0  0
 24 26  1  0  0  0  0
 26 27  1  0  0  0  0
 26 28  1  0  0  0  0
 26 29  1  0  0  0  0
M  END
$$$$

  -OEChem-04042215593D

 29 29  0     1  0  0  0  0  0999 V2000
   -3.6088   -3.6716    1.5691 H   0  0  0  0  0  0  0  0  0  0  0  0
   -3.5337   -2.7642    0.9634 C   0  0  0  0  0  0  0  0  0  0  0  0
   -4.2461   -2.0273    1.3416 H   0  0  0  0  0  0  0  0  0  0  0  0
   -3.7878   -3.0097   -0.0709 H   0  0  0  0  0  0  0  0  0  0  0  0
   -2.1251   -2.2062    1.0310 C   0  0  0  0  0  0  0  0  0  0  0  0
   -1.2785   -2.7600    1.7147 O   0  0  0  0  0  0  0  0  0  0  0  0
   -1.7939   -1.0877    0.2964 N   0  0  0  0  0  0  0  0  0  0  0  0
   -2.5238   -0.6583   -0.2699 H   0  0  0  0  0  0  0  0  0  0  0  0
   -0.4528   -0.4836    0.2369 C   0  0  1  0  0  0  0  0  0  0  0  0
    0.1515   -0.8394    1.0775 H   0  0  0  0  0  0  0  0  0  0  0  0
    0.3063   -0.8109   -1.0760 C   0  0  0  0  0  0  0  0  0  0  0  0
    0.8466    0.0719   -1.4345 H   0  0  0  0  0  0  0  0  0  0  0  0
    1.0615   -1.5674   -0.8389 H   0  0  0  0  0  0  0  0  0  0  0  0
   -0.5436   -1.3652   -2.1973 C   0  0  0  0  0  0  0  0  0  0  0  0
   -0.7246   -0.8092   -3.4438 N   0  0  0  0  0  0  0  0  0  0  0  0
   -0.3939    0.1043   -3.7484 H   0  0  0  0  0  0  0  0  0  0  0  0
   -1.5004   -1.6684   -4.1986 C   0  0  0  0  0  0  0  0  0  0  0  0
   -1.8304   -1.4807   -5.2164 H   0  0  0  0  0  0  0  0  0  0  0  0
   -1.7851   -2.7458   -3.5074 N   0  0  0  0  0  0  0  0  0  0  0  0
   -1.1715   -2.5827   -2.2702 C   0  0  0  0  0  0  0  0  0  0  0  0
   -1.1828   -3.3222   -1.4752 H   0  0  0  0  0  0  0  0  0  0  0  0
   -0.5661    1.0468    0.3803 C   0  0  0  0  0  0  0  0  0  0  0  0
   -1.3947    1.6683   -0.2754 O   0  0  0  0  0  0  0  0  0  0  0  0
    0.2917    1.7358    1.2188 N   0  0  0  0  0  0  0  0  0  0  0  0
    0.9192    1.1883    1.8015 H   0  0  0  0  0  0  0  0  0  0  0  0
    0.2229    3.1778    1.4229 C   0  0  0  0  0  0  0  0  0  0  0  0
   -0.7465    3.4592    1.8475 H   0  0  0  0  0  0  0  0  0  0  0  0
    1.0096    3.4995    2.1121 H   0  0  0  0  0  0  0  0  0  0  0  0
    0.3590    3.7068    0.4738 H   0  0  0  0  0  0  0  0  0  0  0  0
  1  2  1  0  0  0  0
  2  3  1  0  0  0  0
  2  4  1  0  0  0  0
  2  5  1  0  0  0  0
  5  6  2  0  0  0  0
  5  7  1  0  0  0  0
  7  8  1  0  0  0  0
  7  9  1  0  0  0  0
  9 10  1  0  0  0  0
  9 11  1  0  0  0  0
  9 22  1  0  0  0  0
 11 12  1  0  0  0  0
 11 13  1  0  0  0  0
 11 14  1  0  0  0  0
 14 15  1  0  0  0  0
 14 20  2  0  0  0  0
 15 16  1  0  0  0  0
 15 17  1  0  0  0  0
 17 18  1  0  0  0  0
 17 19  2  0  0  0  0
 19 20  1  0  0  0  0
 20 21  1  0  0  0  0
 22 23  2  0  0  0  0
 22 24  1  0  0  0  0
 24 25  1  0  0  0  0
 24 26  1  0  0  0  0
 26 27  1  0  0  0  0
 26 28  1  0  0  0  0
 26 29  1  0  0  0  0
M  END
$$$$

  -OEChem-04042215593D

 29 29  0     1  0  0  0  0  0999 V2000
   -3.6376   -3.6252    1.7028 H   0  0  0  0  0  0  0  0  0  0  0  0
   -3.5662   -2.7242    1.0873 C   0  0  0  0  0  0  0  0  0  0  0  0
   -4.2335   -1.9627    1.4978 H   0  0  0  0  0  0  0  0  0  0  0  0
   -3.8833   -2.9665    0.0698 H   0  0  0  0  0  0  0  0  0  0  0  0
   -2.1390   -2.2107    1.0756 C   0  0  0  0  0  0  0  0  0  0  0  0
   -1.2720   -2.7932    1.7077 O   0  0  0  0  0  0  0  0  0  0  0  0
   -1.8187   -1.0949    0.3318 N   0  0  0  0  0  0  0  0  0  0  0  0
   -2.5731   -0.6220   -0.1638 H   0  0  0  0  0  0  0  0  0  0  0  0
   -0.4767   -0.4997    0.2363 C   0  0  1  0  0  0  0  0  0  0  0  0
    0.1404   -0.8541    1.0682 H   0  0  0  0  0  0  0  0  0  0  0  0
    0.2732   -0.8205   -1.0865 C   0  0  0  0  0  0  0  0  0  0  0  0
    0.8036    0.0721   -1.4352 H   0  0  0  0  0  0  0  0  0  0  0  0
    1.0390   -1.5675   -0.8543 H   0  0  0  0  0  0  0  0  0  0  0  0
   -0.5463   -1.3766   -2.2337 C   0  0  0  0  0  0  0  0  0  0  0  0
   -0.4712   -0.9662   -3.5474 N   0  0  0  0  0  0  0  0  0  0  0  0
    0.0607   -0.1729   -3.8990 H   0  0  0  0  0  0  0  0  0  0  0  0
   -1.2896   -1.7742   -4.3135 C   0  0  0  0  0  0  0  0  0  0  0  0
   -1.4526   -1.6651   -5.3819 H   0  0  0  0  0  0  0  0  0  0  0  0
   -1.8427   -2.6952   -3.5635 N   0  0  0  0  0  0  0  0  0  0  0  0
   -1.3652   -2.4783   -2.2757 C   0  0  0  0  0  0  0  0  0  0  0  0
   -1.5924   -3.1173   -1.4290 H   0  0  0  0  0  0  0  0  0  0  0  0
   -0.5882    1.0311    0.3830 C   0  0  0  0  0  0  0  0  0  0  0  0
   -1.4526    1.6482   -0.2290 O   0  0  0  0  0  0  0  0  0  0  0  0
    0.2896    1.7230    1.1984 N   0  0  0  0  0  0  0  0  0  0  0  0
    0.9475    1.1796    1.7506 H   0  0  0  0  0  0  0  0  0  0  0  0
    0.2181    3.1644    1.4074 C   0  0  0  0  0  0  0  0  0  0  0  0
   -0.7432    3.4394    1.8540 H   0  0  0  0  0  0  0  0  0  0  0  0
    1.0184    3.4900    2.0791 H   0  0  0  0  0  0  0  0  0  0  0  0
    0.3293    3.6956    0.4562 H   0  0  0  0  0  0  0  0  0  0  0  0
  1  2  1  0  0  0  0
  2  3  1  0  0  0  0
  2  4  1  0  0  0  0
  2  5  1  0  0  0  0
  5  6  2  0  0  0  0
  5  7  1  0  0  0  0
  7  8  1  0  0  0  0
  7  9  1  0  0  0  0
  9 10  1  0  0  0  0
  9 11  1  0  0  0  0
  9 22  1  0  0  0  0
 11 12  1  0  0  0  0
 11 13  1  0  0  0  0
 11 14  1  0  0  0  0
 14 15  1  0  0  0  0
 14 20  2  0  0  0  0
 15 16  1  0  0  0  0
 15 17  1  0  0  0  0
 17 18  1  0  0  0  0
 17 19  2  0  0  0  0
 19 20  1  0  0  0  0
 20 21  1  0  0  0  0
 22 23  2  0  0  0  0
 22 24  1  0  0  0  0
 24 25  1  0  0  0  0
 24 26  1  0  0  0  0
 26 27  1  0  0  0  0
 26 28  1  0  0  0  0
 26 29  1  0  0  0  0
M  END
$$$$

  -OEChem-04042215593D

 29 29  0     1  0  0  0  0  0999 V2000
   -3.6297   -3.5999    1.8399 H   0  0  0  0  0  0  0  0  0  0  0  0
   -3.5788   -2.6923    1.2317 C   0  0  0  0  0  0  0  0  0  0  0  0
   -4.1969   -1.9206    1.6968 H   0  0  0  0  0  0  0  0  0  0  0  0
   -3.9720   -2.9136    0.2364 H   0  0  0  0  0  0  0  0  0  0  0  0
   -2.1429   -2.2137    1.1274 C   0  0  0  0  0  0  0  0  0  0  0  0
   -1.2545   -2.8120    1.7133 O   0  0  0  0  0  0  0  0  0  0  0  0
   -1.8426   -1.1025    0.3673 N   0  0  0  0  0  0  0  0  0  0  0  0
   -2.6164   -0.5958   -0.0611 H   0  0  0  0  0  0  0  0  0  0  0  0
   -0.5015   -0.5166    0.2304 C   0  0  1  0  0  0  0  0  0  0  0  0
    0.1306   -0.8648    1.0537 H   0  0  0  0  0  0  0  0  0  0  0  0
    0.2356   -0.8433   -1.1005 C   0  0  0  0  0  0  0  0  0  0  0  0
    0.7512    0.0584   -1.4477 H   0  0  0  0  0  0  0  0  0  0  0  0
    1.0146   -1.5761   -0.8670 H   0  0  0  0  0  0  0  0  0  0  0  0
   -0.5471   -1.4097   -2.2725 C   0  0  0  0  0  0  0  0  0  0  0  0
   -0.2129   -1.1890   -3.5925 N   0  0  0  0  0  0  0  0  0  0  0  0
    0.5359   -0.5878   -3.9290 H   0  0  0  0  0  0  0  0  0  0  0  0
   -1.0878   -1.8870   -4.4017 C   0  0  0  0  0  0  0  0  0  0  0  0
   -1.0746   -1.8817   -5.4878 H   0  0  0  0  0  0  0  0  0  0  0  0
   -1.9378   -2.5598   -3.6679 N   0  0  0  0  0  0  0  0  0  0  0  0
   -1.6019   -2.2887   -2.3464 C   0  0  0  0  0  0  0  0  0  0  0  0
   -2.1024   -2.7482   -1.5026 H   0  0  0  0  0  0  0  0  0  0  0  0
   -0.6098    1.0152    0.3745 C   0  0  0  0  0  0  0  0  0  0  0  0
   -1.5080    1.6264   -0.1927 O   0  0  0  0  0  0  0  0  0  0  0  0
    0.2909    1.7097    1.1621 N   0  0  0  0  0  0  0  0  0  0  0  0
    0.9732    1.1683    1.6858 H   0  0  0  0  0  0  0  0  0  0  0  0
    0.2107    3.1478    1.3903 C   0  0  0  0  0  0  0  0  0  0  0  0
   -0.7432    3.4094    1.8606 H   0  0  0  0  0  0  0  0  0  0  0  0
    1.0214    3.4717    2.0500 H   0  0  0  0  0  0  0  0  0  0  0  0
    0.2980    3.6913    0.4436 H   0  0  0  0  0  0  0  0  0  0  0  0
  1  2  1  0  0  0  0
  2  3  1  0  0  0  0
  2  4  1  0  0  0  0
  2  5  1  0  0  0  0
  5  6  2  0  0  0  0
  5  7  1  0  0  0  0
  7  8  1  0  0  0  0
  7  9  1  0  0  0  0
  9 10  1  0  0  0  0
  9 11  1  0  0  0  0
  9 22  1  0  0  0  0
 11 12  1  0  0  0  0
 11 13  1  0  0  0  0
 11 14  1  0  0  0  0
 14 15  1  0  0  0  0
 14 20  2  0  0  0  0
 15 16  1  0  0  0  0
 15 17  1  0  0  0  0
 17 18  1  0  0  0  0
 17 19  2  0  0  0  0
 19 20  1  0  0  0  0
 20 21  1  0  0  0  0
 22 23  2  0  0  0  0
 22 24  1  0  0  0  0
 24 25  1  0  0  0  0
 24 26  1  0  0  0  0
 26 27  1  0  0  0  0
 26 28  1  0  0  0  0
 26 29  1  0  0  0  0
M  END
$$$$

  -OEChem-04042215593D

 29 29  0     1  0  0  0  0  0999 V2000
   -3.6194   -3.5462    1.9862 H   0  0  0  0  0  0  0  0  0  0  0  0
   -3.5698   -2.6893    1.3086 C   0  0  0  0  0  0  0  0  0  0  0  0
   -4.1841   -1.8828    1.7158 H   0  0  0  0  0  0  0  0  0  0  0  0
   -3.9684   -2.9866    0.3355 H   0  0  0  0  0  0  0  0  0  0  0  0
   -2.1341   -2.2227    1.1592 C   0  0  0  0  0  0  0  0  0  0  0  0
   -1.2328   -2.8281    1.7175 O   0  0  0  0  0  0  0  0  0  0  0  0
   -1.8504   -1.1094    0.3959 N   0  0  0  0  0  0  0  0  0  0  0  0
   -2.6351   -0.5811    0.0163 H   0  0  0  0  0  0  0  0  0  0  0  0
   -0.5129   -0.5272    0.2302 C   0  0  1  0  0  0  0  0  0  0  0  0
    0.1332   -0.8760    1.0426 H   0  0  0  0  0  0  0  0  0  0  0  0
    0.2022   -0.8594   -1.1111 C   0  0  0  0  0  0  0  0  0  0  0  0
    0.7142    0.0425   -1.4631 H   0  0  0  0  0  0  0  0  0  0  0  0
    0.9833   -1.5903   -0.8786 H   0  0  0  0  0  0  0  0  0  0  0  0
   -0.5716   -1.4311   -2.2899 C   0  0  0  0  0  0  0  0  0  0  0  0
   -0.0520   -1.4531   -3.5682 N   0  0  0  0  0  0  0  0  0  0  0  0
    0.8584   -1.0969   -3.8502 H   0  0  0  0  0  0  0  0  0  0  0  0
   -0.9736   -2.0225   -4.4243 C   0  0  0  0  0  0  0  0  0  0  0  0
   -0.8324   -2.1637   -5.4919 H   0  0  0  0  0  0  0  0  0  0  0  0
   -2.0463   -2.3687   -3.7600 N   0  0  0  0  0  0  0  0  0  0  0  0
   -1.8125   -2.0092   -2.4374 C   0  0  0  0  0  0  0  0  0  0  0  0
   -2.5356   -2.1864   -1.6513 H   0  0  0  0  0  0  0  0  0  0  0  0
   -0.6163    1.0040    0.3817 C   0  0  0  0  0  0  0  0  0  0  0  0
   -1.5346    1.6148   -0.1528 O   0  0  0  0  0  0  0  0  0  0  0  0
    0.3023    1.6962    1.1504 N   0  0  0  0  0  0  0  0  0  0  0  0
    1.0023    1.1545    1.6499 H   0  0  0  0  0  0  0  0  0  0  0  0
    0.2223    3.1324    1.3894 C   0  0  0  0  0  0  0  0  0  0  0  0
   -0.7211    3.3873    1.8836 H   0  0  0  0  0  0  0  0  0  0  0  0
    1.0472    3.4556    2.0315 H   0  0  0  0  0  0  0  0  0  0  0  0
    0.2848    3.6821    0.4444 H   0  0  0  0  0  0  0  0  0  0  0  0
  1  2  1  0  0  0  0
  2  3  1  0  0  0  0
  2  4  1  0  0  0  0
  2  5  1  0  0  0  0
  5  6  2  0  0  0  0
  5  7  1  0  0  0  0
  7  8  1  0  0  0  0
  7  9  1  0  0  0  0
  9 10  1  0  0  0  0
  9 11  1  0  0  0  0
  9 22  1  0  0  0  0
 11 12  1  0  0  0  0
 11 13  1  0  0  0  0
 11 14  1  0  0  0  0
 14 15  1  0  0  0  0
 14 20  2  0  0  0  0
 15 16  1  0  0  0  0
 15 17  1  0  0  0  0
 17 18  1  0  0  0  0
 17 19  2  0  0  0  0
 19 20  1  0  0  0  0
 20 21  1  0  0  0  0
 22 23  2  0  0  0  0
 22 24  1  0  0  0  0
 24 25  1  0  0  0  0
 24 26  1  0  0  0  0
 26 27  1  0  0  0  0
 26 28  1  0  0  0  0
 26 29  1  0  0  0  0
M  END
$$$$

  -OEChem-04042215593D

 29 29  0     1  0  0  0  0  0999 V2000
   -3.5591   -3.6478    1.8386 H   0  0  0  0  0  0  0  0  0  0  0  0
   -3.5197   -2.7605    1.2009 C   0  0  0  0  0  0  0  0  0  0  0  0
   -4.1506   -1.9832    1.6387 H   0  0  0  0  0  0  0  0  0  0  0  0
   -3.9052   -3.0201    0.2117 H   0  0  0  0  0  0  0  0  0  0  0  0
   -2.0911   -2.2655    1.0835 C   0  0  0  0  0  0  0  0  0  0  0  0
   -1.1851   -2.8719    1.6338 O   0  0  0  0  0  0  0  0  0  0  0  0
   -1.8182   -1.1331    0.3465 N   0  0  0  0  0  0  0  0  0  0  0  0
   -2.6110   -0.5976   -0.0031 H   0  0  0  0  0  0  0  0  0  0  0  0
   -0.4881   -0.5210    0.2158 C   0  0  1  0  0  0  0  0  0  0  0  0
    0.1585   -0.8758    1.0248 H   0  0  0  0  0  0  0  0  0  0  0  0
    0.2174   -0.8386   -1.1268 C   0  0  0  0  0  0  0  0  0  0  0  0
    0.9439   -0.0484   -1.3437 H   0  0  0  0  0  0  0  0  0  0  0  0
    0.7867   -1.7596   -0.9659 H   0  0  0  0  0  0  0  0  0  0  0  0
   -0.6226   -1.0707   -2.3711 C   0  0  0  0  0  0  0  0  0  0  0  0
   -0.0847   -1.3615   -3.6075 N   0  0  0  0  0  0  0  0  0  0  0  0
    0.9015   -1.5025   -3.8143 H   0  0  0  0  0  0  0  0  0  0  0  0
   -1.1054   -1.4485   -4.5340 C   0  0  0  0  0  0  0  0  0  0  0  0
   -0.9763   -1.6842   -5.5865 H   0  0  0  0  0  0  0  0  0  0  0  0
   -2.2554   -1.2048   -3.9585 N   0  0  0  0  0  0  0  0  0  0  0  0
   -1.9691   -0.9425   -2.6231 C   0  0  0  0  0  0  0  0  0  0  0  0
   -2.7239   -0.6527   -1.9009 H   0  0  0  0  0  0  0  0  0  0  0  0
   -0.6097    1.0054    0.3910 C   0  0  0  0  0  0  0  0  0  0  0  0
   -1.5413    1.6091   -0.1283 O   0  0  0  0  0  0  0  0  0  0  0  0
    0.2873    1.6962    1.1860 N   0  0  0  0  0  0  0  0  0  0  0  0
    1.0035    1.1594    1.6672 H   0  0  0  0  0  0  0  0  0  0  0  0
    0.1968    3.1306    1.4325 C   0  0  0  0  0  0  0  0  0  0  0  0
   -0.7551    3.3784    1.9140 H   0  0  0  0  0  0  0  0  0  0  0  0
    1.0108    3.4542    2.0884 H   0  0  0  0  0  0  0  0  0  0  0  0
    0.2706    3.6855    0.4912 H   0  0  0  0  0  0  0  0  0  0  0  0
  1  2  1  0  0  0  0
  2  3  1  0  0  0  0
  2  4  1  0  0  0  0
  2  5  1  0  0  0  0
  5  6  2  0  0  0  0
  5  7  1  0  0  0  0
  7  8  1  0  0  0  0
  7  9  1  0  0  0  0
  9 10  1  0  0  0  0
  9 11  1  0  0  0  0
  9 22  1  0  0  0  0
 11 12  1  0  0  0  0
 11 13  1  0  0  0  0
 11 14  1  0  0  0  0
 14 15  1  0  0  0  0
 14 20  2  0  0  0  0
 15 16  1  0  0  0  0
 15 17  1  0  0  0  0
 17 18  1  0  0  0  0
 17 19  2  0  0  0  0
 19 20  1  0  0  0  0
 20 21  1  0  0  0  0
 22 23  2  0  0  0  0
 22 24  1  0  0  0  0
 24 25  1  0  0  0  0
 24 26  1  0  0  0  0
 26 27  1  0  0  0  0
 26 28  1  0  0  0  0
 26 29  1  0  0  0  0
M  END
$$$$

  -OEChem-04042215593D

 29 29  0     1  0  0  0  0  0999 V2000
   -3.5697   -3.6479    1.7530 H   0  0  0  0  0  0  0  0  0  0  0  0
   -3.5223   -2.7461    1.1364 C   0  0  0  0  0  0  0  0  0  0  0  0
   -4.1548   -1.9772    1.5865 H   0  0  0  0  0  0  0  0  0  0  0  0
   -3.9010   -2.9809    0.1385 H   0  0  0  0  0  0  0  0  0  0  0  0
   -2.0916   -2.2516    1.0417 C   0  0  0  0  0  0  0  0  0  0  0  0
   -1.1939   -2.8584    1.6054 O   0  0  0  0  0  0  0  0  0  0  0  0
   -1.8080   -1.1156    0.3148 N   0  0  0  0  0  0  0  0  0  0  0  0
   -2.5950   -0.5896   -0.0611 H   0  0  0  0  0  0  0  0  0  0  0  0
   -0.4762   -0.4996    0.2086 C   0  0  1  0  0  0  0  0  0  0  0  0
    0.1587   -0.8578    1.0255 H   0  0  0  0  0  0  0  0  0  0  0  0
    0.2405   -0.8281   -1.1240 C   0  0  0  0  0  0  0  0  0  0  0  0
    0.9738   -0.0468   -1.3498 H   0  0  0  0  0  0  0  0  0  0  0  0
    0.8000   -1.7537   -0.9536 H   0  0  0  0  0  0  0  0  0  0  0  0
   -0.6166   -1.0623   -2.3534 C   0  0  0  0  0  0  0  0  0  0  0  0
   -0.1702   -1.6452   -3.5203 N   0  0  0  0  0  0  0  0  0  0  0  0
    0.7589   -2.0264   -3.6846 H   0  0  0  0  0  0  0  0  0  0  0  0
   -1.2027   -1.6530   -4.4382 C   0  0  0  0  0  0  0  0  0  0  0  0
   -1.1442   -2.0666   -5.4409 H   0  0  0  0  0  0  0  0  0  0  0  0
   -2.2667   -1.0887   -3.9239 N   0  0  0  0  0  0  0  0  0  0  0  0
   -1.9102   -0.6949   -2.6384 C   0  0  0  0  0  0  0  0  0  0  0  0
   -2.5709   -0.1563   -1.9669 H   0  0  0  0  0  0  0  0  0  0  0  0
   -0.5930    1.0267    0.3870 C   0  0  0  0  0  0  0  0  0  0  0  0
   -1.5149    1.6373   -0.1413 O   0  0  0  0  0  0  0  0  0  0  0  0
    0.2957    1.7086    1.1988 N   0  0  0  0  0  0  0  0  0  0  0  0
    0.9962    1.1637    1.6936 H   0  0  0  0  0  0  0  0  0  0  0  0
    0.1912    3.1365    1.4750 C   0  0  0  0  0  0  0  0  0  0  0  0
   -0.7617    3.3639    1.9644 H   0  0  0  0  0  0  0  0  0  0  0  0
    1.0038    3.4544    2.1353 H   0  0  0  0  0  0  0  0  0  0  0  0
    0.2563    3.7124    0.5458 H   0  0  0  0  0  0  0  0  0  0  0  0
  1  2  1  0  0  0  0
  2  3  1  0  0  0  0
  2  4  1  0  0  0  0
  2  5  1  0  0  0  0
  5  6  2  0  0  0  0
  5  7  1  0  0  0  0
  7  8  1  0  0  0  0
  7  9  1  0  0  0  0
  9 10  1  0  0  0  0
  9 11  1  0  0  0  0
  9 22  1  0  0  0  0
 11 12  1  0  0  0  0
 11 13  1  0  0  0  0
 11 14  1  0  0  0  0
 14 15  1  0  0  0  0
 14 20  2  0  0  0  0
 15 16  1  0  0  0  0
 15 17  1  0  0  0  0
 17 18  1  0  0  0  0
 17 19  2  0  0  0  0
 19 20  1  0  0  0  0
 20 21  1  0  0  0  0
 22 23  2  0  0  0  0
 22 24  1  0  0  0  0
 24 25  1  0  0  0  0
 24 26  1  0  0  0  0
 26 27  1  0  0  0  0
 26 28  1  0  0  0  0
 26 29  1  0  0  0  0
M  END
$$$$

  -OEChem-04042215593D

 29 29  0     1  0  0  0  0  0999 V2000
   -3.5743   -3.6599    1.6565 H   0  0  0  0  0  0  0  0  0  0  0  0
   -3.5208   -2.7528    1.0483 C   0  0  0  0  0  0  0  0  0  0  0  0
   -4.1778   -1.9965    1.4840 H   0  0  0  0  0  0  0  0  0  0  0  0
   -3.8642   -2.9851    0.0372 H   0  0  0  0  0  0  0  0  0  0  0  0
   -2.0954   -2.2368    1.0031 C   0  0  0  0  0  0  0  0  0  0  0  0
   -1.2069   -2.8370    1.5880 O   0  0  0  0  0  0  0  0  0  0  0  0
   -1.8055   -1.0931    0.2912 N   0  0  0  0  0  0  0  0  0  0  0  0
   -2.5852   -0.5895   -0.1278 H   0  0  0  0  0  0  0  0  0  0  0  0
   -0.4752   -0.4685    0.2090 C   0  0  1  0  0  0  0  0  0  0  0  0
    0.1479   -0.8327    1.0320 H   0  0  0  0  0  0  0  0  0  0  0  0
    0.2530   -0.8063   -1.1137 C   0  0  0  0  0  0  0  0  0  0  0  0
    0.9857   -0.0267   -1.3476 H   0  0  0  0  0  0  0  0  0  0  0  0
    0.8128   -1.7296   -0.9345 H   0  0  0  0  0  0  0  0  0  0  0  0
   -0.6173   -1.0477   -2.3306 C   0  0  0  0  0  0  0  0  0  0  0  0
   -0.3056   -1.8822   -3.3821 N   0  0  0  0  0  0  0  0  0  0  0  0
    0.5293   -2.4578   -3.4662 H   0  0  0  0  0  0  0  0  0  0  0  0
   -1.3331   -1.8346   -4.3044 C   0  0  0  0  0  0  0  0  0  0  0  0
   -1.3663   -2.3992   -5.2318 H   0  0  0  0  0  0  0  0  0  0  0  0
   -2.2666   -1.0104   -3.8976 N   0  0  0  0  0  0  0  0  0  0  0  0
   -1.8289   -0.5016   -2.6790 C   0  0  0  0  0  0  0  0  0  0  0  0
   -2.3785    0.2266   -2.0913 H   0  0  0  0  0  0  0  0  0  0  0  0
   -0.5811    1.0578    0.3969 C   0  0  0  0  0  0  0  0  0  0  0  0
   -1.4866    1.6830   -0.1418 O   0  0  0  0  0  0  0  0  0  0  0  0
    0.3033    1.7265    1.2245 N   0  0  0  0  0  0  0  0  0  0  0  0
    0.9932    1.1727    1.7247 H   0  0  0  0  0  0  0  0  0  0  0  0
    0.2165    3.1565    1.4973 C   0  0  0  0  0  0  0  0  0  0  0  0
   -0.7399    3.3985    1.9724 H   0  0  0  0  0  0  0  0  0  0  0  0
    1.0241    3.4639    2.1686 H   0  0  0  0  0  0  0  0  0  0  0  0
    0.3034    3.7298    0.5682 H   0  0  0  0  0  0  0  0  0  0  0  0
  1  2  1  0  0  0  0
  2  3  1  0  0  0  0
  2  4  1  0  0  0  0
  2  5  1  0  0  0  0
  5  6  2  0  0  0  0
  5  7  1  0  0  0  0
  7  8  1  0  0  0  0
  7  9  1  0  0  0  0
  9 10  1  0  0  0  0
  9 11  1  0  0  0  0
  9 22  1  0  0  0  0
 11 12  1  0  0  0  0
 11 13  1  0  0  0  0
 11 14  1  0  0  0  0
 14 15  1  0  0  0  0
 14 20  2  0  0  0  0
 15 16  1  0  0  0  0
 15 17  1  0  0  0  0
 17 18  1  0  0  0  0
 17 19  2  0  0  0  0
 19 20  1  0  0  0  0
 20 21  1  0  0  0  0
 22 23  2  0  0  0  0
 22 24  1  0  0  0  0
 24 25  1  0  0  0  0
 24 26  1  0  0  0  0
 26 27  1  0  0  0  0
 26 28  1  0  0  0  0
 26 29  1  0  0  0  0
M  END
$$$$

  -OEChem-04042215593D

 29 29  0     1  0  0  0  0  0999 V2000
   -3.5719   -3.6684    1.5765 H   0  0  0  0  0  0  0  0  0  0  0  0
   -3.5146   -2.7547    0.9787 C   0  0  0  0  0  0  0  0  0  0  0  0
   -4.1900   -2.0100    1.4064 H   0  0  0  0  0  0  0  0  0  0  0  0
   -3.8317   -2.9803   -0.0424 H   0  0  0  0  0  0  0  0  0  0  0  0
   -2.0943   -2.2226    0.9718 C   0  0  0  0  0  0  0  0  0  0  0  0
   -1.2129   -2.8172    1.5733 O   0  0  0  0  0  0  0  0  0  0  0  0
   -1.7989   -1.0743    0.2701 N   0  0  0  0  0  0  0  0  0  0  0  0
   -2.5679   -0.5941   -0.1939 H   0  0  0  0  0  0  0  0  0  0  0  0
   -0.4705   -0.4436    0.2046 C   0  0  1  0  0  0  0  0  0  0  0  0
    0.1432   -0.8098    1.0337 H   0  0  0  0  0  0  0  0  0  0  0  0
    0.2671   -0.7931   -1.1085 C   0  0  0  0  0  0  0  0  0  0  0  0
    0.9925   -0.0100   -1.3524 H   0  0  0  0  0  0  0  0  0  0  0  0
    0.8345   -1.7107   -0.9233 H   0  0  0  0  0  0  0  0  0  0  0  0
   -0.6175   -1.0431   -2.3111 C   0  0  0  0  0  0  0  0  0  0  0  0
   -0.4842   -2.0792   -3.2092 N   0  0  0  0  0  0  0  0  0  0  0  0
    0.2155   -2.8174   -3.1769 H   0  0  0  0  0  0  0  0  0  0  0  0
   -1.4853   -1.9733   -4.1552 C   0  0  0  0  0  0  0  0  0  0  0  0
   -1.6360   -2.6582   -4.9847 H   0  0  0  0  0  0  0  0  0  0  0  0
   -2.2328   -0.9266   -3.9053 N   0  0  0  0  0  0  0  0  0  0  0  0
   -1.6987   -0.3297   -2.7672 C   0  0  0  0  0  0  0  0  0  0  0  0
   -2.0938    0.5705   -2.3080 H   0  0  0  0  0  0  0  0  0  0  0  0
   -0.5725    1.0821    0.3983 C   0  0  0  0  0  0  0  0  0  0  0  0
   -1.4726    1.7153   -0.1394 O   0  0  0  0  0  0  0  0  0  0  0  0
    0.3084    1.7408    1.2374 N   0  0  0  0  0  0  0  0  0  0  0  0
    0.9971    1.1814    1.7326 H   0  0  0  0  0  0  0  0  0  0  0  0
    0.2281    3.1693    1.5184 C   0  0  0  0  0  0  0  0  0  0  0  0
   -0.7300    3.4149    1.9885 H   0  0  0  0  0  0  0  0  0  0  0  0
    1.0330    3.4668    2.1973 H   0  0  0  0  0  0  0  0  0  0  0  0
    0.3252    3.7477    0.5936 H   0  0  0  0  0  0  0  0  0  0  0  0
  1  2  1  0  0  0  0
  2  3  1  0  0  0  0
  2  4  1  0  0  0  0
  2  5  1  0  0  0  0
  5  6  2  0  0  0  0
  5  7  1  0  0  0  0
  7  8  1  0  0  0  0
  7  9  1  0  0  0  0
  9 10  1  0  0  0  0
  9 11  1  0  0  0  0
  9 22  1  0  0  0  0
 11 12  1  0  0  0  0
 11 13  1  0  0  0  0
 11 14  1  0  0  0  0
 14 15  1  0  0  0  0
 14 20  2  0  0  0  0
 15 16  1  0  0  0  0
 15 17  1  0  0  0  0
 17 18  1  0  0  0  0
 17 19  2  0  0  0  0
 19 20  1  0  0  0  0
 20 21  1  0  0  0  0
 22 23  2  0  0  0  0
 22 24  1  0  0  0  0
 24 25  1  0  0  0  0
 24 26  1  0  0  0  0
 26 27  1  0  0  0  0
 26 28  1  0  0  0  0
 26 29  1  0  0  0  0
M  END
$$$$

  -OEChem-04042215593D

 29 29  0     1  0  0  0  0  0999 V2000
   -3.5727   -3.6732    1.5425 H   0  0  0  0  0  0  0  0  0  0  0  0
   -3.5084   -2.7577    0.9481 C   0  0  0  0  0  0  0  0  0  0  0  0
   -4.1901   -2.0149    1.3695 H   0  0  0  0  0  0  0  0  0  0  0  0
   -3.8126   -2.9802   -0.0776 H   0  0  0  0  0  0  0  0  0  0  0  0
   -2.0887   -2.2238    0.9611 C   0  0  0  0  0  0  0  0  0  0  0  0
   -1.2151   -2.8176    1.5747 O   0  0  0  0  0  0  0  0  0  0  0  0
   -1.7838   -1.0785    0.2594 N   0  0  0  0  0  0  0  0  0  0  0  0
   -2.5420   -0.6100   -0.2340 H   0  0  0  0  0  0  0  0  0  0  0  0
   -0.4557   -0.4462    0.2074 C   0  0  1  0  0  0  0  0  0  0  0  0
    0.1529   -0.8103    1.0414 H   0  0  0  0  0  0  0  0  0  0  0  0
    0.2864   -0.7977   -1.1015 C   0  0  0  0  0  0  0  0  0  0  0  0
    1.0018   -0.0066   -1.3498 H   0  0  0  0  0  0  0  0  0  0  0  0
    0.8644   -1.7104   -0.9252 H   0  0  0  0  0  0  0  0  0  0  0  0
   -0.6181   -1.0417   -2.2880 C   0  0  0  0  0  0  0  0  0  0  0  0
   -0.7088   -2.2040   -3.0213 N   0  0  0  0  0  0  0  0  0  0  0  0
   -0.1927   -3.0647   -2.8514 H   0  0  0  0  0  0  0  0  0  0  0  0
   -1.6479   -2.0204   -4.0177 C   0  0  0  0  0  0  0  0  0  0  0  0
   -1.9383   -2.7701   -4.7481 H   0  0  0  0  0  0  0  0  0  0  0  0
   -2.1429   -0.8086   -3.9528 N   0  0  0  0  0  0  0  0  0  0  0  0
   -1.5035   -0.1814   -2.8870 C   0  0  0  0  0  0  0  0  0  0  0  0
   -1.6858    0.8429   -2.5775 H   0  0  0  0  0  0  0  0  0  0  0  0
   -0.5657    1.0798    0.3938 C   0  0  0  0  0  0  0  0  0  0  0  0
   -1.4550    1.7086   -0.1670 O   0  0  0  0  0  0  0  0  0  0  0  0
    0.3016    1.7459    1.2409 N   0  0  0  0  0  0  0  0  0  0  0  0
    0.9807    1.1908    1.7539 H   0  0  0  0  0  0  0  0  0  0  0  0
    0.2145    3.1764    1.5098 C   0  0  0  0  0  0  0  0  0  0  0  0
   -0.7495    3.4230    1.9673 H   0  0  0  0  0  0  0  0  0  0  0  0
    1.0110    3.4819    2.1951 H   0  0  0  0  0  0  0  0  0  0  0  0
    0.3205    3.7476    0.5814 H   0  0  0  0  0  0  0  0  0  0  0  0
  1  2  1  0  0  0  0
  2  3  1  0  0  0  0
  2  4  1  0  0  0  0
  2  5  1  0  0  0  0
  5  6  2  0  0  0  0
  5  7  1  0  0  0  0
  7  8  1  0  0  0  0
  7  9  1  0  0  0  0
  9 10  1  0  0  0  0
  9 11  1  0  0  0  0
  9 22  1  0  0  0  0
 11 12  1  0  0  0  0
 11 13  1  0  0  0  0
 11 14  1  0  0  0  0
 14 15  1  0  0  0  0
 14 20  2  0  0  0  0
 15 16  1  0  0  0  0
 15 17  1  0  0  0  0
 17 18  1  0  0  0  0
 17 19  2  0  0  0  0
 19 20  1  0  0  0  0
 20 21  1  0  0  0  0
 22 23  2  0  0  0  0
 22 24  1  0  0  0  0
 24 25  1  0  0  0  0
 24 26  1  0  0  0  0
 26 27  1  0  0  0  0
 26 28  1  0  0  0  0
 26 29  1  0  0  0  0
M  END
$$$$

  -OEChem-04042215593D

 29 29  0     1  0  0  0  0  0999 V2000
   -3.5777   -3.6753    1.5362 H   0  0  0  0  0  0  0  0  0  0  0  0
   -3.5071   -2.7597    0.9424 C   0  0  0  0  0  0  0  0  0  0  0  0
   -4.1878   -2.0145    1.3615 H   0  0  0  0  0  0  0  0  0  0  0  0
   -3.8079   -2.9804   -0.0846 H   0  0  0  0  0  0  0  0  0  0  0  0
   -2.0856   -2.2311    0.9621 C   0  0  0  0  0  0  0  0  0  0  0  0
   -1.2170   -2.8293    1.5779 O   0  0  0  0  0  0  0  0  0  0  0  0
   -1.7713   -1.0909    0.2570 N   0  0  0  0  0  0  0  0  0  0  0  0
   -2.5218   -0.6243   -0.2502 H   0  0  0  0  0  0  0  0  0  0  0  0
   -0.4426   -0.4599    0.2138 C   0  0  1  0  0  0  0  0  0  0  0  0
    0.1645   -0.8219    1.0498 H   0  0  0  0  0  0  0  0  0  0  0  0
    0.3013   -0.8009   -1.0964 C   0  0  0  0  0  0  0  0  0  0  0  0
    1.0098   -0.0016   -1.3392 H   0  0  0  0  0  0  0  0  0  0  0  0
    0.8862   -1.7123   -0.9371 H   0  0  0  0  0  0  0  0  0  0  0  0
   -0.6172   -1.0295   -2.2730 C   0  0  0  0  0  0  0  0  0  0  0  0
   -0.9442   -2.2405   -2.8414 N   0  0  0  0  0  0  0  0  0  0  0  0
   -0.6214   -3.1561   -2.5353 H   0  0  0  0  0  0  0  0  0  0  0  0
   -1.8036   -2.0069   -3.8975 C   0  0  0  0  0  0  0  0  0  0  0  0
   -2.2338   -2.7745   -4.5342 H   0  0  0  0  0  0  0  0  0  0  0  0
   -2.0287   -0.7213   -4.0202 N   0  0  0  0  0  0  0  0  0  0  0  0
   -1.2904   -0.0964   -3.0184 C   0  0  0  0  0  0  0  0  0  0  0  0
   -1.2566    0.9762   -2.8509 H   0  0  0  0  0  0  0  0  0  0  0  0
   -0.5630    1.0665    0.3902 C   0  0  0  0  0  0  0  0  0  0  0  0
   -1.4346    1.6889   -0.2049 O   0  0  0  0  0  0  0  0  0  0  0  0
    0.2906    1.7440    1.2422 N   0  0  0  0  0  0  0  0  0  0  0  0
    0.9578    1.1952    1.7773 H   0  0  0  0  0  0  0  0  0  0  0  0
    0.2026    3.1789    1.4862 C   0  0  0  0  0  0  0  0  0  0  0  0
   -0.7695    3.4352    1.9206 H   0  0  0  0  0  0  0  0  0  0  0  0
    0.9865    3.4932    2.1819 H   0  0  0  0  0  0  0  0  0  0  0  0
    0.3280    3.7346    0.5509 H   0  0  0  0  0  0  0  0  0  0  0  0
  1  2  1  0  0  0  0
  2  3  1  0  0  0  0
  2  4  1  0  0  0  0
  2  5  1  0  0  0  0
  5  6  2  0  0  0  0
  5  7  1  0  0  0  0
  7  8  1  0  0  0  0
  7  9  1  0  0  0  0
  9 10  1  0  0  0  0
  9 11  1  0  0  0  0
  9 22  1  0  0  0  0
 11 12  1  0  0  0  0
 11 13  1  0  0  0  0
 11 14  1  0  0  0  0
 14 15  1  0  0  0  0
 14 20  2  0  0  0  0
 15 16  1  0  0  0  0
 15 17  1  0  0  0  0
 17 18  1  0  0  0  0
 17 19  2  0  0  0  0
 19 20  1  0  0  0  0
 20 21  1  0  0  0  0
 22 23  2  0  0  0  0
 22 24  1  0  0  0  0
 24 25  1  0  0  0  0
 24 26  1  0  0  0  0
 26 27  1  0  0  0  0
 26 28  1  0  0  0  0
 26 29  1  0  0  0  0
M  END
$$$$

  -OEChem-04042215593D

 29 29  0     1  0  0  0  0  0999 V2000
   -3.5886   -3.6635    1.5632 H   0  0  0  0  0  0  0  0  0  0  0  0
   -3.5152   -2.7490    0.9682 C   0  0  0  0  0  0  0  0  0  0  0  0
   -4.1774   -1.9941    1.3988 H   0  0  0  0  0  0  0  0  0  0  0  0
   -3.8368   -2.9650   -0.0534 H   0  0  0  0  0  0  0  0  0  0  0  0
   -2.0866   -2.2401    0.9642 C   0  0  0  0  0  0  0  0  0  0  0  0
   -1.2136   -2.8558    1.5554 O   0  0  0  0  0  0  0  0  0  0  0  0
   -1.7712   -1.1008    0.2586 N   0  0  0  0  0  0  0  0  0  0  0  0
   -2.5260   -0.6185   -0.2275 H   0  0  0  0  0  0  0  0  0  0  0  0
   -0.4427   -0.4698    0.2135 C   0  0  1  0  0  0  0  0  0  0  0  0
    0.1663   -0.8324    1.0476 H   0  0  0  0  0  0  0  0  0  0  0  0
    0.3035   -0.7938   -1.0992 C   0  0  0  0  0  0  0  0  0  0  0  0
    1.0092    0.0114   -1.3307 H   0  0  0  0  0  0  0  0  0  0  0  0
    0.8918   -1.7049   -0.9516 H   0  0  0  0  0  0  0  0  0  0  0  0
   -0.6133   -1.0125   -2.2783 C   0  0  0  0  0  0  0  0  0  0  0  0
   -1.1653   -2.2058   -2.6888 N   0  0  0  0  0  0  0  0  0  0  0  0
   -1.0277   -3.1142   -2.2501 H   0  0  0  0  0  0  0  0  0  0  0  0
   -1.9305   -1.9659   -3.8139 C   0  0  0  0  0  0  0  0  0  0  0  0
   -2.4860   -2.7198   -4.3640 H   0  0  0  0  0  0  0  0  0  0  0  0
   -1.8900   -0.6927   -4.1238 N   0  0  0  0  0  0  0  0  0  0  0  0
   -1.0714   -0.0841   -3.1758 C   0  0  0  0  0  0  0  0  0  0  0  0
   -0.8326    0.9751   -3.1499 H   0  0  0  0  0  0  0  0  0  0  0  0
   -0.5690    1.0561    0.3892 C   0  0  0  0  0  0  0  0  0  0  0  0
   -1.4407    1.6754   -0.2089 O   0  0  0  0  0  0  0  0  0  0  0  0
    0.2828    1.7369    1.2404 N   0  0  0  0  0  0  0  0  0  0  0  0
    0.9529    1.1908    1.7744 H   0  0  0  0  0  0  0  0  0  0  0  0
    0.1985    3.1735    1.4756 C   0  0  0  0  0  0  0  0  0  0  0  0
   -0.7750    3.4356    1.9033 H   0  0  0  0  0  0  0  0  0  0  0  0
    0.9796    3.4889    2.1741 H   0  0  0  0  0  0  0  0  0  0  0  0
    0.3315    3.7242    0.5382 H   0  0  0  0  0  0  0  0  0  0  0  0
  1  2  1  0  0  0  0
  2  3  1  0  0  0  0
  2  4  1  0  0  0  0
  2  5  1  0  0  0  0
  5  6  2  0  0  0  0
  5  7  1  0  0  0  0
  7  8  1  0  0  0  0
  7  9  1  0  0  0  0
  9 10  1  0  0  0  0
  9 11  1  0  0  0  0
  9 22  1  0  0  0  0
 11 12  1  0  0  0  0
 11 13  1  0  0  0  0
 11 14  1  0  0  0  0
 14 15  1  0  0  0  0
 14 20  2  0  0  0  0
 15 16  1  0  0  0  0
 15 17  1  0  0  0  0
 17 18  1  0  0  0  0
 17 19  2  0  0  0  0
 19 20  1  0  0  0  0
 20 21  1  0  0  0  0
 22 23  2  0  0  0  0
 22 24  1  0  0  0  0
 24 25  1  0  0  0  0
 24 26  1  0  0  0  0
 26 27  1  0  0  0  0
 26 28  1  0  0  0  0
 26 29  1  0  0  0  0
M  END
$$$$

  -OEChem-04042215593D

 29 29  0     1  0  0  0  0  0999 V2000
   -3.5957   -3.6318    1.6405 H   0  0  0  0  0  0  0  0  0  0  0  0
   -3.5300   -2.7183    1.0427 C   0  0  0  0  0  0  0  0  0  0  0  0
   -4.1506   -1.9482    1.5075 H   0  0  0  0  0  0  0  0  0  0  0  0
   -3.9094   -2.9242    0.0391 H   0  0  0  0  0  0  0  0  0  0  0  0
   -2.0907   -2.2454    0.9666 C   0  0  0  0  0  0  0  0  0  0  0  0
   -1.2039   -2.8917    1.5011 O   0  0  0  0  0  0  0  0  0  0  0  0
   -1.7820   -1.1044    0.2607 N   0  0  0  0  0  0  0  0  0  0  0  0
   -2.5499   -0.5834   -0.1612 H   0  0  0  0  0  0  0  0  0  0  0  0
   -0.4517   -0.4783    0.2015 C   0  0  1  0  0  0  0  0  0  0  0  0
    0.1613   -0.8433    1.0317 H   0  0  0  0  0  0  0  0  0  0  0  0
    0.2985   -0.7871   -1.1137 C   0  0  0  0  0  0  0  0  0  0  0  0
    1.0090    0.0181   -1.3299 H   0  0  0  0  0  0  0  0  0  0  0  0
    0.8846   -1.7005   -0.9697 H   0  0  0  0  0  0  0  0  0  0  0  0
   -0.5995   -1.0006   -2.3089 C   0  0  0  0  0  0  0  0  0  0  0  0
   -1.3669   -2.1094   -2.5908 N   0  0  0  0  0  0  0  0  0  0  0  0
   -1.4271   -2.9547   -2.0267 H   0  0  0  0  0  0  0  0  0  0  0  0
   -2.0218   -1.8935   -3.7880 C   0  0  0  0  0  0  0  0  0  0  0  0
   -2.6961   -2.5975   -4.2672 H   0  0  0  0  0  0  0  0  0  0  0  0
   -1.7099   -0.7133   -4.2660 N   0  0  0  0  0  0  0  0  0  0  0  0
   -0.8259   -0.1435   -3.3535 C   0  0  0  0  0  0  0  0  0  0  0  0
   -0.3788    0.8409   -3.4562 H   0  0  0  0  0  0  0  0  0  0  0  0
   -0.5812    1.0464    0.3859 C   0  0  0  0  0  0  0  0  0  0  0  0
   -1.4815    1.6602   -0.1745 O   0  0  0  0  0  0  0  0  0  0  0  0
    0.2784    1.7263    1.2300 N   0  0  0  0  0  0  0  0  0  0  0  0
    0.9769    1.1844    1.7310 H   0  0  0  0  0  0  0  0  0  0  0  0
    0.1808    3.1584    1.4858 C   0  0  0  0  0  0  0  0  0  0  0  0
   -0.7892    3.4034    1.9312 H   0  0  0  0  0  0  0  0  0  0  0  0
    0.9682    3.4739    2.1769 H   0  0  0  0  0  0  0  0  0  0  0  0
    0.2935    3.7225    0.5539 H   0  0  0  0  0  0  0  0  0  0  0  0
  1  2  1  0  0  0  0
  2  3  1  0  0  0  0
  2  4  1  0  0  0  0
  2  5  1  0  0  0  0
  5  6  2  0  0  0  0
  5  7  1  0  0  0  0
  7  8  1  0  0  0  0
  7  9  1  0  0  0  0
  9 10  1  0  0  0  0
  9 11  1  0  0  0  0
  9 22  1  0  0  0  0
 11 12  1  0  0  0  0
 11 13  1  0  0  0  0
 11 14  1  0  0  0  0
 14 15  1  0  0  0  0
 14 20  2  0  0  0  0
 15 16  1  0  0  0  0
 15 17  1  0  0  0  0
 17 18  1  0  0  0  0
 17 19  2  0  0  0  0
 19 20  1  0  0  0  0
 20 21  1  0  0  0  0
 22 23  2  0  0  0  0
 22 24  1  0  0  0  0
 24 25  1  0  0  0  0
 24 26  1  0  0  0  0
 26 27  1  0  0  0  0
 26 28  1  0  0  0  0
 26 29  1  0  0  0  0
M  END
$$$$

  -OEChem-04042215593D

 29 29  0     1  0  0  0  0  0999 V2000
   -3.5923   -3.5967    1.7409 H   0  0  0  0  0  0  0  0  0  0  0  0
   -3.5366   -2.6854    1.1387 C   0  0  0  0  0  0  0  0  0  0  0  0
   -4.1131   -1.9005    1.6344 H   0  0  0  0  0  0  0  0  0  0  0  0
   -3.9736   -2.8826    0.1571 H   0  0  0  0  0  0  0  0  0  0  0  0
   -2.0925   -2.2473    0.9864 C   0  0  0  0  0  0  0  0  0  0  0  0
   -1.1947   -2.9163    1.4714 O   0  0  0  0  0  0  0  0  0  0  0  0
   -1.7948   -1.1082    0.2721 N   0  0  0  0  0  0  0  0  0  0  0  0
   -2.5731   -0.5497   -0.0774 H   0  0  0  0  0  0  0  0  0  0  0  0
   -0.4616   -0.4908    0.1902 C   0  0  1  0  0  0  0  0  0  0  0  0
    0.1590   -0.8558    1.0150 H   0  0  0  0  0  0  0  0  0  0  0  0
    0.2870   -0.7883   -1.1309 C   0  0  0  0  0  0  0  0  0  0  0  0
    1.0091    0.0105   -1.3328 H   0  0  0  0  0  0  0  0  0  0  0  0
    0.8624   -1.7081   -0.9853 H   0  0  0  0  0  0  0  0  0  0  0  0
   -0.5853   -0.9981   -2.3482 C   0  0  0  0  0  0  0  0  0  0  0  0
   -1.5555   -1.9548   -2.5528 N   0  0  0  0  0  0  0  0  0  0  0  0
   -1.8064   -2.6969   -1.9035 H   0  0  0  0  0  0  0  0  0  0  0  0
   -2.0952   -1.7727   -3.8113 C   0  0  0  0  0  0  0  0  0  0  0  0
   -2.8772   -2.3851   -4.2508 H   0  0  0  0  0  0  0  0  0  0  0  0
   -1.5227   -0.7532   -4.4033 N   0  0  0  0  0  0  0  0  0  0  0  0
   -0.5849   -0.2582   -3.5019 C   0  0  0  0  0  0  0  0  0  0  0  0
    0.0598    0.5952   -3.6899 H   0  0  0  0  0  0  0  0  0  0  0  0
   -0.5927    1.0337    0.3774 C   0  0  0  0  0  0  0  0  0  0  0  0
   -1.5230    1.6393   -0.1420 O   0  0  0  0  0  0  0  0  0  0  0  0
    0.2782    1.7159    1.2081 N   0  0  0  0  0  0  0  0  0  0  0  0
    0.9962    1.1779    1.6853 H   0  0  0  0  0  0  0  0  0  0  0  0
    0.1581    3.1408    1.4940 C   0  0  0  0  0  0  0  0  0  0  0  0
   -0.8062    3.3569    1.9660 H   0  0  0  0  0  0  0  0  0  0  0  0
    0.9548    3.4594    2.1731 H   0  0  0  0  0  0  0  0  0  0  0  0
    0.2374    3.7246    0.5707 H   0  0  0  0  0  0  0  0  0  0  0  0
  1  2  1  0  0  0  0
  2  3  1  0  0  0  0
  2  4  1  0  0  0  0
  2  5  1  0  0  0  0
  5  6  2  0  0  0  0
  5  7  1  0  0  0  0
  7  8  1  0  0  0  0
  7  9  1  0  0  0  0
  9 10  1  0  0  0  0
  9 11  1  0  0  0  0
  9 22  1  0  0  0  0
 11 12  1  0  0  0  0
 11 13  1  0  0  0  0
 11 14  1  0  0  0  0
 14 15  1  0  0  0  0
 14 20  2  0  0  0  0
 15 16  1  0  0  0  0
 15 17  1  0  0  0  0
 17 18  1  0  0  0  0
 17 19  2  0  0  0  0
 19 20  1  0  0  0  0
 20 21  1  0  0  0  0
 22 23  2  0  0  0  0
 22 24  1  0  0  0  0
 24 25  1  0  0  0  0
 24 26  1  0  0  0  0
 26 27  1  0  0  0  0
 26 28  1  0  0  0  0
 26 29  1  0  0  0  0
M  END
$$$$

  -OEChem-04042215593D

 29 29  0     1  0  0  0  0  0999 V2000
   -3.5800   -3.5663    1.8473 H   0  0  0  0  0  0  0  0  0  0  0  0
   -3.5355   -2.6711    1.2207 C   0  0  0  0  0  0  0  0  0  0  0  0
   -4.0877   -1.8684    1.7156 H   0  0  0  0  0  0  0  0  0  0  0  0
   -4.0069   -2.8898    0.2599 H   0  0  0  0  0  0  0  0  0  0  0  0
   -2.0928   -2.2526    1.0089 C   0  0  0  0  0  0  0  0  0  0  0  0
   -1.1862   -2.9298    1.4645 O   0  0  0  0  0  0  0  0  0  0  0  0
   -1.8080   -1.1145    0.2861 N   0  0  0  0  0  0  0  0  0  0  0  0
   -2.5913   -0.5261    0.0021 H   0  0  0  0  0  0  0  0  0  0  0  0
   -0.4721   -0.5047    0.1828 C   0  0  1  0  0  0  0  0  0  0  0  0
    0.1572   -0.8688    1.0016 H   0  0  0  0  0  0  0  0  0  0  0  0
    0.2721   -0.7908   -1.1453 C   0  0  0  0  0  0  0  0  0  0  0  0
    1.0058    0.0003   -1.3348 H   0  0  0  0  0  0  0  0  0  0  0  0
    0.8361   -1.7179   -1.0004 H   0  0  0  0  0  0  0  0  0  0  0  0
   -0.5781   -0.9944   -2.3817 C   0  0  0  0  0  0  0  0  0  0  0  0
   -1.7197   -1.7464   -2.5494 N   0  0  0  0  0  0  0  0  0  0  0  0
   -2.1543   -2.3297   -1.8391 H   0  0  0  0  0  0  0  0  0  0  0  0
   -2.1554   -1.6098   -3.8531 C   0  0  0  0  0  0  0  0  0  0  0  0
   -3.0317   -2.0944   -4.2740 H   0  0  0  0  0  0  0  0  0  0  0  0
   -1.3535   -0.8111   -4.5132 N   0  0  0  0  0  0  0  0  0  0  0  0
   -0.3739   -0.4156   -3.6079 C   0  0  0  0  0  0  0  0  0  0  0  0
    0.4422    0.2609   -3.8432 H   0  0  0  0  0  0  0  0  0  0  0  0
   -0.6051    1.0196    0.3728 C   0  0  0  0  0  0  0  0  0  0  0  0
   -1.5609    1.6172   -0.1089 O   0  0  0  0  0  0  0  0  0  0  0  0
    0.2760    1.7037    1.1908 N   0  0  0  0  0  0  0  0  0  0  0  0
    1.0132    1.1706    1.6435 H   0  0  0  0  0  0  0  0  0  0  0  0
    0.1472    3.1245    1.4928 C   0  0  0  0  0  0  0  0  0  0  0  0
   -0.8104    3.3270    1.9840 H   0  0  0  0  0  0  0  0  0  0  0  0
    0.9525    3.4443    2.1612 H   0  0  0  0  0  0  0  0  0  0  0  0
    0.2044    3.7177    0.5740 H   0  0  0  0  0  0  0  0  0  0  0  0
  1  2  1  0  0  0  0
  2  3  1  0  0  0  0
  2  4  1  0  0  0  0
  2  5  1  0  0  0  0
  5  6  2  0  0  0  0
  5  7  1  0  0  0  0
  7  8  1  0  0  0  0
  7  9  1  0  0  0  0
  9 10  1  0  0  0  0
  9 11  1  0  0  0  0
  9 22  1  0  0  0  0
 11 12  1  0  0  0  0
 11 13  1  0  0  0  0
 11 14  1  0  0  0  0
 14 15  1  0  0  0  0
 14 20  2  0  0  0  0
 15 16  1  0  0  0  0
 15 17  1  0  0  0  0
 17 18  1  0  0  0  0
 17 19  2  0  0  0  0
 19 20  1  0  0  0  0
 20 21  1  0  0  0  0
 22 23  2  0  0  0  0
 22 24  1  0  0  0  0
 24 25  1  0  0  0  0
 24 26  1  0  0  0  0
 26 27  1  0  0  0  0
 26 28  1  0  0  0  0
 26 29  1  0  0  0  0
M  END
$$$$

  -OEChem-04042215593D

 29 29  0     1  0  0  0  0  0999 V2000
   -3.5577   -3.5610    1.8929 H   0  0  0  0  0  0  0  0  0  0  0  0
   -3.5300   -2.6610    1.2720 C   0  0  0  0  0  0  0  0  0  0  0  0
   -4.0588   -1.8588    1.7927 H   0  0  0  0  0  0  0  0  0  0  0  0
   -4.0369   -2.8696    0.3270 H   0  0  0  0  0  0  0  0  0  0  0  0
   -2.0928   -2.2516    1.0115 C   0  0  0  0  0  0  0  0  0  0  0  0
   -1.1766   -2.9360    1.4360 O   0  0  0  0  0  0  0  0  0  0  0  0
   -1.8256   -1.1079    0.2890 N   0  0  0  0  0  0  0  0  0  0  0  0
   -2.6109   -0.4905    0.0831 H   0  0  0  0  0  0  0  0  0  0  0  0
   -0.4880   -0.5028    0.1697 C   0  0  1  0  0  0  0  0  0  0  0  0
    0.1473   -0.8706    0.9821 H   0  0  0  0  0  0  0  0  0  0  0  0
    0.2520   -0.7850   -1.1628 C   0  0  0  0  0  0  0  0  0  0  0  0
    0.9918    0.0015   -1.3471 H   0  0  0  0  0  0  0  0  0  0  0  0
    0.8095   -1.7158   -1.0159 H   0  0  0  0  0  0  0  0  0  0  0  0
   -0.5816   -0.9878   -2.4116 C   0  0  0  0  0  0  0  0  0  0  0  0
   -1.8498   -1.5010   -2.5662 N   0  0  0  0  0  0  0  0  0  0  0  0
   -2.4329   -1.8686   -1.8196 H   0  0  0  0  0  0  0  0  0  0  0  0
   -2.1924   -1.4546   -3.9033 C   0  0  0  0  0  0  0  0  0  0  0  0
   -3.1345   -1.7991   -4.3202 H   0  0  0  0  0  0  0  0  0  0  0  0
   -1.2109   -0.9362   -4.5994 N   0  0  0  0  0  0  0  0  0  0  0  0
   -0.2087   -0.6345   -3.6832 C   0  0  0  0  0  0  0  0  0  0  0  0
    0.7422   -0.1787   -3.9426 H   0  0  0  0  0  0  0  0  0  0  0  0
   -0.6151    1.0202    0.3727 C   0  0  0  0  0  0  0  0  0  0  0  0
   -1.5906    1.6174   -0.0691 O   0  0  0  0  0  0  0  0  0  0  0  0
    0.2803    1.6959    1.1825 N   0  0  0  0  0  0  0  0  0  0  0  0
    1.0326    1.1602    1.6065 H   0  0  0  0  0  0  0  0  0  0  0  0
    0.1498    3.1097    1.5146 C   0  0  0  0  0  0  0  0  0  0  0  0
   -0.7835    3.2914    2.0579 H   0  0  0  0  0  0  0  0  0  0  0  0
    0.9849    3.4288    2.1456 H   0  0  0  0  0  0  0  0  0  0  0  0
    0.1526    3.7192    0.6048 H   0  0  0  0  0  0  0  0  0  0  0  0
  1  2  1  0  0  0  0
  2  3  1  0  0  0  0
  2  4  1  0  0  0  0
  2  5  1  0  0  0  0
  5  6  2  0  0  0  0
  5  7  1  0  0  0  0
  7  8  1  0  0  0  0
  7  9  1  0  0  0  0
  9 10  1  0  0  0  0
  9 11  1  0  0  0  0
  9 22  1  0  0  0  0
 11 12  1  0  0  0  0
 11 13  1  0  0  0  0
 11 14  1  0  0  0  0
 14 15  1  0  0  0  0
 14 20  2  0  0  0  0
 15 16  1  0  0  0  0
 15 17  1  0  0  0  0
 17 18  1  0  0  0  0
 17 19  2  0  0  0  0
 19 20  1  0  0  0  0
 20 21  1  0  0  0  0
 22 23  2  0  0  0  0
 22 24  1  0  0  0  0
 24 25  1  0  0  0  0
 24 26  1  0  0  0  0
 26 27  1  0  0  0  0
 26 28  1  0  0  0  0
 26 29  1  0  0  0  0
M  END
$$$$

  -OEChem-04042215593D

 29 29  0     1  0  0  0  0  0999 V2000
   -3.5469   -3.5518    1.9152 H   0  0  0  0  0  0  0  0  0  0  0  0
   -3.5253   -2.6545    1.2903 C   0  0  0  0  0  0  0  0  0  0  0  0
   -4.0400   -1.8472    1.8171 H   0  0  0  0  0  0  0  0  0  0  0  0
   -4.0502   -2.8641    0.3554 H   0  0  0  0  0  0  0  0  0  0  0  0
   -2.0907   -2.2549    1.0017 C   0  0  0  0  0  0  0  0  0  0  0  0
   -1.1710   -2.9436    1.4121 O   0  0  0  0  0  0  0  0  0  0  0  0
   -1.8317   -1.1057    0.2840 N   0  0  0  0  0  0  0  0  0  0  0  0
   -2.6141   -0.4678    0.1405 H   0  0  0  0  0  0  0  0  0  0  0  0
   -0.4914   -0.5059    0.1613 C   0  0  1  0  0  0  0  0  0  0  0  0
    0.1471   -0.8800    0.9683 H   0  0  0  0  0  0  0  0  0  0  0  0
    0.2433   -0.7821   -1.1756 C   0  0  0  0  0  0  0  0  0  0  0  0
    0.9854    0.0031   -1.3559 H   0  0  0  0  0  0  0  0  0  0  0  0
    0.7981   -1.7155   -1.0347 H   0  0  0  0  0  0  0  0  0  0  0  0
   -0.5856   -0.9736   -2.4293 C   0  0  0  0  0  0  0  0  0  0  0  0
   -1.9303   -1.2181   -2.5955 N   0  0  0  0  0  0  0  0  0  0  0  0
   -2.6071   -1.3307   -1.8464 H   0  0  0  0  0  0  0  0  0  0  0  0
   -2.2119   -1.2820   -3.9459 C   0  0  0  0  0  0  0  0  0  0  0  0
   -3.1941   -1.4653   -4.3719 H   0  0  0  0  0  0  0  0  0  0  0  0
   -1.1183   -1.0895   -4.6413 N   0  0  0  0  0  0  0  0  0  0  0  0
   -0.1040   -0.8904   -3.7107 C   0  0  0  0  0  0  0  0  0  0  0  0
    0.9324   -0.6921   -3.9670 H   0  0  0  0  0  0  0  0  0  0  0  0
   -0.6169    1.0152    0.3775 C   0  0  0  0  0  0  0  0  0  0  0  0
   -1.6020    1.6109   -0.0456 O   0  0  0  0  0  0  0  0  0  0  0  0
    0.2819    1.6858    1.1874 N   0  0  0  0  0  0  0  0  0  0  0  0
    1.0454    1.1511    1.5923 H   0  0  0  0  0  0  0  0  0  0  0  0
    0.1511    3.0970    1.5310 C   0  0  0  0  0  0  0  0  0  0  0  0
   -0.7806    3.2736    2.0786 H   0  0  0  0  0  0  0  0  0  0  0  0
    0.9877    3.4126    2.1617 H   0  0  0  0  0  0  0  0  0  0  0  0
    0.1500    3.7131    0.6256 H   0  0  0  0  0  0  0  0  0  0  0  0
  1  2  1  0  0  0  0
  2  3  1  0  0  0  0
  2  4  1  0  0  0  0
  2  5  1  0  0  0  0
  5  6  2  0  0  0  0
  5  7  1  0  0  0  0
  7  8  1  0  0  0  0
  7  9  1  0  0  0  0
  9 10  1  0  0  0  0
  9 11  1  0  0  0  0
  9 22  1  0  0  0  0
 11 12  1  0  0  0  0
 11 13  1  0  0  0  0
 11 14  1  0  0  0  0
 14 15  1  0  0  0  0
 14 20  2  0  0  0  0
 15 16  1  0  0  0  0
 15 17  1  0  0  0  0
 17 18  1  0  0  0  0
 17 19  2  0  0  0  0
 19 20  1  0  0  0  0
 20 21  1  0  0  0  0
 22 23  2  0  0  0  0
 22 24  1  0  0  0  0
 24 25  1  0  0  0  0
 24 26  1  0  0  0  0
 26 27  1  0  0  0  0
 26 28  1  0  0  0  0
 26 29  1  0  0  0  0
M  END
$$$$

  -OEChem-04042215593D

 29 29  0     1  0  0  0  0  0999 V2000
   -3.5449   -3.5628    1.8751 H   0  0  0  0  0  0  0  0  0  0  0  0
   -3.5197   -2.6727    1.2400 C   0  0  0  0  0  0  0  0  0  0  0  0
   -4.0578   -1.8659    1.7435 H   0  0  0  0  0  0  0  0  0  0  0  0
   -4.0176   -2.9010    0.2946 H   0  0  0  0  0  0  0  0  0  0  0  0
   -2.0838   -2.2580    0.9804 C   0  0  0  0  0  0  0  0  0  0  0  0
   -1.1663   -2.9388    1.4095 O   0  0  0  0  0  0  0  0  0  0  0  0
   -1.8210   -1.1027    0.2736 N   0  0  0  0  0  0  0  0  0  0  0  0
   -2.6040   -0.4666    0.1349 H   0  0  0  0  0  0  0  0  0  0  0  0
   -0.4788   -0.5049    0.1649 C   0  0  1  0  0  0  0  0  0  0  0  0
    0.1595   -0.8875    0.9680 H   0  0  0  0  0  0  0  0  0  0  0  0
    0.2488   -0.7708   -1.1774 C   0  0  0  0  0  0  0  0  0  0  0  0
    0.9829    0.0227   -1.3540 H   0  0  0  0  0  0  0  0  0  0  0  0
    0.8113   -1.7017   -1.0517 H   0  0  0  0  0  0  0  0  0  0  0  0
   -0.5876   -0.9408   -2.4293 C   0  0  0  0  0  0  0  0  0  0  0  0
   -1.9513   -0.9009   -2.6192 N   0  0  0  0  0  0  0  0  0  0  0  0
   -2.6419   -0.6824   -1.9072 H   0  0  0  0  0  0  0  0  0  0  0  0
   -2.2241   -1.1159   -3.9556 C   0  0  0  0  0  0  0  0  0  0  0  0
   -3.2164   -1.1268   -4.3974 H   0  0  0  0  0  0  0  0  0  0  0  0
   -1.1084   -1.3028   -4.6167 N   0  0  0  0  0  0  0  0  0  0  0  0
   -0.0862   -1.1962   -3.6797 C   0  0  0  0  0  0  0  0  0  0  0  0
    0.9698   -1.3005   -3.9102 H   0  0  0  0  0  0  0  0  0  0  0  0
   -0.6085    1.0137    0.3936 C   0  0  0  0  0  0  0  0  0  0  0  0
   -1.5839    1.6114   -0.0509 O   0  0  0  0  0  0  0  0  0  0  0  0
    0.2807    1.6826    1.2153 N   0  0  0  0  0  0  0  0  0  0  0  0
    1.0371    1.1463    1.6317 H   0  0  0  0  0  0  0  0  0  0  0  0
    0.1586    3.0983    1.5428 C   0  0  0  0  0  0  0  0  0  0  0  0
   -0.7958    3.2968    2.0420 H   0  0  0  0  0  0  0  0  0  0  0  0
    0.9680    3.4029    2.2133 H   0  0  0  0  0  0  0  0  0  0  0  0
    0.2148    3.7070    0.6343 H   0  0  0  0  0  0  0  0  0  0  0  0
  1  2  1  0  0  0  0
  2  3  1  0  0  0  0
  2  4  1  0  0  0  0
  2  5  1  0  0  0  0
  5  6  2  0  0  0  0
  5  7  1  0  0  0  0
  7  8  1  0  0  0  0
  7  9  1  0  0  0  0
  9 10  1  0  0  0  0
  9 11  1  0  0  0  0
  9 22  1  0  0  0  0
 11 12  1  0  0  0  0
 11 13  1  0  0  0  0
 11 14  1  0  0  0  0
 14 15  1  0  0  0  0
 14 20  2  0  0  0  0
 15 16  1  0  0  0  0
 15 17  1  0  0  0  0
 17 18  1  0  0  0  0
 17 19  2  0  0  0  0
 19 20  1  0  0  0  0
 20 21  1  0  0  0  0
 22 23  2  0  0  0  0
 22 24  1  0  0  0  0
 24 25  1  0  0  0  0
 24 26  1  0  0  0  0
 26 27  1  0  0  0  0
 26 28  1  0  0  0  0
 26 29  1  0  0  0  0
M  END
$$$$

  -OEChem-04042215593D

 29 29  0     1  0  0  0  0  0999 V2000
   -3.5734   -3.6074    1.7154 H   0  0  0  0  0  0  0  0  0  0  0  0
   -3.5142   -2.7105    1.0925 C   0  0  0  0  0  0  0  0  0  0  0  0
   -4.1198   -1.9240    1.5491 H   0  0  0  0  0  0  0  0  0  0  0  0
   -3.9151   -2.9429    0.1029 H   0  0  0  0  0  0  0  0  0  0  0  0
   -2.0729   -2.2535    0.9714 C   0  0  0  0  0  0  0  0  0  0  0  0
   -1.1826   -2.8928    1.5089 O   0  0  0  0  0  0  0  0  0  0  0  0
   -1.7741   -1.1090    0.2630 N   0  0  0  0  0  0  0  0  0  0  0  0
   -2.5549   -0.5263   -0.0265 H   0  0  0  0  0  0  0  0  0  0  0  0
   -0.4290   -0.5139    0.1879 C   0  0  1  0  0  0  0  0  0  0  0  0
    0.2008   -0.8936    0.9990 H   0  0  0  0  0  0  0  0  0  0  0  0
    0.2979   -0.7709   -1.1562 C   0  0  0  0  0  0  0  0  0  0  0  0
    1.0267    0.0284   -1.3279 H   0  0  0  0  0  0  0  0  0  0  0  0
    0.8658   -1.7010   -1.0486 H   0  0  0  0  0  0  0  0  0  0  0  0
   -0.5599   -0.9094   -2.3970 C   0  0  0  0  0  0  0  0  0  0  0  0
   -1.8809   -0.5709   -2.5969 N   0  0  0  0  0  0  0  0  0  0  0  0
   -2.4365    0.0170   -1.9779 H   0  0  0  0  0  0  0  0  0  0  0  0
   -2.2443   -0.9426   -3.8764 C   0  0  0  0  0  0  0  0  0  0  0  0
   -3.2184   -0.7683   -4.3245 H   0  0  0  0  0  0  0  0  0  0  0  0
   -1.2381   -1.5286   -4.4781 N   0  0  0  0  0  0  0  0  0  0  0  0
   -0.1881   -1.5217   -3.5657 C   0  0  0  0  0  0  0  0  0  0  0  0
    0.7918   -1.9510   -3.7528 H   0  0  0  0  0  0  0  0  0  0  0  0
   -0.5795    1.0056    0.3954 C   0  0  0  0  0  0  0  0  0  0  0  0
   -1.5199    1.5956   -0.1311 O   0  0  0  0  0  0  0  0  0  0  0  0
    0.2751    1.6939    1.2368 N   0  0  0  0  0  0  0  0  0  0  0  0
    1.0018    1.1637    1.7101 H   0  0  0  0  0  0  0  0  0  0  0  0
    0.1417    3.1173    1.5234 C   0  0  0  0  0  0  0  0  0  0  0  0
   -0.8263    3.3260    1.9910 H   0  0  0  0  0  0  0  0  0  0  0  0
    0.9326    3.4411    2.2069 H   0  0  0  0  0  0  0  0  0  0  0  0
    0.2212    3.7028    0.6013 H   0  0  0  0  0  0  0  0  0  0  0  0
  1  2  1  0  0  0  0
  2  3  1  0  0  0  0
  2  4  1  0  0  0  0
  2  5  1  0  0  0  0
  5  6  2  0  0  0  0
  5  7  1  0  0  0  0
  7  8  1  0  0  0  0
  7  9  1  0  0  0  0
  9 10  1  0  0  0  0
  9 11  1  0  0  0  0
  9 22  1  0  0  0  0
 11 12  1  0  0  0  0
 11 13  1  0  0  0  0
 11 14  1  0  0  0  0
 14 15  1  0  0  0  0
 14 20  2  0  0  0  0
 15 16  1  0  0  0  0
 15 17  1  0  0  0  0
 17 18  1  0  0  0  0
 17 19  2  0  0  0  0
 19 20  1  0  0  0  0
 20 21  1  0  0  0  0
 22 23  2  0  0  0  0
 22 24  1  0  0  0  0
 24 25  1  0  0  0  0
 24 26  1  0  0  0  0
 26 27  1  0  0  0  0
 26 28  1  0  0  0  0
 26 29  1  0  0  0  0
M  END
$$$$

  -OEChem-04042215593D

 29 29  0     1  0  0  0  0  0999 V2000
   -3.5604   -3.7078    1.4667 H   0  0  0  0  0  0  0  0  0  0  0  0
   -3.4803   -2.7899    0.8776 C   0  0  0  0  0  0  0  0  0  0  0  0
   -4.2127   -2.0683    1.2470 H   0  0  0  0  0  0  0  0  0  0  0  0
   -3.7008   -3.0221   -0.1671 H   0  0  0  0  0  0  0  0  0  0  0  0
   -2.0824   -2.2137    0.9955 C   0  0  0  0  0  0  0  0  0  0  0  0
   -1.2649   -2.7360    1.7368 O   0  0  0  0  0  0  0  0  0  0  0  0
   -1.7420   -1.0940    0.2680 N   0  0  0  0  0  0  0  0  0  0  0  0
   -2.4383   -0.7221   -0.3708 H   0  0  0  0  0  0  0  0  0  0  0  0
   -0.3936   -0.5023    0.2303 C   0  0  1  0  0  0  0  0  0  0  0  0
    0.2198   -0.8685    1.0598 H   0  0  0  0  0  0  0  0  0  0  0  0
    0.3368   -0.7945   -1.1045 C   0  0  0  0  0  0  0  0  0  0  0  0
    1.0715   -0.0055   -1.2975 H   0  0  0  0  0  0  0  0  0  0  0  0
    0.8948   -1.7293   -0.9865 H   0  0  0  0  0  0  0  0  0  0  0  0
   -0.5556   -0.9349   -2.3200 C   0  0  0  0  0  0  0  0  0  0  0  0
   -1.7655   -0.3139   -2.5497 N   0  0  0  0  0  0  0  0  0  0  0  0
   -2.1210    0.4881   -2.0225 H   0  0  0  0  0  0  0  0  0  0  0  0
   -2.2686   -0.7661   -3.7538 C   0  0  0  0  0  0  0  0  0  0  0  0
   -3.1896   -0.4218   -4.2154 H   0  0  0  0  0  0  0  0  0  0  0  0
   -1.4666   -1.6692   -4.2648 N   0  0  0  0  0  0  0  0  0  0  0  0
   -0.3992   -1.7884   -3.3798 C   0  0  0  0  0  0  0  0  0  0  0  0
    0.4367   -2.4697   -3.5081 H   0  0  0  0  0  0  0  0  0  0  0  0
   -0.5394    1.0258    0.3838 C   0  0  0  0  0  0  0  0  0  0  0  0
   -1.3997    1.6241   -0.2599 O   0  0  0  0  0  0  0  0  0  0  0  0
    0.2870    1.7311    1.2390 N   0  0  0  0  0  0  0  0  0  0  0  0
    0.9379    1.1983    1.8098 H   0  0  0  0  0  0  0  0  0  0  0  0
    0.1658    3.1665    1.4648 C   0  0  0  0  0  0  0  0  0  0  0  0
   -0.8246    3.4101    1.8634 H   0  0  0  0  0  0  0  0  0  0  0  0
    0.9197    3.5011    2.1839 H   0  0  0  0  0  0  0  0  0  0  0  0
    0.3139    3.7156    0.5291 H   0  0  0  0  0  0  0  0  0  0  0  0
  1  2  1  0  0  0  0
  2  3  1  0  0  0  0
  2  4  1  0  0  0  0
  2  5  1  0  0  0  0
  5  6  2  0  0  0  0
  5  7  1  0  0  0  0
  7  8  1  0  0  0  0
  7  9  1  0  0  0  0
  9 10  1  0  0  0  0
  9 11  1  0  0  0  0
  9 22  1  0  0  0  0
 11 12  1  0  0  0  0
 11 13  1  0  0  0  0
 11 14  1  0  0  0  0
 14 15  1  0  0  0  0
 14 20  2  0  0  0  0
 15 16  1  0  0  0  0
 15 17  1  0  0  0  0
 17 18  1  0  0  0  0
 17 19  2  0  0  0  0
 19 20  1  0  0  0  0
 20 21  1  0  0  0  0
 22 23  2  0  0  0  0
 22 24  1  0  0  0  0
 24 25  1  0  0  0  0
 24 26  1  0  0  0  0
 26 27  1  0  0  0  0
 26 28  1  0  0  0  0
 26 29  1  0  0  0  0
M  END
$$$$

  -OEChem-04042215593D

 29 29  0     1  0  0  0  0  0999 V2000
   -3.5494   -3.7299    1.3856 H   0  0  0  0  0  0  0  0  0  0  0  0
   -3.4584   -2.8281    0.7738 C   0  0  0  0  0  0  0  0  0  0  0  0
   -4.2411   -2.1233    1.0646 H   0  0  0  0  0  0  0  0  0  0  0  0
   -3.5930   -3.0999   -0.2761 H   0  0  0  0  0  0  0  0  0  0  0  0
   -2.0943   -2.1964    0.9738 C   0  0  0  0  0  0  0  0  0  0  0  0
   -1.3059   -2.6796    1.7711 O   0  0  0  0  0  0  0  0  0  0  0  0
   -1.7455   -1.0804    0.2445 N   0  0  0  0  0  0  0  0  0  0  0  0
   -2.3996   -0.7683   -0.4686 H   0  0  0  0  0  0  0  0  0  0  0  0
   -0.4015   -0.4776    0.2371 C   0  0  1  0  0  0  0  0  0  0  0  0
    0.1928   -0.8370    1.0832 H   0  0  0  0  0  0  0  0  0  0  0  0
    0.3495   -0.8042   -1.0761 C   0  0  0  0  0  0  0  0  0  0  0  0
    1.0853   -0.0216   -1.2895 H   0  0  0  0  0  0  0  0  0  0  0  0
    0.9036   -1.7372   -0.9302 H   0  0  0  0  0  0  0  0  0  0  0  0
   -0.5559   -0.9750   -2.2752 C   0  0  0  0  0  0  0  0  0  0  0  0
   -1.6059   -0.1541   -2.6253 N   0  0  0  0  0  0  0  0  0  0  0  0
   -1.8482    0.7287   -2.1644 H   0  0  0  0  0  0  0  0  0  0  0  0
   -2.2040   -0.6674   -3.7591 C   0  0  0  0  0  0  0  0  0  0  0  0
   -3.0477   -0.2212   -4.2780 H   0  0  0  0  0  0  0  0  0  0  0  0
   -1.6037   -1.7781   -4.1173 N   0  0  0  0  0  0  0  0  0  0  0  0
   -0.5737   -1.9818   -3.2029 C   0  0  0  0  0  0  0  0  0  0  0  0
    0.1105   -2.8249   -3.2180 H   0  0  0  0  0  0  0  0  0  0  0  0
   -0.5296    1.0544    0.3711 C   0  0  0  0  0  0  0  0  0  0  0  0
   -1.3387    1.6681   -0.3220 O   0  0  0  0  0  0  0  0  0  0  0  0
    0.2881    1.7523    1.2410 N   0  0  0  0  0  0  0  0  0  0  0  0
    0.8929    1.2106    1.8526 H   0  0  0  0  0  0  0  0  0  0  0  0
    0.2012    3.1943    1.4377 C   0  0  0  0  0  0  0  0  0  0  0  0
   -0.7827    3.4683    1.8327 H   0  0  0  0  0  0  0  0  0  0  0  0
    0.9645    3.5255    2.1484 H   0  0  0  0  0  0  0  0  0  0  0  0
    0.3608    3.7212    0.4910 H   0  0  0  0  0  0  0  0  0  0  0  0
  1  2  1  0  0  0  0
  2  3  1  0  0  0  0
  2  4  1  0  0  0  0
  2  5  1  0  0  0  0
  5  6  2  0  0  0  0
  5  7  1  0  0  0  0
  7  8  1  0  0  0  0
  7  9  1  0  0  0  0
  9 10  1  0  0  0  0
  9 11  1  0  0  0  0
  9 22  1  0  0  0  0
 11 12  1  0  0  0  0
 11 13  1  0  0  0  0
 11 14  1  0  0  0  0
 14 15  1  0  0  0  0
 14 20  2  0  0  0  0
 15 16  1  0  0  0  0
 15 17  1  0  0  0  0
 17 18  1  0  0  0  0
 17 19  2  0  0  0  0
 19 20  1  0  0  0  0
 20 21  1  0  0  0  0
 22 23  2  0  0  0  0
 22 24  1  0  0  0  0
 24 25  1  0  0  0  0
 24 26  1  0  0  0  0
 26 27  1  0  0  0  0
 26 28  1  0  0  0  0
 26 29  1  0  0  0  0
M  END
$$$$

  -OEChem-04042215593D

 29 29  0     1  0  0  0  0  0999 V2000
   -3.5529   -3.7398    1.3668 H   0  0  0  0  0  0  0  0  0  0  0  0
   -3.4599   -2.8380    0.7553 C   0  0  0  0  0  0  0  0  0  0  0  0
   -4.2479   -2.1360    1.0384 H   0  0  0  0  0  0  0  0  0  0  0  0
   -3.5842   -3.1109   -0.2957 H   0  0  0  0  0  0  0  0  0  0  0  0
   -2.0997   -2.2013    0.9666 C   0  0  0  0  0  0  0  0  0  0  0  0
   -1.3170   -2.6798    1.7725 O   0  0  0  0  0  0  0  0  0  0  0  0
   -1.7449   -1.0893    0.2344 N   0  0  0  0  0  0  0  0  0  0  0  0
   -2.3955   -0.7757   -0.4823 H   0  0  0  0  0  0  0  0  0  0  0  0
   -0.4050   -0.4780    0.2396 C   0  0  1  0  0  0  0  0  0  0  0  0
    0.1801   -0.8303    1.0951 H   0  0  0  0  0  0  0  0  0  0  0  0
    0.3594   -0.8161   -1.0614 C   0  0  0  0  0  0  0  0  0  0  0  0
    1.0983   -0.0389   -1.2837 H   0  0  0  0  0  0  0  0  0  0  0  0
    0.9089   -1.7496   -0.9015 H   0  0  0  0  0  0  0  0  0  0  0  0
   -0.5551   -1.0020   -2.2488 C   0  0  0  0  0  0  0  0  0  0  0  0
   -1.4112   -0.0512   -2.7562 N   0  0  0  0  0  0  0  0  0  0  0  0
   -1.5552    0.8866   -2.3703 H   0  0  0  0  0  0  0  0  0  0  0  0
   -2.0832   -0.5981   -3.8312 C   0  0  0  0  0  0  0  0  0  0  0  0
   -2.8285   -0.0826   -4.4305 H   0  0  0  0  0  0  0  0  0  0  0  0
   -1.6953   -1.8386   -4.0172 N   0  0  0  0  0  0  0  0  0  0  0  0
   -0.7357   -2.1018   -3.0435 C   0  0  0  0  0  0  0  0  0  0  0  0
   -0.2137   -3.0466   -2.9258 H   0  0  0  0  0  0  0  0  0  0  0  0
   -0.5282    1.0558    0.3588 C   0  0  0  0  0  0  0  0  0  0  0  0
   -1.3023    1.6740   -0.3689 O   0  0  0  0  0  0  0  0  0  0  0  0
    0.2822    1.7564    1.2334 N   0  0  0  0  0  0  0  0  0  0  0  0
    0.8643    1.2161    1.8680 H   0  0  0  0  0  0  0  0  0  0  0  0
    0.2130    3.2029    1.4032 C   0  0  0  0  0  0  0  0  0  0  0  0
   -0.7745    3.4978    1.7735 H   0  0  0  0  0  0  0  0  0  0  0  0
    0.9670    3.5361    2.1228 H   0  0  0  0  0  0  0  0  0  0  0  0
    0.3990    3.7103    0.4506 H   0  0  0  0  0  0  0  0  0  0  0  0
  1  2  1  0  0  0  0
  2  3  1  0  0  0  0
  2  4  1  0  0  0  0
  2  5  1  0  0  0  0
  5  6  2  0  0  0  0
  5  7  1  0  0  0  0
  7  8  1  0  0  0  0
  7  9  1  0  0  0  0
  9 10  1  0  0  0  0
  9 11  1  0  0  0  0
  9 22  1  0  0  0  0
 11 12  1  0  0  0  0
 11 13  1  0  0  0  0
 11 14  1  0  0  0  0
 14 15  1  0  0  0  0
 14 20  2  0  0  0  0
 15 16  1  0  0  0  0
 15 17  1  0  0  0  0
 17 18  1  0  0  0  0
 17 19  2  0  0  0  0
 19 20  1  0  0  0  0
 20 21  1  0  0  0  0
 22 23  2  0  0  0  0
 22 24  1  0  0  0  0
 24 25  1  0  0  0  0
 24 26  1  0  0  0  0
 26 27  1  0  0  0  0
 26 28  1  0  0  0  0
 26 29  1  0  0  0  0
M  END
$$$$

  -OEChem-04042215593D

 29 29  0     1  0  0  0  0  0999 V2000
   -3.5659   -3.7373    1.3878 H   0  0  0  0  0  0  0  0  0  0  0  0
   -3.4721   -2.8364    0.7750 C   0  0  0  0  0  0  0  0  0  0  0  0
   -4.2496   -2.1271    1.0687 H   0  0  0  0  0  0  0  0  0  0  0  0
   -3.6131   -3.1083   -0.2742 H   0  0  0  0  0  0  0  0  0  0  0  0
   -2.1030   -2.2129    0.9681 C   0  0  0  0  0  0  0  0  0  0  0  0
   -1.3125   -2.7016    1.7600 O   0  0  0  0  0  0  0  0  0  0  0  0
   -1.7483   -1.1021    0.2342 N   0  0  0  0  0  0  0  0  0  0  0  0
   -2.4110   -0.7685   -0.4628 H   0  0  0  0  0  0  0  0  0  0  0  0
   -0.4118   -0.4836    0.2410 C   0  0  1  0  0  0  0  0  0  0  0  0
    0.1717   -0.8324    1.0990 H   0  0  0  0  0  0  0  0  0  0  0  0
    0.3594   -0.8188   -1.0552 C   0  0  0  0  0  0  0  0  0  0  0  0
    1.1012   -0.0449   -1.2795 H   0  0  0  0  0  0  0  0  0  0  0  0
    0.9060   -1.7532   -0.8906 H   0  0  0  0  0  0  0  0  0  0  0  0
   -0.5586   -1.0120   -2.2369 C   0  0  0  0  0  0  0  0  0  0  0  0
   -1.2034   -0.0089   -2.9219 N   0  0  0  0  0  0  0  0  0  0  0  0
   -1.2351    0.9747   -2.6446 H   0  0  0  0  0  0  0  0  0  0  0  0
   -1.9370   -0.5822   -3.9418 C   0  0  0  0  0  0  0  0  0  0  0  0
   -2.5690   -0.0387   -4.6384 H   0  0  0  0  0  0  0  0  0  0  0  0
   -1.7693   -1.8845   -3.9391 N   0  0  0  0  0  0  0  0  0  0  0  0
   -0.8986   -2.1658   -2.8903 C   0  0  0  0  0  0  0  0  0  0  0  0
   -0.5475   -3.1582   -2.6231 H   0  0  0  0  0  0  0  0  0  0  0  0
   -0.5344    1.0503    0.3537 C   0  0  0  0  0  0  0  0  0  0  0  0
   -1.2862    1.6700   -0.3948 O   0  0  0  0  0  0  0  0  0  0  0  0
    0.2752    1.7519    1.2285 N   0  0  0  0  0  0  0  0  0  0  0  0
    0.8454    1.2122    1.8744 H   0  0  0  0  0  0  0  0  0  0  0  0
    0.2235    3.2012    1.3803 C   0  0  0  0  0  0  0  0  0  0  0  0
   -0.7633    3.5142    1.7375 H   0  0  0  0  0  0  0  0  0  0  0  0
    0.9751    3.5327    2.1034 H   0  0  0  0  0  0  0  0  0  0  0  0
    0.4253    3.6951    0.4239 H   0  0  0  0  0  0  0  0  0  0  0  0
  1  2  1  0  0  0  0
  2  3  1  0  0  0  0
  2  4  1  0  0  0  0
  2  5  1  0  0  0  0
  5  6  2  0  0  0  0
  5  7  1  0  0  0  0
  7  8  1  0  0  0  0
  7  9  1  0  0  0  0
  9 10  1  0  0  0  0
  9 11  1  0  0  0  0
  9 22  1  0  0  0  0
 11 12  1  0  0  0  0
 11 13  1  0  0  0  0
 11 14  1  0  0  0  0
 14 15  1  0  0  0  0
 14 20  2  0  0  0  0
 15 16  1  0  0  0  0
 15 17  1  0  0  0  0
 17 18  1  0  0  0  0
 17 19  2  0  0  0  0
 19 20  1  0  0  0  0
 20 21  1  0  0  0  0
 22 23  2  0  0  0  0
 22 24  1  0  0  0  0
 24 25  1  0  0  0  0
 24 26  1  0  0  0  0
 26 27  1  0  0  0  0
 26 28  1  0  0  0  0
 26 29  1  0  0  0  0
M  END
$$$$

  -OEChem-04042215593D

 29 29  0     1  0  0  0  0  0999 V2000
   -3.5831   -3.7161    1.4247 H   0  0  0  0  0  0  0  0  0  0  0  0
   -3.4910   -2.8123    0.8160 C   0  0  0  0  0  0  0  0  0  0  0  0
   -4.2424   -2.0891    1.1415 H   0  0  0  0  0  0  0  0  0  0  0  0
   -3.6741   -3.0717   -0.2298 H   0  0  0  0  0  0  0  0  0  0  0  0
   -2.1033   -2.2192    0.9674 C   0  0  0  0  0  0  0  0  0  0  0  0
   -1.2945   -2.7346    1.7231 O   0  0  0  0  0  0  0  0  0  0  0  0
   -1.7532   -1.1041    0.2378 N   0  0  0  0  0  0  0  0  0  0  0  0
   -2.4411   -0.7300   -0.4133 H   0  0  0  0  0  0  0  0  0  0  0  0
   -0.4183   -0.4831    0.2350 C   0  0  1  0  0  0  0  0  0  0  0  0
    0.1685   -0.8338    1.0898 H   0  0  0  0  0  0  0  0  0  0  0  0
    0.3513   -0.8145   -1.0627 C   0  0  0  0  0  0  0  0  0  0  0  0
    1.0950   -0.0422   -1.2863 H   0  0  0  0  0  0  0  0  0  0  0  0
    0.8973   -1.7490   -0.8962 H   0  0  0  0  0  0  0  0  0  0  0  0
   -0.5632   -1.0141   -2.2465 C   0  0  0  0  0  0  0  0  0  0  0  0
   -0.9926   -0.0422   -3.1199 N   0  0  0  0  0  0  0  0  0  0  0  0
   -0.8674    0.9632   -3.0021 H   0  0  0  0  0  0  0  0  0  0  0  0
   -1.7807   -0.6428   -4.0824 C   0  0  0  0  0  0  0  0  0  0  0  0
   -2.2873   -0.1206   -4.8890 H   0  0  0  0  0  0  0  0  0  0  0  0
   -1.8392   -1.9376   -3.8752 N   0  0  0  0  0  0  0  0  0  0  0  0
   -1.0671   -2.1861   -2.7451 C   0  0  0  0  0  0  0  0  0  0  0  0
   -0.8950   -3.1684   -2.3151 H   0  0  0  0  0  0  0  0  0  0  0  0
   -0.5377    1.0495    0.3565 C   0  0  0  0  0  0  0  0  0  0  0  0
   -1.3014    1.6731   -0.3744 O   0  0  0  0  0  0  0  0  0  0  0  0
    0.2819    1.7449    1.2271 N   0  0  0  0  0  0  0  0  0  0  0  0
    0.8604    1.2008    1.8617 H   0  0  0  0  0  0  0  0  0  0  0  0
    0.2247    3.1921    1.3954 C   0  0  0  0  0  0  0  0  0  0  0  0
   -0.7593    3.4955    1.7679 H   0  0  0  0  0  0  0  0  0  0  0  0
    0.9833    3.5198    2.1128 H   0  0  0  0  0  0  0  0  0  0  0  0
    0.4119    3.6972    0.4420 H   0  0  0  0  0  0  0  0  0  0  0  0
  1  2  1  0  0  0  0
  2  3  1  0  0  0  0
  2  4  1  0  0  0  0
  2  5  1  0  0  0  0
  5  6  2  0  0  0  0
  5  7  1  0  0  0  0
  7  8  1  0  0  0  0
  7  9  1  0  0  0  0
  9 10  1  0  0  0  0
  9 11  1  0  0  0  0
  9 22  1  0  0  0  0
 11 12  1  0  0  0  0
 11 13  1  0  0  0  0
 11 14  1  0  0  0  0
 14 15  1  0  0  0  0
 14 20  2  0  0  0  0
 15 16  1  0  0  0  0
 15 17  1  0  0  0  0
 17 18  1  0  0  0  0
 17 19  2  0  0  0  0
 19 20  1  0  0  0  0
 20 21  1  0  0  0  0
 22 23  2  0  0  0  0
 22 24  1  0  0  0  0
 24 25  1  0  0  0  0
 24 26  1  0  0  0  0
 26 27  1  0  0  0  0
 26 28  1  0  0  0  0
 26 29  1  0  0  0  0
M  END
$$$$

  -OEChem-04042215593D

 29 29  0     1  0  0  0  0  0999 V2000
   -3.5933   -3.6937    1.4701 H   0  0  0  0  0  0  0  0  0  0  0  0
   -3.5113   -2.7768    0.8798 C   0  0  0  0  0  0  0  0  0  0  0  0
   -4.2308   -2.0470    1.2589 H   0  0  0  0  0  0  0  0  0  0  0  0
   -3.7498   -3.0062   -0.1618 H   0  0  0  0  0  0  0  0  0  0  0  0
   -2.1056   -2.2156    0.9774 C   0  0  0  0  0  0  0  0  0  0  0  0
   -1.2749   -2.7605    1.6874 O   0  0  0  0  0  0  0  0  0  0  0  0
   -1.7628   -1.0975    0.2487 N   0  0  0  0  0  0  0  0  0  0  0  0
   -2.4786   -0.6778   -0.3425 H   0  0  0  0  0  0  0  0  0  0  0  0
   -0.4259   -0.4826    0.2236 C   0  0  1  0  0  0  0  0  0  0  0  0
    0.1680   -0.8360    1.0725 H   0  0  0  0  0  0  0  0  0  0  0  0
    0.3373   -0.8146   -1.0786 C   0  0  0  0  0  0  0  0  0  0  0  0
    1.0833   -0.0439   -1.2994 H   0  0  0  0  0  0  0  0  0  0  0  0
    0.8822   -1.7494   -0.9112 H   0  0  0  0  0  0  0  0  0  0  0  0
   -0.5643   -1.0202   -2.2725 C   0  0  0  0  0  0  0  0  0  0  0  0
   -0.7689   -0.1444   -3.3138 N   0  0  0  0  0  0  0  0  0  0  0  0
   -0.4429    0.8195   -3.3597 H   0  0  0  0  0  0  0  0  0  0  0  0
   -1.6121   -0.7457   -4.2285 C   0  0  0  0  0  0  0  0  0  0  0  0
   -1.9768   -0.2806   -5.1400 H   0  0  0  0  0  0  0  0  0  0  0  0
   -1.9143   -1.9605   -3.8353 N   0  0  0  0  0  0  0  0  0  0  0  0
   -1.2482   -2.1530   -2.6300 C   0  0  0  0  0  0  0  0  0  0  0  0
   -1.2682   -3.0723   -2.0521 H   0  0  0  0  0  0  0  0  0  0  0  0
   -0.5420    1.0486    0.3572 C   0  0  0  0  0  0  0  0  0  0  0  0
   -1.3486    1.6722   -0.3242 O   0  0  0  0  0  0  0  0  0  0  0  0
    0.2943    1.7394    1.2158 N   0  0  0  0  0  0  0  0  0  0  0  0
    0.9016    1.1920    1.8196 H   0  0  0  0  0  0  0  0  0  0  0  0
    0.2104    3.1801    1.4249 C   0  0  0  0  0  0  0  0  0  0  0  0
   -0.7696    3.4516    1.8314 H   0  0  0  0  0  0  0  0  0  0  0  0
    0.9806    3.5052    2.1310 H   0  0  0  0  0  0  0  0  0  0  0  0
    0.3609    3.7144    0.4809 H   0  0  0  0  0  0  0  0  0  0  0  0
  1  2  1  0  0  0  0
  2  3  1  0  0  0  0
  2  4  1  0  0  0  0
  2  5  1  0  0  0  0
  5  6  2  0  0  0  0
  5  7  1  0  0  0  0
  7  8  1  0  0  0  0
  7  9  1  0  0  0  0
  9 10  1  0  0  0  0
  9 11  1  0  0  0  0
  9 22  1  0  0  0  0
 11 12  1  0  0  0  0
 11 13  1  0  0  0  0
 11 14  1  0  0  0  0
 14 15  1  0  0  0  0
 14 20  2  0  0  0  0
 15 16  1  0  0  0  0
 15 17  1  0  0  0  0
 17 18  1  0  0  0  0
 17 19  2  0  0  0  0
 19 20  1  0  0  0  0
 20 21  1  0  0  0  0
 22 23  2  0  0  0  0
 22 24  1  0  0  0  0
 24 25  1  0  0  0  0
 24 26  1  0  0  0  0
 26 27  1  0  0  0  0
 26 28  1  0  0  0  0
 26 29  1  0  0  0  0
M  END
$$$$

  -OEChem-04042215593D

 29 29  0     1  0  0  0  0  0999 V2000
   -3.6025   -3.6677    1.5703 H   0  0  0  0  0  0  0  0  0  0  0  0
   -3.5309   -2.7587    0.9666 C   0  0  0  0  0  0  0  0  0  0  0  0
   -4.2209   -2.0129    1.3680 H   0  0  0  0  0  0  0  0  0  0  0  0
   -3.8183   -2.9952   -0.0610 H   0  0  0  0  0  0  0  0  0  0  0  0
   -2.1129   -2.2211    0.9975 C   0  0  0  0  0  0  0  0  0  0  0  0
   -1.2550   -2.7923    1.6521 O   0  0  0  0  0  0  0  0  0  0  0  0
   -1.7889   -1.0961    0.2701 N   0  0  0  0  0  0  0  0  0  0  0  0
   -2.5331   -0.6358   -0.2523 H   0  0  0  0  0  0  0  0  0  0  0  0
   -0.4531   -0.4818    0.2169 C   0  0  1  0  0  0  0  0  0  0  0  0
    0.1517   -0.8373    1.0571 H   0  0  0  0  0  0  0  0  0  0  0  0
    0.3065   -0.8045   -1.0919 C   0  0  0  0  0  0  0  0  0  0  0  0
    1.0454   -0.0244   -1.3035 H   0  0  0  0  0  0  0  0  0  0  0  0
    0.8627   -1.7330   -0.9263 H   0  0  0  0  0  0  0  0  0  0  0  0
   -0.5699   -1.0200   -2.3053 C   0  0  0  0  0  0  0  0  0  0  0  0
   -0.5507   -0.2910   -3.4734 N   0  0  0  0  0  0  0  0  0  0  0  0
   -0.0326    0.5699   -3.6360 H   0  0  0  0  0  0  0  0  0  0  0  0
   -1.4351   -0.8674   -4.3652 C   0  0  0  0  0  0  0  0  0  0  0  0
   -1.6536   -0.4891   -5.3596 H   0  0  0  0  0  0  0  0  0  0  0  0
   -1.9753   -1.9394   -3.8377 N   0  0  0  0  0  0  0  0  0  0  0  0
   -1.4252   -2.0603   -2.5667 C   0  0  0  0  0  0  0  0  0  0  0  0
   -1.6366   -2.8753   -1.8811 H   0  0  0  0  0  0  0  0  0  0  0  0
   -0.5676    1.0480    0.3677 C   0  0  0  0  0  0  0  0  0  0  0  0
   -1.4129    1.6730   -0.2626 O   0  0  0  0  0  0  0  0  0  0  0  0
    0.2902    1.7307    1.2114 N   0  0  0  0  0  0  0  0  0  0  0  0
    0.9269    1.1790    1.7800 H   0  0  0  0  0  0  0  0  0  0  0  0
    0.2154    3.1694    1.4357 C   0  0  0  0  0  0  0  0  0  0  0  0
   -0.7550    3.4410    1.8645 H   0  0  0  0  0  0  0  0  0  0  0  0
    1.0009    3.4849    2.1291 H   0  0  0  0  0  0  0  0  0  0  0  0
    0.3490    3.7117    0.4937 H   0  0  0  0  0  0  0  0  0  0  0  0
  1  2  1  0  0  0  0
  2  3  1  0  0  0  0
  2  4  1  0  0  0  0
  2  5  1  0  0  0  0
  5  6  2  0  0  0  0
  5  7  1  0  0  0  0
  7  8  1  0  0  0  0
  7  9  1  0  0  0  0
  9 10  1  0  0  0  0
  9 11  1  0  0  0  0
  9 22  1  0  0  0  0
 11 12  1  0  0  0  0
 11 13  1  0  0  0  0
 11 14  1  0  0  0  0
 14 15  1  0  0  0  0
 14 20  2  0  0  0  0
 15 16  1  0  0  0  0
 15 17  1  0  0  0  0
 17 18  1  0  0  0  0
 17 19  2  0  0  0  0
 19 20  1  0  0  0  0
 20 21  1  0  0  0  0
 22 23  2  0  0  0  0
 22 24  1  0  0  0  0
 24 25  1  0  0  0  0
 24 26  1  0  0  0  0
 26 27  1  0  0  0  0
 26 28  1  0  0  0  0
 26 29  1  0  0  0  0
M  END
$$$$

  -OEChem-04042215593D

 29 29  0     1  0  0  0  0  0999 V2000
   -3.6065   -3.6295    1.7074 H   0  0  0  0  0  0  0  0  0  0  0  0
   -3.5439   -2.7294    1.0894 C   0  0  0  0  0  0  0  0  0  0  0  0
   -4.1925   -1.9615    1.5176 H   0  0  0  0  0  0  0  0  0  0  0  0
   -3.8914   -2.9692    0.0814 H   0  0  0  0  0  0  0  0  0  0  0  0
   -2.1130   -2.2293    1.0379 C   0  0  0  0  0  0  0  0  0  0  0  0
   -1.2334   -2.8238    1.6407 O   0  0  0  0  0  0  0  0  0  0  0  0
   -1.8063   -1.1045    0.3023 N   0  0  0  0  0  0  0  0  0  0  0  0
   -2.5741   -0.6045   -0.1443 H   0  0  0  0  0  0  0  0  0  0  0  0
   -0.4705   -0.4979    0.2092 C   0  0  1  0  0  0  0  0  0  0  0  0
    0.1518   -0.8531    1.0369 H   0  0  0  0  0  0  0  0  0  0  0  0
    0.2752   -0.8116   -1.1128 C   0  0  0  0  0  0  0  0  0  0  0  0
    1.0034   -0.0196   -1.3155 H   0  0  0  0  0  0  0  0  0  0  0  0
    0.8458   -1.7323   -0.9542 H   0  0  0  0  0  0  0  0  0  0  0  0
   -0.5735   -1.0320   -2.3492 C   0  0  0  0  0  0  0  0  0  0  0  0
   -0.3283   -0.4895   -3.5925 N   0  0  0  0  0  0  0  0  0  0  0  0
    0.3853    0.2003   -3.8167 H   0  0  0  0  0  0  0  0  0  0  0  0
   -1.2583   -0.9850   -4.4861 C   0  0  0  0  0  0  0  0  0  0  0  0
   -1.3247   -0.7105   -5.5351 H   0  0  0  0  0  0  0  0  0  0  0  0
   -2.0499   -1.8389   -3.8855 N   0  0  0  0  0  0  0  0  0  0  0  0
   -1.6206   -1.8945   -2.5644 C   0  0  0  0  0  0  0  0  0  0  0  0
   -2.0467   -2.5574   -1.8187 H   0  0  0  0  0  0  0  0  0  0  0  0
   -0.5881    1.0311    0.3681 C   0  0  0  0  0  0  0  0  0  0  0  0
   -1.4784    1.6473   -0.2060 O   0  0  0  0  0  0  0  0  0  0  0  0
    0.2904    1.7177    1.1872 N   0  0  0  0  0  0  0  0  0  0  0  0
    0.9630    1.1716    1.7184 H   0  0  0  0  0  0  0  0  0  0  0  0
    0.1969    3.1516    1.4346 C   0  0  0  0  0  0  0  0  0  0  0  0
   -0.7662    3.4000    1.8930 H   0  0  0  0  0  0  0  0  0  0  0  0
    0.9949    3.4718    2.1114 H   0  0  0  0  0  0  0  0  0  0  0  0
    0.2954    3.7092    0.4971 H   0  0  0  0  0  0  0  0  0  0  0  0
  1  2  1  0  0  0  0
  2  3  1  0  0  0  0
  2  4  1  0  0  0  0
  2  5  1  0  0  0  0
  5  6  2  0  0  0  0
  5  7  1  0  0  0  0
  7  8  1  0  0  0  0
  7  9  1  0  0  0  0
  9 10  1  0  0  0  0
  9 11  1  0  0  0  0
  9 22  1  0  0  0  0
 11 12  1  0  0  0  0
 11 13  1  0  0  0  0
 11 14  1  0  0  0  0
 14 15  1  0  0  0  0
 14 20  2  0  0  0  0
 15 16  1  0  0  0  0
 15 17  1  0  0  0  0
 17 18  1  0  0  0  0
 17 19  2  0  0  0  0
 19 20  1  0  0  0  0
 20 21  1  0  0  0  0
 22 23  2  0  0  0  0
 22 24  1  0  0  0  0
 24 25  1  0  0  0  0
 24 26  1  0  0  0  0
 26 27  1  0  0  0  0
 26 28  1  0  0  0  0
 26 29  1  0  0  0  0
M  END
$$$$

  -OEChem-04042215593D

 29 29  0     1  0  0  0  0  0999 V2000
   -3.5823   -3.5964    1.8788 H   0  0  0  0  0  0  0  0  0  0  0  0
   -3.5355   -2.7292    1.2142 C   0  0  0  0  0  0  0  0  0  0  0  0
   -4.1574   -1.9330    1.6304 H   0  0  0  0  0  0  0  0  0  0  0  0
   -3.9269   -3.0138    0.2344 H   0  0  0  0  0  0  0  0  0  0  0  0
   -2.1021   -2.2518    1.0800 C   0  0  0  0  0  0  0  0  0  0  0  0
   -1.1994   -2.8615    1.6316 O   0  0  0  0  0  0  0  0  0  0  0  0
   -1.8213   -1.1252    0.3364 N   0  0  0  0  0  0  0  0  0  0  0  0
   -2.6081   -0.5950   -0.0364 H   0  0  0  0  0  0  0  0  0  0  0  0
   -0.4897   -0.5200    0.2049 C   0  0  1  0  0  0  0  0  0  0  0  0
    0.1513   -0.8719    1.0194 H   0  0  0  0  0  0  0  0  0  0  0  0
    0.2365   -0.8286   -1.1305 C   0  0  0  0  0  0  0  0  0  0  0  0
    0.9499   -0.0224   -1.3307 H   0  0  0  0  0  0  0  0  0  0  0  0
    0.8246   -1.7388   -0.9752 H   0  0  0  0  0  0  0  0  0  0  0  0
   -0.5858   -1.0591   -2.3871 C   0  0  0  0  0  0  0  0  0  0  0  0
   -0.1366   -0.7523   -3.6548 N   0  0  0  0  0  0  0  0  0  0  0  0
    0.7542   -0.3193   -3.8868 H   0  0  0  0  0  0  0  0  0  0  0  0
   -1.1085   -1.0968   -4.5734 C   0  0  0  0  0  0  0  0  0  0  0  0
   -1.0308   -0.9563   -5.6478 H   0  0  0  0  0  0  0  0  0  0  0  0
   -2.1396   -1.6207   -3.9604 N   0  0  0  0  0  0  0  0  0  0  0  0
   -1.8281   -1.6078   -2.6053 C   0  0  0  0  0  0  0  0  0  0  0  0
   -2.4893   -2.0052   -1.8445 H   0  0  0  0  0  0  0  0  0  0  0  0
   -0.6124    1.0077    0.3715 C   0  0  0  0  0  0  0  0  0  0  0  0
   -1.5356    1.6143   -0.1591 O   0  0  0  0  0  0  0  0  0  0  0  0
    0.2838    1.7003    1.1659 N   0  0  0  0  0  0  0  0  0  0  0  0
    0.9854    1.1612    1.6658 H   0  0  0  0  0  0  0  0  0  0  0  0
    0.1866    3.1334    1.4170 C   0  0  0  0  0  0  0  0  0  0  0  0
   -0.7653    3.3745    1.9019 H   0  0  0  0  0  0  0  0  0  0  0  0
    1.0006    3.4592    2.0718 H   0  0  0  0  0  0  0  0  0  0  0  0
    0.2550    3.6918    0.4774 H   0  0  0  0  0  0  0  0  0  0  0  0
  1  2  1  0  0  0  0
  2  3  1  0  0  0  0
  2  4  1  0  0  0  0
  2  5  1  0  0  0  0
  5  6  2  0  0  0  0
  5  7  1  0  0  0  0
  7  8  1  0  0  0  0
  7  9  1  0  0  0  0
  9 10  1  0  0  0  0
  9 11  1  0  0  0  0
  9 22  1  0  0  0  0
 11 12  1  0  0  0  0
 11 13  1  0  0  0  0
 11 14  1  0  0  0  0
 14 15  1  0  0  0  0
 14 20  2  0  0  0  0
 15 16  1  0  0  0  0
 15 17  1  0  0  0  0
 17 18  1  0  0  0  0
 17 19  2  0  0  0  0
 19 20  1  0  0  0  0
 20 21  1  0  0  0  0
 22 23  2  0  0  0  0
 22 24  1  0  0  0  0
 24 25  1  0  0  0  0
 24 26  1  0  0  0  0
 26 27  1  0  0  0  0
 26 28  1  0  0  0  0
 26 29  1  0  0  0  0
M  END
$$$$

  -OEChem-04042215593D

 29 29  0     1  0  0  0  0  0999 V2000
   -3.5596   -3.6120    1.8905 H   0  0  0  0  0  0  0  0  0  0  0  0
   -3.5210   -2.7289    1.2468 C   0  0  0  0  0  0  0  0  0  0  0  0
   -4.1299   -1.9394    1.6936 H   0  0  0  0  0  0  0  0  0  0  0  0
   -3.9330   -2.9876    0.2683 H   0  0  0  0  0  0  0  0  0  0  0  0
   -2.0883   -2.2553    1.0942 C   0  0  0  0  0  0  0  0  0  0  0  0
   -1.1787   -2.8695    1.6295 O   0  0  0  0  0  0  0  0  0  0  0  0
   -1.8169   -1.1275    0.3494 N   0  0  0  0  0  0  0  0  0  0  0  0
   -2.6098   -0.5835    0.0115 H   0  0  0  0  0  0  0  0  0  0  0  0
   -0.4872   -0.5230    0.2013 C   0  0  1  0  0  0  0  0  0  0  0  0
    0.1642   -0.8750    1.0076 H   0  0  0  0  0  0  0  0  0  0  0  0
    0.2166   -0.8411   -1.1434 C   0  0  0  0  0  0  0  0  0  0  0  0
    0.9323   -0.0400   -1.3558 H   0  0  0  0  0  0  0  0  0  0  0  0
    0.7999   -1.7541   -0.9855 H   0  0  0  0  0  0  0  0  0  0  0  0
   -0.6108   -1.0781   -2.3974 C   0  0  0  0  0  0  0  0  0  0  0  0
   -0.0624   -1.0666   -3.6636 N   0  0  0  0  0  0  0  0  0  0  0  0
    0.9192   -0.9253   -3.8899 H   0  0  0  0  0  0  0  0  0  0  0  0
   -1.0622   -1.2747   -4.5930 C   0  0  0  0  0  0  0  0  0  0  0  0
   -0.9170   -1.3213   -5.6685 H   0  0  0  0  0  0  0  0  0  0  0  0
   -2.2146   -1.4091   -3.9882 N   0  0  0  0  0  0  0  0  0  0  0  0
   -1.9536   -1.2746   -2.6289 C   0  0  0  0  0  0  0  0  0  0  0  0
   -2.7328   -1.3196   -1.8779 H   0  0  0  0  0  0  0  0  0  0  0  0
   -0.6082    1.0041    0.3725 C   0  0  0  0  0  0  0  0  0  0  0  0
   -1.5488    1.6060   -0.1326 O   0  0  0  0  0  0  0  0  0  0  0  0
    0.2976    1.6964    1.1561 N   0  0  0  0  0  0  0  0  0  0  0  0
    1.0077    1.1571    1.6435 H   0  0  0  0  0  0  0  0  0  0  0  0
    0.1784    3.1215    1.4406 C   0  0  0  0  0  0  0  0  0  0  0  0
   -0.7606    3.3307    1.9637 H   0  0  0  0  0  0  0  0  0  0  0  0
    1.0079    3.4520    2.0730 H   0  0  0  0  0  0  0  0  0  0  0  0
    0.2005    3.7009    0.5115 H   0  0  0  0  0  0  0  0  0  0  0  0
  1  2  1  0  0  0  0
  2  3  1  0  0  0  0
  2  4  1  0  0  0  0
  2  5  1  0  0  0  0
  5  6  2  0  0  0  0
  5  7  1  0  0  0  0
  7  8  1  0  0  0  0
  7  9  1  0  0  0  0
  9 10  1  0  0  0  0
  9 11  1  0  0  0  0
  9 22  1  0  0  0  0
 11 12  1  0  0  0  0
 11 13  1  0  0  0  0
 11 14  1  0  0  0  0
 14 15  1  0  0  0  0
 14 20  2  0  0  0  0
 15 16  1  0  0  0  0
 15 17  1  0  0  0  0
 17 18  1  0  0  0  0
 17 19  2  0  0  0  0
 19 20  1  0  0  0  0
 20 21  1  0  0  0  0
 22 23  2  0  0  0  0
 22 24  1  0  0  0  0
 24 25  1  0  0  0  0
 24 26  1  0  0  0  0
 26 27  1  0  0  0  0
 26 28  1  0  0  0  0
 26 29  1  0  0  0  0
M  END
$$$$

  -OEChem-04042215593D

 29 29  0     1  0  0  0  0  0999 V2000
   -3.5360   -3.6651    1.6899 H   0  0  0  0  0  0  0  0  0  0  0  0
   -3.5008   -2.7509    1.0909 C   0  0  0  0  0  0  0  0  0  0  0  0
   -4.1220   -1.9907    1.5707 H   0  0  0  0  0  0  0  0  0  0  0  0
   -3.9018   -2.9650    0.0971 H   0  0  0  0  0  0  0  0  0  0  0  0
   -2.0718   -2.2556    0.9758 C   0  0  0  0  0  0  0  0  0  0  0  0
   -1.1632   -2.8742    1.5082 O   0  0  0  0  0  0  0  0  0  0  0  0
   -1.8023   -1.1035    0.2690 N   0  0  0  0  0  0  0  0  0  0  0  0
   -2.5978   -0.5676   -0.0738 H   0  0  0  0  0  0  0  0  0  0  0  0
   -0.4785   -0.4688    0.1764 C   0  0  1  0  0  0  0  0  0  0  0  0
    0.1536   -0.8367    0.9911 H   0  0  0  0  0  0  0  0  0  0  0  0
    0.2375   -0.8044   -1.1501 C   0  0  0  0  0  0  0  0  0  0  0  0
    1.1157   -0.1584   -1.2495 H   0  0  0  0  0  0  0  0  0  0  0  0
    0.6002   -1.8342   -1.0683 H   0  0  0  0  0  0  0  0  0  0  0  0
   -0.5710   -0.7171   -2.4308 C   0  0  0  0  0  0  0  0  0  0  0  0
   -0.0658   -0.9891   -3.6845 N   0  0  0  0  0  0  0  0  0  0  0  0
    0.8779   -1.3051   -3.8963 H   0  0  0  0  0  0  0  0  0  0  0  0
   -1.0590   -0.7800   -4.6216 C   0  0  0  0  0  0  0  0  0  0  0  0
   -0.9499   -0.9288   -5.6921 H   0  0  0  0  0  0  0  0  0  0  0  0
   -2.1564   -0.3775   -4.0318 N   0  0  0  0  0  0  0  0  0  0  0  0
   -1.8629   -0.3134   -2.6734 C   0  0  0  0  0  0  0  0  0  0  0  0
   -2.5695    0.0198   -1.9210 H   0  0  0  0  0  0  0  0  0  0  0  0
   -0.5905    1.0554    0.3782 C   0  0  0  0  0  0  0  0  0  0  0  0
   -1.5354    1.6720   -0.0995 O   0  0  0  0  0  0  0  0  0  0  0  0
    0.3018    1.7198    1.2008 N   0  0  0  0  0  0  0  0  0  0  0  0
    1.0156    1.1672    1.6672 H   0  0  0  0  0  0  0  0  0  0  0  0
    0.1805    3.1348    1.5311 C   0  0  0  0  0  0  0  0  0  0  0  0
   -0.7654    3.3281    2.0482 H   0  0  0  0  0  0  0  0  0  0  0  0
    1.0017    3.4425    2.1856 H   0  0  0  0  0  0  0  0  0  0  0  0
    0.2164    3.7448    0.6223 H   0  0  0  0  0  0  0  0  0  0  0  0
  1  2  1  0  0  0  0
  2  3  1  0  0  0  0
  2  4  1  0  0  0  0
  2  5  1  0  0  0  0
  5  6  2  0  0  0  0
  5  7  1  0  0  0  0
  7  8  1  0  0  0  0
  7  9  1  0  0  0  0
  9 10  1  0  0  0  0
  9 11  1  0  0  0  0
  9 22  1  0  0  0  0
 11 12  1  0  0  0  0
 11 13  1  0  0  0  0
 11 14  1  0  0  0  0
 14 15  1  0  0  0  0
 14 20  2  0  0  0  0
 15 16  1  0  0  0  0
 15 17  1  0  0  0  0
 17 18  1  0  0  0  0
 17 19  2  0  0  0  0
 19 20  1  0  0  0  0
 20 21  1  0  0  0  0
 22 23  2  0  0  0  0
 22 24  1  0  0  0  0
 24 25  1  0  0  0  0
 24 26  1  0  0  0  0
 26 27  1  0  0  0  0
 26 28  1  0  0  0  0
 26 29  1  0  0  0  0
M  END
$$$$

  -OEChem-04042215593D

 29 29  0     1  0  0  0  0  0999 V2000
   -3.5374   -3.6698    1.6215 H   0  0  0  0  0  0  0  0  0  0  0  0
   -3.5021   -2.7565    1.0211 C   0  0  0  0  0  0  0  0  0  0  0  0
   -4.1485   -2.0063    1.4827 H   0  0  0  0  0  0  0  0  0  0  0  0
   -3.8730   -2.9793    0.0176 H   0  0  0  0  0  0  0  0  0  0  0  0
   -2.0790   -2.2375    0.9412 C   0  0  0  0  0  0  0  0  0  0  0  0
   -1.1703   -2.8563    1.4731 O   0  0  0  0  0  0  0  0  0  0  0  0
   -1.8133   -1.0708    0.2572 N   0  0  0  0  0  0  0  0  0  0  0  0
   -2.6088   -0.5504   -0.1081 H   0  0  0  0  0  0  0  0  0  0  0  0
   -0.4934   -0.4250    0.1781 C   0  0  1  0  0  0  0  0  0  0  0  0
    0.1314   -0.8028    0.9939 H   0  0  0  0  0  0  0  0  0  0  0  0
    0.2308   -0.7687   -1.1409 C   0  0  0  0  0  0  0  0  0  0  0  0
    1.1094   -0.1244   -1.2481 H   0  0  0  0  0  0  0  0  0  0  0  0
    0.5925   -1.7978   -1.0469 H   0  0  0  0  0  0  0  0  0  0  0  0
   -0.5834   -0.6949   -2.4174 C   0  0  0  0  0  0  0  0  0  0  0  0
   -0.1937   -1.2430   -3.6207 N   0  0  0  0  0  0  0  0  0  0  0  0
    0.6680   -1.7547   -3.7971 H   0  0  0  0  0  0  0  0  0  0  0  0
   -1.1779   -1.0024   -4.5596 C   0  0  0  0  0  0  0  0  0  0  0  0
   -1.1446   -1.3235   -5.5968 H   0  0  0  0  0  0  0  0  0  0  0  0
   -2.1628   -0.3318   -4.0167 N   0  0  0  0  0  0  0  0  0  0  0  0
   -1.8048   -0.1249   -2.6882 C   0  0  0  0  0  0  0  0  0  0  0  0
   -2.4231    0.4072   -1.9739 H   0  0  0  0  0  0  0  0  0  0  0  0
   -0.5865    1.0977    0.4045 C   0  0  0  0  0  0  0  0  0  0  0  0
   -1.5240    1.7374   -0.0558 O   0  0  0  0  0  0  0  0  0  0  0  0
    0.3161    1.7359    1.2366 N   0  0  0  0  0  0  0  0  0  0  0  0
    1.0339    1.1690    1.6791 H   0  0  0  0  0  0  0  0  0  0  0  0
    0.2348    3.1536    1.5688 C   0  0  0  0  0  0  0  0  0  0  0  0
   -0.7125    3.3766    2.0709 H   0  0  0  0  0  0  0  0  0  0  0  0
    1.0548    3.4329    2.2374 H   0  0  0  0  0  0  0  0  0  0  0  0
    0.3054    3.7641    0.6623 H   0  0  0  0  0  0  0  0  0  0  0  0
  1  2  1  0  0  0  0
  2  3  1  0  0  0  0
  2  4  1  0  0  0  0
  2  5  1  0  0  0  0
  5  6  2  0  0  0  0
  5  7  1  0  0  0  0
  7  8  1  0  0  0  0
  7  9  1  0  0  0  0
  9 10  1  0  0  0  0
  9 11  1  0  0  0  0
  9 22  1  0  0  0  0
 11 12  1  0  0  0  0
 11 13  1  0  0  0  0
 11 14  1  0  0  0  0
 14 15  1  0  0  0  0
 14 20  2  0  0  0  0
 15 16  1  0  0  0  0
 15 17  1  0  0  0  0
 17 18  1  0  0  0  0
 17 19  2  0  0  0  0
 19 20  1  0  0  0  0
 20 21  1  0  0  0  0
 22 23  2  0  0  0  0
 22 24  1  0  0  0  0
 24 25  1  0  0  0  0
 24 26  1  0  0  0  0
 26 27  1  0  0  0  0
 26 28  1  0  0  0  0
 26 29  1  0  0  0  0
M  END
$$$$

  -OEChem-04042215593D

 29 29  0     1  0  0  0  0  0999 V2000
   -3.5352   -3.6581    1.5636 H   0  0  0  0  0  0  0  0  0  0  0  0
   -3.5015   -2.7372    0.9749 C   0  0  0  0  0  0  0  0  0  0  0  0
   -4.1498   -1.9938    1.4451 H   0  0  0  0  0  0  0  0  0  0  0  0
   -3.8711   -2.9479   -0.0316 H   0  0  0  0  0  0  0  0  0  0  0  0
   -2.0797   -2.2140    0.9041 C   0  0  0  0  0  0  0  0  0  0  0  0
   -1.1699   -2.8391    1.4270 O   0  0  0  0  0  0  0  0  0  0  0  0
   -1.8159   -1.0372    0.2370 N   0  0  0  0  0  0  0  0  0  0  0  0
   -2.6098   -0.5215   -0.1386 H   0  0  0  0  0  0  0  0  0  0  0  0
   -0.4977   -0.3879    0.1658 C   0  0  1  0  0  0  0  0  0  0  0  0
    0.1198   -0.7726    0.9838 H   0  0  0  0  0  0  0  0  0  0  0  0
    0.2330   -0.7474   -1.1440 C   0  0  0  0  0  0  0  0  0  0  0  0
    1.1142   -0.1082   -1.2588 H   0  0  0  0  0  0  0  0  0  0  0  0
    0.5915   -1.7760   -1.0337 H   0  0  0  0  0  0  0  0  0  0  0  0
   -0.5844   -0.6886   -2.4185 C   0  0  0  0  0  0  0  0  0  0  0  0
   -0.3588   -1.4803   -3.5242 N   0  0  0  0  0  0  0  0  0  0  0  0
    0.3768   -2.1762   -3.6246 H   0  0  0  0  0  0  0  0  0  0  0  0
   -1.3137   -1.1939   -4.4798 C   0  0  0  0  0  0  0  0  0  0  0  0
   -1.3825   -1.6649   -5.4562 H   0  0  0  0  0  0  0  0  0  0  0  0
   -2.1303   -0.2718   -4.0359 N   0  0  0  0  0  0  0  0  0  0  0  0
   -1.6905    0.0545   -2.7565 C   0  0  0  0  0  0  0  0  0  0  0  0
   -2.1776    0.7871   -2.1239 H   0  0  0  0  0  0  0  0  0  0  0  0
   -0.5767    1.1327    0.4119 C   0  0  0  0  0  0  0  0  0  0  0  0
   -1.5232    1.7840   -0.0111 O   0  0  0  0  0  0  0  0  0  0  0  0
    0.3356    1.7495    1.2499 N   0  0  0  0  0  0  0  0  0  0  0  0
    1.0567    1.1708    1.6711 H   0  0  0  0  0  0  0  0  0  0  0  0
    0.2573    3.1575    1.6212 C   0  0  0  0  0  0  0  0  0  0  0  0
   -0.6812    3.3646    2.1462 H   0  0  0  0  0  0  0  0  0  0  0  0
    1.0887    3.4213    2.2818 H   0  0  0  0  0  0  0  0  0  0  0  0
    0.3099    3.7919    0.7301 H   0  0  0  0  0  0  0  0  0  0  0  0
  1  2  1  0  0  0  0
  2  3  1  0  0  0  0
  2  4  1  0  0  0  0
  2  5  1  0  0  0  0
  5  6  2  0  0  0  0
  5  7  1  0  0  0  0
  7  8  1  0  0  0  0
  7  9  1  0  0  0  0
  9 10  1  0  0  0  0
  9 11  1  0  0  0  0
  9 22  1  0  0  0  0
 11 12  1  0  0  0  0
 11 13  1  0  0  0  0
 11 14  1  0  0  0  0
 14 15  1  0  0  0  0
 14 20  2  0  0  0  0
 15 16  1  0  0  0  0
 15 17  1  0  0  0  0
 17 18  1  0  0  0  0
 17 19  2  0  0  0  0
 19 20  1  0  0  0  0
 20 21  1  0  0  0  0
 22 23  2  0  0  0  0
 22 24  1  0  0  0  0
 24 25  1  0  0  0  0
 24 26  1  0  0  0  0
 26 27  1  0  0  0  0
 26 28  1  0  0  0  0
 26 29  1  0  0  0  0
M  END
$$$$

  -OEChem-04042215593D

 29 29  0     1  0  0  0  0  0999 V2000
   -3.5391   -3.6496    1.5373 H   0  0  0  0  0  0  0  0  0  0  0  0
   -3.5002   -2.7260    0.9531 C   0  0  0  0  0  0  0  0  0  0  0  0
   -4.1486   -1.9833    1.4242 H   0  0  0  0  0  0  0  0  0  0  0  0
   -3.8660   -2.9307   -0.0560 H   0  0  0  0  0  0  0  0  0  0  0  0
   -2.0767   -2.2059    0.8911 C   0  0  0  0  0  0  0  0  0  0  0  0
   -1.1715   -2.8349    1.4174 O   0  0  0  0  0  0  0  0  0  0  0  0
   -1.8056   -1.0302    0.2255 N   0  0  0  0  0  0  0  0  0  0  0  0
   -2.5940   -0.5170   -0.1657 H   0  0  0  0  0  0  0  0  0  0  0  0
   -0.4868   -0.3821    0.1613 C   0  0  1  0  0  0  0  0  0  0  0  0
    0.1257   -0.7655    0.9838 H   0  0  0  0  0  0  0  0  0  0  0  0
    0.2462   -0.7554   -1.1430 C   0  0  0  0  0  0  0  0  0  0  0  0
    1.1253   -0.1148   -1.2668 H   0  0  0  0  0  0  0  0  0  0  0  0
    0.6083   -1.7823   -1.0279 H   0  0  0  0  0  0  0  0  0  0  0  0
   -0.5844   -0.6990   -2.4073 C   0  0  0  0  0  0  0  0  0  0  0  0
   -0.5876   -1.6665   -3.3891 N   0  0  0  0  0  0  0  0  0  0  0  0
   -0.0447   -2.5273   -3.3861 H   0  0  0  0  0  0  0  0  0  0  0  0
   -1.4715   -1.2897   -4.3809 C   0  0  0  0  0  0  0  0  0  0  0  0
   -1.6839   -1.8616   -5.2797 H   0  0  0  0  0  0  0  0  0  0  0  0
   -2.0210   -0.1401   -4.0787 N   0  0  0  0  0  0  0  0  0  0  0  0
   -1.4768    0.2442   -2.8563 C   0  0  0  0  0  0  0  0  0  0  0  0
   -1.7303    1.1668   -2.3475 H   0  0  0  0  0  0  0  0  0  0  0  0
   -0.5700    1.1383    0.4065 C   0  0  0  0  0  0  0  0  0  0  0  0
   -1.5240    1.7840   -0.0085 O   0  0  0  0  0  0  0  0  0  0  0  0
    0.3364    1.7565    1.2497 N   0  0  0  0  0  0  0  0  0  0  0  0
    1.0578    1.1789    1.6719 H   0  0  0  0  0  0  0  0  0  0  0  0
    0.2405    3.1584    1.6398 C   0  0  0  0  0  0  0  0  0  0  0  0
   -0.6986    3.3456    2.1712 H   0  0  0  0  0  0  0  0  0  0  0  0
    1.0708    3.4250    2.3007 H   0  0  0  0  0  0  0  0  0  0  0  0
    0.2811    3.8051    0.7570 H   0  0  0  0  0  0  0  0  0  0  0  0
  1  2  1  0  0  0  0
  2  3  1  0  0  0  0
  2  4  1  0  0  0  0
  2  5  1  0  0  0  0
  5  6  2  0  0  0  0
  5  7  1  0  0  0  0
  7  8  1  0  0  0  0
  7  9  1  0  0  0  0
  9 10  1  0  0  0  0
  9 11  1  0  0  0  0
  9 22  1  0  0  0  0
 11 12  1  0  0  0  0
 11 13  1  0  0  0  0
 11 14  1  0  0  0  0
 14 15  1  0  0  0  0
 14 20  2  0  0  0  0
 15 16  1  0  0  0  0
 15 17  1  0  0  0  0
 17 18  1  0  0  0  0
 17 19  2  0  0  0  0
 19 20  1  0  0  0  0
 20 21  1  0  0  0  0
 22 23  2  0  0  0  0
 22 24  1  0  0  0  0
 24 25  1  0  0  0  0
 24 26  1  0  0  0  0
 26 27  1  0  0  0  0
 26 28  1  0  0  0  0
 26 29  1  0  0  0  0
M  END
$$$$

  -OEChem-04042215593D

 29 29  0     1  0  0  0  0  0999 V2000
   -3.5511   -3.6591    1.5226 H   0  0  0  0  0  0  0  0  0  0  0  0
   -3.4971   -2.7392    0.9337 C   0  0  0  0  0  0  0  0  0  0  0  0
   -4.1578   -1.9935    1.3825 H   0  0  0  0  0  0  0  0  0  0  0  0
   -3.8359   -2.9504   -0.0835 H   0  0  0  0  0  0  0  0  0  0  0  0
   -2.0731   -2.2177    0.9064 C   0  0  0  0  0  0  0  0  0  0  0  0
   -1.1816   -2.8376    1.4657 O   0  0  0  0  0  0  0  0  0  0  0  0
   -1.7855   -1.0534    0.2290 N   0  0  0  0  0  0  0  0  0  0  0  0
   -2.5605   -0.5531   -0.2040 H   0  0  0  0  0  0  0  0  0  0  0  0
   -0.4650   -0.4083    0.1783 C   0  0  1  0  0  0  0  0  0  0  0  0
    0.1448   -0.7848    1.0058 H   0  0  0  0  0  0  0  0  0  0  0  0
    0.2678   -0.7771   -1.1266 C   0  0  0  0  0  0  0  0  0  0  0  0
    1.1403   -0.1275   -1.2508 H   0  0  0  0  0  0  0  0  0  0  0  0
    0.6390   -1.8024   -1.0287 H   0  0  0  0  0  0  0  0  0  0  0  0
   -0.5867   -0.6982   -2.3715 C   0  0  0  0  0  0  0  0  0  0  0  0
   -0.8624   -1.7436   -3.2258 N   0  0  0  0  0  0  0  0  0  0  0  0
   -0.5462   -2.7053   -3.1212 H   0  0  0  0  0  0  0  0  0  0  0  0
   -1.6492   -1.2718   -4.2585 C   0  0  0  0  0  0  0  0  0  0  0  0
   -2.0265   -1.8717   -5.0816 H   0  0  0  0  0  0  0  0  0  0  0  0
   -1.8761    0.0088   -4.1024 N   0  0  0  0  0  0  0  0  0  0  0  0
   -1.2149    0.3839   -2.9360 C   0  0  0  0  0  0  0  0  0  0  0  0
   -1.1929    1.3956   -2.5445 H   0  0  0  0  0  0  0  0  0  0  0  0
   -0.5661    1.1142    0.4002 C   0  0  0  0  0  0  0  0  0  0  0  0
   -1.5007    1.7494   -0.0722 O   0  0  0  0  0  0  0  0  0  0  0  0
    0.3167    1.7549    1.2516 N   0  0  0  0  0  0  0  0  0  0  0  0
    1.0235    1.1891    1.7129 H   0  0  0  0  0  0  0  0  0  0  0  0
    0.2151    3.1690    1.5928 C   0  0  0  0  0  0  0  0  0  0  0  0
   -0.7438    3.3787    2.0782 H   0  0  0  0  0  0  0  0  0  0  0  0
    1.0189    3.4518    2.2790 H   0  0  0  0  0  0  0  0  0  0  0  0
    0.2969    3.7864    0.6921 H   0  0  0  0  0  0  0  0  0  0  0  0
  1  2  1  0  0  0  0
  2  3  1  0  0  0  0
  2  4  1  0  0  0  0
  2  5  1  0  0  0  0
  5  6  2  0  0  0  0
  5  7  1  0  0  0  0
  7  8  1  0  0  0  0
  7  9  1  0  0  0  0
  9 10  1  0  0  0  0
  9 11  1  0  0  0  0
  9 22  1  0  0  0  0
 11 12  1  0  0  0  0
 11 13  1  0  0  0  0
 11 14  1  0  0  0  0
 14 15  1  0  0  0  0
 14 20  2  0  0  0  0
 15 16  1  0  0  0  0
 15 17  1  0  0  0  0
 17 18  1  0  0  0  0
 17 19  2  0  0  0  0
 19 20  1  0  0  0  0
 20 21  1  0  0  0  0
 22 23  2  0  0  0  0
 22 24  1  0  0  0  0
 24 25  1  0  0  0  0
 24 26  1  0  0  0  0
 26 27  1  0  0  0  0
 26 28  1  0  0  0  0
 26 29  1  0  0  0  0
M  END
$$$$

  -OEChem-04042215593D

 29 29  0     1  0  0  0  0  0999 V2000
   -3.5610   -3.6632    1.5326 H   0  0  0  0  0  0  0  0  0  0  0  0
   -3.5011   -2.7465    0.9396 C   0  0  0  0  0  0  0  0  0  0  0  0
   -4.1596   -1.9960    1.3835 H   0  0  0  0  0  0  0  0  0  0  0  0
   -3.8382   -2.9609   -0.0772 H   0  0  0  0  0  0  0  0  0  0  0  0
   -2.0744   -2.2324    0.9138 C   0  0  0  0  0  0  0  0  0  0  0  0
   -1.1887   -2.8538    1.4801 O   0  0  0  0  0  0  0  0  0  0  0  0
   -1.7757   -1.0765    0.2269 N   0  0  0  0  0  0  0  0  0  0  0  0
   -2.5440   -0.5744   -0.2163 H   0  0  0  0  0  0  0  0  0  0  0  0
   -0.4538   -0.4330    0.1885 C   0  0  1  0  0  0  0  0  0  0  0  0
    0.1523   -0.8055    1.0206 H   0  0  0  0  0  0  0  0  0  0  0  0
    0.2854   -0.7847   -1.1161 C   0  0  0  0  0  0  0  0  0  0  0  0
    1.1523   -0.1255   -1.2286 H   0  0  0  0  0  0  0  0  0  0  0  0
    0.6647   -1.8086   -1.0394 H   0  0  0  0  0  0  0  0  0  0  0  0
   -0.5799   -0.6818   -2.3497 C   0  0  0  0  0  0  0  0  0  0  0  0
   -1.1129   -1.7305   -3.0661 N   0  0  0  0  0  0  0  0  0  0  0  0
   -1.0103   -2.7198   -2.8503 H   0  0  0  0  0  0  0  0  0  0  0  0
   -1.8035   -1.2157   -4.1464 C   0  0  0  0  0  0  0  0  0  0  0  0
   -2.3305   -1.8060   -4.8904 H   0  0  0  0  0  0  0  0  0  0  0  0
   -1.7289    0.0926   -4.1471 N   0  0  0  0  0  0  0  0  0  0  0  0
   -0.9667    0.4415   -3.0351 C   0  0  0  0  0  0  0  0  0  0  0  0
   -0.7085    1.4592   -2.7575 H   0  0  0  0  0  0  0  0  0  0  0  0
   -0.5663    1.0912    0.3915 C   0  0  0  0  0  0  0  0  0  0  0  0
   -1.4757    1.7210   -0.1346 O   0  0  0  0  0  0  0  0  0  0  0  0
    0.2981    1.7478    1.2491 N   0  0  0  0  0  0  0  0  0  0  0  0
    0.9926    1.1904    1.7384 H   0  0  0  0  0  0  0  0  0  0  0  0
    0.1996    3.1717    1.5481 C   0  0  0  0  0  0  0  0  0  0  0  0
   -0.7680    3.4009    2.0070 H   0  0  0  0  0  0  0  0  0  0  0  0
    0.9909    3.4688    2.2430 H   0  0  0  0  0  0  0  0  0  0  0  0
    0.3049    3.7632    0.6324 H   0  0  0  0  0  0  0  0  0  0  0  0
  1  2  1  0  0  0  0
  2  3  1  0  0  0  0
  2  4  1  0  0  0  0
  2  5  1  0  0  0  0
  5  6  2  0  0  0  0
  5  7  1  0  0  0  0
  7  8  1  0  0  0  0
  7  9  1  0  0  0  0
  9 10  1  0  0  0  0
  9 11  1  0  0  0  0
  9 22  1  0  0  0  0
 11 12  1  0  0  0  0
 11 13  1  0  0  0  0
 11 14  1  0  0  0  0
 14 15  1  0  0  0  0
 14 20  2  0  0  0  0
 15 16  1  0  0  0  0
 15 17  1  0  0  0  0
 17 18  1  0  0  0  0
 17 19  2  0  0  0  0
 19 20  1  0  0  0  0
 20 21  1  0  0  0  0
 22 23  2  0  0  0  0
 22 24  1  0  0  0  0
 24 25  1  0  0  0  0
 24 26  1  0  0  0  0
 26 27  1  0  0  0  0
 26 28  1  0  0  0  0
 26 29  1  0  0  0  0
M  END
$$$$

  -OEChem-04042215593D

 29 29  0     1  0  0  0  0  0999 V2000
   -3.5729   -3.6470    1.5697 H   0  0  0  0  0  0  0  0  0  0  0  0
   -3.5097   -2.7350    0.9695 C   0  0  0  0  0  0  0  0  0  0  0  0
   -4.1467   -1.9709    1.4218 H   0  0  0  0  0  0  0  0  0  0  0  0
   -3.8709   -2.9498   -0.0390 H   0  0  0  0  0  0  0  0  0  0  0  0
   -2.0755   -2.2450    0.9131 C   0  0  0  0  0  0  0  0  0  0  0  0
   -1.1894   -2.8800    1.4625 O   0  0  0  0  0  0  0  0  0  0  0  0
   -1.7721   -1.0930    0.2222 N   0  0  0  0  0  0  0  0  0  0  0  0
   -2.5419   -0.5731   -0.1971 H   0  0  0  0  0  0  0  0  0  0  0  0
   -0.4490   -0.4520    0.1867 C   0  0  1  0  0  0  0  0  0  0  0  0
    0.1560   -0.8233    1.0202 H   0  0  0  0  0  0  0  0  0  0  0  0
    0.2991   -0.7830   -1.1186 C   0  0  0  0  0  0  0  0  0  0  0  0
    1.1647   -0.1195   -1.2157 H   0  0  0  0  0  0  0  0  0  0  0  0
    0.6810   -1.8071   -1.0585 H   0  0  0  0  0  0  0  0  0  0  0  0
   -0.5632   -0.6628   -2.3516 C   0  0  0  0  0  0  0  0  0  0  0  0
   -1.3270   -1.6540   -2.9266 N   0  0  0  0  0  0  0  0  0  0  0  0
   -1.4156   -2.6120   -2.5952 H   0  0  0  0  0  0  0  0  0  0  0  0
   -1.9298   -1.1384   -4.0581 C   0  0  0  0  0  0  0  0  0  0  0  0
   -2.5892   -1.6907   -4.7216 H   0  0  0  0  0  0  0  0  0  0  0  0
   -1.5871    0.1162   -4.2206 N   0  0  0  0  0  0  0  0  0  0  0  0
   -0.7367    0.4284   -3.1631 C   0  0  0  0  0  0  0  0  0  0  0  0
   -0.2715    1.3974   -3.0074 H   0  0  0  0  0  0  0  0  0  0  0  0
   -0.5707    1.0722    0.3830 C   0  0  0  0  0  0  0  0  0  0  0  0
   -1.4774    1.6955   -0.1559 O   0  0  0  0  0  0  0  0  0  0  0  0
    0.2856    1.7367    1.2427 N   0  0  0  0  0  0  0  0  0  0  0  0
    0.9814    1.1855    1.7372 H   0  0  0  0  0  0  0  0  0  0  0  0
    0.1853    3.1635    1.5266 C   0  0  0  0  0  0  0  0  0  0  0  0
   -0.7856    3.3978    1.9755 H   0  0  0  0  0  0  0  0  0  0  0  0
    0.9712    3.4671    2.2247 H   0  0  0  0  0  0  0  0  0  0  0  0
    0.2983    3.7461    0.6062 H   0  0  0  0  0  0  0  0  0  0  0  0
  1  2  1  0  0  0  0
  2  3  1  0  0  0  0
  2  4  1  0  0  0  0
  2  5  1  0  0  0  0
  5  6  2  0  0  0  0
  5  7  1  0  0  0  0
  7  8  1  0  0  0  0
  7  9  1  0  0  0  0
  9 10  1  0  0  0  0
  9 11  1  0  0  0  0
  9 22  1  0  0  0  0
 11 12  1  0  0  0  0
 11 13  1  0  0  0  0
 11 14  1  0  0  0  0
 14 15  1  0  0  0  0
 14 20  2  0  0  0  0
 15 16  1  0  0  0  0
 15 17  1  0  0  0  0
 17 18  1  0  0  0  0
 17 19  2  0  0  0  0
 19 20  1  0  0  0  0
 20 21  1  0  0  0  0
 22 23  2  0  0  0  0
 22 24  1  0  0  0  0
 24 25  1  0  0  0  0
 24 26  1  0  0  0  0
 26 27  1  0  0  0  0
 26 28  1  0  0  0  0
 26 29  1  0  0  0  0
M  END
$$$$

  -OEChem-04042215593D

 29 29  0     1  0  0  0  0  0999 V2000
   -3.5743   -3.6219    1.6273 H   0  0  0  0  0  0  0  0  0  0  0  0
   -3.5150   -2.7090    1.0282 C   0  0  0  0  0  0  0  0  0  0  0  0
   -4.1177   -1.9339    1.5078 H   0  0  0  0  0  0  0  0  0  0  0  0
   -3.9195   -2.9122    0.0341 H   0  0  0  0  0  0  0  0  0  0  0  0
   -2.0740   -2.2486    0.9176 C   0  0  0  0  0  0  0  0  0  0  0  0
   -1.1804   -2.9046    1.4283 O   0  0  0  0  0  0  0  0  0  0  0  0
   -1.7740   -1.0991    0.2205 N   0  0  0  0  0  0  0  0  0  0  0  0
   -2.5508   -0.5457   -0.1401 H   0  0  0  0  0  0  0  0  0  0  0  0
   -0.4471   -0.4660    0.1746 C   0  0  1  0  0  0  0  0  0  0  0  0
    0.1605   -0.8366    1.0065 H   0  0  0  0  0  0  0  0  0  0  0  0
    0.3044   -0.7828   -1.1332 C   0  0  0  0  0  0  0  0  0  0  0  0
    1.1758   -0.1250   -1.2170 H   0  0  0  0  0  0  0  0  0  0  0  0
    0.6783   -1.8105   -1.0811 H   0  0  0  0  0  0  0  0  0  0  0  0
   -0.5443   -0.6524   -2.3750 C   0  0  0  0  0  0  0  0  0  0  0  0
   -1.5166   -1.5189   -2.8228 N   0  0  0  0  0  0  0  0  0  0  0  0
   -1.8008   -2.3848   -2.3707 H   0  0  0  0  0  0  0  0  0  0  0  0
   -2.0226   -1.0308   -4.0123 C   0  0  0  0  0  0  0  0  0  0  0  0
   -2.8020   -1.5055   -4.6012 H   0  0  0  0  0  0  0  0  0  0  0  0
   -1.4215    0.0888   -4.3333 N   0  0  0  0  0  0  0  0  0  0  0  0
   -0.5014    0.3397   -3.3195 C   0  0  0  0  0  0  0  0  0  0  0  0
    0.1624    1.1984   -3.2860 H   0  0  0  0  0  0  0  0  0  0  0  0
   -0.5749    1.0578    0.3704 C   0  0  0  0  0  0  0  0  0  0  0  0
   -1.5043    1.6701   -0.1423 O   0  0  0  0  0  0  0  0  0  0  0  0
    0.2831    1.7277    1.2244 N   0  0  0  0  0  0  0  0  0  0  0  0
    0.9942    1.1831    1.7041 H   0  0  0  0  0  0  0  0  0  0  0  0
    0.1563    3.1471    1.5329 C   0  0  0  0  0  0  0  0  0  0  0  0
   -0.8116    3.3527    2.0022 H   0  0  0  0  0  0  0  0  0  0  0  0
    0.9475    3.4565    2.2225 H   0  0  0  0  0  0  0  0  0  0  0  0
    0.2401    3.7465    0.6202 H   0  0  0  0  0  0  0  0  0  0  0  0
  1  2  1  0  0  0  0
  2  3  1  0  0  0  0
  2  4  1  0  0  0  0
  2  5  1  0  0  0  0
  5  6  2  0  0  0  0
  5  7  1  0  0  0  0
  7  8  1  0  0  0  0
  7  9  1  0  0  0  0
  9 10  1  0  0  0  0
  9 11  1  0  0  0  0
  9 22  1  0  0  0  0
 11 12  1  0  0  0  0
 11 13  1  0  0  0  0
 11 14  1  0  0  0  0
 14 15  1  0  0  0  0
 14 20  2  0  0  0  0
 15 16  1  0  0  0  0
 15 17  1  0  0  0  0
 17 18  1  0  0  0  0
 17 19  2  0  0  0  0
 19 20  1  0  0  0  0
 20 21  1  0  0  0  0
 22 23  2  0  0  0  0
 22 24  1  0  0  0  0
 24 25  1  0  0  0  0
 24 26  1  0  0  0  0
 26 27  1  0  0  0  0
 26 28  1  0  0  0  0
 26 29  1  0  0  0  0
M  END
$$$$

  -OEChem-04042215593D

 29 29  0     1  0  0  0  0  0999 V2000
   -3.5634   -3.6023    1.7108 H   0  0  0  0  0  0  0  0  0  0  0  0
   -3.5156   -2.7016    1.0922 C   0  0  0  0  0  0  0  0  0  0  0  0
   -4.0978   -1.9129    1.5751 H   0  0  0  0  0  0  0  0  0  0  0  0
   -3.9522   -2.9213    0.1152 H   0  0  0  0  0  0  0  0  0  0  0  0
   -2.0747   -2.2562    0.9289 C   0  0  0  0  0  0  0  0  0  0  0  0
   -1.1713   -2.9235    1.4059 O   0  0  0  0  0  0  0  0  0  0  0  0
   -1.7869   -1.1052    0.2278 N   0  0  0  0  0  0  0  0  0  0  0  0
   -2.5707   -0.5232   -0.0670 H   0  0  0  0  0  0  0  0  0  0  0  0
   -0.4574   -0.4769    0.1668 C   0  0  1  0  0  0  0  0  0  0  0  0
    0.1562   -0.8492    0.9935 H   0  0  0  0  0  0  0  0  0  0  0  0
    0.2960   -0.7779   -1.1459 C   0  0  0  0  0  0  0  0  0  0  0  0
    1.1747   -0.1281   -1.2158 H   0  0  0  0  0  0  0  0  0  0  0  0
    0.6603   -1.8092   -1.0976 H   0  0  0  0  0  0  0  0  0  0  0  0
   -0.5313   -0.6425   -2.4035 C   0  0  0  0  0  0  0  0  0  0  0  0
   -1.6733   -1.3259   -2.7568 N   0  0  0  0  0  0  0  0  0  0  0  0
   -2.1282   -2.0507   -2.2075 H   0  0  0  0  0  0  0  0  0  0  0  0
   -2.0852   -0.8824   -3.9990 C   0  0  0  0  0  0  0  0  0  0  0  0
   -2.9588   -1.2442   -4.5338 H   0  0  0  0  0  0  0  0  0  0  0  0
   -1.2640    0.0366   -4.4449 N   0  0  0  0  0  0  0  0  0  0  0  0
   -0.2963    0.2004   -3.4586 C   0  0  0  0  0  0  0  0  0  0  0  0
    0.5342    0.8974   -3.5203 H   0  0  0  0  0  0  0  0  0  0  0  0
   -0.5890    1.0459    0.3692 C   0  0  0  0  0  0  0  0  0  0  0  0
   -1.5413    1.6499   -0.1110 O   0  0  0  0  0  0  0  0  0  0  0  0
    0.2759    1.7172    1.2152 N   0  0  0  0  0  0  0  0  0  0  0  0
    1.0068    1.1779    1.6706 H   0  0  0  0  0  0  0  0  0  0  0  0
    0.1456    3.1345    1.5327 C   0  0  0  0  0  0  0  0  0  0  0  0
   -0.8198    3.3335    2.0098 H   0  0  0  0  0  0  0  0  0  0  0  0
    0.9402    3.4433    2.2186 H   0  0  0  0  0  0  0  0  0  0  0  0
    0.2205    3.7396    0.6229 H   0  0  0  0  0  0  0  0  0  0  0  0
  1  2  1  0  0  0  0
  2  3  1  0  0  0  0
  2  4  1  0  0  0  0
  2  5  1  0  0  0  0
  5  6  2  0  0  0  0
  5  7  1  0  0  0  0
  7  8  1  0  0  0  0
  7  9  1  0  0  0  0
  9 10  1  0  0  0  0
  9 11  1  0  0  0  0
  9 22  1  0  0  0  0
 11 12  1  0  0  0  0
 11 13  1  0  0  0  0
 11 14  1  0  0  0  0
 14 15  1  0  0  0  0
 14 20  2  0  0  0  0
 15 16  1  0  0  0  0
 15 17  1  0  0  0  0
 17 18  1  0  0  0  0
 17 19  2  0  0  0  0
 19 20  1  0  0  0  0
 20 21  1  0  0  0  0
 22 23  2  0  0  0  0
 22 24  1  0  0  0  0
 24 25  1  0  0  0  0
 24 26  1  0  0  0  0
 26 27  1  0  0  0  0
 26 28  1  0  0  0  0
 26 29  1  0  0  0  0
M  END
$$$$

  -OEChem-04042215593D

 29 29  0     1  0  0  0  0  0999 V2000
   -3.5497   -3.5813    1.7801 H   0  0  0  0  0  0  0  0  0  0  0  0
   -3.5138   -2.6826    1.1577 C   0  0  0  0  0  0  0  0  0  0  0  0
   -4.0599   -1.8828    1.6639 H   0  0  0  0  0  0  0  0  0  0  0  0
   -3.9969   -2.8965    0.2015 H   0  0  0  0  0  0  0  0  0  0  0  0
   -2.0740   -2.2627    0.9301 C   0  0  0  0  0  0  0  0  0  0  0  0
   -1.1618   -2.9448    1.3672 O   0  0  0  0  0  0  0  0  0  0  0  0
   -1.7997   -1.1085    0.2278 N   0  0  0  0  0  0  0  0  0  0  0  0
   -2.5861   -0.4961    0.0124 H   0  0  0  0  0  0  0  0  0  0  0  0
   -0.4680   -0.4850    0.1527 C   0  0  1  0  0  0  0  0  0  0  0  0
    0.1508   -0.8594    0.9746 H   0  0  0  0  0  0  0  0  0  0  0  0
    0.2875   -0.7751   -1.1625 C   0  0  0  0  0  0  0  0  0  0  0  0
    1.1727   -0.1333   -1.2218 H   0  0  0  0  0  0  0  0  0  0  0  0
    0.6427   -1.8096   -1.1139 H   0  0  0  0  0  0  0  0  0  0  0  0
   -0.5182   -0.6385   -2.4354 C   0  0  0  0  0  0  0  0  0  0  0  0
   -1.7854   -1.0956   -2.7200 N   0  0  0  0  0  0  0  0  0  0  0  0
   -2.3781   -1.6315   -2.0918 H   0  0  0  0  0  0  0  0  0  0  0  0
   -2.1144   -0.7195   -4.0079 C   0  0  0  0  0  0  0  0  0  0  0  0
   -3.0535   -0.9455   -4.5047 H   0  0  0  0  0  0  0  0  0  0  0  0
   -1.1238   -0.0532   -4.5485 N   0  0  0  0  0  0  0  0  0  0  0  0
   -0.1293    0.0117   -3.5780 C   0  0  0  0  0  0  0  0  0  0  0  0
    0.8260    0.5105   -3.7102 H   0  0  0  0  0  0  0  0  0  0  0  0
   -0.6023    1.0360    0.3650 C   0  0  0  0  0  0  0  0  0  0  0  0
   -1.5786    1.6320   -0.0771 O   0  0  0  0  0  0  0  0  0  0  0  0
    0.2708    1.7048    1.2042 N   0  0  0  0  0  0  0  0  0  0  0  0
    1.0241    1.1703    1.6277 H   0  0  0  0  0  0  0  0  0  0  0  0
    0.1306    3.1156    1.5451 C   0  0  0  0  0  0  0  0  0  0  0  0
   -0.8213    3.2939    2.0563 H   0  0  0  0  0  0  0  0  0  0  0  0
    0.9431    3.4272    2.2085 H   0  0  0  0  0  0  0  0  0  0  0  0
    0.1664    3.7335    0.6416 H   0  0  0  0  0  0  0  0  0  0  0  0
  1  2  1  0  0  0  0
  2  3  1  0  0  0  0
  2  4  1  0  0  0  0
  2  5  1  0  0  0  0
  5  6  2  0  0  0  0
  5  7  1  0  0  0  0
  7  8  1  0  0  0  0
  7  9  1  0  0  0  0
  9 10  1  0  0  0  0
  9 11  1  0  0  0  0
  9 22  1  0  0  0  0
 11 12  1  0  0  0  0
 11 13  1  0  0  0  0
 11 14  1  0  0  0  0
 14 15  1  0  0  0  0
 14 20  2  0  0  0  0
 15 16  1  0  0  0  0
 15 17  1  0  0  0  0
 17 18  1  0  0  0  0
 17 19  2  0  0  0  0
 19 20  1  0  0  0  0
 20 21  1  0  0  0  0
 22 23  2  0  0  0  0
 22 24  1  0  0  0  0
 24 25  1  0  0  0  0
 24 26  1  0  0  0  0
 26 27  1  0  0  0  0
 26 28  1  0  0  0  0
 26 29  1  0  0  0  0
M  END
$$$$

  -OEChem-04042215593D

 29 29  0     1  0  0  0  0  0999 V2000
   -3.5282   -3.5750    1.8307 H   0  0  0  0  0  0  0  0  0  0  0  0
   -3.5055   -2.6853    1.1948 C   0  0  0  0  0  0  0  0  0  0  0  0
   -4.0428   -1.8790    1.7002 H   0  0  0  0  0  0  0  0  0  0  0  0
   -4.0068   -2.9141    0.2514 H   0  0  0  0  0  0  0  0  0  0  0  0
   -2.0707   -2.2686    0.9319 C   0  0  0  0  0  0  0  0  0  0  0  0
   -1.1508   -2.9536    1.3485 O   0  0  0  0  0  0  0  0  0  0  0  0
   -1.8094   -1.1101    0.2301 N   0  0  0  0  0  0  0  0  0  0  0  0
   -2.5957   -0.4795    0.0773 H   0  0  0  0  0  0  0  0  0  0  0  0
   -0.4749   -0.4918    0.1465 C   0  0  1  0  0  0  0  0  0  0  0  0
    0.1496   -0.8703    0.9625 H   0  0  0  0  0  0  0  0  0  0  0  0
    0.2742   -0.7741   -1.1751 C   0  0  0  0  0  0  0  0  0  0  0  0
    1.1665   -0.1417   -1.2295 H   0  0  0  0  0  0  0  0  0  0  0  0
    0.6183   -1.8125   -1.1303 H   0  0  0  0  0  0  0  0  0  0  0  0
   -0.5195   -0.6298   -2.4557 C   0  0  0  0  0  0  0  0  0  0  0  0
   -1.8616   -0.8220   -2.6949 N   0  0  0  0  0  0  0  0  0  0  0  0
   -2.5493   -1.1185   -2.0086 H   0  0  0  0  0  0  0  0  0  0  0  0
   -2.1253   -0.5300   -4.0189 C   0  0  0  0  0  0  0  0  0  0  0  0
   -3.1019   -0.5904   -4.4902 H   0  0  0  0  0  0  0  0  0  0  0  0
   -1.0219   -0.1713   -4.6283 N   0  0  0  0  0  0  0  0  0  0  0  0
   -0.0197   -0.2209   -3.6654 C   0  0  0  0  0  0  0  0  0  0  0  0
    1.0196    0.0343   -3.8491 H   0  0  0  0  0  0  0  0  0  0  0  0
   -0.6096    1.0274    0.3695 C   0  0  0  0  0  0  0  0  0  0  0  0
   -1.5964    1.6199   -0.0547 O   0  0  0  0  0  0  0  0  0  0  0  0
    0.2680    1.6946    1.2052 N   0  0  0  0  0  0  0  0  0  0  0  0
    1.0310    1.1623    1.6139 H   0  0  0  0  0  0  0  0  0  0  0  0
    0.1291    3.1047    1.5501 C   0  0  0  0  0  0  0  0  0  0  0  0
   -0.8278    3.2852    2.0512 H   0  0  0  0  0  0  0  0  0  0  0  0
    0.9347    3.4110    2.2243 H   0  0  0  0  0  0  0  0  0  0  0  0
    0.1776    3.7252    0.6491 H   0  0  0  0  0  0  0  0  0  0  0  0
  1  2  1  0  0  0  0
  2  3  1  0  0  0  0
  2  4  1  0  0  0  0
  2  5  1  0  0  0  0
  5  6  2  0  0  0  0
  5  7  1  0  0  0  0
  7  8  1  0  0  0  0
  7  9  1  0  0  0  0
  9 10  1  0  0  0  0
  9 11  1  0  0  0  0
  9 22  1  0  0  0  0
 11 12  1  0  0  0  0
 11 13  1  0  0  0  0
 11 14  1  0  0  0  0
 14 15  1  0  0  0  0
 14 20  2  0  0  0  0
 15 16  1  0  0  0  0
 15 17  1  0  0  0  0
 17 18  1  0  0  0  0
 17 19  2  0  0  0  0
 19 20  1  0  0  0  0
 20 21  1  0  0  0  0
 22 23  2  0  0  0  0
 22 24  1  0  0  0  0
 24 25  1  0  0  0  0
 24 26  1  0  0  0  0
 26 27  1  0  0  0  0
 26 28  1  0  0  0  0
 26 29  1  0  0  0  0
M  END
$$$$

  -OEChem-04042215593D

 29 29  0     1  0  0  0  0  0999 V2000
   -3.5227   -3.5972    1.7835 H   0  0  0  0  0  0  0  0  0  0  0  0
   -3.5007   -2.6843    1.1817 C   0  0  0  0  0  0  0  0  0  0  0  0
   -4.0294   -1.8948    1.7212 H   0  0  0  0  0  0  0  0  0  0  0  0
   -4.0106   -2.8746    0.2342 H   0  0  0  0  0  0  0  0  0  0  0  0
   -2.0660   -2.2661    0.9219 C   0  0  0  0  0  0  0  0  0  0  0  0
   -1.1461   -2.9517    1.3382 O   0  0  0  0  0  0  0  0  0  0  0  0
   -1.8063   -1.1042    0.2251 N   0  0  0  0  0  0  0  0  0  0  0  0
   -2.5925   -0.4690    0.1003 H   0  0  0  0  0  0  0  0  0  0  0  0
   -0.4691   -0.4899    0.1439 C   0  0  1  0  0  0  0  0  0  0  0  0
    0.1571   -0.8733    0.9561 H   0  0  0  0  0  0  0  0  0  0  0  0
    0.2726   -0.7679   -1.1826 C   0  0  0  0  0  0  0  0  0  0  0  0
    1.1654   -0.1360   -1.2365 H   0  0  0  0  0  0  0  0  0  0  0  0
    0.6155   -1.8071   -1.1439 H   0  0  0  0  0  0  0  0  0  0  0  0
   -0.5188   -0.6116   -2.4629 C   0  0  0  0  0  0  0  0  0  0  0  0
   -1.8770   -0.5207   -2.6681 N   0  0  0  0  0  0  0  0  0  0  0  0
   -2.5851   -0.4861   -1.9407 H   0  0  0  0  0  0  0  0  0  0  0  0
   -2.1148   -0.3667   -4.0194 C   0  0  0  0  0  0  0  0  0  0  0  0
   -3.0958   -0.2540   -4.4720 H   0  0  0  0  0  0  0  0  0  0  0  0
   -0.9822   -0.3724   -4.6787 N   0  0  0  0  0  0  0  0  0  0  0  0
    0.0164   -0.5192   -3.7219 C   0  0  0  0  0  0  0  0  0  0  0  0
    1.0786   -0.5539   -3.9448 H   0  0  0  0  0  0  0  0  0  0  0  0
   -0.6060    1.0274    0.3757 C   0  0  0  0  0  0  0  0  0  0  0  0
   -1.5975    1.6164   -0.0447 O   0  0  0  0  0  0  0  0  0  0  0  0
    0.2696    1.6922    1.2149 N   0  0  0  0  0  0  0  0  0  0  0  0
    1.0368    1.1606    1.6168 H   0  0  0  0  0  0  0  0  0  0  0  0
    0.1246    3.0983    1.5722 C   0  0  0  0  0  0  0  0  0  0  0  0
   -0.8236    3.2658    2.0938 H   0  0  0  0  0  0  0  0  0  0  0  0
    0.9413    3.4069    2.2319 H   0  0  0  0  0  0  0  0  0  0  0  0
    0.1494    3.7259    0.6751 H   0  0  0  0  0  0  0  0  0  0  0  0
  1  2  1  0  0  0  0
  2  3  1  0  0  0  0
  2  4  1  0  0  0  0
  2  5  1  0  0  0  0
  5  6  2  0  0  0  0
  5  7  1  0  0  0  0
  7  8  1  0  0  0  0
  7  9  1  0  0  0  0
  9 10  1  0  0  0  0
  9 11  1  0  0  0  0
  9 22  1  0  0  0  0
 11 12  1  0  0  0  0
 11 13  1  0  0  0  0
 11 14  1  0  0  0  0
 14 15  1  0  0  0  0
 14 20  2  0  0  0  0
 15 16  1  0  0  0  0
 15 17  1  0  0  0  0
 17 18  1  0  0  0  0
 17 19  2  0  0  0  0
 19 20  1  0  0  0  0
 20 21  1  0  0  0  0
 22 23  2  0  0  0  0
 22 24  1  0  0  0  0
 24 25  1  0  0  0  0
 24 26  1  0  0  0  0
 26 27  1  0  0  0  0
 26 28  1  0  0  0  0
 26 29  1  0  0  0  0
M  END
$$$$

  -OEChem-04042215593D

 29 29  0     1  0  0  0  0  0999 V2000
   -3.5496   -3.6087    1.6745 H   0  0  0  0  0  0  0  0  0  0  0  0
   -3.4951   -2.7105    1.0531 C   0  0  0  0  0  0  0  0  0  0  0  0
   -4.0965   -1.9248    1.5164 H   0  0  0  0  0  0  0  0  0  0  0  0
   -3.9037   -2.9398    0.0660 H   0  0  0  0  0  0  0  0  0  0  0  0
   -2.0547   -2.2538    0.9219 C   0  0  0  0  0  0  0  0  0  0  0  0
   -1.1587   -2.9024    1.4384 O   0  0  0  0  0  0  0  0  0  0  0  0
   -1.7627   -1.0996    0.2267 N   0  0  0  0  0  0  0  0  0  0  0  0
   -2.5486   -0.5147   -0.0441 H   0  0  0  0  0  0  0  0  0  0  0  0
   -0.4226   -0.4901    0.1697 C   0  0  1  0  0  0  0  0  0  0  0  0
    0.2020   -0.8760    0.9819 H   0  0  0  0  0  0  0  0  0  0  0  0
    0.3005   -0.7661   -1.1677 C   0  0  0  0  0  0  0  0  0  0  0  0
    1.1906   -0.1316   -1.2281 H   0  0  0  0  0  0  0  0  0  0  0  0
    0.6461   -1.8051   -1.1482 H   0  0  0  0  0  0  0  0  0  0  0  0
   -0.5123   -0.5796   -2.4317 C   0  0  0  0  0  0  0  0  0  0  0  0
   -1.8240   -0.1886   -2.5918 N   0  0  0  0  0  0  0  0  0  0  0  0
   -2.3869    0.2701   -1.8768 H   0  0  0  0  0  0  0  0  0  0  0  0
   -2.1304   -0.2132   -3.9380 C   0  0  0  0  0  0  0  0  0  0  0  0
   -3.0824    0.0863   -4.3667 H   0  0  0  0  0  0  0  0  0  0  0  0
   -1.0996   -0.6367   -4.6282 N   0  0  0  0  0  0  0  0  0  0  0  0
   -0.0895   -0.8726   -3.7020 C   0  0  0  0  0  0  0  0  0  0  0  0
    0.8993   -1.2451   -3.9524 H   0  0  0  0  0  0  0  0  0  0  0  0
   -0.5717    1.0285    0.3887 C   0  0  0  0  0  0  0  0  0  0  0  0
   -1.5347    1.6167   -0.0987 O   0  0  0  0  0  0  0  0  0  0  0  0
    0.2788    1.7071    1.2422 N   0  0  0  0  0  0  0  0  0  0  0  0
    1.0211    1.1773    1.6910 H   0  0  0  0  0  0  0  0  0  0  0  0
    0.1223    3.1187    1.5726 C   0  0  0  0  0  0  0  0  0  0  0  0
   -0.8522    3.2980    2.0388 H   0  0  0  0  0  0  0  0  0  0  0  0
    0.9027    3.4320    2.2727 H   0  0  0  0  0  0  0  0  0  0  0  0
    0.2002    3.7340    0.6701 H   0  0  0  0  0  0  0  0  0  0  0  0
  1  2  1  0  0  0  0
  2  3  1  0  0  0  0
  2  4  1  0  0  0  0
  2  5  1  0  0  0  0
  5  6  2  0  0  0  0
  5  7  1  0  0  0  0
  7  8  1  0  0  0  0
  7  9  1  0  0  0  0
  9 10  1  0  0  0  0
  9 11  1  0  0  0  0
  9 22  1  0  0  0  0
 11 12  1  0  0  0  0
 11 13  1  0  0  0  0
 11 14  1  0  0  0  0
 14 15  1  0  0  0  0
 14 20  2  0  0  0  0
 15 16  1  0  0  0  0
 15 17  1  0  0  0  0
 17 18  1  0  0  0  0
 17 19  2  0  0  0  0
 19 20  1  0  0  0  0
 20 21  1  0  0  0  0
 22 23  2  0  0  0  0
 22 24  1  0  0  0  0
 24 25  1  0  0  0  0
 24 26  1  0  0  0  0
 26 27  1  0  0  0  0
 26 28  1  0  0  0  0
 26 29  1  0  0  0  0
M  END
$$$$

  -OEChem-04042215593D

 29 29  0     1  0  0  0  0  0999 V2000
   -3.5438   -3.6899    1.4284 H   0  0  0  0  0  0  0  0  0  0  0  0
   -3.4703   -2.7717    0.8391 C   0  0  0  0  0  0  0  0  0  0  0  0
   -4.1955   -2.0489    1.2204 H   0  0  0  0  0  0  0  0  0  0  0  0
   -3.7077   -3.0020   -0.2024 H   0  0  0  0  0  0  0  0  0  0  0  0
   -2.0690   -2.1994    0.9364 C   0  0  0  0  0  0  0  0  0  0  0  0
   -1.2301   -2.7492    1.6325 O   0  0  0  0  0  0  0  0  0  0  0  0
   -1.7472   -1.0554    0.2379 N   0  0  0  0  0  0  0  0  0  0  0  0
   -2.4668   -0.6486   -0.3524 H   0  0  0  0  0  0  0  0  0  0  0  0
   -0.4082   -0.4429    0.2069 C   0  0  1  0  0  0  0  0  0  0  0  0
    0.2035   -0.8243    1.0308 H   0  0  0  0  0  0  0  0  0  0  0  0
    0.3116   -0.7651   -1.1220 C   0  0  0  0  0  0  0  0  0  0  0  0
    1.1978   -0.1276   -1.2073 H   0  0  0  0  0  0  0  0  0  0  0  0
    0.6615   -1.8019   -1.0790 H   0  0  0  0  0  0  0  0  0  0  0  0
   -0.5233   -0.6004   -2.3754 C   0  0  0  0  0  0  0  0  0  0  0  0
   -1.7247    0.0585   -2.5317 N   0  0  0  0  0  0  0  0  0  0  0  0
   -2.1035    0.7443   -1.8720 H   0  0  0  0  0  0  0  0  0  0  0  0
   -2.1511   -0.1069   -3.8346 C   0  0  0  0  0  0  0  0  0  0  0  0
   -3.0456    0.3388   -4.2604 H   0  0  0  0  0  0  0  0  0  0  0  0
   -1.3120   -0.8735   -4.4886 N   0  0  0  0  0  0  0  0  0  0  0  0
   -0.2986   -1.1926   -3.5906 C   0  0  0  0  0  0  0  0  0  0  0  0
    0.5492   -1.8314   -3.8204 H   0  0  0  0  0  0  0  0  0  0  0  0
   -0.5317    1.0832    0.3996 C   0  0  0  0  0  0  0  0  0  0  0  0
   -1.4335    1.7038   -0.1602 O   0  0  0  0  0  0  0  0  0  0  0  0
    0.3157    1.7517    1.2640 N   0  0  0  0  0  0  0  0  0  0  0  0
    0.9922    1.1979    1.7825 H   0  0  0  0  0  0  0  0  0  0  0  0
    0.1929    3.1730    1.5653 C   0  0  0  0  0  0  0  0  0  0  0  0
   -0.7890    3.3899    1.9990 H   0  0  0  0  0  0  0  0  0  0  0  0
    0.9616    3.4754    2.2830 H   0  0  0  0  0  0  0  0  0  0  0  0
    0.3166    3.7694    0.6553 H   0  0  0  0  0  0  0  0  0  0  0  0
  1  2  1  0  0  0  0
  2  3  1  0  0  0  0
  2  4  1  0  0  0  0
  2  5  1  0  0  0  0
  5  6  2  0  0  0  0
  5  7  1  0  0  0  0
  7  8  1  0  0  0  0
  7  9  1  0  0  0  0
  9 10  1  0  0  0  0
  9 11  1  0  0  0  0
  9 22  1  0  0  0  0
 11 12  1  0  0  0  0
 11 13  1  0  0  0  0
 11 14  1  0  0  0  0
 14 15  1  0  0  0  0
 14 20  2  0  0  0  0
 15 16  1  0  0  0  0
 15 17  1  0  0  0  0
 17 18  1  0  0  0  0
 17 19  2  0  0  0  0
 19 20  1  0  0  0  0
 20 21  1  0  0  0  0
 22 23  2  0  0  0  0
 22 24  1  0  0  0  0
 24 25  1  0  0  0  0
 24 26  1  0  0  0  0
 26 27  1  0  0  0  0
 26 28  1  0  0  0  0
 26 29  1  0  0  0  0
M  END
$$$$

  -OEChem-04042215593D

 29 29  0     1  0  0  0  0  0999 V2000
   -3.5418   -3.6994    1.3505 H   0  0  0  0  0  0  0  0  0  0  0  0
   -3.4665   -2.7750    0.7711 C   0  0  0  0  0  0  0  0  0  0  0  0
   -4.2105   -2.0653    1.1410 H   0  0  0  0  0  0  0  0  0  0  0  0
   -3.6754   -2.9987   -0.2779 H   0  0  0  0  0  0  0  0  0  0  0  0
   -2.0758   -2.1845    0.9068 C   0  0  0  0  0  0  0  0  0  0  0  0
   -1.2489   -2.7232    1.6258 O   0  0  0  0  0  0  0  0  0  0  0  0
   -1.7496   -1.0385    0.2139 N   0  0  0  0  0  0  0  0  0  0  0  0
   -2.4511   -0.6556   -0.4148 H   0  0  0  0  0  0  0  0  0  0  0  0
   -0.4158   -0.4157    0.2032 C   0  0  1  0  0  0  0  0  0  0  0  0
    0.1799   -0.7937    1.0404 H   0  0  0  0  0  0  0  0  0  0  0  0
    0.3249   -0.7685   -1.1051 C   0  0  0  0  0  0  0  0  0  0  0  0
    1.2054   -0.1247   -1.2003 H   0  0  0  0  0  0  0  0  0  0  0  0
    0.6829   -1.8011   -1.0343 H   0  0  0  0  0  0  0  0  0  0  0  0
   -0.5125   -0.6351   -2.3588 C   0  0  0  0  0  0  0  0  0  0  0  0
   -1.5563    0.2336   -2.5937 N   0  0  0  0  0  0  0  0  0  0  0  0
   -1.8335    1.0069   -1.9801 H   0  0  0  0  0  0  0  0  0  0  0  0
   -2.0705   -0.0210   -3.8492 C   0  0  0  0  0  0  0  0  0  0  0  0
   -2.8856    0.5262   -4.3139 H   0  0  0  0  0  0  0  0  0  0  0  0
   -1.4276   -1.0228   -4.4006 N   0  0  0  0  0  0  0  0  0  0  0  0
   -0.4581   -1.4165   -3.4829 C   0  0  0  0  0  0  0  0  0  0  0  0
    0.2380   -2.2363   -3.6342 H   0  0  0  0  0  0  0  0  0  0  0  0
   -0.5222    1.1131    0.3916 C   0  0  0  0  0  0  0  0  0  0  0  0
   -1.3952    1.7546   -0.1888 O   0  0  0  0  0  0  0  0  0  0  0  0
    0.3248    1.7679    1.2670 N   0  0  0  0  0  0  0  0  0  0  0  0
    0.9797    1.2015    1.7997 H   0  0  0  0  0  0  0  0  0  0  0  0
    0.2224    3.1913    1.5668 C   0  0  0  0  0  0  0  0  0  0  0  0
   -0.7585    3.4232    1.9953 H   0  0  0  0  0  0  0  0  0  0  0  0
    0.9921    3.4820    2.2881 H   0  0  0  0  0  0  0  0  0  0  0  0
    0.3600    3.7857    0.6573 H   0  0  0  0  0  0  0  0  0  0  0  0
  1  2  1  0  0  0  0
  2  3  1  0  0  0  0
  2  4  1  0  0  0  0
  2  5  1  0  0  0  0
  5  6  2  0  0  0  0
  5  7  1  0  0  0  0
  7  8  1  0  0  0  0
  7  9  1  0  0  0  0
  9 10  1  0  0  0  0
  9 11  1  0  0  0  0
  9 22  1  0  0  0  0
 11 12  1  0  0  0  0
 11 13  1  0  0  0  0
 11 14  1  0  0  0  0
 14 15  1  0  0  0  0
 14 20  2  0  0  0  0
 15 16  1  0  0  0  0
 15 17  1  0  0  0  0
 17 18  1  0  0  0  0
 17 19  2  0  0  0  0
 19 20  1  0  0  0  0
 20 21  1  0  0  0  0
 22 23  2  0  0  0  0
 22 24  1  0  0  0  0
 24 25  1  0  0  0  0
 24 26  1  0  0  0  0
 26 27  1  0  0  0  0
 26 28  1  0  0  0  0
 26 29  1  0  0  0  0
M  END
$$$$

  -OEChem-04042215593D

 29 29  0     1  0  0  0  0  0999 V2000
   -3.5436   -3.7060    1.3130 H   0  0  0  0  0  0  0  0  0  0  0  0
   -3.4672   -2.7793    0.7375 C   0  0  0  0  0  0  0  0  0  0  0  0
   -4.2197   -2.0752    1.1004 H   0  0  0  0  0  0  0  0  0  0  0  0
   -3.6622   -3.0011   -0.3146 H   0  0  0  0  0  0  0  0  0  0  0  0
   -2.0823   -2.1808    0.8922 C   0  0  0  0  0  0  0  0  0  0  0  0
   -1.2626   -2.7140    1.6235 O   0  0  0  0  0  0  0  0  0  0  0  0
   -1.7508   -1.0366    0.1990 N   0  0  0  0  0  0  0  0  0  0  0  0
   -2.4460   -0.6559   -0.4388 H   0  0  0  0  0  0  0  0  0  0  0  0
   -0.4209   -0.4067    0.2018 C   0  0  1  0  0  0  0  0  0  0  0  0
    0.1629   -0.7802    1.0493 H   0  0  0  0  0  0  0  0  0  0  0  0
    0.3352   -0.7792   -1.0911 C   0  0  0  0  0  0  0  0  0  0  0  0
    1.2164   -0.1377   -1.1937 H   0  0  0  0  0  0  0  0  0  0  0  0
    0.6915   -1.8108   -1.0011 H   0  0  0  0  0  0  0  0  0  0  0  0
   -0.5075   -0.6653   -2.3420 C   0  0  0  0  0  0  0  0  0  0  0  0
   -1.3541    0.3628   -2.6919 N   0  0  0  0  0  0  0  0  0  0  0  0
   -1.5326    1.2036   -2.1330 H   0  0  0  0  0  0  0  0  0  0  0  0
   -1.9519    0.0538   -3.8970 C   0  0  0  0  0  0  0  0  0  0  0  0
   -2.6686    0.6816   -4.4188 H   0  0  0  0  0  0  0  0  0  0  0  0
   -1.5317   -1.1162   -4.3167 N   0  0  0  0  0  0  0  0  0  0  0  0
   -0.6308   -1.5741   -3.3595 C   0  0  0  0  0  0  0  0  0  0  0  0
   -0.1077   -2.5245   -3.4083 H   0  0  0  0  0  0  0  0  0  0  0  0
   -0.5171    1.1244    0.3805 C   0  0  0  0  0  0  0  0  0  0  0  0
   -1.3559    1.7790   -0.2339 O   0  0  0  0  0  0  0  0  0  0  0  0
    0.3267    1.7748    1.2624 N   0  0  0  0  0  0  0  0  0  0  0  0
    0.9550    1.2021    1.8197 H   0  0  0  0  0  0  0  0  0  0  0  0
    0.2409    3.2021    1.5485 C   0  0  0  0  0  0  0  0  0  0  0  0
   -0.7388    3.4499    1.9706 H   0  0  0  0  0  0  0  0  0  0  0  0
    1.0112    3.4902    2.2705 H   0  0  0  0  0  0  0  0  0  0  0  0
    0.3898    3.7866    0.6345 H   0  0  0  0  0  0  0  0  0  0  0  0
  1  2  1  0  0  0  0
  2  3  1  0  0  0  0
  2  4  1  0  0  0  0
  2  5  1  0  0  0  0
  5  6  2  0  0  0  0
  5  7  1  0  0  0  0
  7  8  1  0  0  0  0
  7  9  1  0  0  0  0
  9 10  1  0  0  0  0
  9 11  1  0  0  0  0
  9 22  1  0  0  0  0
 11 12  1  0  0  0  0
 11 13  1  0  0  0  0
 11 14  1  0  0  0  0
 14 15  1  0  0  0  0
 14 20  2  0  0  0  0
 15 16  1  0  0  0  0
 15 17  1  0  0  0  0
 17 18  1  0  0  0  0
 17 19  2  0  0  0  0
 19 20  1  0  0  0  0
 20 21  1  0  0  0  0
 22 23  2  0  0  0  0
 22 24  1  0  0  0  0
 24 25  1  0  0  0  0
 24 26  1  0  0  0  0
 26 27  1  0  0  0  0
 26 28  1  0  0  0  0
 26 29  1  0  0  0  0
M  END
$$$$

  -OEChem-04042215593D

 29 29  0     1  0  0  0  0  0999 V2000
   -3.5543   -3.7154    1.3056 H   0  0  0  0  0  0  0  0  0  0  0  0
   -3.4733   -2.7908    0.7274 C   0  0  0  0  0  0  0  0  0  0  0  0
   -4.2320   -2.0872    1.0781 H   0  0  0  0  0  0  0  0  0  0  0  0
   -3.6554   -3.0173   -0.3261 H   0  0  0  0  0  0  0  0  0  0  0  0
   -2.0918   -2.1879    0.8955 C   0  0  0  0  0  0  0  0  0  0  0  0
   -1.2775   -2.7167    1.6359 O   0  0  0  0  0  0  0  0  0  0  0  0
   -1.7546   -1.0489    0.1968 N   0  0  0  0  0  0  0  0  0  0  0  0
   -2.4473   -0.6679   -0.4445 H   0  0  0  0  0  0  0  0  0  0  0  0
   -0.4275   -0.4142    0.2071 C   0  0  1  0  0  0  0  0  0  0  0  0
    0.1487   -0.7810    1.0623 H   0  0  0  0  0  0  0  0  0  0  0  0
    0.3404   -0.7910   -1.0757 C   0  0  0  0  0  0  0  0  0  0  0  0
    1.2234   -0.1525   -1.1811 H   0  0  0  0  0  0  0  0  0  0  0  0
    0.6926   -1.8233   -0.9781 H   0  0  0  0  0  0  0  0  0  0  0  0
   -0.5091   -0.6830   -2.3206 C   0  0  0  0  0  0  0  0  0  0  0  0
   -1.1340    0.4438   -2.8033 N   0  0  0  0  0  0  0  0  0  0  0  0
   -1.2056    1.3388   -2.3106 H   0  0  0  0  0  0  0  0  0  0  0  0
   -1.8093    0.1099   -3.9599 C   0  0  0  0  0  0  0  0  0  0  0  0
   -2.4131    0.7936   -4.5498 H   0  0  0  0  0  0  0  0  0  0  0  0
   -1.6268   -1.1602   -4.2356 N   0  0  0  0  0  0  0  0  0  0  0  0
   -0.8113   -1.6643   -3.2270 C   0  0  0  0  0  0  0  0  0  0  0  0
   -0.4714   -2.6936   -3.1633 H   0  0  0  0  0  0  0  0  0  0  0  0
   -0.5194    1.1187    0.3706 C   0  0  0  0  0  0  0  0  0  0  0  0
   -1.3249    1.7777   -0.2817 O   0  0  0  0  0  0  0  0  0  0  0  0
    0.3193    1.7730    1.2547 N   0  0  0  0  0  0  0  0  0  0  0  0
    0.9266    1.2012    1.8359 H   0  0  0  0  0  0  0  0  0  0  0  0
    0.2571    3.2082    1.5056 C   0  0  0  0  0  0  0  0  0  0  0  0
   -0.7206    3.4835    1.9148 H   0  0  0  0  0  0  0  0  0  0  0  0
    1.0284    3.4997    2.2250 H   0  0  0  0  0  0  0  0  0  0  0  0
    0.4215    3.7677    0.5786 H   0  0  0  0  0  0  0  0  0  0  0  0
  1  2  1  0  0  0  0
  2  3  1  0  0  0  0
  2  4  1  0  0  0  0
  2  5  1  0  0  0  0
  5  6  2  0  0  0  0
  5  7  1  0  0  0  0
  7  8  1  0  0  0  0
  7  9  1  0  0  0  0
  9 10  1  0  0  0  0
  9 11  1  0  0  0  0
  9 22  1  0  0  0  0
 11 12  1  0  0  0  0
 11 13  1  0  0  0  0
 11 14  1  0  0  0  0
 14 15  1  0  0  0  0
 14 20  2  0  0  0  0
 15 16  1  0  0  0  0
 15 17  1  0  0  0  0
 17 18  1  0  0  0  0
 17 19  2  0  0  0  0
 19 20  1  0  0  0  0
 20 21  1  0  0  0  0
 22 23  2  0  0  0  0
 22 24  1  0  0  0  0
 24 25  1  0  0  0  0
 24 26  1  0  0  0  0
 26 27  1  0  0  0  0
 26 28  1  0  0  0  0
 26 29  1  0  0  0  0
M  END
$$$$

  -OEChem-04042215593D

 29 29  0     1  0  0  0  0  0999 V2000
   -3.5697   -3.7090    1.3428 H   0  0  0  0  0  0  0  0  0  0  0  0
   -3.4869   -2.7895    0.7566 C   0  0  0  0  0  0  0  0  0  0  0  0
   -4.2317   -2.0745    1.1142 H   0  0  0  0  0  0  0  0  0  0  0  0
   -3.6885   -3.0213   -0.2922 H   0  0  0  0  0  0  0  0  0  0  0  0
   -2.0960   -2.2021    0.8995 C   0  0  0  0  0  0  0  0  0  0  0  0
   -1.2764   -2.7371    1.6294 O   0  0  0  0  0  0  0  0  0  0  0  0
   -1.7571   -1.0675    0.1947 N   0  0  0  0  0  0  0  0  0  0  0  0
   -2.4585   -0.6708   -0.4279 H   0  0  0  0  0  0  0  0  0  0  0  0
   -0.4319   -0.4288    0.2074 C   0  0  1  0  0  0  0  0  0  0  0  0
    0.1428   -0.7908    1.0658 H   0  0  0  0  0  0  0  0  0  0  0  0
    0.3439   -0.7974   -1.0717 C   0  0  0  0  0  0  0  0  0  0  0  0
    1.2304   -0.1632   -1.1750 H   0  0  0  0  0  0  0  0  0  0  0  0
    0.6913   -1.8315   -0.9760 H   0  0  0  0  0  0  0  0  0  0  0  0
   -0.5105   -0.6865   -2.3112 C   0  0  0  0  0  0  0  0  0  0  0  0
   -0.9079    0.4688   -2.9436 N   0  0  0  0  0  0  0  0  0  0  0  0
   -0.8359    1.4106   -2.5535 H   0  0  0  0  0  0  0  0  0  0  0  0
   -1.6544    0.1225   -4.0527 C   0  0  0  0  0  0  0  0  0  0  0  0
   -2.1329    0.8270   -4.7270 H   0  0  0  0  0  0  0  0  0  0  0  0
   -1.7146   -1.1838   -4.1667 N   0  0  0  0  0  0  0  0  0  0  0  0
   -0.9930   -1.7002   -3.0954 C   0  0  0  0  0  0  0  0  0  0  0  0
   -0.8399   -2.7583   -2.9052 H   0  0  0  0  0  0  0  0  0  0  0  0
   -0.5256    1.1045    0.3588 C   0  0  0  0  0  0  0  0  0  0  0  0
   -1.3068    1.7621   -0.3222 O   0  0  0  0  0  0  0  0  0  0  0  0
    0.3092    1.7630    1.2434 N   0  0  0  0  0  0  0  0  0  0  0  0
    0.8978    1.1926    1.8447 H   0  0  0  0  0  0  0  0  0  0  0  0
    0.2579    3.2016    1.4741 C   0  0  0  0  0  0  0  0  0  0  0  0
   -0.7212    3.4914    1.8698 H   0  0  0  0  0  0  0  0  0  0  0  0
    1.0246    3.4956    2.1973 H   0  0  0  0  0  0  0  0  0  0  0  0
    0.4372    3.7467    0.5415 H   0  0  0  0  0  0  0  0  0  0  0  0
  1  2  1  0  0  0  0
  2  3  1  0  0  0  0
  2  4  1  0  0  0  0
  2  5  1  0  0  0  0
  5  6  2  0  0  0  0
  5  7  1  0  0  0  0
  7  8  1  0  0  0  0
  7  9  1  0  0  0  0
  9 10  1  0  0  0  0
  9 11  1  0  0  0  0
  9 22  1  0  0  0  0
 11 12  1  0  0  0  0
 11 13  1  0  0  0  0
 11 14  1  0  0  0  0
 14 15  1  0  0  0  0
 14 20  2  0  0  0  0
 15 16  1  0  0  0  0
 15 17  1  0  0  0  0
 17 18  1  0  0  0  0
 17 19  2  0  0  0  0
 19 20  1  0  0  0  0
 20 21  1  0  0  0  0
 22 23  2  0  0  0  0
 22 24  1  0  0  0  0
 24 25  1  0  0  0  0
 24 26  1  0  0  0  0
 26 27  1  0  0  0  0
 26 28  1  0  0  0  0
 26 29  1  0  0  0  0
M  END
$$$$

  -OEChem-04042215593D

 29 29  0     1  0  0  0  0  0999 V2000
   -3.5864   -3.6885    1.3858 H   0  0  0  0  0  0  0  0  0  0  0  0
   -3.5019   -2.7666    0.8039 C   0  0  0  0  0  0  0  0  0  0  0  0
   -4.2189   -2.0383    1.1905 H   0  0  0  0  0  0  0  0  0  0  0  0
   -3.7415   -2.9856   -0.2396 H   0  0  0  0  0  0  0  0  0  0  0  0
   -2.0945   -2.2107    0.9062 C   0  0  0  0  0  0  0  0  0  0  0  0
   -1.2648   -2.7662    1.6088 O   0  0  0  0  0  0  0  0  0  0  0  0
   -1.7519   -1.0804    0.1966 N   0  0  0  0  0  0  0  0  0  0  0  0
   -2.4697   -0.6484   -0.3831 H   0  0  0  0  0  0  0  0  0  0  0  0
   -0.4236   -0.4479    0.2008 C   0  0  1  0  0  0  0  0  0  0  0  0
    0.1541   -0.8084    1.0578 H   0  0  0  0  0  0  0  0  0  0  0  0
    0.3502   -0.8089   -1.0812 C   0  0  0  0  0  0  0  0  0  0  0  0
    1.2424   -0.1825   -1.1814 H   0  0  0  0  0  0  0  0  0  0  0  0
    0.6885   -1.8467   -0.9924 H   0  0  0  0  0  0  0  0  0  0  0  0
   -0.5046   -0.6894   -2.3187 C   0  0  0  0  0  0  0  0  0  0  0  0
   -0.6741    0.4235   -3.1096 N   0  0  0  0  0  0  0  0  0  0  0  0
   -0.3884    1.3725   -2.8715 H   0  0  0  0  0  0  0  0  0  0  0  0
   -1.5001    0.0841   -4.1637 C   0  0  0  0  0  0  0  0  0  0  0  0
   -1.8437    0.7712   -4.9318 H   0  0  0  0  0  0  0  0  0  0  0  0
   -1.8196   -1.1872   -4.0985 N   0  0  0  0  0  0  0  0  0  0  0  0
   -1.1907   -1.6851   -2.9625 C   0  0  0  0  0  0  0  0  0  0  0  0
   -1.2400   -2.7178   -2.6301 H   0  0  0  0  0  0  0  0  0  0  0  0
   -0.5244    1.0846    0.3476 C   0  0  0  0  0  0  0  0  0  0  0  0
   -1.3253    1.7299   -0.3208 O   0  0  0  0  0  0  0  0  0  0  0  0
    0.3090    1.7537    1.2261 N   0  0  0  0  0  0  0  0  0  0  0  0
    0.9065    1.1903    1.8252 H   0  0  0  0  0  0  0  0  0  0  0  0
    0.2295    3.1898    1.4672 C   0  0  0  0  0  0  0  0  0  0  0  0
   -0.7541    3.4570    1.8679 H   0  0  0  0  0  0  0  0  0  0  0  0
    0.9924    3.4948    2.1900 H   0  0  0  0  0  0  0  0  0  0  0  0
    0.3940    3.7452    0.5378 H   0  0  0  0  0  0  0  0  0  0  0  0
  1  2  1  0  0  0  0
  2  3  1  0  0  0  0
  2  4  1  0  0  0  0
  2  5  1  0  0  0  0
  5  6  2  0  0  0  0
  5  7  1  0  0  0  0
  7  8  1  0  0  0  0
  7  9  1  0  0  0  0
  9 10  1  0  0  0  0
  9 11  1  0  0  0  0
  9 22  1  0  0  0  0
 11 12  1  0  0  0  0
 11 13  1  0  0  0  0
 11 14  1  0  0  0  0
 14 15  1  0  0  0  0
 14 20  2  0  0  0  0
 15 16  1  0  0  0  0
 15 17  1  0  0  0  0
 17 18  1  0  0  0  0
 17 19  2  0  0  0  0
 19 20  1  0  0  0  0
 20 21  1  0  0  0  0
 22 23  2  0  0  0  0
 22 24  1  0  0  0  0
 24 25  1  0  0  0  0
 24 26  1  0  0  0  0
 26 27  1  0  0  0  0
 26 28  1  0  0  0  0
 26 29  1  0  0  0  0
M  END
$$$$

  -OEChem-04042215593D

 29 29  0     1  0  0  0  0  0999 V2000
   -3.5945   -3.6734    1.4420 H   0  0  0  0  0  0  0  0  0  0  0  0
   -3.5127   -2.7557    0.8530 C   0  0  0  0  0  0  0  0  0  0  0  0
   -4.2125   -2.0171    1.2513 H   0  0  0  0  0  0  0  0  0  0  0  0
   -3.7786   -2.9777   -0.1834 H   0  0  0  0  0  0  0  0  0  0  0  0
   -2.0970   -2.2153    0.9193 C   0  0  0  0  0  0  0  0  0  0  0  0
   -1.2512   -2.7898    1.5866 O   0  0  0  0  0  0  0  0  0  0  0  0
   -1.7629   -1.0821    0.2100 N   0  0  0  0  0  0  0  0  0  0  0  0
   -2.4999   -0.6186   -0.3196 H   0  0  0  0  0  0  0  0  0  0  0  0
   -0.4333   -0.4527    0.1970 C   0  0  1  0  0  0  0  0  0  0  0  0
    0.1515   -0.8153    1.0484 H   0  0  0  0  0  0  0  0  0  0  0  0
    0.3378   -0.8039   -1.0907 C   0  0  0  0  0  0  0  0  0  0  0  0
    1.2310   -0.1778   -1.1834 H   0  0  0  0  0  0  0  0  0  0  0  0
    0.6763   -1.8420   -1.0064 H   0  0  0  0  0  0  0  0  0  0  0  0
   -0.5059   -0.6853   -2.3370 C   0  0  0  0  0  0  0  0  0  0  0  0
   -0.4650    0.3117   -3.2849 N   0  0  0  0  0  0  0  0  0  0  0  0
    0.0439    1.1902   -3.2111 H   0  0  0  0  0  0  0  0  0  0  0  0
   -1.3552   -0.0090   -4.2923 C   0  0  0  0  0  0  0  0  0  0  0  0
   -1.5644    0.6104   -5.1597 H   0  0  0  0  0  0  0  0  0  0  0  0
   -1.9162   -1.1700   -4.0502 N   0  0  0  0  0  0  0  0  0  0  0  0
   -1.3805   -1.6101   -2.8454 C   0  0  0  0  0  0  0  0  0  0  0  0
   -1.6198   -2.5582   -2.3734 H   0  0  0  0  0  0  0  0  0  0  0  0
   -0.5368    1.0778    0.3532 C   0  0  0  0  0  0  0  0  0  0  0  0
   -1.3719    1.7166   -0.2770 O   0  0  0  0  0  0  0  0  0  0  0  0
    0.3072    1.7463    1.2222 N   0  0  0  0  0  0  0  0  0  0  0  0
    0.9318    1.1849    1.7949 H   0  0  0  0  0  0  0  0  0  0  0  0
    0.2201    3.1796    1.4764 C   0  0  0  0  0  0  0  0  0  0  0  0
   -0.7607    3.4365    1.8904 H   0  0  0  0  0  0  0  0  0  0  0  0
    0.9890    3.4845    2.1929 H   0  0  0  0  0  0  0  0  0  0  0  0
    0.3697    3.7433    0.5494 H   0  0  0  0  0  0  0  0  0  0  0  0
  1  2  1  0  0  0  0
  2  3  1  0  0  0  0
  2  4  1  0  0  0  0
  2  5  1  0  0  0  0
  5  6  2  0  0  0  0
  5  7  1  0  0  0  0
  7  8  1  0  0  0  0
  7  9  1  0  0  0  0
  9 10  1  0  0  0  0
  9 11  1  0  0  0  0
  9 22  1  0  0  0  0
 11 12  1  0  0  0  0
 11 13  1  0  0  0  0
 11 14  1  0  0  0  0
 14 15  1  0  0  0  0
 14 20  2  0  0  0  0
 15 16  1  0  0  0  0
 15 17  1  0  0  0  0
 17 18  1  0  0  0  0
 17 19  2  0  0  0  0
 19 20  1  0  0  0  0
 20 21  1  0  0  0  0
 22 23  2  0  0  0  0
 22 24  1  0  0  0  0
 24 25  1  0  0  0  0
 24 26  1  0  0  0  0
 26 27  1  0  0  0  0
 26 28  1  0  0  0  0
 26 29  1  0  0  0  0
M  END
$$$$

  -OEChem-04042215593D

 29 29  0     1  0  0  0  0  0999 V2000
   -3.5949   -3.6509    1.5524 H   0  0  0  0  0  0  0  0  0  0  0  0
   -3.5230   -2.7447    0.9445 C   0  0  0  0  0  0  0  0  0  0  0  0
   -4.1927   -1.9874    1.3593 H   0  0  0  0  0  0  0  0  0  0  0  0
   -3.8363   -2.9790   -0.0760 H   0  0  0  0  0  0  0  0  0  0  0  0
   -2.0966   -2.2289    0.9411 C   0  0  0  0  0  0  0  0  0  0  0  0
   -1.2261   -2.8278    1.5529 O   0  0  0  0  0  0  0  0  0  0  0  0
   -1.7816   -1.0910    0.2301 N   0  0  0  0  0  0  0  0  0  0  0  0
   -2.5433   -0.5884   -0.2243 H   0  0  0  0  0  0  0  0  0  0  0  0
   -0.4524   -0.4637    0.1901 C   0  0  1  0  0  0  0  0  0  0  0  0
    0.1451   -0.8272    1.0322 H   0  0  0  0  0  0  0  0  0  0  0  0
    0.3135   -0.7979   -1.1072 C   0  0  0  0  0  0  0  0  0  0  0  0
    1.2003   -0.1612   -1.1878 H   0  0  0  0  0  0  0  0  0  0  0  0
    0.6648   -1.8321   -1.0306 H   0  0  0  0  0  0  0  0  0  0  0  0
   -0.5086   -0.6833   -2.3707 C   0  0  0  0  0  0  0  0  0  0  0  0
   -0.2638    0.1475   -3.4415 N   0  0  0  0  0  0  0  0  0  0  0  0
    0.4390    0.8821   -3.4844 H   0  0  0  0  0  0  0  0  0  0  0  0
   -1.1982   -0.1168   -4.4253 C   0  0  0  0  0  0  0  0  0  0  0  0
   -1.2699    0.4071   -5.3742 H   0  0  0  0  0  0  0  0  0  0  0  0
   -1.9872   -1.0943   -4.0496 N   0  0  0  0  0  0  0  0  0  0  0  0
   -1.5563   -1.4678   -2.7817 C   0  0  0  0  0  0  0  0  0  0  0  0
   -1.9835   -2.2824   -2.2050 H   0  0  0  0  0  0  0  0  0  0  0  0
   -0.5625    1.0644    0.3594 C   0  0  0  0  0  0  0  0  0  0  0  0
   -1.4366    1.6947   -0.2239 O   0  0  0  0  0  0  0  0  0  0  0  0
    0.2960    1.7338    1.2132 N   0  0  0  0  0  0  0  0  0  0  0  0
    0.9515    1.1762    1.7539 H   0  0  0  0  0  0  0  0  0  0  0  0
    0.2057    3.1651    1.4772 C   0  0  0  0  0  0  0  0  0  0  0  0
   -0.7655    3.4134    1.9181 H   0  0  0  0  0  0  0  0  0  0  0  0
    0.9913    3.4714    2.1748 H   0  0  0  0  0  0  0  0  0  0  0  0
    0.3272    3.7339    0.5492 H   0  0  0  0  0  0  0  0  0  0  0  0
  1  2  1  0  0  0  0
  2  3  1  0  0  0  0
  2  4  1  0  0  0  0
  2  5  1  0  0  0  0
  5  6  2  0  0  0  0
  5  7  1  0  0  0  0
  7  8  1  0  0  0  0
  7  9  1  0  0  0  0
  9 10  1  0  0  0  0
  9 11  1  0  0  0  0
  9 22  1  0  0  0  0
 11 12  1  0  0  0  0
 11 13  1  0  0  0  0
 11 14  1  0  0  0  0
 14 15  1  0  0  0  0
 14 20  2  0  0  0  0
 15 16  1  0  0  0  0
 15 17  1  0  0  0  0
 17 18  1  0  0  0  0
 17 19  2  0  0  0  0
 19 20  1  0  0  0  0
 20 21  1  0  0  0  0
 22 23  2  0  0  0  0
 22 24  1  0  0  0  0
 24 25  1  0  0  0  0
 24 26  1  0  0  0  0
 26 27  1  0  0  0  0
 26 28  1  0  0  0  0
 26 29  1  0  0  0  0
M  END
$$$$

  -OEChem-04042215593D

 29 29  0     1  0  0  0  0  0999 V2000
   -3.5802   -3.6308    1.6866 H   0  0  0  0  0  0  0  0  0  0  0  0
   -3.5229   -2.7378    1.0580 C   0  0  0  0  0  0  0  0  0  0  0  0
   -4.1593   -1.9614    1.4895 H   0  0  0  0  0  0  0  0  0  0  0  0
   -3.8889   -2.9857    0.0586 H   0  0  0  0  0  0  0  0  0  0  0  0
   -2.0898   -2.2476    0.9767 C   0  0  0  0  0  0  0  0  0  0  0  0
   -1.1991   -2.8607    1.5437 O   0  0  0  0  0  0  0  0  0  0  0  0
   -1.7951   -1.1088    0.2579 N   0  0  0  0  0  0  0  0  0  0  0  0
   -2.5751   -0.5782   -0.1287 H   0  0  0  0  0  0  0  0  0  0  0  0
   -0.4666   -0.4852    0.1809 C   0  0  1  0  0  0  0  0  0  0  0  0
    0.1495   -0.8472    1.0103 H   0  0  0  0  0  0  0  0  0  0  0  0
    0.2854   -0.8038   -1.1310 C   0  0  0  0  0  0  0  0  0  0  0  0
    1.1628   -0.1530   -1.2013 H   0  0  0  0  0  0  0  0  0  0  0  0
    0.6543   -1.8324   -1.0633 H   0  0  0  0  0  0  0  0  0  0  0  0
   -0.5131   -0.6944   -2.4143 C   0  0  0  0  0  0  0  0  0  0  0  0
   -0.0808   -0.0820   -3.5713 N   0  0  0  0  0  0  0  0  0  0  0  0
    0.7896    0.4307   -3.6914 H   0  0  0  0  0  0  0  0  0  0  0  0
   -1.0533   -0.2284   -4.5418 C   0  0  0  0  0  0  0  0  0  0  0  0
   -0.9946    0.1714   -5.5500 H   0  0  0  0  0  0  0  0  0  0  0  0
   -2.0589   -0.9238   -4.0718 N   0  0  0  0  0  0  0  0  0  0  0  0
   -1.7325   -1.2273   -2.7549 C   0  0  0  0  0  0  0  0  0  0  0  0
   -2.3578   -1.8289   -2.1040 H   0  0  0  0  0  0  0  0  0  0  0  0
   -0.5863    1.0414    0.3581 C   0  0  0  0  0  0  0  0  0  0  0  0
   -1.5032    1.6568   -0.1732 O   0  0  0  0  0  0  0  0  0  0  0  0
    0.2882    1.7187    1.1893 N   0  0  0  0  0  0  0  0  0  0  0  0
    0.9782    1.1705    1.6952 H   0  0  0  0  0  0  0  0  0  0  0  0
    0.1793    3.1454    1.4708 C   0  0  0  0  0  0  0  0  0  0  0  0
   -0.7827    3.3709    1.9431 H   0  0  0  0  0  0  0  0  0  0  0  0
    0.9794    3.4597    2.1478 H   0  0  0  0  0  0  0  0  0  0  0  0
    0.2623    3.7256    0.5457 H   0  0  0  0  0  0  0  0  0  0  0  0
  1  2  1  0  0  0  0
  2  3  1  0  0  0  0
  2  4  1  0  0  0  0
  2  5  1  0  0  0  0
  5  6  2  0  0  0  0
  5  7  1  0  0  0  0
  7  8  1  0  0  0  0
  7  9  1  0  0  0  0
  9 10  1  0  0  0  0
  9 11  1  0  0  0  0
  9 22  1  0  0  0  0
 11 12  1  0  0  0  0
 11 13  1  0  0  0  0
 11 14  1  0  0  0  0
 14 15  1  0  0  0  0
 14 20  2  0  0  0  0
 15 16  1  0  0  0  0
 15 17  1  0  0  0  0
 17 18  1  0  0  0  0
 17 19  2  0  0  0  0
 19 20  1  0  0  0  0
 20 21  1  0  0  0  0
 22 23  2  0  0  0  0
 22 24  1  0  0  0  0
 24 25  1  0  0  0  0
 24 26  1  0  0  0  0
 26 27  1  0  0  0  0
 26 28  1  0  0  0  0
 26 29  1  0  0  0  0
M  END
$$$$

  -OEChem-04042215593D

 29 29  0     1  0  0  0  0  0999 V2000
   -3.5442   -3.6439    1.7685 H   0  0  0  0  0  0  0  0  0  0  0  0
   -3.5069   -2.7496    1.1402 C   0  0  0  0  0  0  0  0  0  0  0  0
   -4.1205   -1.9704    1.5986 H   0  0  0  0  0  0  0  0  0  0  0  0
   -3.9141   -2.9927    0.1558 H   0  0  0  0  0  0  0  0  0  0  0  0
   -2.0755   -2.2681    1.0022 C   0  0  0  0  0  0  0  0  0  0  0  0
   -1.1664   -2.8887    1.5308 O   0  0  0  0  0  0  0  0  0  0  0  0
   -1.8038   -1.1266    0.2789 N   0  0  0  0  0  0  0  0  0  0  0  0
   -2.5976   -0.5810   -0.0544 H   0  0  0  0  0  0  0  0  0  0  0  0
   -0.4790   -0.4995    0.1750 C   0  0  1  0  0  0  0  0  0  0  0  0
    0.1537   -0.8582    0.9930 H   0  0  0  0  0  0  0  0  0  0  0  0
    0.2520   -0.8163   -1.1495 C   0  0  0  0  0  0  0  0  0  0  0  0
    1.1196   -0.1528   -1.2238 H   0  0  0  0  0  0  0  0  0  0  0  0
    0.6363   -1.8391   -1.0803 H   0  0  0  0  0  0  0  0  0  0  0  0
   -0.5347   -0.7207   -2.4444 C   0  0  0  0  0  0  0  0  0  0  0  0
    0.0278   -0.3860   -3.6585 N   0  0  0  0  0  0  0  0  0  0  0  0
    1.0085   -0.1755   -3.8279 H   0  0  0  0  0  0  0  0  0  0  0  0
   -0.9608   -0.3700   -4.6230 C   0  0  0  0  0  0  0  0  0  0  0  0
   -0.8062   -0.1408   -5.6734 H   0  0  0  0  0  0  0  0  0  0  0  0
   -2.1155   -0.6757   -4.0876 N   0  0  0  0  0  0  0  0  0  0  0  0
   -1.8692   -0.8833   -2.7347 C   0  0  0  0  0  0  0  0  0  0  0  0
   -2.6456   -1.1472   -2.0263 H   0  0  0  0  0  0  0  0  0  0  0  0
   -0.6051    1.0257    0.3591 C   0  0  0  0  0  0  0  0  0  0  0  0
   -1.5478    1.6304   -0.1384 O   0  0  0  0  0  0  0  0  0  0  0  0
    0.2815    1.7077    1.1734 N   0  0  0  0  0  0  0  0  0  0  0  0
    0.9953    1.1655    1.6520 H   0  0  0  0  0  0  0  0  0  0  0  0
    0.1610    3.1302    1.4704 C   0  0  0  0  0  0  0  0  0  0  0  0
   -0.7883    3.3379    1.9752 H   0  0  0  0  0  0  0  0  0  0  0  0
    0.9777    3.4508    2.1241 H   0  0  0  0  0  0  0  0  0  0  0  0
    0.2057    3.7192    0.5483 H   0  0  0  0  0  0  0  0  0  0  0  0
  1  2  1  0  0  0  0
  2  3  1  0  0  0  0
  2  4  1  0  0  0  0
  2  5  1  0  0  0  0
  5  6  2  0  0  0  0
  5  7  1  0  0  0  0
  7  8  1  0  0  0  0
  7  9  1  0  0  0  0
  9 10  1  0  0  0  0
  9 11  1  0  0  0  0
  9 22  1  0  0  0  0
 11 12  1  0  0  0  0
 11 13  1  0  0  0  0
 11 14  1  0  0  0  0
 14 15  1  0  0  0  0
 14 20  2  0  0  0  0
 15 16  1  0  0  0  0
 15 17  1  0  0  0  0
 17 18  1  0  0  0  0
 17 19  2  0  0  0  0
 19 20  1  0  0  0  0
 20 21  1  0  0  0  0
 22 23  2  0  0  0  0
 22 24  1  0  0  0  0
 24 25  1  0  0  0  0
 24 26  1  0  0  0  0
 26 27  1  0  0  0  0
 26 28  1  0  0  0  0
 26 29  1  0  0  0  0
M  END
$$$$

  -OEChem-04042215593D

 29 29  0     1  0  0  0  0  0999 V2000
   -3.5324   -3.6577    1.7655 H   0  0  0  0  0  0  0  0  0  0  0  0
   -3.5010   -2.7548    1.1492 C   0  0  0  0  0  0  0  0  0  0  0  0
   -4.1073   -1.9809    1.6261 H   0  0  0  0  0  0  0  0  0  0  0  0
   -3.9211   -2.9836    0.1668 H   0  0  0  0  0  0  0  0  0  0  0  0
   -2.0703   -2.2736    0.9997 C   0  0  0  0  0  0  0  0  0  0  0  0
   -1.1574   -2.8958    1.5201 O   0  0  0  0  0  0  0  0  0  0  0  0
   -1.8041   -1.1288    0.2795 N   0  0  0  0  0  0  0  0  0  0  0  0
   -2.6014   -0.5790   -0.0371 H   0  0  0  0  0  0  0  0  0  0  0  0
   -0.4797   -0.4990    0.1749 C   0  0  1  0  0  0  0  0  0  0  0  0
    0.1572   -0.8600    0.9888 H   0  0  0  0  0  0  0  0  0  0  0  0
    0.2387   -0.8206   -1.1548 C   0  0  0  0  0  0  0  0  0  0  0  0
    1.1112   -0.1649   -1.2400 H   0  0  0  0  0  0  0  0  0  0  0  0
    0.6125   -1.8472   -1.0833 H   0  0  0  0  0  0  0  0  0  0  0  0
   -0.5556   -0.7263   -2.4449 C   0  0  0  0  0  0  0  0  0  0  0  0
    0.0231   -0.6952   -3.6965 N   0  0  0  0  0  0  0  0  0  0  0  0
    1.0173   -0.7685   -3.8999 H   0  0  0  0  0  0  0  0  0  0  0  0
   -0.9689   -0.5536   -4.6471 C   0  0  0  0  0  0  0  0  0  0  0  0
   -0.8053   -0.5123   -5.7200 H   0  0  0  0  0  0  0  0  0  0  0  0
   -2.1394   -0.4775   -4.0665 N   0  0  0  0  0  0  0  0  0  0  0  0
   -1.8971   -0.5584   -2.6992 C   0  0  0  0  0  0  0  0  0  0  0  0
   -2.6794   -0.4847   -1.9524 H   0  0  0  0  0  0  0  0  0  0  0  0
   -0.6050    1.0252    0.3648 C   0  0  0  0  0  0  0  0  0  0  0  0
   -1.5544    1.6286   -0.1216 O   0  0  0  0  0  0  0  0  0  0  0  0
    0.2831    1.7051    1.1790 N   0  0  0  0  0  0  0  0  0  0  0  0
    1.0012    1.1628    1.6508 H   0  0  0  0  0  0  0  0  0  0  0  0
    0.1581    3.1251    1.4859 C   0  0  0  0  0  0  0  0  0  0  0  0
   -0.7882    3.3248    1.9996 H   0  0  0  0  0  0  0  0  0  0  0  0
    0.9786    3.4456    2.1351 H   0  0  0  0  0  0  0  0  0  0  0  0
    0.1926    3.7199    0.5671 H   0  0  0  0  0  0  0  0  0  0  0  0
  1  2  1  0  0  0  0
  2  3  1  0  0  0  0
  2  4  1  0  0  0  0
  2  5  1  0  0  0  0
  5  6  2  0  0  0  0
  5  7  1  0  0  0  0
  7  8  1  0  0  0  0
  7  9  1  0  0  0  0
  9 10  1  0  0  0  0
  9 11  1  0  0  0  0
  9 22  1  0  0  0  0
 11 12  1  0  0  0  0
 11 13  1  0  0  0  0
 11 14  1  0  0  0  0
 14 15  1  0  0  0  0
 14 20  2  0  0  0  0
 15 16  1  0  0  0  0
 15 17  1  0  0  0  0
 17 18  1  0  0  0  0
 17 19  2  0  0  0  0
 19 20  1  0  0  0  0
 20 21  1  0  0  0  0
 22 23  2  0  0  0  0
 22 24  1  0  0  0  0
 24 25  1  0  0  0  0
 24 26  1  0  0  0  0
 26 27  1  0  0  0  0
 26 28  1  0  0  0  0
 26 29  1  0  0  0  0
M  END
$$$$

  -OEChem-04042215593D

 29 29  0     1  0  0  0  0  0999 V2000
   -3.5058   -3.6611    1.5945 H   0  0  0  0  0  0  0  0  0  0  0  0
   -3.4859   -2.7415    1.0031 C   0  0  0  0  0  0  0  0  0  0  0  0
   -4.1088   -1.9916    1.4967 H   0  0  0  0  0  0  0  0  0  0  0  0
   -3.8955   -2.9501    0.0118 H   0  0  0  0  0  0  0  0  0  0  0  0
   -2.0627   -2.2325    0.8773 C   0  0  0  0  0  0  0  0  0  0  0  0
   -1.1390   -2.8714    1.3570 O   0  0  0  0  0  0  0  0  0  0  0  0
   -1.8151   -1.0474    0.2180 N   0  0  0  0  0  0  0  0  0  0  0  0
   -2.6221   -0.5064   -0.0881 H   0  0  0  0  0  0  0  0  0  0  0  0
   -0.5031   -0.3860    0.1468 C   0  0  1  0  0  0  0  0  0  0  0  0
    0.1143   -0.7752    0.9628 H   0  0  0  0  0  0  0  0  0  0  0  0
    0.2329   -0.7413   -1.1600 C   0  0  0  0  0  0  0  0  0  0  0  0
    1.2155   -0.2597   -1.1420 H   0  0  0  0  0  0  0  0  0  0  0  0
    0.4008   -1.8234   -1.1663 H   0  0  0  0  0  0  0  0  0  0  0  0
   -0.4489   -0.3692   -2.4601 C   0  0  0  0  0  0  0  0  0  0  0  0
    0.0781   -0.6176   -3.7094 N   0  0  0  0  0  0  0  0  0  0  0  0
    0.9740   -1.0574   -3.9072 H   0  0  0  0  0  0  0  0  0  0  0  0
   -0.8187   -0.1830   -4.6660 C   0  0  0  0  0  0  0  0  0  0  0  0
   -0.6685   -0.2490   -5.7399 H   0  0  0  0  0  0  0  0  0  0  0  0
   -1.8822    0.3183   -4.0901 N   0  0  0  0  0  0  0  0  0  0  0  0
   -1.6674    0.2123   -2.7192 C   0  0  0  0  0  0  0  0  0  0  0  0
   -2.3853    0.5298   -1.9710 H   0  0  0  0  0  0  0  0  0  0  0  0
   -0.5904    1.1323    0.4058 C   0  0  0  0  0  0  0  0  0  0  0  0
   -1.5616    1.7721    0.0217 O   0  0  0  0  0  0  0  0  0  0  0  0
    0.3221    1.7479    1.2444 N   0  0  0  0  0  0  0  0  0  0  0  0
    1.0618    1.1750    1.6404 H   0  0  0  0  0  0  0  0  0  0  0  0
    0.2222    3.1456    1.6481 C   0  0  0  0  0  0  0  0  0  0  0  0
   -0.7172    3.3247    2.1817 H   0  0  0  0  0  0  0  0  0  0  0  0
    1.0519    3.4079    2.3113 H   0  0  0  0  0  0  0  0  0  0  0  0
    0.2599    3.8009    0.7716 H   0  0  0  0  0  0  0  0  0  0  0  0
  1  2  1  0  0  0  0
  2  3  1  0  0  0  0
  2  4  1  0  0  0  0
  2  5  1  0  0  0  0
  5  6  2  0  0  0  0
  5  7  1  0  0  0  0
  7  8  1  0  0  0  0
  7  9  1  0  0  0  0
  9 10  1  0  0  0  0
  9 11  1  0  0  0  0
  9 22  1  0  0  0  0
 11 12  1  0  0  0  0
 11 13  1  0  0  0  0
 11 14  1  0  0  0  0
 14 15  1  0  0  0  0
 14 20  2  0  0  0  0
 15 16  1  0  0  0  0
 15 17  1  0  0  0  0
 17 18  1  0  0  0  0
 17 19  2  0  0  0  0
 19 20  1  0  0  0  0
 20 21  1  0  0  0  0
 22 23  2  0  0  0  0
 22 24  1  0  0  0  0
 24 25  1  0  0  0  0
 24 26  1  0  0  0  0
 26 27  1  0  0  0  0
 26 28  1  0  0  0  0
 26 29  1  0  0  0  0
M  END
$$$$

  -OEChem-04042215593D

 29 29  0     1  0  0  0  0  0999 V2000
   -3.4938   -3.6577    1.5401 H   0  0  0  0  0  0  0  0  0  0  0  0
   -3.4819   -2.7207    0.9765 C   0  0  0  0  0  0  0  0  0  0  0  0
   -4.0987   -1.9866    1.5007 H   0  0  0  0  0  0  0  0  0  0  0  0
   -3.9043   -2.8997   -0.0153 H   0  0  0  0  0  0  0  0  0  0  0  0
   -2.0610   -2.2056    0.8479 C   0  0  0  0  0  0  0  0  0  0  0  0
   -1.1312   -2.8525    1.3048 O   0  0  0  0  0  0  0  0  0  0  0  0
   -1.8228   -1.0061    0.2114 N   0  0  0  0  0  0  0  0  0  0  0  0
   -2.6335   -0.4678   -0.0897 H   0  0  0  0  0  0  0  0  0  0  0  0
   -0.5138   -0.3396    0.1354 C   0  0  1  0  0  0  0  0  0  0  0  0
    0.1033   -0.7396    0.9464 H   0  0  0  0  0  0  0  0  0  0  0  0
    0.2208   -0.7053   -1.1690 C   0  0  0  0  0  0  0  0  0  0  0  0
    1.2062   -0.2292   -1.1593 H   0  0  0  0  0  0  0  0  0  0  0  0
    0.3839   -1.7880   -1.1592 H   0  0  0  0  0  0  0  0  0  0  0  0
   -0.4598   -0.3530   -2.4757 C   0  0  0  0  0  0  0  0  0  0  0  0
   -0.0816   -0.8697   -3.6970 N   0  0  0  0  0  0  0  0  0  0  0  0
    0.7000   -1.4989   -3.8667 H   0  0  0  0  0  0  0  0  0  0  0  0
   -0.9480   -0.4062   -4.6673 C   0  0  0  0  0  0  0  0  0  0  0  0
   -0.8887   -0.6450   -5.7253 H   0  0  0  0  0  0  0  0  0  0  0  0
   -1.8580    0.3622   -4.1246 N   0  0  0  0  0  0  0  0  0  0  0  0
   -1.5743    0.4000   -2.7625 C   0  0  0  0  0  0  0  0  0  0  0  0
   -2.1831    0.9320   -2.0418 H   0  0  0  0  0  0  0  0  0  0  0  0
   -0.5823    1.1746    0.4256 C   0  0  0  0  0  0  0  0  0  0  0  0
   -1.5646    1.8276    0.0970 O   0  0  0  0  0  0  0  0  0  0  0  0
    0.3520    1.7617    1.2612 N   0  0  0  0  0  0  0  0  0  0  0  0
    1.0959    1.1731    1.6254 H   0  0  0  0  0  0  0  0  0  0  0  0
    0.2557    3.1407    1.7265 C   0  0  0  0  0  0  0  0  0  0  0  0
   -0.6598    3.2857    2.3098 H   0  0  0  0  0  0  0  0  0  0  0  0
    1.1123    3.3869    2.3609 H   0  0  0  0  0  0  0  0  0  0  0  0
    0.2455    3.8317    0.8769 H   0  0  0  0  0  0  0  0  0  0  0  0
  1  2  1  0  0  0  0
  2  3  1  0  0  0  0
  2  4  1  0  0  0  0
  2  5  1  0  0  0  0
  5  6  2  0  0  0  0
  5  7  1  0  0  0  0
  7  8  1  0  0  0  0
  7  9  1  0  0  0  0
  9 10  1  0  0  0  0
  9 11  1  0  0  0  0
  9 22  1  0  0  0  0
 11 12  1  0  0  0  0
 11 13  1  0  0  0  0
 11 14  1  0  0  0  0
 14 15  1  0  0  0  0
 14 20  2  0  0  0  0
 15 16  1  0  0  0  0
 15 17  1  0  0  0  0
 17 18  1  0  0  0  0
 17 19  2  0  0  0  0
 19 20  1  0  0  0  0
 20 21  1  0  0  0  0
 22 23  2  0  0  0  0
 22 24  1  0  0  0  0
 24 25  1  0  0  0  0
 24 26  1  0  0  0  0
 26 27  1  0  0  0  0
 26 28  1  0  0  0  0
 26 29  1  0  0  0  0
M  END
$$$$

  -OEChem-04042215593D

 29 29  0     1  0  0  0  0  0999 V2000
   -3.4928   -3.6503    1.5108 H   0  0  0  0  0  0  0  0  0  0  0  0
   -3.4794   -2.7044    0.9624 C   0  0  0  0  0  0  0  0  0  0  0  0
   -4.0935   -1.9772    1.4989 H   0  0  0  0  0  0  0  0  0  0  0  0
   -3.9030   -2.8662   -0.0316 H   0  0  0  0  0  0  0  0  0  0  0  0
   -2.0578   -2.1907    0.8399 C   0  0  0  0  0  0  0  0  0  0  0  0
   -1.1285   -2.8443    1.2885 O   0  0  0  0  0  0  0  0  0  0  0  0
   -1.8184   -0.9877    0.2113 N   0  0  0  0  0  0  0  0  0  0  0  0
   -2.6276   -0.4470   -0.0902 H   0  0  0  0  0  0  0  0  0  0  0  0
   -0.5092   -0.3239    0.1309 C   0  0  1  0  0  0  0  0  0  0  0  0
    0.1101   -0.7272    0.9385 H   0  0  0  0  0  0  0  0  0  0  0  0
    0.2168   -0.7031   -1.1742 C   0  0  0  0  0  0  0  0  0  0  0  0
    1.2074   -0.2378   -1.1750 H   0  0  0  0  0  0  0  0  0  0  0  0
    0.3699   -1.7872   -1.1523 H   0  0  0  0  0  0  0  0  0  0  0  0
   -0.4679   -0.3594   -2.4815 C   0  0  0  0  0  0  0  0  0  0  0  0
   -0.3080   -1.0941   -3.6376 N   0  0  0  0  0  0  0  0  0  0  0  0
    0.2806   -1.9168   -3.7487 H   0  0  0  0  0  0  0  0  0  0  0  0
   -1.0953   -0.5460   -4.6306 C   0  0  0  0  0  0  0  0  0  0  0  0
   -1.1672   -0.9168   -5.6491 H   0  0  0  0  0  0  0  0  0  0  0  0
   -1.7471    0.4884   -4.1640 N   0  0  0  0  0  0  0  0  0  0  0  0
   -1.3732    0.6158   -2.8291 C   0  0  0  0  0  0  0  0  0  0  0  0
   -1.7617    1.3868   -2.1766 H   0  0  0  0  0  0  0  0  0  0  0  0
   -0.5784    1.1872    0.4331 C   0  0  0  0  0  0  0  0  0  0  0  0
   -1.5799    1.8308    0.1460 O   0  0  0  0  0  0  0  0  0  0  0  0
    0.3601    1.7697    1.2668 N   0  0  0  0  0  0  0  0  0  0  0  0
    1.1137    1.1823    1.6121 H   0  0  0  0  0  0  0  0  0  0  0  0
    0.2500    3.1360    1.7656 C   0  0  0  0  0  0  0  0  0  0  0  0
   -0.6545    3.2507    2.3725 H   0  0  0  0  0  0  0  0  0  0  0  0
    1.1168    3.3839    2.3860 H   0  0  0  0  0  0  0  0  0  0  0  0
    0.2077    3.8461    0.9329 H   0  0  0  0  0  0  0  0  0  0  0  0
  1  2  1  0  0  0  0
  2  3  1  0  0  0  0
  2  4  1  0  0  0  0
  2  5  1  0  0  0  0
  5  6  2  0  0  0  0
  5  7  1  0  0  0  0
  7  8  1  0  0  0  0
  7  9  1  0  0  0  0
  9 10  1  0  0  0  0
  9 11  1  0  0  0  0
  9 22  1  0  0  0  0
 11 12  1  0  0  0  0
 11 13  1  0  0  0  0
 11 14  1  0  0  0  0
 14 15  1  0  0  0  0
 14 20  2  0  0  0  0
 15 16  1  0  0  0  0
 15 17  1  0  0  0  0
 17 18  1  0  0  0  0
 17 19  2  0  0  0  0
 19 20  1  0  0  0  0
 20 21  1  0  0  0  0
 22 23  2  0  0  0  0
 22 24  1  0  0  0  0
 24 25  1  0  0  0  0
 24 26  1  0  0  0  0
 26 27  1  0  0  0  0
 26 28  1  0  0  0  0
 26 29  1  0  0  0  0
M  END
$$$$

  -OEChem-04042215593D

 29 29  0     1  0  0  0  0  0999 V2000
   -3.5066   -3.6492    1.5147 H   0  0  0  0  0  0  0  0  0  0  0  0
   -3.4831   -2.7088    0.9570 C   0  0  0  0  0  0  0  0  0  0  0  0
   -4.1023   -1.9746    1.4780 H   0  0  0  0  0  0  0  0  0  0  0  0
   -3.8940   -2.8789   -0.0410 H   0  0  0  0  0  0  0  0  0  0  0  0
   -2.0583   -2.2001    0.8490 C   0  0  0  0  0  0  0  0  0  0  0  0
   -1.1379   -2.8523    1.3173 O   0  0  0  0  0  0  0  0  0  0  0  0
   -1.8040   -1.0066    0.2087 N   0  0  0  0  0  0  0  0  0  0  0  0
   -2.6047   -0.4680   -0.1193 H   0  0  0  0  0  0  0  0  0  0  0  0
   -0.4911   -0.3489    0.1411 C   0  0  1  0  0  0  0  0  0  0  0  0
    0.1238   -0.7456    0.9551 H   0  0  0  0  0  0  0  0  0  0  0  0
    0.2311   -0.7336   -1.1646 C   0  0  0  0  0  0  0  0  0  0  0  0
    1.2223   -0.2698   -1.1709 H   0  0  0  0  0  0  0  0  0  0  0  0
    0.3834   -1.8177   -1.1506 H   0  0  0  0  0  0  0  0  0  0  0  0
   -0.4713   -0.3701   -2.4552 C   0  0  0  0  0  0  0  0  0  0  0  0
   -0.6003   -1.2178   -3.5348 N   0  0  0  0  0  0  0  0  0  0  0  0
   -0.2725   -2.1800   -3.5851 H   0  0  0  0  0  0  0  0  0  0  0  0
   -1.2679   -0.5544   -4.5454 C   0  0  0  0  0  0  0  0  0  0  0  0
   -1.5184   -0.9784   -5.5137 H   0  0  0  0  0  0  0  0  0  0  0  0
   -1.5559    0.6651   -4.1663 N   0  0  0  0  0  0  0  0  0  0  0  0
   -1.0631    0.7986   -2.8711 C   0  0  0  0  0  0  0  0  0  0  0  0
   -1.1232    1.7155   -2.2963 H   0  0  0  0  0  0  0  0  0  0  0  0
   -0.5782    1.1644    0.4246 C   0  0  0  0  0  0  0  0  0  0  0  0
   -1.5730    1.7979    0.0927 O   0  0  0  0  0  0  0  0  0  0  0  0
    0.3387    1.7661    1.2687 N   0  0  0  0  0  0  0  0  0  0  0  0
    1.0874    1.1888    1.6408 H   0  0  0  0  0  0  0  0  0  0  0  0
    0.2141    3.1418    1.7369 C   0  0  0  0  0  0  0  0  0  0  0  0
   -0.7061    3.2674    2.3172 H   0  0  0  0  0  0  0  0  0  0  0  0
    1.0640    3.4030    2.3749 H   0  0  0  0  0  0  0  0  0  0  0  0
    0.1932    3.8350    0.8893 H   0  0  0  0  0  0  0  0  0  0  0  0
  1  2  1  0  0  0  0
  2  3  1  0  0  0  0
  2  4  1  0  0  0  0
  2  5  1  0  0  0  0
  5  6  2  0  0  0  0
  5  7  1  0  0  0  0
  7  8  1  0  0  0  0
  7  9  1  0  0  0  0
  9 10  1  0  0  0  0
  9 11  1  0  0  0  0
  9 22  1  0  0  0  0
 11 12  1  0  0  0  0
 11 13  1  0  0  0  0
 11 14  1  0  0  0  0
 14 15  1  0  0  0  0
 14 20  2  0  0  0  0
 15 16  1  0  0  0  0
 15 17  1  0  0  0  0
 17 18  1  0  0  0  0
 17 19  2  0  0  0  0
 19 20  1  0  0  0  0
 20 21  1  0  0  0  0
 22 23  2  0  0  0  0
 22 24  1  0  0  0  0
 24 25  1  0  0  0  0
 24 26  1  0  0  0  0
 26 27  1  0  0  0  0
 26 28  1  0  0  0  0
 26 29  1  0  0  0  0
M  END
$$$$

  -OEChem-04042215593D

 29 29  0     1  0  0  0  0  0999 V2000
   -3.5316   -3.6444    1.5273 H   0  0  0  0  0  0  0  0  0  0  0  0
   -3.4909   -2.7214    0.9422 C   0  0  0  0  0  0  0  0  0  0  0  0
   -4.1219   -1.9708    1.4246 H   0  0  0  0  0  0  0  0  0  0  0  0
   -3.8767   -2.9210   -0.0603 H   0  0  0  0  0  0  0  0  0  0  0  0
   -2.0623   -2.2187    0.8563 C   0  0  0  0  0  0  0  0  0  0  0  0
   -1.1541   -2.8666    1.3530 O   0  0  0  0  0  0  0  0  0  0  0  0
   -1.7904   -1.0364    0.2030 N   0  0  0  0  0  0  0  0  0  0  0  0
   -2.5812   -0.5005   -0.1523 H   0  0  0  0  0  0  0  0  0  0  0  0
   -0.4759   -0.3802    0.1558 C   0  0  1  0  0  0  0  0  0  0  0  0
    0.1313   -0.7704    0.9788 H   0  0  0  0  0  0  0  0  0  0  0  0
    0.2568   -0.7540   -1.1458 C   0  0  0  0  0  0  0  0  0  0  0  0
    1.2432   -0.2791   -1.1442 H   0  0  0  0  0  0  0  0  0  0  0  0
    0.4200   -1.8366   -1.1520 H   0  0  0  0  0  0  0  0  0  0  0  0
   -0.4618   -0.3615   -2.4163 C   0  0  0  0  0  0  0  0  0  0  0  0
   -0.8779   -1.2328   -3.3992 N   0  0  0  0  0  0  0  0  0  0  0  0
   -0.7890   -2.2464   -3.3806 H   0  0  0  0  0  0  0  0  0  0  0  0
   -1.4433   -0.5024   -4.4262 C   0  0  0  0  0  0  0  0  0  0  0  0
   -1.8647   -0.9236   -5.3345 H   0  0  0  0  0  0  0  0  0  0  0  0
   -1.3948    0.7767   -4.1481 N   0  0  0  0  0  0  0  0  0  0  0  0
   -0.7829    0.8821   -2.9019 C   0  0  0  0  0  0  0  0  0  0  0  0
   -0.5726    1.8218   -2.4005 H   0  0  0  0  0  0  0  0  0  0  0  0
   -0.5767    1.1368    0.4127 C   0  0  0  0  0  0  0  0  0  0  0  0
   -1.5426    1.7703    0.0044 O   0  0  0  0  0  0  0  0  0  0  0  0
    0.3149    1.7578    1.2692 N   0  0  0  0  0  0  0  0  0  0  0  0
    1.0489    1.1884    1.6807 H   0  0  0  0  0  0  0  0  0  0  0  0
    0.1970    3.1538    1.6745 C   0  0  0  0  0  0  0  0  0  0  0  0
   -0.7573    3.3264    2.1834 H   0  0  0  0  0  0  0  0  0  0  0  0
    1.0071    3.4183    2.3609 H   0  0  0  0  0  0  0  0  0  0  0  0
    0.2553    3.8122    0.8014 H   0  0  0  0  0  0  0  0  0  0  0  0
  1  2  1  0  0  0  0
  2  3  1  0  0  0  0
  2  4  1  0  0  0  0
  2  5  1  0  0  0  0
  5  6  2  0  0  0  0
  5  7  1  0  0  0  0
  7  8  1  0  0  0  0
  7  9  1  0  0  0  0
  9 10  1  0  0  0  0
  9 11  1  0  0  0  0
  9 22  1  0  0  0  0
 11 12  1  0  0  0  0
 11 13  1  0  0  0  0
 11 14  1  0  0  0  0
 14 15  1  0  0  0  0
 14 20  2  0  0  0  0
 15 16  1  0  0  0  0
 15 17  1  0  0  0  0
 17 18  1  0  0  0  0
 17 19  2  0  0  0  0
 19 20  1  0  0  0  0
 20 21  1  0  0  0  0
 22 23  2  0  0  0  0
 22 24  1  0  0  0  0
 24 25  1  0  0  0  0
 24 26  1  0  0  0  0
 26 27  1  0  0  0  0
 26 28  1  0  0  0  0
 26 29  1  0  0  0  0
M  END
$$$$

  -OEChem-04042215593D

 29 29  0     1  0  0  0  0  0999 V2000
   -3.5441   -3.6430    1.5380 H   0  0  0  0  0  0  0  0  0  0  0  0
   -3.4966   -2.7243    0.9468 C   0  0  0  0  0  0  0  0  0  0  0  0
   -4.1245   -1.9669    1.4225 H   0  0  0  0  0  0  0  0  0  0  0  0
   -3.8805   -2.9286   -0.0554 H   0  0  0  0  0  0  0  0  0  0  0  0
   -2.0647   -2.2311    0.8626 C   0  0  0  0  0  0  0  0  0  0  0  0
   -1.1636   -2.8787    1.3719 O   0  0  0  0  0  0  0  0  0  0  0  0
   -1.7808   -1.0589    0.1964 N   0  0  0  0  0  0  0  0  0  0  0  0
   -2.5649   -0.5198   -0.1690 H   0  0  0  0  0  0  0  0  0  0  0  0
   -0.4638   -0.4062    0.1626 C   0  0  1  0  0  0  0  0  0  0  0  0
    0.1370   -0.7910    0.9926 H   0  0  0  0  0  0  0  0  0  0  0  0
    0.2789   -0.7673   -1.1358 C   0  0  0  0  0  0  0  0  0  0  0  0
    1.2613   -0.2844   -1.1236 H   0  0  0  0  0  0  0  0  0  0  0  0
    0.4496   -1.8482   -1.1626 H   0  0  0  0  0  0  0  0  0  0  0  0
   -0.4488   -0.3495   -2.3902 C   0  0  0  0  0  0  0  0  0  0  0  0
   -1.1324   -1.1790   -3.2510 N   0  0  0  0  0  0  0  0  0  0  0  0
   -1.2659   -2.1817   -3.1408 H   0  0  0  0  0  0  0  0  0  0  0  0
   -1.6004   -0.4226   -4.3084 C   0  0  0  0  0  0  0  0  0  0  0  0
   -2.1804   -0.8065   -5.1426 H   0  0  0  0  0  0  0  0  0  0  0  0
   -1.2389    0.8285   -4.1634 N   0  0  0  0  0  0  0  0  0  0  0  0
   -0.5204    0.8905   -2.9726 C   0  0  0  0  0  0  0  0  0  0  0  0
   -0.0684    1.7924   -2.5705 H   0  0  0  0  0  0  0  0  0  0  0  0
   -0.5741    1.1138    0.3967 C   0  0  0  0  0  0  0  0  0  0  0  0
   -1.5206    1.7429   -0.0607 O   0  0  0  0  0  0  0  0  0  0  0  0
    0.2988    1.7509    1.2607 N   0  0  0  0  0  0  0  0  0  0  0  0
    1.0198    1.1889    1.7042 H   0  0  0  0  0  0  0  0  0  0  0  0
    0.1815    3.1587    1.6225 C   0  0  0  0  0  0  0  0  0  0  0  0
   -0.7810    3.3515    2.1078 H   0  0  0  0  0  0  0  0  0  0  0  0
    0.9803    3.4390    2.3157 H   0  0  0  0  0  0  0  0  0  0  0  0
    0.2594    3.7907    0.7316 H   0  0  0  0  0  0  0  0  0  0  0  0
  1  2  1  0  0  0  0
  2  3  1  0  0  0  0
  2  4  1  0  0  0  0
  2  5  1  0  0  0  0
  5  6  2  0  0  0  0
  5  7  1  0  0  0  0
  7  8  1  0  0  0  0
  7  9  1  0  0  0  0
  9 10  1  0  0  0  0
  9 11  1  0  0  0  0
  9 22  1  0  0  0  0
 11 12  1  0  0  0  0
 11 13  1  0  0  0  0
 11 14  1  0  0  0  0
 14 15  1  0  0  0  0
 14 20  2  0  0  0  0
 15 16  1  0  0  0  0
 15 17  1  0  0  0  0
 17 18  1  0  0  0  0
 17 19  2  0  0  0  0
 19 20  1  0  0  0  0
 20 21  1  0  0  0  0
 22 23  2  0  0  0  0
 22 24  1  0  0  0  0
 24 25  1  0  0  0  0
 24 26  1  0  0  0  0
 26 27  1  0  0  0  0
 26 28  1  0  0  0  0
 26 29  1  0  0  0  0
M  END
$$$$

  -OEChem-04042215593D

 29 29  0     1  0  0  0  0  0999 V2000
   -3.5534   -3.6278    1.5691 H   0  0  0  0  0  0  0  0  0  0  0  0
   -3.5019   -2.7166    0.9665 C   0  0  0  0  0  0  0  0  0  0  0  0
   -4.1155   -1.9465    1.4404 H   0  0  0  0  0  0  0  0  0  0  0  0
   -3.8993   -2.9284   -0.0288 H   0  0  0  0  0  0  0  0  0  0  0  0
   -2.0654   -2.2411    0.8610 C   0  0  0  0  0  0  0  0  0  0  0  0
   -1.1660   -2.8971    1.3619 O   0  0  0  0  0  0  0  0  0  0  0  0
   -1.7764   -1.0735    0.1885 N   0  0  0  0  0  0  0  0  0  0  0  0
   -2.5599   -0.5184   -0.1537 H   0  0  0  0  0  0  0  0  0  0  0  0
   -0.4572   -0.4245    0.1599 C   0  0  1  0  0  0  0  0  0  0  0  0
    0.1404   -0.8076    0.9932 H   0  0  0  0  0  0  0  0  0  0  0  0
    0.2959   -0.7694   -1.1363 C   0  0  0  0  0  0  0  0  0  0  0  0
    1.2777   -0.2857   -1.1107 H   0  0  0  0  0  0  0  0  0  0  0  0
    0.4674   -1.8497   -1.1788 H   0  0  0  0  0  0  0  0  0  0  0  0
   -0.4306   -0.3331   -2.3842 C   0  0  0  0  0  0  0  0  0  0  0  0
   -1.3438   -1.0668   -3.1078 N   0  0  0  0  0  0  0  0  0  0  0  0
   -1.6715   -2.0042   -2.8870 H   0  0  0  0  0  0  0  0  0  0  0  0
   -1.7264   -0.3237   -4.2085 C   0  0  0  0  0  0  0  0  0  0  0  0
   -2.4389   -0.6456   -4.9626 H   0  0  0  0  0  0  0  0  0  0  0  0
   -1.0986    0.8269   -4.2176 N   0  0  0  0  0  0  0  0  0  0  0  0
   -0.2895    0.8368   -3.0851 C   0  0  0  0  0  0  0  0  0  0  0  0
    0.3711    1.6517   -2.8045 H   0  0  0  0  0  0  0  0  0  0  0  0
   -0.5751    1.0965    0.3847 C   0  0  0  0  0  0  0  0  0  0  0  0
   -1.5227    1.7178   -0.0817 O   0  0  0  0  0  0  0  0  0  0  0  0
    0.2883    1.7420    1.2520 N   0  0  0  0  0  0  0  0  0  0  0  0
    1.0132    1.1875    1.6987 H   0  0  0  0  0  0  0  0  0  0  0  0
    0.1673    3.1535    1.5979 C   0  0  0  0  0  0  0  0  0  0  0  0
   -0.8018    3.3515    2.0678 H   0  0  0  0  0  0  0  0  0  0  0  0
    0.9565    3.4405    2.2993 H   0  0  0  0  0  0  0  0  0  0  0  0
    0.2581    3.7766    0.7020 H   0  0  0  0  0  0  0  0  0  0  0  0
  1  2  1  0  0  0  0
  2  3  1  0  0  0  0
  2  4  1  0  0  0  0
  2  5  1  0  0  0  0
  5  6  2  0  0  0  0
  5  7  1  0  0  0  0
  7  8  1  0  0  0  0
  7  9  1  0  0  0  0
  9 10  1  0  0  0  0
  9 11  1  0  0  0  0
  9 22  1  0  0  0  0
 11 12  1  0  0  0  0
 11 13  1  0  0  0  0
 11 14  1  0  0  0  0
 14 15  1  0  0  0  0
 14 20  2  0  0  0  0
 15 16  1  0  0  0  0
 15 17  1  0  0  0  0
 17 18  1  0  0  0  0
 17 19  2  0  0  0  0
 19 20  1  0  0  0  0
 20 21  1  0  0  0  0
 22 23  2  0  0  0  0
 22 24  1  0  0  0  0
 24 25  1  0  0  0  0
 24 26  1  0  0  0  0
 26 27  1  0  0  0  0
 26 28  1  0  0  0  0
 26 29  1  0  0  0  0
M  END
$$$$

  -OEChem-04042215593D

 29 29  0     1  0  0  0  0  0999 V2000
   -3.5530   -3.6160    1.5944 H   0  0  0  0  0  0  0  0  0  0  0  0
   -3.5033   -2.7024    0.9952 C   0  0  0  0  0  0  0  0  0  0  0  0
   -4.0983   -1.9277    1.4850 H   0  0  0  0  0  0  0  0  0  0  0  0
   -3.9235   -2.9047    0.0073 H   0  0  0  0  0  0  0  0  0  0  0  0
   -2.0636   -2.2437    0.8621 C   0  0  0  0  0  0  0  0  0  0  0  0
   -1.1624   -2.9096    1.3460 O   0  0  0  0  0  0  0  0  0  0  0  0
   -1.7746   -1.0800    0.1827 N   0  0  0  0  0  0  0  0  0  0  0  0
   -2.5596   -0.5020   -0.1156 H   0  0  0  0  0  0  0  0  0  0  0  0
   -0.4516   -0.4377    0.1532 C   0  0  1  0  0  0  0  0  0  0  0  0
    0.1458   -0.8194    0.9874 H   0  0  0  0  0  0  0  0  0  0  0  0
    0.3070   -0.7722   -1.1431 C   0  0  0  0  0  0  0  0  0  0  0  0
    1.2933   -0.2982   -1.1068 H   0  0  0  0  0  0  0  0  0  0  0  0
    0.4675   -1.8540   -1.1937 H   0  0  0  0  0  0  0  0  0  0  0  0
   -0.4092   -0.3247   -2.3935 C   0  0  0  0  0  0  0  0  0  0  0  0
   -1.5122   -0.9023   -2.9808 N   0  0  0  0  0  0  0  0  0  0  0  0
   -2.0143   -1.7184   -2.6403 H   0  0  0  0  0  0  0  0  0  0  0  0
   -1.8168   -0.1949   -4.1285 C   0  0  0  0  0  0  0  0  0  0  0  0
   -2.6417   -0.4176   -4.7990 H   0  0  0  0  0  0  0  0  0  0  0  0
   -0.9601    0.7827   -4.2982 N   0  0  0  0  0  0  0  0  0  0  0  0
   -0.0807    0.7166   -3.2220 C   0  0  0  0  0  0  0  0  0  0  0  0
    0.7564    1.3907   -3.0674 H   0  0  0  0  0  0  0  0  0  0  0  0
   -0.5759    1.0834    0.3725 C   0  0  0  0  0  0  0  0  0  0  0  0
   -1.5339    1.6948   -0.0869 O   0  0  0  0  0  0  0  0  0  0  0  0
    0.2825    1.7356    1.2395 N   0  0  0  0  0  0  0  0  0  0  0  0
    1.0119    1.1869    1.6858 H   0  0  0  0  0  0  0  0  0  0  0  0
    0.1455    3.1439    1.5914 C   0  0  0  0  0  0  0  0  0  0  0  0
   -0.8194    3.3257    2.0763 H   0  0  0  0  0  0  0  0  0  0  0  0
    0.9411    3.4408    2.2815 H   0  0  0  0  0  0  0  0  0  0  0  0
    0.2135    3.7705    0.6958 H   0  0  0  0  0  0  0  0  0  0  0  0
  1  2  1  0  0  0  0
  2  3  1  0  0  0  0
  2  4  1  0  0  0  0
  2  5  1  0  0  0  0
  5  6  2  0  0  0  0
  5  7  1  0  0  0  0
  7  8  1  0  0  0  0
  7  9  1  0  0  0  0
  9 10  1  0  0  0  0
  9 11  1  0  0  0  0
  9 22  1  0  0  0  0
 11 12  1  0  0  0  0
 11 13  1  0  0  0  0
 11 14  1  0  0  0  0
 14 15  1  0  0  0  0
 14 20  2  0  0  0  0
 15 16  1  0  0  0  0
 15 17  1  0  0  0  0
 17 18  1  0  0  0  0
 17 19  2  0  0  0  0
 19 20  1  0  0  0  0
 20 21  1  0  0  0  0
 22 23  2  0  0  0  0
 22 24  1  0  0  0  0
 24 25  1  0  0  0  0
 24 26  1  0  0  0  0
 26 27  1  0  0  0  0
 26 28  1  0  0  0  0
 26 29  1  0  0  0  0
M  END
$$$$

  -OEChem-04042215593D

 29 29  0     1  0  0  0  0  0999 V2000
   -3.5484   -3.5975    1.6458 H   0  0  0  0  0  0  0  0  0  0  0  0
   -3.5038   -2.6903    1.0367 C   0  0  0  0  0  0  0  0  0  0  0  0
   -4.0763   -1.9043    1.5349 H   0  0  0  0  0  0  0  0  0  0  0  0
   -3.9526   -2.8973    0.0625 H   0  0  0  0  0  0  0  0  0  0  0  0
   -2.0627   -2.2505    0.8607 C   0  0  0  0  0  0  0  0  0  0  0  0
   -1.1568   -2.9282    1.3182 O   0  0  0  0  0  0  0  0  0  0  0  0
   -1.7794   -1.0870    0.1777 N   0  0  0  0  0  0  0  0  0  0  0  0
   -2.5660   -0.4831   -0.0589 H   0  0  0  0  0  0  0  0  0  0  0  0
   -0.4526   -0.4507    0.1418 C   0  0  1  0  0  0  0  0  0  0  0  0
    0.1455   -0.8331    0.9751 H   0  0  0  0  0  0  0  0  0  0  0  0
    0.3127   -0.7735   -1.1549 C   0  0  0  0  0  0  0  0  0  0  0  0
    1.3041   -0.3111   -1.1080 H   0  0  0  0  0  0  0  0  0  0  0  0
    0.4616   -1.8567   -1.2111 H   0  0  0  0  0  0  0  0  0  0  0  0
   -0.3870   -0.3199   -2.4132 C   0  0  0  0  0  0  0  0  0  0  0  0
   -1.6270   -0.6939   -2.8790 N   0  0  0  0  0  0  0  0  0  0  0  0
   -2.2652   -1.3416   -2.4246 H   0  0  0  0  0  0  0  0  0  0  0  0
   -1.8648   -0.0367   -4.0712 C   0  0  0  0  0  0  0  0  0  0  0  0
   -2.7674   -0.1321   -4.6679 H   0  0  0  0  0  0  0  0  0  0  0  0
   -0.8383    0.7161   -4.3844 N   0  0  0  0  0  0  0  0  0  0  0  0
    0.0852    0.5544   -3.3569 C   0  0  0  0  0  0  0  0  0  0  0  0
    1.0498    1.0508   -3.3120 H   0  0  0  0  0  0  0  0  0  0  0  0
   -0.5825    1.0698    0.3635 C   0  0  0  0  0  0  0  0  0  0  0  0
   -1.5587    1.6701   -0.0728 O   0  0  0  0  0  0  0  0  0  0  0  0
    0.2759    1.7259    1.2277 N   0  0  0  0  0  0  0  0  0  0  0  0
    1.0218    1.1849    1.6559 H   0  0  0  0  0  0  0  0  0  0  0  0
    0.1276    3.1309    1.5889 C   0  0  0  0  0  0  0  0  0  0  0  0
   -0.8378    3.3013    2.0769 H   0  0  0  0  0  0  0  0  0  0  0  0
    0.9218    3.4302    2.2796 H   0  0  0  0  0  0  0  0  0  0  0  0
    0.1881    3.7637    0.6971 H   0  0  0  0  0  0  0  0  0  0  0  0
  1  2  1  0  0  0  0
  2  3  1  0  0  0  0
  2  4  1  0  0  0  0
  2  5  1  0  0  0  0
  5  6  2  0  0  0  0
  5  7  1  0  0  0  0
  7  8  1  0  0  0  0
  7  9  1  0  0  0  0
  9 10  1  0  0  0  0
  9 11  1  0  0  0  0
  9 22  1  0  0  0  0
 11 12  1  0  0  0  0
 11 13  1  0  0  0  0
 11 14  1  0  0  0  0
 14 15  1  0  0  0  0
 14 20  2  0  0  0  0
 15 16  1  0  0  0  0
 15 17  1  0  0  0  0
 17 18  1  0  0  0  0
 17 19  2  0  0  0  0
 19 20  1  0  0  0  0
 20 21  1  0  0  0  0
 22 23  2  0  0  0  0
 22 24  1  0  0  0  0
 24 25  1  0  0  0  0
 24 26  1  0  0  0  0
 26 27  1  0  0  0  0
 26 28  1  0  0  0  0
 26 29  1  0  0  0  0
M  END
$$$$

  -OEChem-04042215593D

 29 29  0     1  0  0  0  0  0999 V2000
   -3.5305   -3.5936    1.6915 H   0  0  0  0  0  0  0  0  0  0  0  0
   -3.4984   -2.6873    1.0801 C   0  0  0  0  0  0  0  0  0  0  0  0
   -4.0506   -1.8969    1.5944 H   0  0  0  0  0  0  0  0  0  0  0  0
   -3.9773   -2.8926    0.1199 H   0  0  0  0  0  0  0  0  0  0  0  0
   -2.0603   -2.2579    0.8602 C   0  0  0  0  0  0  0  0  0  0  0  0
   -1.1461   -2.9433    1.2889 O   0  0  0  0  0  0  0  0  0  0  0  0
   -1.7895   -1.0911    0.1768 N   0  0  0  0  0  0  0  0  0  0  0  0
   -2.5782   -0.4699    0.0013 H   0  0  0  0  0  0  0  0  0  0  0  0
   -0.4604   -0.4584    0.1333 C   0  0  1  0  0  0  0  0  0  0  0  0
    0.1421   -0.8432    0.9629 H   0  0  0  0  0  0  0  0  0  0  0  0
    0.3052   -0.7715   -1.1670 C   0  0  0  0  0  0  0  0  0  0  0  0
    1.3013   -0.3202   -1.1134 H   0  0  0  0  0  0  0  0  0  0  0  0
    0.4431   -1.8561   -1.2252 H   0  0  0  0  0  0  0  0  0  0  0  0
   -0.3777   -0.3162   -2.4352 C   0  0  0  0  0  0  0  0  0  0  0  0
   -1.6977   -0.4464   -2.8031 N   0  0  0  0  0  0  0  0  0  0  0  0
   -2.4318   -0.8767   -2.2479 H   0  0  0  0  0  0  0  0  0  0  0  0
   -1.8705    0.1402   -4.0420 C   0  0  0  0  0  0  0  0  0  0  0  0
   -2.8122    0.1973   -4.5804 H   0  0  0  0  0  0  0  0  0  0  0  0
   -0.7300    0.6167   -4.4786 N   0  0  0  0  0  0  0  0  0  0  0  0
    0.2043    0.3458   -3.4848 C   0  0  0  0  0  0  0  0  0  0  0  0
    1.2527    0.6236   -3.5352 H   0  0  0  0  0  0  0  0  0  0  0  0
   -0.5937    1.0604    0.3635 C   0  0  0  0  0  0  0  0  0  0  0  0
   -1.5837    1.6541   -0.0521 O   0  0  0  0  0  0  0  0  0  0  0  0
    0.2680    1.7159    1.2246 N   0  0  0  0  0  0  0  0  0  0  0  0
    1.0303    1.1811    1.6310 H   0  0  0  0  0  0  0  0  0  0  0  0
    0.1169    3.1188    1.5930 C   0  0  0  0  0  0  0  0  0  0  0  0
   -0.8460    3.2841    2.0878 H   0  0  0  0  0  0  0  0  0  0  0  0
    0.9140    3.4183    2.2805 H   0  0  0  0  0  0  0  0  0  0  0  0
    0.1702    3.7558    0.7037 H   0  0  0  0  0  0  0  0  0  0  0  0
  1  2  1  0  0  0  0
  2  3  1  0  0  0  0
  2  4  1  0  0  0  0
  2  5  1  0  0  0  0
  5  6  2  0  0  0  0
  5  7  1  0  0  0  0
  7  8  1  0  0  0  0
  7  9  1  0  0  0  0
  9 10  1  0  0  0  0
  9 11  1  0  0  0  0
  9 22  1  0  0  0  0
 11 12  1  0  0  0  0
 11 13  1  0  0  0  0
 11 14  1  0  0  0  0
 14 15  1  0  0  0  0
 14 20  2  0  0  0  0
 15 16  1  0  0  0  0
 15 17  1  0  0  0  0
 17 18  1  0  0  0  0
 17 19  2  0  0  0  0
 19 20  1  0  0  0  0
 20 21  1  0  0  0  0
 22 23  2  0  0  0  0
 22 24  1  0  0  0  0
 24 25  1  0  0  0  0
 24 26  1  0  0  0  0
 26 27  1  0  0  0  0
 26 28  1  0  0  0  0
 26 29  1  0  0  0  0
M  END
$$$$

  -OEChem-04042215593D

 29 29  0     1  0  0  0  0  0999 V2000
   -3.5181   -3.6065    1.6932 H   0  0  0  0  0  0  0  0  0  0  0  0
   -3.4913   -2.6937    1.0915 C   0  0  0  0  0  0  0  0  0  0  0  0
   -4.0391   -1.9093    1.6191 H   0  0  0  0  0  0  0  0  0  0  0  0
   -3.9786   -2.8896    0.1335 H   0  0  0  0  0  0  0  0  0  0  0  0
   -2.0554   -2.2614    0.8626 C   0  0  0  0  0  0  0  0  0  0  0  0
   -1.1377   -2.9469    1.2839 O   0  0  0  0  0  0  0  0  0  0  0  0
   -1.7918   -1.0909    0.1818 N   0  0  0  0  0  0  0  0  0  0  0  0
   -2.5822   -0.4651    0.0389 H   0  0  0  0  0  0  0  0  0  0  0  0
   -0.4609   -0.4608    0.1329 C   0  0  1  0  0  0  0  0  0  0  0  0
    0.1478   -0.8497    0.9556 H   0  0  0  0  0  0  0  0  0  0  0  0
    0.2950   -0.7672   -1.1755 C   0  0  0  0  0  0  0  0  0  0  0  0
    1.2954   -0.3254   -1.1232 H   0  0  0  0  0  0  0  0  0  0  0  0
    0.4230   -1.8529   -1.2374 H   0  0  0  0  0  0  0  0  0  0  0  0
   -0.3796   -0.3076   -2.4478 C   0  0  0  0  0  0  0  0  0  0  0  0
   -1.7191   -0.1680   -2.7324 N   0  0  0  0  0  0  0  0  0  0  0  0
   -2.4837   -0.3057   -2.0779 H   0  0  0  0  0  0  0  0  0  0  0  0
   -1.8505    0.3133   -4.0205 C   0  0  0  0  0  0  0  0  0  0  0  0
   -2.7938    0.5371   -4.5104 H   0  0  0  0  0  0  0  0  0  0  0  0
   -0.6692    0.4642   -4.5683 N   0  0  0  0  0  0  0  0  0  0  0  0
    0.2528    0.0874   -3.5980 C   0  0  0  0  0  0  0  0  0  0  0  0
    1.3297    0.1081   -3.7335 H   0  0  0  0  0  0  0  0  0  0  0  0
   -0.5973    1.0563    0.3724 C   0  0  0  0  0  0  0  0  0  0  0  0
   -1.5948    1.6453   -0.0342 O   0  0  0  0  0  0  0  0  0  0  0  0
    0.2660    1.7120    1.2317 N   0  0  0  0  0  0  0  0  0  0  0  0
    1.0389    1.1812    1.6236 H   0  0  0  0  0  0  0  0  0  0  0  0
    0.1139    3.1137    1.6042 C   0  0  0  0  0  0  0  0  0  0  0  0
   -0.8486    3.2772    2.1005 H   0  0  0  0  0  0  0  0  0  0  0  0
    0.9114    3.4113    2.2917 H   0  0  0  0  0  0  0  0  0  0  0  0
    0.1659    3.7532    0.7167 H   0  0  0  0  0  0  0  0  0  0  0  0
  1  2  1  0  0  0  0
  2  3  1  0  0  0  0
  2  4  1  0  0  0  0
  2  5  1  0  0  0  0
  5  6  2  0  0  0  0
  5  7  1  0  0  0  0
  7  8  1  0  0  0  0
  7  9  1  0  0  0  0
  9 10  1  0  0  0  0
  9 11  1  0  0  0  0
  9 22  1  0  0  0  0
 11 12  1  0  0  0  0
 11 13  1  0  0  0  0
 11 14  1  0  0  0  0
 14 15  1  0  0  0  0
 14 20  2  0  0  0  0
 15 16  1  0  0  0  0
 15 17  1  0  0  0  0
 17 18  1  0  0  0  0
 17 19  2  0  0  0  0
 19 20  1  0  0  0  0
 20 21  1  0  0  0  0
 22 23  2  0  0  0  0
 22 24  1  0  0  0  0
 24 25  1  0  0  0  0
 24 26  1  0  0  0  0
 26 27  1  0  0  0  0
 26 28  1  0  0  0  0
 26 29  1  0  0  0  0
M  END
$$$$

  -OEChem-04042215593D

 29 29  0     1  0  0  0  0  0999 V2000
   -3.5258   -3.6278    1.6097 H   0  0  0  0  0  0  0  0  0  0  0  0
   -3.4845   -2.7057    1.0233 C   0  0  0  0  0  0  0  0  0  0  0  0
   -4.0687   -1.9371    1.5348 H   0  0  0  0  0  0  0  0  0  0  0  0
   -3.9226   -2.8943    0.0402 H   0  0  0  0  0  0  0  0  0  0  0  0
   -2.0464   -2.2484    0.8697 C   0  0  0  0  0  0  0  0  0  0  0  0
   -1.1411   -2.9081    1.3549 O   0  0  0  0  0  0  0  0  0  0  0  0
   -1.7679   -1.0798    0.1923 N   0  0  0  0  0  0  0  0  0  0  0  0
   -2.5611   -0.4880   -0.0414 H   0  0  0  0  0  0  0  0  0  0  0  0
   -0.4358   -0.4516    0.1501 C   0  0  1  0  0  0  0  0  0  0  0  0
    0.1773   -0.8438    0.9681 H   0  0  0  0  0  0  0  0  0  0  0  0
    0.2982   -0.7601   -1.1710 C   0  0  0  0  0  0  0  0  0  0  0  0
    1.3001   -0.3206   -1.1303 H   0  0  0  0  0  0  0  0  0  0  0  0
    0.4236   -1.8459   -1.2382 H   0  0  0  0  0  0  0  0  0  0  0  0
   -0.3843   -0.2897   -2.4363 C   0  0  0  0  0  0  0  0  0  0  0  0
   -1.6801    0.1326   -2.6376 N   0  0  0  0  0  0  0  0  0  0  0  0
   -2.3292    0.4013   -1.9000 H   0  0  0  0  0  0  0  0  0  0  0  0
   -1.8360    0.4501   -3.9728 C   0  0  0  0  0  0  0  0  0  0  0  0
   -2.7430    0.8500   -4.4166 H   0  0  0  0  0  0  0  0  0  0  0  0
   -0.7252    0.2142   -4.6276 N   0  0  0  0  0  0  0  0  0  0  0  0
    0.1845   -0.2468   -3.6826 C   0  0  0  0  0  0  0  0  0  0  0  0
    1.2081   -0.5342   -3.9039 H   0  0  0  0  0  0  0  0  0  0  0  0
   -0.5764    1.0655    0.3882 C   0  0  0  0  0  0  0  0  0  0  0  0
   -1.5639    1.6559   -0.0445 O   0  0  0  0  0  0  0  0  0  0  0  0
    0.2793    1.7244    1.2520 N   0  0  0  0  0  0  0  0  0  0  0  0
    1.0359    1.1889    1.6689 H   0  0  0  0  0  0  0  0  0  0  0  0
    0.1166    3.1236    1.6286 C   0  0  0  0  0  0  0  0  0  0  0  0
   -0.8454    3.2766    2.1288 H   0  0  0  0  0  0  0  0  0  0  0  0
    0.9143    3.4259    2.3140 H   0  0  0  0  0  0  0  0  0  0  0  0
    0.1601    3.7664    0.7430 H   0  0  0  0  0  0  0  0  0  0  0  0
  1  2  1  0  0  0  0
  2  3  1  0  0  0  0
  2  4  1  0  0  0  0
  2  5  1  0  0  0  0
  5  6  2  0  0  0  0
  5  7  1  0  0  0  0
  7  8  1  0  0  0  0
  7  9  1  0  0  0  0
  9 10  1  0  0  0  0
  9 11  1  0  0  0  0
  9 22  1  0  0  0  0
 11 12  1  0  0  0  0
 11 13  1  0  0  0  0
 11 14  1  0  0  0  0
 14 15  1  0  0  0  0
 14 20  2  0  0  0  0
 15 16  1  0  0  0  0
 15 17  1  0  0  0  0
 17 18  1  0  0  0  0
 17 19  2  0  0  0  0
 19 20  1  0  0  0  0
 20 21  1  0  0  0  0
 22 23  2  0  0  0  0
 22 24  1  0  0  0  0
 24 25  1  0  0  0  0
 24 26  1  0  0  0  0
 26 27  1  0  0  0  0
 26 28  1  0  0  0  0
 26 29  1  0  0  0  0
M  END
$$$$

  -OEChem-04042215593D

 29 29  0     1  0  0  0  0  0999 V2000
   -3.5281   -3.6658    1.4443 H   0  0  0  0  0  0  0  0  0  0  0  0
   -3.4689   -2.7413    0.8631 C   0  0  0  0  0  0  0  0  0  0  0  0
   -4.1507   -2.0070    1.2985 H   0  0  0  0  0  0  0  0  0  0  0  0
   -3.7765   -2.9508   -0.1643 H   0  0  0  0  0  0  0  0  0  0  0  0
   -2.0502   -2.2052    0.8777 C   0  0  0  0  0  0  0  0  0  0  0  0
   -1.1734   -2.8107    1.4734 O   0  0  0  0  0  0  0  0  0  0  0  0
   -1.7531   -1.0360    0.2103 N   0  0  0  0  0  0  0  0  0  0  0  0
   -2.5224   -0.5391   -0.2301 H   0  0  0  0  0  0  0  0  0  0  0  0
   -0.4247   -0.4017    0.1818 C   0  0  1  0  0  0  0  0  0  0  0  0
    0.1829   -0.7963    1.0025 H   0  0  0  0  0  0  0  0  0  0  0  0
    0.2986   -0.7442   -1.1373 C   0  0  0  0  0  0  0  0  0  0  0  0
    1.2962   -0.2938   -1.1146 H   0  0  0  0  0  0  0  0  0  0  0  0
    0.4339   -1.8299   -1.1832 H   0  0  0  0  0  0  0  0  0  0  0  0
   -0.3971   -0.2954   -2.4046 C   0  0  0  0  0  0  0  0  0  0  0  0
   -1.5873    0.3827   -2.5576 N   0  0  0  0  0  0  0  0  0  0  0  0
   -2.0605    0.9051   -1.8158 H   0  0  0  0  0  0  0  0  0  0  0  0
   -1.8414    0.5283   -3.9069 C   0  0  0  0  0  0  0  0  0  0  0  0
   -2.6882    1.0624   -4.3283 H   0  0  0  0  0  0  0  0  0  0  0  0
   -0.9027   -0.0599   -4.6083 N   0  0  0  0  0  0  0  0  0  0  0  0
   -0.0019   -0.5805   -3.6855 C   0  0  0  0  0  0  0  0  0  0  0  0
    0.8903   -1.1419   -3.9466 H   0  0  0  0  0  0  0  0  0  0  0  0
   -0.5429    1.1189    0.4188 C   0  0  0  0  0  0  0  0  0  0  0  0
   -1.4964    1.7408   -0.0456 O   0  0  0  0  0  0  0  0  0  0  0  0
    0.3188    1.7616    1.2888 N   0  0  0  0  0  0  0  0  0  0  0  0
    1.0427    1.2043    1.7343 H   0  0  0  0  0  0  0  0  0  0  0  0
    0.1846    3.1655    1.6592 C   0  0  0  0  0  0  0  0  0  0  0  0
   -0.7859    3.3460    2.1334 H   0  0  0  0  0  0  0  0  0  0  0  0
    0.9716    3.4475    2.3652 H   0  0  0  0  0  0  0  0  0  0  0  0
    0.2693    3.8049    0.7742 H   0  0  0  0  0  0  0  0  0  0  0  0
  1  2  1  0  0  0  0
  2  3  1  0  0  0  0
  2  4  1  0  0  0  0
  2  5  1  0  0  0  0
  5  6  2  0  0  0  0
  5  7  1  0  0  0  0
  7  8  1  0  0  0  0
  7  9  1  0  0  0  0
  9 10  1  0  0  0  0
  9 11  1  0  0  0  0
  9 22  1  0  0  0  0
 11 12  1  0  0  0  0
 11 13  1  0  0  0  0
 11 14  1  0  0  0  0
 14 15  1  0  0  0  0
 14 20  2  0  0  0  0
 15 16  1  0  0  0  0
 15 17  1  0  0  0  0
 17 18  1  0  0  0  0
 17 19  2  0  0  0  0
 19 20  1  0  0  0  0
 20 21  1  0  0  0  0
 22 23  2  0  0  0  0
 22 24  1  0  0  0  0
 24 25  1  0  0  0  0
 24 26  1  0  0  0  0
 26 27  1  0  0  0  0
 26 28  1  0  0  0  0
 26 29  1  0  0  0  0
M  END
$$$$

  -OEChem-04042215593D

 29 29  0     1  0  0  0  0  0999 V2000
   -3.5223   -3.6815    1.3702 H   0  0  0  0  0  0  0  0  0  0  0  0
   -3.4642   -2.7520    0.7969 C   0  0  0  0  0  0  0  0  0  0  0  0
   -4.1722   -2.0339    1.2177 H   0  0  0  0  0  0  0  0  0  0  0  0
   -3.7387   -2.9603   -0.2401 H   0  0  0  0  0  0  0  0  0  0  0  0
   -2.0569   -2.1889    0.8561 C   0  0  0  0  0  0  0  0  0  0  0  0
   -1.1873   -2.7805    1.4760 O   0  0  0  0  0  0  0  0  0  0  0  0
   -1.7617   -1.0115    0.2019 N   0  0  0  0  0  0  0  0  0  0  0  0
   -2.5165   -0.5500   -0.2996 H   0  0  0  0  0  0  0  0  0  0  0  0
   -0.4390   -0.3663    0.1852 C   0  0  1  0  0  0  0  0  0  0  0  0
    0.1578   -0.7631    1.0125 H   0  0  0  0  0  0  0  0  0  0  0  0
    0.2994   -0.7298   -1.1190 C   0  0  0  0  0  0  0  0  0  0  0  0
    1.2882   -0.2607   -1.0966 H   0  0  0  0  0  0  0  0  0  0  0  0
    0.4552   -1.8136   -1.1430 H   0  0  0  0  0  0  0  0  0  0  0  0
   -0.3939   -0.3092   -2.3971 C   0  0  0  0  0  0  0  0  0  0  0  0
   -1.4294    0.5820   -2.5772 N   0  0  0  0  0  0  0  0  0  0  0  0
   -1.8021    1.2117   -1.8595 H   0  0  0  0  0  0  0  0  0  0  0  0
   -1.7671    0.6080   -3.9153 C   0  0  0  0  0  0  0  0  0  0  0  0
   -2.5335    1.2402   -4.3544 H   0  0  0  0  0  0  0  0  0  0  0  0
   -1.0222   -0.2413   -4.5813 N   0  0  0  0  0  0  0  0  0  0  0  0
   -0.1687   -0.8217   -3.6481 C   0  0  0  0  0  0  0  0  0  0  0  0
    0.5707   -1.5824   -3.8801 H   0  0  0  0  0  0  0  0  0  0  0  0
   -0.5352    1.1553    0.4322 C   0  0  0  0  0  0  0  0  0  0  0  0
   -1.4632    1.8063   -0.0425 O   0  0  0  0  0  0  0  0  0  0  0  0
    0.3369    1.7758    1.3083 N   0  0  0  0  0  0  0  0  0  0  0  0
    1.0423    1.1993    1.7589 H   0  0  0  0  0  0  0  0  0  0  0  0
    0.2380    3.1826    1.6796 C   0  0  0  0  0  0  0  0  0  0  0  0
   -0.7345    3.3915    2.1379 H   0  0  0  0  0  0  0  0  0  0  0  0
    1.0210    3.4395    2.3998 H   0  0  0  0  0  0  0  0  0  0  0  0
    0.3572    3.8210    0.7978 H   0  0  0  0  0  0  0  0  0  0  0  0
  1  2  1  0  0  0  0
  2  3  1  0  0  0  0
  2  4  1  0  0  0  0
  2  5  1  0  0  0  0
  5  6  2  0  0  0  0
  5  7  1  0  0  0  0
  7  8  1  0  0  0  0
  7  9  1  0  0  0  0
  9 10  1  0  0  0  0
  9 11  1  0  0  0  0
  9 22  1  0  0  0  0
 11 12  1  0  0  0  0
 11 13  1  0  0  0  0
 11 14  1  0  0  0  0
 14 15  1  0  0  0  0
 14 20  2  0  0  0  0
 15 16  1  0  0  0  0
 15 17  1  0  0  0  0
 17 18  1  0  0  0  0
 17 19  2  0  0  0  0
 19 20  1  0  0  0  0
 20 21  1  0  0  0  0
 22 23  2  0  0  0  0
 22 24  1  0  0  0  0
 24 25  1  0  0  0  0
 24 26  1  0  0  0  0
 26 27  1  0  0  0  0
 26 28  1  0  0  0  0
 26 29  1  0  0  0  0
M  END
$$$$

  -OEChem-04042215593D

 29 29  0     1  0  0  0  0  0999 V2000
   -3.5243   -3.6834    1.3305 H   0  0  0  0  0  0  0  0  0  0  0  0
   -3.4657   -2.7500    0.7636 C   0  0  0  0  0  0  0  0  0  0  0  0
   -4.1820   -2.0384    1.1810 H   0  0  0  0  0  0  0  0  0  0  0  0
   -3.7279   -2.9528   -0.2777 H   0  0  0  0  0  0  0  0  0  0  0  0
   -2.0629   -2.1787    0.8415 C   0  0  0  0  0  0  0  0  0  0  0  0
   -1.1978   -2.7655    1.4723 O   0  0  0  0  0  0  0  0  0  0  0  0
   -1.7662   -0.9998    0.1910 N   0  0  0  0  0  0  0  0  0  0  0  0
   -2.5146   -0.5471   -0.3289 H   0  0  0  0  0  0  0  0  0  0  0  0
   -0.4468   -0.3499    0.1824 C   0  0  1  0  0  0  0  0  0  0  0  0
    0.1408   -0.7454    1.0170 H   0  0  0  0  0  0  0  0  0  0  0  0
    0.3053   -0.7310   -1.1085 C   0  0  0  0  0  0  0  0  0  0  0  0
    1.2903   -0.2539   -1.0871 H   0  0  0  0  0  0  0  0  0  0  0  0
    0.4692   -1.8140   -1.1148 H   0  0  0  0  0  0  0  0  0  0  0  0
   -0.3859   -0.3296   -2.3933 C   0  0  0  0  0  0  0  0  0  0  0  0
   -1.2227    0.7373   -2.6358 N   0  0  0  0  0  0  0  0  0  0  0  0
   -1.4941    1.4511   -1.9519 H   0  0  0  0  0  0  0  0  0  0  0  0
   -1.6471    0.6829   -3.9480 C   0  0  0  0  0  0  0  0  0  0  0  0
   -2.3118    1.4003   -4.4207 H   0  0  0  0  0  0  0  0  0  0  0  0
   -1.1318   -0.3673   -4.5409 N   0  0  0  0  0  0  0  0  0  0  0  0
   -0.3490   -1.0066   -3.5845 C   0  0  0  0  0  0  0  0  0  0  0  0
    0.2092   -1.9217   -3.7583 H   0  0  0  0  0  0  0  0  0  0  0  0
   -0.5288    1.1727    0.4289 C   0  0  0  0  0  0  0  0  0  0  0  0
   -1.4310    1.8437   -0.0659 O   0  0  0  0  0  0  0  0  0  0  0  0
    0.3483    1.7803    1.3092 N   0  0  0  0  0  0  0  0  0  0  0  0
    1.0303    1.1894    1.7774 H   0  0  0  0  0  0  0  0  0  0  0  0
    0.2645    3.1870    1.6840 C   0  0  0  0  0  0  0  0  0  0  0  0
   -0.7063    3.4046    2.1419 H   0  0  0  0  0  0  0  0  0  0  0  0
    1.0492    3.4336    2.4057 H   0  0  0  0  0  0  0  0  0  0  0  0
    0.3916    3.8263    0.8041 H   0  0  0  0  0  0  0  0  0  0  0  0
  1  2  1  0  0  0  0
  2  3  1  0  0  0  0
  2  4  1  0  0  0  0
  2  5  1  0  0  0  0
  5  6  2  0  0  0  0
  5  7  1  0  0  0  0
  7  8  1  0  0  0  0
  7  9  1  0  0  0  0
  9 10  1  0  0  0  0
  9 11  1  0  0  0  0
  9 22  1  0  0  0  0
 11 12  1  0  0  0  0
 11 13  1  0  0  0  0
 11 14  1  0  0  0  0
 14 15  1  0  0  0  0
 14 20  2  0  0  0  0
 15 16  1  0  0  0  0
 15 17  1  0  0  0  0
 17 18  1  0  0  0  0
 17 19  2  0  0  0  0
 19 20  1  0  0  0  0
 20 21  1  0  0  0  0
 22 23  2  0  0  0  0
 22 24  1  0  0  0  0
 24 25  1  0  0  0  0
 24 26  1  0  0  0  0
 26 27  1  0  0  0  0
 26 28  1  0  0  0  0
 26 29  1  0  0  0  0
M  END
$$$$

  -OEChem-04042215593D

 29 29  0     1  0  0  0  0  0999 V2000
   -3.5366   -3.6852    1.3116 H   0  0  0  0  0  0  0  0  0  0  0  0
   -3.4733   -2.7513    0.7463 C   0  0  0  0  0  0  0  0  0  0  0  0
   -4.1951   -2.0408    1.1564 H   0  0  0  0  0  0  0  0  0  0  0  0
   -3.7237   -2.9535   -0.2979 H   0  0  0  0  0  0  0  0  0  0  0  0
   -2.0726   -2.1774    0.8405 C   0  0  0  0  0  0  0  0  0  0  0  0
   -1.2158   -2.7562    1.4899 O   0  0  0  0  0  0  0  0  0  0  0  0
   -1.7687   -1.0035    0.1847 N   0  0  0  0  0  0  0  0  0  0  0  0
   -2.5086   -0.5601   -0.3556 H   0  0  0  0  0  0  0  0  0  0  0  0
   -0.4504   -0.3524    0.1836 C   0  0  1  0  0  0  0  0  0  0  0  0
    0.1289   -0.7434    1.0260 H   0  0  0  0  0  0  0  0  0  0  0  0
    0.3120   -0.7448   -1.0970 C   0  0  0  0  0  0  0  0  0  0  0  0
    1.2978   -0.2697   -1.0772 H   0  0  0  0  0  0  0  0  0  0  0  0
    0.4730   -1.8282   -1.0934 H   0  0  0  0  0  0  0  0  0  0  0  0
   -0.3821   -0.3504   -2.3818 C   0  0  0  0  0  0  0  0  0  0  0  0
   -0.9881    0.8427   -2.7067 N   0  0  0  0  0  0  0  0  0  0  0  0
   -1.1459    1.6241   -2.0629 H   0  0  0  0  0  0  0  0  0  0  0  0
   -1.5014    0.7470   -3.9844 C   0  0  0  0  0  0  0  0  0  0  0  0
   -2.0493    1.5317   -4.4981 H   0  0  0  0  0  0  0  0  0  0  0  0
   -1.2394   -0.4370   -4.4846 N   0  0  0  0  0  0  0  0  0  0  0  0
   -0.5422   -1.1281   -3.4987 C   0  0  0  0  0  0  0  0  0  0  0  0
   -0.1799   -2.1467   -3.5999 H   0  0  0  0  0  0  0  0  0  0  0  0
   -0.5239    1.1728    0.4170 C   0  0  0  0  0  0  0  0  0  0  0  0
   -1.3939    1.8565   -0.1153 O   0  0  0  0  0  0  0  0  0  0  0  0
    0.3507    1.7798    1.3001 N   0  0  0  0  0  0  0  0  0  0  0  0
    1.0053    1.1822    1.7981 H   0  0  0  0  0  0  0  0  0  0  0  0
    0.2796    3.1918    1.6579 C   0  0  0  0  0  0  0  0  0  0  0  0
   -0.6918    3.4253    2.1066 H   0  0  0  0  0  0  0  0  0  0  0  0
    1.0626    3.4382    2.3815 H   0  0  0  0  0  0  0  0  0  0  0  0
    0.4190    3.8197    0.7716 H   0  0  0  0  0  0  0  0  0  0  0  0
  1  2  1  0  0  0  0
  2  3  1  0  0  0  0
  2  4  1  0  0  0  0
  2  5  1  0  0  0  0
  5  6  2  0  0  0  0
  5  7  1  0  0  0  0
  7  8  1  0  0  0  0
  7  9  1  0  0  0  0
  9 10  1  0  0  0  0
  9 11  1  0  0  0  0
  9 22  1  0  0  0  0
 11 12  1  0  0  0  0
 11 13  1  0  0  0  0
 11 14  1  0  0  0  0
 14 15  1  0  0  0  0
 14 20  2  0  0  0  0
 15 16  1  0  0  0  0
 15 17  1  0  0  0  0
 17 18  1  0  0  0  0
 17 19  2  0  0  0  0
 19 20  1  0  0  0  0
 20 21  1  0  0  0  0
 22 23  2  0  0  0  0
 22 24  1  0  0  0  0
 24 25  1  0  0  0  0
 24 26  1  0  0  0  0
 26 27  1  0  0  0  0
 26 28  1  0  0  0  0
 26 29  1  0  0  0  0
M  END
$$$$

  -OEChem-04042215593D

 29 29  0     1  0  0  0  0  0999 V2000
   -3.5501   -3.6873    1.3145 H   0  0  0  0  0  0  0  0  0  0  0  0
   -3.4829   -2.7563    0.7448 C   0  0  0  0  0  0  0  0  0  0  0  0
   -4.2070   -2.0436    1.1469 H   0  0  0  0  0  0  0  0  0  0  0  0
   -3.7275   -2.9640   -0.2998 H   0  0  0  0  0  0  0  0  0  0  0  0
   -2.0823   -2.1828    0.8444 C   0  0  0  0  0  0  0  0  0  0  0  0
   -1.2307   -2.7574    1.5043 O   0  0  0  0  0  0  0  0  0  0  0  0
   -1.7708   -1.0164    0.1787 N   0  0  0  0  0  0  0  0  0  0  0  0
   -2.5068   -0.5731   -0.3678 H   0  0  0  0  0  0  0  0  0  0  0  0
   -0.4532   -0.3641    0.1849 C   0  0  1  0  0  0  0  0  0  0  0  0
    0.1188   -0.7484    1.0354 H   0  0  0  0  0  0  0  0  0  0  0  0
    0.3198   -0.7612   -1.0866 C   0  0  0  0  0  0  0  0  0  0  0  0
    1.3082   -0.2913   -1.0677 H   0  0  0  0  0  0  0  0  0  0  0  0
    0.4744   -1.8456   -1.0798 H   0  0  0  0  0  0  0  0  0  0  0  0
   -0.3810   -0.3658   -2.3655 C   0  0  0  0  0  0  0  0  0  0  0  0
   -0.7415    0.8932   -2.7902 N   0  0  0  0  0  0  0  0  0  0  0  0
   -0.7587    1.7311   -2.2034 H   0  0  0  0  0  0  0  0  0  0  0  0
   -1.3447    0.7832   -4.0273 C   0  0  0  0  0  0  0  0  0  0  0  0
   -1.7631    1.6109   -4.5927 H   0  0  0  0  0  0  0  0  0  0  0  0
   -1.3526   -0.4700   -4.4154 N   0  0  0  0  0  0  0  0  0  0  0  0
   -0.7496   -1.1943   -3.3926 C   0  0  0  0  0  0  0  0  0  0  0  0
   -0.5961   -2.2693   -3.4063 H   0  0  0  0  0  0  0  0  0  0  0  0
   -0.5231    1.1636    0.3990 C   0  0  0  0  0  0  0  0  0  0  0  0
   -1.3603    1.8517   -0.1768 O   0  0  0  0  0  0  0  0  0  0  0  0
    0.3450    1.7763    1.2850 N   0  0  0  0  0  0  0  0  0  0  0  0
    0.9739    1.1781    1.8143 H   0  0  0  0  0  0  0  0  0  0  0  0
    0.2867    3.1957    1.6148 C   0  0  0  0  0  0  0  0  0  0  0  0
   -0.6850    3.4481    2.0523 H   0  0  0  0  0  0  0  0  0  0  0  0
    1.0676    3.4478    2.3387 H   0  0  0  0  0  0  0  0  0  0  0  0
    0.4385    3.8051    0.7178 H   0  0  0  0  0  0  0  0  0  0  0  0
  1  2  1  0  0  0  0
  2  3  1  0  0  0  0
  2  4  1  0  0  0  0
  2  5  1  0  0  0  0
  5  6  2  0  0  0  0
  5  7  1  0  0  0  0
  7  8  1  0  0  0  0
  7  9  1  0  0  0  0
  9 10  1  0  0  0  0
  9 11  1  0  0  0  0
  9 22  1  0  0  0  0
 11 12  1  0  0  0  0
 11 13  1  0  0  0  0
 11 14  1  0  0  0  0
 14 15  1  0  0  0  0
 14 20  2  0  0  0  0
 15 16  1  0  0  0  0
 15 17  1  0  0  0  0
 17 18  1  0  0  0  0
 17 19  2  0  0  0  0
 19 20  1  0  0  0  0
 20 21  1  0  0  0  0
 22 23  2  0  0  0  0
 22 24  1  0  0  0  0
 24 25  1  0  0  0  0
 24 26  1  0  0  0  0
 26 27  1  0  0  0  0
 26 28  1  0  0  0  0
 26 29  1  0  0  0  0
M  END
$$$$

  -OEChem-04042215593D

 29 29  0     1  0  0  0  0  0999 V2000
   -3.5682   -3.6739    1.3455 H   0  0  0  0  0  0  0  0  0  0  0  0
   -3.4945   -2.7488    0.7671 C   0  0  0  0  0  0  0  0  0  0  0  0
   -4.2048   -2.0230    1.1702 H   0  0  0  0  0  0  0  0  0  0  0  0
   -3.7528   -2.9618   -0.2731 H   0  0  0  0  0  0  0  0  0  0  0  0
   -2.0854   -2.1933    0.8474 C   0  0  0  0  0  0  0  0  0  0  0  0
   -1.2347   -2.7735    1.5034 O   0  0  0  0  0  0  0  0  0  0  0  0
   -1.7656   -1.0356    0.1711 N   0  0  0  0  0  0  0  0  0  0  0  0
   -2.5046   -0.5773   -0.3594 H   0  0  0  0  0  0  0  0  0  0  0  0
   -0.4470   -0.3858    0.1811 C   0  0  1  0  0  0  0  0  0  0  0  0
    0.1215   -0.7633    1.0369 H   0  0  0  0  0  0  0  0  0  0  0  0
    0.3326   -0.7791   -1.0858 C   0  0  0  0  0  0  0  0  0  0  0  0
    1.3261   -0.3202   -1.0656 H   0  0  0  0  0  0  0  0  0  0  0  0
    0.4751   -1.8652   -1.0843 H   0  0  0  0  0  0  0  0  0  0  0  0
   -0.3755   -0.3725   -2.3547 C   0  0  0  0  0  0  0  0  0  0  0  0
   -0.4921    0.8864   -2.8998 N   0  0  0  0  0  0  0  0  0  0  0  0
   -0.2960    1.7624   -2.4150 H   0  0  0  0  0  0  0  0  0  0  0  0
   -1.1911    0.7827   -4.0869 C   0  0  0  0  0  0  0  0  0  0  0  0
   -1.4712    1.6199   -4.7197 H   0  0  0  0  0  0  0  0  0  0  0  0
   -1.4793   -0.4729   -4.3355 N   0  0  0  0  0  0  0  0  0  0  0  0
   -0.9670   -1.2032   -3.2691 C   0  0  0  0  0  0  0  0  0  0  0  0
   -1.0284   -2.2833   -3.1751 H   0  0  0  0  0  0  0  0  0  0  0  0
   -0.5240    1.1433    0.3769 C   0  0  0  0  0  0  0  0  0  0  0  0
   -1.3553    1.8211   -0.2174 O   0  0  0  0  0  0  0  0  0  0  0  0
    0.3341    1.7684    1.2641 N   0  0  0  0  0  0  0  0  0  0  0  0
    0.9556    1.1773    1.8097 H   0  0  0  0  0  0  0  0  0  0  0  0
    0.2691    3.1916    1.5756 C   0  0  0  0  0  0  0  0  0  0  0  0
   -0.7076    3.4475    1.9998 H   0  0  0  0  0  0  0  0  0  0  0  0
    1.0420    3.4542    2.3043 H   0  0  0  0  0  0  0  0  0  0  0  0
    0.4292    3.7899    0.6725 H   0  0  0  0  0  0  0  0  0  0  0  0
  1  2  1  0  0  0  0
  2  3  1  0  0  0  0
  2  4  1  0  0  0  0
  2  5  1  0  0  0  0
  5  6  2  0  0  0  0
  5  7  1  0  0  0  0
  7  8  1  0  0  0  0
  7  9  1  0  0  0  0
  9 10  1  0  0  0  0
  9 11  1  0  0  0  0
  9 22  1  0  0  0  0
 11 12  1  0  0  0  0
 11 13  1  0  0  0  0
 11 14  1  0  0  0  0
 14 15  1  0  0  0  0
 14 20  2  0  0  0  0
 15 16  1  0  0  0  0
 15 17  1  0  0  0  0
 17 18  1  0  0  0  0
 17 19  2  0  0  0  0
 19 20  1  0  0  0  0
 20 21  1  0  0  0  0
 22 23  2  0  0  0  0
 22 24  1  0  0  0  0
 24 25  1  0  0  0  0
 24 26  1  0  0  0  0
 26 27  1  0  0  0  0
 26 28  1  0  0  0  0
 26 29  1  0  0  0  0
M  END
$$$$

  -OEChem-04042215593D

 29 29  0     1  0  0  0  0  0999 V2000
   -3.5833   -3.6599    1.3800 H   0  0  0  0  0  0  0  0  0  0  0  0
   -3.5035   -2.7393    0.7952 C   0  0  0  0  0  0  0  0  0  0  0  0
   -4.1965   -2.0003    1.2046 H   0  0  0  0  0  0  0  0  0  0  0  0
   -3.7799   -2.9545   -0.2400 H   0  0  0  0  0  0  0  0  0  0  0  0
   -2.0849   -2.2052    0.8520 C   0  0  0  0  0  0  0  0  0  0  0  0
   -1.2325   -2.7965    1.4962 O   0  0  0  0  0  0  0  0  0  0  0  0
   -1.7582   -1.0550    0.1665 N   0  0  0  0  0  0  0  0  0  0  0  0
   -2.5032   -0.5752   -0.3367 H   0  0  0  0  0  0  0  0  0  0  0  0
   -0.4370   -0.4094    0.1768 C   0  0  1  0  0  0  0  0  0  0  0  0
    0.1299   -0.7820    1.0360 H   0  0  0  0  0  0  0  0  0  0  0  0
    0.3469   -0.7955   -1.0894 C   0  0  0  0  0  0  0  0  0  0  0  0
    1.3439   -0.3445   -1.0645 H   0  0  0  0  0  0  0  0  0  0  0  0
    0.4804   -1.8826   -1.0965 H   0  0  0  0  0  0  0  0  0  0  0  0
   -0.3635   -0.3764   -2.3521 C   0  0  0  0  0  0  0  0  0  0  0  0
   -0.2529    0.8141   -3.0350 N   0  0  0  0  0  0  0  0  0  0  0  0
    0.2118    1.6562   -2.7010 H   0  0  0  0  0  0  0  0  0  0  0  0
   -1.0551    0.7456   -4.1581 C   0  0  0  0  0  0  0  0  0  0  0  0
   -1.2000    1.5527   -4.8703 H   0  0  0  0  0  0  0  0  0  0  0  0
   -1.6230   -0.4342   -4.2400 N   0  0  0  0  0  0  0  0  0  0  0  0
   -1.1911   -1.1459   -3.1266 C   0  0  0  0  0  0  0  0  0  0  0  0
   -1.4724   -2.1703   -2.9019 H   0  0  0  0  0  0  0  0  0  0  0  0
   -0.5249    1.1203    0.3584 C   0  0  0  0  0  0  0  0  0  0  0  0
   -1.3718    1.7802   -0.2329 O   0  0  0  0  0  0  0  0  0  0  0  0
    0.3227    1.7615    1.2444 N   0  0  0  0  0  0  0  0  0  0  0  0
    0.9468    1.1817    1.7987 H   0  0  0  0  0  0  0  0  0  0  0  0
    0.2400    3.1865    1.5430 C   0  0  0  0  0  0  0  0  0  0  0  0
   -0.7433    3.4351    1.9562 H   0  0  0  0  0  0  0  0  0  0  0  0
    1.0038    3.4641    2.2760 H   0  0  0  0  0  0  0  0  0  0  0  0
    0.4013    3.7784    0.6359 H   0  0  0  0  0  0  0  0  0  0  0  0
  1  2  1  0  0  0  0
  2  3  1  0  0  0  0
  2  4  1  0  0  0  0
  2  5  1  0  0  0  0
  5  6  2  0  0  0  0
  5  7  1  0  0  0  0
  7  8  1  0  0  0  0
  7  9  1  0  0  0  0
  9 10  1  0  0  0  0
  9 11  1  0  0  0  0
  9 22  1  0  0  0  0
 11 12  1  0  0  0  0
 11 13  1  0  0  0  0
 11 14  1  0  0  0  0
 14 15  1  0  0  0  0
 14 20  2  0  0  0  0
 15 16  1  0  0  0  0
 15 17  1  0  0  0  0
 17 18  1  0  0  0  0
 17 19  2  0  0  0  0
 19 20  1  0  0  0  0
 20 21  1  0  0  0  0
 22 23  2  0  0  0  0
 22 24  1  0  0  0  0
 24 25  1  0  0  0  0
 24 26  1  0  0  0  0
 26 27  1  0  0  0  0
 26 28  1  0  0  0  0
 26 29  1  0  0  0  0
M  END
$$$$

  -OEChem-04042215593D

 29 29  0     1  0  0  0  0  0999 V2000
   -3.5892   -3.6375    1.4478 H   0  0  0  0  0  0  0  0  0  0  0  0
   -3.5124   -2.7243    0.8512 C   0  0  0  0  0  0  0  0  0  0  0  0
   -4.1835   -1.9713    1.2712 H   0  0  0  0  0  0  0  0  0  0  0  0
   -3.8202   -2.9456   -0.1736 H   0  0  0  0  0  0  0  0  0  0  0  0
   -2.0851   -2.2114    0.8632 C   0  0  0  0  0  0  0  0  0  0  0  0
   -1.2211   -2.8181    1.4767 O   0  0  0  0  0  0  0  0  0  0  0  0
   -1.7629   -1.0635    0.1718 N   0  0  0  0  0  0  0  0  0  0  0  0
   -2.5217   -0.5535   -0.2787 H   0  0  0  0  0  0  0  0  0  0  0  0
   -0.4387   -0.4241    0.1677 C   0  0  1  0  0  0  0  0  0  0  0  0
    0.1347   -0.7958    1.0228 H   0  0  0  0  0  0  0  0  0  0  0  0
    0.3428   -0.7992   -1.1038 C   0  0  0  0  0  0  0  0  0  0  0  0
    1.3413   -0.3525   -1.0724 H   0  0  0  0  0  0  0  0  0  0  0  0
    0.4732   -1.8866   -1.1201 H   0  0  0  0  0  0  0  0  0  0  0  0
   -0.3604   -0.3749   -2.3689 C   0  0  0  0  0  0  0  0  0  0  0  0
   -0.0493    0.6809   -3.1963 N   0  0  0  0  0  0  0  0  0  0  0  0
    0.6354    1.4105   -3.0114 H   0  0  0  0  0  0  0  0  0  0  0  0
   -0.9155    0.6586   -4.2735 C   0  0  0  0  0  0  0  0  0  0  0  0
   -0.9288    1.3884   -5.0780 H   0  0  0  0  0  0  0  0  0  0  0  0
   -1.7209   -0.3731   -4.1878 N   0  0  0  0  0  0  0  0  0  0  0  0
   -1.3778   -1.0301   -3.0118 C   0  0  0  0  0  0  0  0  0  0  0  0
   -1.8464   -1.9428   -2.6566 H   0  0  0  0  0  0  0  0  0  0  0  0
   -0.5347    1.1046    0.3491 C   0  0  0  0  0  0  0  0  0  0  0  0
   -1.4168    1.7482   -0.2072 O   0  0  0  0  0  0  0  0  0  0  0  0
    0.3166    1.7530    1.2265 N   0  0  0  0  0  0  0  0  0  0  0  0
    0.9632    1.1807    1.7624 H   0  0  0  0  0  0  0  0  0  0  0  0
    0.2093    3.1726    1.5421 C   0  0  0  0  0  0  0  0  0  0  0  0
   -0.7646    3.3933    1.9919 H   0  0  0  0  0  0  0  0  0  0  0  0
    0.9914    3.4629    2.2503 H   0  0  0  0  0  0  0  0  0  0  0  0
    0.3235    3.7761    0.6354 H   0  0  0  0  0  0  0  0  0  0  0  0
  1  2  1  0  0  0  0
  2  3  1  0  0  0  0
  2  4  1  0  0  0  0
  2  5  1  0  0  0  0
  5  6  2  0  0  0  0
  5  7  1  0  0  0  0
  7  8  1  0  0  0  0
  7  9  1  0  0  0  0
  9 10  1  0  0  0  0
  9 11  1  0  0  0  0
  9 22  1  0  0  0  0
 11 12  1  0  0  0  0
 11 13  1  0  0  0  0
 11 14  1  0  0  0  0
 14 15  1  0  0  0  0
 14 20  2  0  0  0  0
 15 16  1  0  0  0  0
 15 17  1  0  0  0  0
 17 18  1  0  0  0  0
 17 19  2  0  0  0  0
 19 20  1  0  0  0  0
 20 21  1  0  0  0  0
 22 23  2  0  0  0  0
 22 24  1  0  0  0  0
 24 25  1  0  0  0  0
 24 26  1  0  0  0  0
 26 27  1  0  0  0  0
 26 28  1  0  0  0  0
 26 29  1  0  0  0  0
M  END
$$$$

  -OEChem-04042215593D

 29 29  0     1  0  0  0  0  0999 V2000
   -3.5846   -3.6300    1.5260 H   0  0  0  0  0  0  0  0  0  0  0  0
   -3.5152   -2.7217    0.9210 C   0  0  0  0  0  0  0  0  0  0  0  0
   -4.1611   -1.9566    1.3585 H   0  0  0  0  0  0  0  0  0  0  0  0
   -3.8608   -2.9450   -0.0914 H   0  0  0  0  0  0  0  0  0  0  0  0
   -2.0816   -2.2279    0.8812 C   0  0  0  0  0  0  0  0  0  0  0  0
   -1.2030   -2.8488    1.4584 O   0  0  0  0  0  0  0  0  0  0  0  0
   -1.7725   -1.0784    0.1862 N   0  0  0  0  0  0  0  0  0  0  0  0
   -2.5453   -0.5451   -0.2108 H   0  0  0  0  0  0  0  0  0  0  0  0
   -0.4480   -0.4405    0.1613 C   0  0  1  0  0  0  0  0  0  0  0  0
    0.1365   -0.8114    1.0090 H   0  0  0  0  0  0  0  0  0  0  0  0
    0.3291   -0.7987   -1.1198 C   0  0  0  0  0  0  0  0  0  0  0  0
    1.3222   -0.3408   -1.0785 H   0  0  0  0  0  0  0  0  0  0  0  0
    0.4733   -1.8841   -1.1451 H   0  0  0  0  0  0  0  0  0  0  0  0
   -0.3589   -0.3765   -2.3966 C   0  0  0  0  0  0  0  0  0  0  0  0
    0.1234    0.4882   -3.3545 N   0  0  0  0  0  0  0  0  0  0  0  0
    0.9837    1.0286   -3.3022 H   0  0  0  0  0  0  0  0  0  0  0  0
   -0.7928    0.5521   -4.3875 C   0  0  0  0  0  0  0  0  0  0  0  0
   -0.6905    1.1704   -5.2747 H   0  0  0  0  0  0  0  0  0  0  0  0
   -1.8043   -0.2463   -4.1471 N   0  0  0  0  0  0  0  0  0  0  0  0
   -1.5437   -0.8342   -2.9145 C   0  0  0  0  0  0  0  0  0  0  0  0
   -2.1856   -1.5697   -2.4394 H   0  0  0  0  0  0  0  0  0  0  0  0
   -0.5554    1.0862    0.3488 C   0  0  0  0  0  0  0  0  0  0  0  0
   -1.4693    1.7141   -0.1728 O   0  0  0  0  0  0  0  0  0  0  0  0
    0.3023    1.7426    1.2140 N   0  0  0  0  0  0  0  0  0  0  0  0
    0.9809    1.1808    1.7204 H   0  0  0  0  0  0  0  0  0  0  0  0
    0.1834    3.1603    1.5344 C   0  0  0  0  0  0  0  0  0  0  0  0
   -0.7858    3.3681    1.9998 H   0  0  0  0  0  0  0  0  0  0  0  0
    0.9730    3.4585    2.2307 H   0  0  0  0  0  0  0  0  0  0  0  0
    0.2758    3.7669    0.6275 H   0  0  0  0  0  0  0  0  0  0  0  0
  1  2  1  0  0  0  0
  2  3  1  0  0  0  0
  2  4  1  0  0  0  0
  2  5  1  0  0  0  0
  5  6  2  0  0  0  0
  5  7  1  0  0  0  0
  7  8  1  0  0  0  0
  7  9  1  0  0  0  0
  9 10  1  0  0  0  0
  9 11  1  0  0  0  0
  9 22  1  0  0  0  0
 11 12  1  0  0  0  0
 11 13  1  0  0  0  0
 11 14  1  0  0  0  0
 14 15  1  0  0  0  0
 14 20  2  0  0  0  0
 15 16  1  0  0  0  0
 15 17  1  0  0  0  0
 17 18  1  0  0  0  0
 17 19  2  0  0  0  0
 19 20  1  0  0  0  0
 20 21  1  0  0  0  0
 22 23  2  0  0  0  0
 22 24  1  0  0  0  0
 24 25  1  0  0  0  0
 24 26  1  0  0  0  0
 26 27  1  0  0  0  0
 26 28  1  0  0  0  0
 26 29  1  0  0  0  0
M  END
$$$$

  -OEChem-04042215593D

 29 29  0     1  0  0  0  0  0999 V2000
   -3.5585   -3.6383    1.6149 H   0  0  0  0  0  0  0  0  0  0  0  0
   -3.5075   -2.7319    1.0054 C   0  0  0  0  0  0  0  0  0  0  0  0
   -4.1298   -1.9615    1.4671 H   0  0  0  0  0  0  0  0  0  0  0  0
   -3.8953   -2.9547    0.0084 H   0  0  0  0  0  0  0  0  0  0  0  0
   -2.0731   -2.2489    0.9056 C   0  0  0  0  0  0  0  0  0  0  0  0
   -1.1753   -2.8791    1.4421 O   0  0  0  0  0  0  0  0  0  0  0  0
   -1.7852   -1.0977    0.2040 N   0  0  0  0  0  0  0  0  0  0  0  0
   -2.5727   -0.5460   -0.1345 H   0  0  0  0  0  0  0  0  0  0  0  0
   -0.4623   -0.4581    0.1524 C   0  0  1  0  0  0  0  0  0  0  0  0
    0.1376   -0.8255    0.9908 H   0  0  0  0  0  0  0  0  0  0  0  0
    0.3026   -0.8036   -1.1406 C   0  0  0  0  0  0  0  0  0  0  0  0
    1.2875   -0.3289   -1.0933 H   0  0  0  0  0  0  0  0  0  0  0  0
    0.4666   -1.8859   -1.1687 H   0  0  0  0  0  0  0  0  0  0  0  0
   -0.3698   -0.3923   -2.4329 C   0  0  0  0  0  0  0  0  0  0  0  0
    0.2481    0.2259   -3.4987 N   0  0  0  0  0  0  0  0  0  0  0  0
    1.2242    0.5079   -3.5487 H   0  0  0  0  0  0  0  0  0  0  0  0
   -0.6878    0.4312   -4.4946 C   0  0  0  0  0  0  0  0  0  0  0  0
   -0.4881    0.9060   -5.4509 H   0  0  0  0  0  0  0  0  0  0  0  0
   -1.8539   -0.0345   -4.1219 N   0  0  0  0  0  0  0  0  0  0  0  0
   -1.6728   -0.5421   -2.8399 C   0  0  0  0  0  0  0  0  0  0  0  0
   -2.4615   -1.0063   -2.2577 H   0  0  0  0  0  0  0  0  0  0  0  0
   -0.5796    1.0668    0.3449 C   0  0  0  0  0  0  0  0  0  0  0  0
   -1.5240    1.6793   -0.1396 O   0  0  0  0  0  0  0  0  0  0  0  0
    0.2884    1.7311    1.1932 N   0  0  0  0  0  0  0  0  0  0  0  0
    0.9981    1.1805    1.6681 H   0  0  0  0  0  0  0  0  0  0  0  0
    0.1551    3.1446    1.5256 C   0  0  0  0  0  0  0  0  0  0  0  0
   -0.8047    3.3334    2.0180 H   0  0  0  0  0  0  0  0  0  0  0  0
    0.9581    3.4513    2.2028 H   0  0  0  0  0  0  0  0  0  0  0  0
    0.2137    3.7584    0.6205 H   0  0  0  0  0  0  0  0  0  0  0  0
  1  2  1  0  0  0  0
  2  3  1  0  0  0  0
  2  4  1  0  0  0  0
  2  5  1  0  0  0  0
  5  6  2  0  0  0  0
  5  7  1  0  0  0  0
  7  8  1  0  0  0  0
  7  9  1  0  0  0  0
  9 10  1  0  0  0  0
  9 11  1  0  0  0  0
  9 22  1  0  0  0  0
 11 12  1  0  0  0  0
 11 13  1  0  0  0  0
 11 14  1  0  0  0  0
 14 15  1  0  0  0  0
 14 20  2  0  0  0  0
 15 16  1  0  0  0  0
 15 17  1  0  0  0  0
 17 18  1  0  0  0  0
 17 19  2  0  0  0  0
 19 20  1  0  0  0  0
 20 21  1  0  0  0  0
 22 23  2  0  0  0  0
 22 24  1  0  0  0  0
 24 25  1  0  0  0  0
 24 26  1  0  0  0  0
 26 27  1  0  0  0  0
 26 28  1  0  0  0  0
 26 29  1  0  0  0  0
M  END
$$$$

  -OEChem-04042215593D

 29 29  0     1  0  0  0  0  0999 V2000
   -3.5335   -3.6612    1.6482 H   0  0  0  0  0  0  0  0  0  0  0  0
   -3.4949   -2.7570    1.0345 C   0  0  0  0  0  0  0  0  0  0  0  0
   -4.1186   -1.9895    1.4989 H   0  0  0  0  0  0  0  0  0  0  0  0
   -3.8900   -2.9870    0.0420 H   0  0  0  0  0  0  0  0  0  0  0  0
   -2.0652   -2.2642    0.9191 C   0  0  0  0  0  0  0  0  0  0  0  0
   -1.1561   -2.8942    1.4366 O   0  0  0  0  0  0  0  0  0  0  0  0
   -1.7946   -1.1057    0.2226 N   0  0  0  0  0  0  0  0  0  0  0  0
   -2.5913   -0.5542   -0.0927 H   0  0  0  0  0  0  0  0  0  0  0  0
   -0.4753   -0.4595    0.1554 C   0  0  1  0  0  0  0  0  0  0  0  0
    0.1385   -0.8299    0.9825 H   0  0  0  0  0  0  0  0  0  0  0  0
    0.2696   -0.8019   -1.1506 C   0  0  0  0  0  0  0  0  0  0  0  0
    1.2508   -0.3189   -1.1116 H   0  0  0  0  0  0  0  0  0  0  0  0
    0.4417   -1.8830   -1.1769 H   0  0  0  0  0  0  0  0  0  0  0  0
   -0.4034   -0.4011   -2.4480 C   0  0  0  0  0  0  0  0  0  0  0  0
    0.2638   -0.0689   -3.6082 N   0  0  0  0  0  0  0  0  0  0  0  0
    1.2720   -0.0716   -3.7445 H   0  0  0  0  0  0  0  0  0  0  0  0
   -0.6640    0.2704   -4.5742 C   0  0  0  0  0  0  0  0  0  0  0  0
   -0.4265    0.5692   -5.5913 H   0  0  0  0  0  0  0  0  0  0  0  0
   -1.8758    0.1756   -4.0876 N   0  0  0  0  0  0  0  0  0  0  0  0
   -1.7292   -0.2216   -2.7625 C   0  0  0  0  0  0  0  0  0  0  0  0
   -2.5621   -0.3671   -2.0836 H   0  0  0  0  0  0  0  0  0  0  0  0
   -0.5955    1.0637    0.3624 C   0  0  0  0  0  0  0  0  0  0  0  0
   -1.5564    1.6716   -0.0944 O   0  0  0  0  0  0  0  0  0  0  0  0
    0.2816    1.7278    1.2015 N   0  0  0  0  0  0  0  0  0  0  0  0
    1.0133    1.1828    1.6484 H   0  0  0  0  0  0  0  0  0  0  0  0
    0.1587    3.1439    1.5275 C   0  0  0  0  0  0  0  0  0  0  0  0
   -0.8029    3.3447    2.0116 H   0  0  0  0  0  0  0  0  0  0  0  0
    0.9587    3.4461    2.2101 H   0  0  0  0  0  0  0  0  0  0  0  0
    0.2306    3.7527    0.6200 H   0  0  0  0  0  0  0  0  0  0  0  0
  1  2  1  0  0  0  0
  2  3  1  0  0  0  0
  2  4  1  0  0  0  0
  2  5  1  0  0  0  0
  5  6  2  0  0  0  0
  5  7  1  0  0  0  0
  7  8  1  0  0  0  0
  7  9  1  0  0  0  0
  9 10  1  0  0  0  0
  9 11  1  0  0  0  0
  9 22  1  0  0  0  0
 11 12  1  0  0  0  0
 11 13  1  0  0  0  0
 11 14  1  0  0  0  0
 14 15  1  0  0  0  0
 14 20  2  0  0  0  0
 15 16  1  0  0  0  0
 15 17  1  0  0  0  0
 17 18  1  0  0  0  0
 17 19  2  0  0  0  0
 19 20  1  0  0  0  0
 20 21  1  0  0  0  0
 22 23  2  0  0  0  0
 22 24  1  0  0  0  0
 24 25  1  0  0  0  0
 24 26  1  0  0  0  0
 26 27  1  0  0  0  0
 26 28  1  0  0  0  0
 26 29  1  0  0  0  0
M  END
$$$$

  -OEChem-04042215593D

 29 29  0     1  0  0  0  0  0999 V2000
   -3.5171   -3.6634    1.6413 H   0  0  0  0  0  0  0  0  0  0  0  0
   -3.4893   -2.7557    1.0322 C   0  0  0  0  0  0  0  0  0  0  0  0
   -4.1092   -1.9926    1.5091 H   0  0  0  0  0  0  0  0  0  0  0  0
   -3.8965   -2.9814    0.0436 H   0  0  0  0  0  0  0  0  0  0  0  0
   -2.0629   -2.2571    0.9016 C   0  0  0  0  0  0  0  0  0  0  0  0
   -1.1447   -2.8915    1.3974 O   0  0  0  0  0  0  0  0  0  0  0  0
   -1.8061   -1.0861    0.2208 N   0  0  0  0  0  0  0  0  0  0  0  0
   -2.6093   -0.5383   -0.0835 H   0  0  0  0  0  0  0  0  0  0  0  0
   -0.4907   -0.4311    0.1515 C   0  0  1  0  0  0  0  0  0  0  0  0
    0.1265   -0.8098    0.9724 H   0  0  0  0  0  0  0  0  0  0  0  0
    0.2480   -0.7774   -1.1563 C   0  0  0  0  0  0  0  0  0  0  0  0
    1.2294   -0.2937   -1.1272 H   0  0  0  0  0  0  0  0  0  0  0  0
    0.4192   -1.8587   -1.1751 H   0  0  0  0  0  0  0  0  0  0  0  0
   -0.4301   -0.3891   -2.4543 C   0  0  0  0  0  0  0  0  0  0  0  0
    0.1979   -0.3497   -3.6811 N   0  0  0  0  0  0  0  0  0  0  0  0
    1.1698   -0.5864   -3.8669 H   0  0  0  0  0  0  0  0  0  0  0  0
   -0.7149    0.0543   -4.6362 C   0  0  0  0  0  0  0  0  0  0  0  0
   -0.5018    0.1684   -5.6952 H   0  0  0  0  0  0  0  0  0  0  0  0
   -1.8790    0.2772   -4.0801 N   0  0  0  0  0  0  0  0  0  0  0  0
   -1.7144    0.0211   -2.7223 C   0  0  0  0  0  0  0  0  0  0  0  0
   -2.5050    0.1302   -1.9875 H   0  0  0  0  0  0  0  0  0  0  0  0
   -0.5992    1.0900    0.3821 C   0  0  0  0  0  0  0  0  0  0  0  0
   -1.5656    1.7109   -0.0441 O   0  0  0  0  0  0  0  0  0  0  0  0
    0.2930    1.7333    1.2215 N   0  0  0  0  0  0  0  0  0  0  0  0
    1.0280    1.1755    1.6468 H   0  0  0  0  0  0  0  0  0  0  0  0
    0.1836    3.1431    1.5781 C   0  0  0  0  0  0  0  0  0  0  0  0
   -0.7687    3.3392    2.0822 H   0  0  0  0  0  0  0  0  0  0  0  0
    0.9967    3.4267    2.2533 H   0  0  0  0  0  0  0  0  0  0  0  0
    0.2441    3.7704    0.6823 H   0  0  0  0  0  0  0  0  0  0  0  0
  1  2  1  0  0  0  0
  2  3  1  0  0  0  0
  2  4  1  0  0  0  0
  2  5  1  0  0  0  0
  5  6  2  0  0  0  0
  5  7  1  0  0  0  0
  7  8  1  0  0  0  0
  7  9  1  0  0  0  0
  9 10  1  0  0  0  0
  9 11  1  0  0  0  0
  9 22  1  0  0  0  0
 11 12  1  0  0  0  0
 11 13  1  0  0  0  0
 11 14  1  0  0  0  0
 14 15  1  0  0  0  0
 14 20  2  0  0  0  0
 15 16  1  0  0  0  0
 15 17  1  0  0  0  0
 17 18  1  0  0  0  0
 17 19  2  0  0  0  0
 19 20  1  0  0  0  0
 20 21  1  0  0  0  0
 22 23  2  0  0  0  0
 22 24  1  0  0  0  0
 24 25  1  0  0  0  0
 24 26  1  0  0  0  0
 26 27  1  0  0  0  0
 26 28  1  0  0  0  0
 26 29  1  0  0  0  0
M  END
$$$$

  -OEChem-04042215593D

 29 29  0     1  0  0  0  0  0999 V2000
   -3.4584   -3.6874    1.4893 H   0  0  0  0  0  0  0  0  0  0  0  0
   -3.4646   -2.7327    0.9561 C   0  0  0  0  0  0  0  0  0  0  0  0
   -4.0751   -2.0203    1.5164 H   0  0  0  0  0  0  0  0  0  0  0  0
   -3.9062   -2.8833   -0.0319 H   0  0  0  0  0  0  0  0  0  0  0  0
   -2.0500   -2.2045    0.8143 C   0  0  0  0  0  0  0  0  0  0  0  0
   -1.1079   -2.8577    1.2357 O   0  0  0  0  0  0  0  0  0  0  0  0
   -1.8299   -0.9901    0.1991 N   0  0  0  0  0  0  0  0  0  0  0  0
   -2.6495   -0.4436   -0.0607 H   0  0  0  0  0  0  0  0  0  0  0  0
   -0.5284   -0.3092    0.1270 C   0  0  1  0  0  0  0  0  0  0  0  0
    0.0820   -0.7166    0.9391 H   0  0  0  0  0  0  0  0  0  0  0  0
    0.2234   -0.6801   -1.1664 C   0  0  0  0  0  0  0  0  0  0  0  0
    1.2706   -0.3910   -1.0341 H   0  0  0  0  0  0  0  0  0  0  0  0
    0.2013   -1.7695   -1.2755 H   0  0  0  0  0  0  0  0  0  0  0  0
   -0.2557   -0.0615   -2.4623 C   0  0  0  0  0  0  0  0  0  0  0  0
    0.3267   -0.3056   -3.6881 N   0  0  0  0  0  0  0  0  0  0  0  0
    1.1480   -0.8818   -3.8587 H   0  0  0  0  0  0  0  0  0  0  0  0
   -0.3973    0.3476   -4.6659 C   0  0  0  0  0  0  0  0  0  0  0  0
   -0.1639    0.3417   -5.7267 H   0  0  0  0  0  0  0  0  0  0  0  0
   -1.4133    0.9730   -4.1280 N   0  0  0  0  0  0  0  0  0  0  0  0
   -1.3475    0.7194   -2.7610 C   0  0  0  0  0  0  0  0  0  0  0  0
   -2.0903    1.0665   -2.0526 H   0  0  0  0  0  0  0  0  0  0  0  0
   -0.5988    1.1992    0.4454 C   0  0  0  0  0  0  0  0  0  0  0  0
   -1.6055    1.8420    0.1746 O   0  0  0  0  0  0  0  0  0  0  0  0
    0.3419    1.7726    1.2832 N   0  0  0  0  0  0  0  0  0  0  0  0
    1.1099    1.1884    1.6012 H   0  0  0  0  0  0  0  0  0  0  0  0
    0.2415    3.1375    1.7870 C   0  0  0  0  0  0  0  0  0  0  0  0
   -0.6570    3.2538    2.4021 H   0  0  0  0  0  0  0  0  0  0  0  0
    1.1145    3.3799    2.4003 H   0  0  0  0  0  0  0  0  0  0  0  0
    0.1950    3.8497    0.9563 H   0  0  0  0  0  0  0  0  0  0  0  0
  1  2  1  0  0  0  0
  2  3  1  0  0  0  0
  2  4  1  0  0  0  0
  2  5  1  0  0  0  0
  5  6  2  0  0  0  0
  5  7  1  0  0  0  0
  7  8  1  0  0  0  0
  7  9  1  0  0  0  0
  9 10  1  0  0  0  0
  9 11  1  0  0  0  0
  9 22  1  0  0  0  0
 11 12  1  0  0  0  0
 11 13  1  0  0  0  0
 11 14  1  0  0  0  0
 14 15  1  0  0  0  0
 14 20  2  0  0  0  0
 15 16  1  0  0  0  0
 15 17  1  0  0  0  0
 17 18  1  0  0  0  0
 17 19  2  0  0  0  0
 19 20  1  0  0  0  0
 20 21  1  0  0  0  0
 22 23  2  0  0  0  0
 22 24  1  0  0  0  0
 24 25  1  0  0  0  0
 24 26  1  0  0  0  0
 26 27  1  0  0  0  0
 26 28  1  0  0  0  0
 26 29  1  0  0  0  0
M  END
$$$$

  -OEChem-04042215593D

 29 29  0     1  0  0  0  0  0999 V2000
   -3.4417   -3.6895    1.4760 H   0  0  0  0  0  0  0  0  0  0  0  0
   -3.4556   -2.7272    0.9567 C   0  0  0  0  0  0  0  0  0  0  0  0
   -4.0543   -2.0220    1.5383 H   0  0  0  0  0  0  0  0  0  0  0  0
   -3.9158   -2.8625   -0.0251 H   0  0  0  0  0  0  0  0  0  0  0  0
   -2.0429   -2.1985    0.7974 C   0  0  0  0  0  0  0  0  0  0  0  0
   -1.0937   -2.8597    1.1894 O   0  0  0  0  0  0  0  0  0  0  0  0
   -1.8338   -0.9723    0.2022 N   0  0  0  0  0  0  0  0  0  0  0  0
   -2.6582   -0.4235   -0.0370 H   0  0  0  0  0  0  0  0  0  0  0  0
   -0.5365   -0.2845    0.1212 C   0  0  1  0  0  0  0  0  0  0  0  0
    0.0806   -0.6992    0.9247 H   0  0  0  0  0  0  0  0  0  0  0  0
    0.2100   -0.6508   -1.1773 C   0  0  0  0  0  0  0  0  0  0  0  0
    1.2599   -0.3688   -1.0511 H   0  0  0  0  0  0  0  0  0  0  0  0
    0.1814   -1.7409   -1.2787 H   0  0  0  0  0  0  0  0  0  0  0  0
   -0.2641   -0.0456   -2.4829 C   0  0  0  0  0  0  0  0  0  0  0  0
    0.1292   -0.5277   -3.7140 N   0  0  0  0  0  0  0  0  0  0  0  0
    0.7827   -1.2904   -3.8780 H   0  0  0  0  0  0  0  0  0  0  0  0
   -0.5171    0.1842   -4.7047 C   0  0  0  0  0  0  0  0  0  0  0  0
   -0.3923    0.0271   -5.7722 H   0  0  0  0  0  0  0  0  0  0  0  0
   -1.3079    1.0775   -4.1678 N   0  0  0  0  0  0  0  0  0  0  0  0
   -1.1744    0.9397   -2.7892 C   0  0  0  0  0  0  0  0  0  0  0  0
   -1.7416    1.5288   -2.0810 H   0  0  0  0  0  0  0  0  0  0  0  0
   -0.6099    1.2169    0.4689 C   0  0  0  0  0  0  0  0  0  0  0  0
   -1.6381    1.8478    0.2562 O   0  0  0  0  0  0  0  0  0  0  0  0
    0.3417    1.7798    1.3017 N   0  0  0  0  0  0  0  0  0  0  0  0
    1.1263    1.1989    1.5829 H   0  0  0  0  0  0  0  0  0  0  0  0
    0.2337    3.1268    1.8504 C   0  0  0  0  0  0  0  0  0  0  0  0
   -0.6465    3.2078    2.4968 H   0  0  0  0  0  0  0  0  0  0  0  0
    1.1217    3.3661    2.4433 H   0  0  0  0  0  0  0  0  0  0  0  0
    0.1487    3.8634    1.0445 H   0  0  0  0  0  0  0  0  0  0  0  0
  1  2  1  0  0  0  0
  2  3  1  0  0  0  0
  2  4  1  0  0  0  0
  2  5  1  0  0  0  0
  5  6  2  0  0  0  0
  5  7  1  0  0  0  0
  7  8  1  0  0  0  0
  7  9  1  0  0  0  0
  9 10  1  0  0  0  0
  9 11  1  0  0  0  0
  9 22  1  0  0  0  0
 11 12  1  0  0  0  0
 11 13  1  0  0  0  0
 11 14  1  0  0  0  0
 14 15  1  0  0  0  0
 14 20  2  0  0  0  0
 15 16  1  0  0  0  0
 15 17  1  0  0  0  0
 17 18  1  0  0  0  0
 17 19  2  0  0  0  0
 19 20  1  0  0  0  0
 20 21  1  0  0  0  0
 22 23  2  0  0  0  0
 22 24  1  0  0  0  0
 24 25  1  0  0  0  0
 24 26  1  0  0  0  0
 26 27  1  0  0  0  0
 26 28  1  0  0  0  0
 26 29  1  0  0  0  0
M  END
$$$$

  -OEChem-04042215593D

 29 29  0     1  0  0  0  0  0999 V2000
   -3.4555   -3.6578    1.5093 H   0  0  0  0  0  0  0  0  0  0  0  0
   -3.4583   -2.7035    0.9754 C   0  0  0  0  0  0  0  0  0  0  0  0
   -4.0531   -1.9840    1.5433 H   0  0  0  0  0  0  0  0  0  0  0  0
   -3.9147   -2.8490   -0.0066 H   0  0  0  0  0  0  0  0  0  0  0  0
   -2.0403   -2.1906    0.8142 C   0  0  0  0  0  0  0  0  0  0  0  0
   -1.0980   -2.8610    1.2074 O   0  0  0  0  0  0  0  0  0  0  0  0
   -1.8177   -0.9712    0.2112 N   0  0  0  0  0  0  0  0  0  0  0  0
   -2.6351   -0.4131   -0.0318 H   0  0  0  0  0  0  0  0  0  0  0  0
   -0.5126   -0.2998    0.1243 C   0  0  1  0  0  0  0  0  0  0  0  0
    0.1120   -0.7167    0.9208 H   0  0  0  0  0  0  0  0  0  0  0  0
    0.2025   -0.6768   -1.1900 C   0  0  0  0  0  0  0  0  0  0  0  0
    1.2619   -0.4219   -1.0865 H   0  0  0  0  0  0  0  0  0  0  0  0
    0.1464   -1.7657   -1.2916 H   0  0  0  0  0  0  0  0  0  0  0  0
   -0.2853   -0.0567   -2.4842 C   0  0  0  0  0  0  0  0  0  0  0  0
   -0.1878   -0.6965   -3.7022 N   0  0  0  0  0  0  0  0  0  0  0  0
    0.1996   -1.6238   -3.8624 H   0  0  0  0  0  0  0  0  0  0  0  0
   -0.7165    0.1183   -4.6829 C   0  0  0  0  0  0  0  0  0  0  0  0
   -0.7744   -0.1296   -5.7389 H   0  0  0  0  0  0  0  0  0  0  0  0
   -1.1383    1.2378   -4.1531 N   0  0  0  0  0  0  0  0  0  0  0  0
   -0.8806    1.1461   -2.7883 C   0  0  0  0  0  0  0  0  0  0  0  0
   -1.1100    1.9404   -2.0895 H   0  0  0  0  0  0  0  0  0  0  0  0
   -0.5949    1.2009    0.4669 C   0  0  0  0  0  0  0  0  0  0  0  0
   -1.6256    1.8237    0.2394 O   0  0  0  0  0  0  0  0  0  0  0  0
    0.3500    1.7737    1.3003 N   0  0  0  0  0  0  0  0  0  0  0  0
    1.1324    1.1961    1.5947 H   0  0  0  0  0  0  0  0  0  0  0  0
    0.2261    3.1199    1.8476 C   0  0  0  0  0  0  0  0  0  0  0  0
   -0.6738    3.2019    2.4662 H   0  0  0  0  0  0  0  0  0  0  0  0
    1.0950    3.3567    2.4690 H   0  0  0  0  0  0  0  0  0  0  0  0
    0.1674    3.8576    1.0403 H   0  0  0  0  0  0  0  0  0  0  0  0
  1  2  1  0  0  0  0
  2  3  1  0  0  0  0
  2  4  1  0  0  0  0
  2  5  1  0  0  0  0
  5  6  2  0  0  0  0
  5  7  1  0  0  0  0
  7  8  1  0  0  0  0
  7  9  1  0  0  0  0
  9 10  1  0  0  0  0
  9 11  1  0  0  0  0
  9 22  1  0  0  0  0
 11 12  1  0  0  0  0
 11 13  1  0  0  0  0
 11 14  1  0  0  0  0
 14 15  1  0  0  0  0
 14 20  2  0  0  0  0
 15 16  1  0  0  0  0
 15 17  1  0  0  0  0
 17 18  1  0  0  0  0
 17 19  2  0  0  0  0
 19 20  1  0  0  0  0
 20 21  1  0  0  0  0
 22 23  2  0  0  0  0
 22 24  1  0  0  0  0
 24 25  1  0  0  0  0
 24 26  1  0  0  0  0
 26 27  1  0  0  0  0
 26 28  1  0  0  0  0
 26 29  1  0  0  0  0
M  END
$$$$

  -OEChem-04042215593D

 29 29  0     1  0  0  0  0  0999 V2000
   -3.4930   -3.6689    1.4796 H   0  0  0  0  0  0  0  0  0  0  0  0
   -3.4771   -2.7148    0.9453 C   0  0  0  0  0  0  0  0  0  0  0  0
   -4.0814   -1.9914    1.4981 H   0  0  0  0  0  0  0  0  0  0  0  0
   -3.9107   -2.8587   -0.0473 H   0  0  0  0  0  0  0  0  0  0  0  0
   -2.0525   -2.2094    0.8192 C   0  0  0  0  0  0  0  0  0  0  0  0
   -1.1258   -2.8761    1.2529 O   0  0  0  0  0  0  0  0  0  0  0  0
   -1.8056   -1.0022    0.2011 N   0  0  0  0  0  0  0  0  0  0  0  0
   -2.6113   -0.4462   -0.0832 H   0  0  0  0  0  0  0  0  0  0  0  0
   -0.4956   -0.3377    0.1415 C   0  0  1  0  0  0  0  0  0  0  0  0
    0.1178   -0.7477    0.9503 H   0  0  0  0  0  0  0  0  0  0  0  0
    0.2275   -0.7129   -1.1690 C   0  0  0  0  0  0  0  0  0  0  0  0
    1.2864   -0.4585   -1.0602 H   0  0  0  0  0  0  0  0  0  0  0  0
    0.1730   -1.8002   -1.2867 H   0  0  0  0  0  0  0  0  0  0  0  0
   -0.2685   -0.0605   -2.4424 C   0  0  0  0  0  0  0  0  0  0  0  0
   -0.4810   -0.7338   -3.6266 N   0  0  0  0  0  0  0  0  0  0  0  0
   -0.3746   -1.7349   -3.7749 H   0  0  0  0  0  0  0  0  0  0  0  0
   -0.8765    0.1724   -4.5909 C   0  0  0  0  0  0  0  0  0  0  0  0
   -1.1223   -0.0753   -5.6195 H   0  0  0  0  0  0  0  0  0  0  0  0
   -0.9088    1.3793   -4.0854 N   0  0  0  0  0  0  0  0  0  0  0  0
   -0.5296    1.2534   -2.7522 C   0  0  0  0  0  0  0  0  0  0  0  0
   -0.4262    2.0933   -2.0737 H   0  0  0  0  0  0  0  0  0  0  0  0
   -0.5979    1.1678    0.4560 C   0  0  0  0  0  0  0  0  0  0  0  0
   -1.6025    1.7929    0.1365 O   0  0  0  0  0  0  0  0  0  0  0  0
    0.3129    1.7651    1.3092 N   0  0  0  0  0  0  0  0  0  0  0  0
    1.0766    1.1939    1.6598 H   0  0  0  0  0  0  0  0  0  0  0  0
    0.1786    3.1339    1.7943 C   0  0  0  0  0  0  0  0  0  0  0  0
   -0.7404    3.2453    2.3792 H   0  0  0  0  0  0  0  0  0  0  0  0
    1.0284    3.3941    2.4325 H   0  0  0  0  0  0  0  0  0  0  0  0
    0.1494    3.8371    0.9553 H   0  0  0  0  0  0  0  0  0  0  0  0
  1  2  1  0  0  0  0
  2  3  1  0  0  0  0
  2  4  1  0  0  0  0
  2  5  1  0  0  0  0
  5  6  2  0  0  0  0
  5  7  1  0  0  0  0
  7  8  1  0  0  0  0
  7  9  1  0  0  0  0
  9 10  1  0  0  0  0
  9 11  1  0  0  0  0
  9 22  1  0  0  0  0
 11 12  1  0  0  0  0
 11 13  1  0  0  0  0
 11 14  1  0  0  0  0
 14 15  1  0  0  0  0
 14 20  2  0  0  0  0
 15 16  1  0  0  0  0
 15 17  1  0  0  0  0
 17 18  1  0  0  0  0
 17 19  2  0  0  0  0
 19 20  1  0  0  0  0
 20 21  1  0  0  0  0
 22 23  2  0  0  0  0
 22 24  1  0  0  0  0
 24 25  1  0  0  0  0
 24 26  1  0  0  0  0
 26 27  1  0  0  0  0
 26 28  1  0  0  0  0
 26 29  1  0  0  0  0
M  END
$$$$

  -OEChem-04042215593D

 29 29  0     1  0  0  0  0  0999 V2000
   -3.5127   -3.6611    1.4994 H   0  0  0  0  0  0  0  0  0  0  0  0
   -3.4841   -2.7207    0.9421 C   0  0  0  0  0  0  0  0  0  0  0  0
   -4.0959   -1.9824    1.4660 H   0  0  0  0  0  0  0  0  0  0  0  0
   -3.9000   -2.8875   -0.0543 H   0  0  0  0  0  0  0  0  0  0  0  0
   -2.0558   -2.2228    0.8296 C   0  0  0  0  0  0  0  0  0  0  0  0
   -1.1390   -2.8841    1.2911 O   0  0  0  0  0  0  0  0  0  0  0  0
   -1.7941   -1.0282    0.1939 N   0  0  0  0  0  0  0  0  0  0  0  0
   -2.5923   -0.4739   -0.1137 H   0  0  0  0  0  0  0  0  0  0  0  0
   -0.4824   -0.3664    0.1508 C   0  0  1  0  0  0  0  0  0  0  0  0
    0.1229   -0.7682    0.9698 H   0  0  0  0  0  0  0  0  0  0  0  0
    0.2498   -0.7385   -1.1537 C   0  0  0  0  0  0  0  0  0  0  0  0
    1.3051   -0.4710   -1.0389 H   0  0  0  0  0  0  0  0  0  0  0  0
    0.2092   -1.8244   -1.2871 H   0  0  0  0  0  0  0  0  0  0  0  0
   -0.2621   -0.0599   -2.4038 C   0  0  0  0  0  0  0  0  0  0  0  0
   -0.7735   -0.6986   -3.5126 N   0  0  0  0  0  0  0  0  0  0  0  0
   -0.9253   -1.6997   -3.6131 H   0  0  0  0  0  0  0  0  0  0  0  0
   -1.0536    0.2487   -4.4788 C   0  0  0  0  0  0  0  0  0  0  0  0
   -1.4759    0.0383   -5.4573 H   0  0  0  0  0  0  0  0  0  0  0  0
   -0.7299    1.4420   -4.0467 N   0  0  0  0  0  0  0  0  0  0  0  0
   -0.2334    1.2667   -2.7583 C   0  0  0  0  0  0  0  0  0  0  0  0
    0.1470    2.0695   -2.1338 H   0  0  0  0  0  0  0  0  0  0  0  0
   -0.5929    1.1451    0.4343 C   0  0  0  0  0  0  0  0  0  0  0  0
   -1.5718    1.7726    0.0476 O   0  0  0  0  0  0  0  0  0  0  0  0
    0.2969    1.7606    1.2967 N   0  0  0  0  0  0  0  0  0  0  0  0
    1.0403    1.1932    1.6937 H   0  0  0  0  0  0  0  0  0  0  0  0
    0.1652    3.1481    1.7261 C   0  0  0  0  0  0  0  0  0  0  0  0
   -0.7773    3.2955    2.2639 H   0  0  0  0  0  0  0  0  0  0  0  0
    0.9897    3.4179    2.3931 H   0  0  0  0  0  0  0  0  0  0  0  0
    0.1863    3.8202    0.8617 H   0  0  0  0  0  0  0  0  0  0  0  0
  1  2  1  0  0  0  0
  2  3  1  0  0  0  0
  2  4  1  0  0  0  0
  2  5  1  0  0  0  0
  5  6  2  0  0  0  0
  5  7  1  0  0  0  0
  7  8  1  0  0  0  0
  7  9  1  0  0  0  0
  9 10  1  0  0  0  0
  9 11  1  0  0  0  0
  9 22  1  0  0  0  0
 11 12  1  0  0  0  0
 11 13  1  0  0  0  0
 11 14  1  0  0  0  0
 14 15  1  0  0  0  0
 14 20  2  0  0  0  0
 15 16  1  0  0  0  0
 15 17  1  0  0  0  0
 17 18  1  0  0  0  0
 17 19  2  0  0  0  0
 19 20  1  0  0  0  0
 20 21  1  0  0  0  0
 22 23  2  0  0  0  0
 22 24  1  0  0  0  0
 24 25  1  0  0  0  0
 24 26  1  0  0  0  0
 26 27  1  0  0  0  0
 26 28  1  0  0  0  0
 26 29  1  0  0  0  0
M  END
$$$$

  -OEChem-04042215593D

 29 29  0     1  0  0  0  0  0999 V2000
   -3.5310   -3.6423    1.5211 H   0  0  0  0  0  0  0  0  0  0  0  0
   -3.4898   -2.7135    0.9451 C   0  0  0  0  0  0  0  0  0  0  0  0
   -4.0965   -1.9583    1.4510 H   0  0  0  0  0  0  0  0  0  0  0  0
   -3.9027   -2.8964   -0.0499 H   0  0  0  0  0  0  0  0  0  0  0  0
   -2.0559   -2.2326    0.8299 C   0  0  0  0  0  0  0  0  0  0  0  0
   -1.1468   -2.8969    1.3018 O   0  0  0  0  0  0  0  0  0  0  0  0
   -1.7821   -1.0481    0.1809 N   0  0  0  0  0  0  0  0  0  0  0  0
   -2.5753   -0.4853   -0.1244 H   0  0  0  0  0  0  0  0  0  0  0  0
   -0.4681   -0.3901    0.1513 C   0  0  1  0  0  0  0  0  0  0  0  0
    0.1290   -0.7856    0.9794 H   0  0  0  0  0  0  0  0  0  0  0  0
    0.2764   -0.7546   -1.1460 C   0  0  0  0  0  0  0  0  0  0  0  0
    1.3294   -0.4826   -1.0215 H   0  0  0  0  0  0  0  0  0  0  0  0
    0.2410   -1.8385   -1.2978 H   0  0  0  0  0  0  0  0  0  0  0  0
   -0.2445   -0.0516   -2.3754 C   0  0  0  0  0  0  0  0  0  0  0  0
   -1.0186   -0.6066   -3.3697 N   0  0  0  0  0  0  0  0  0  0  0  0
   -1.3901   -1.5536   -3.3852 H   0  0  0  0  0  0  0  0  0  0  0  0
   -1.2114    0.3424   -4.3557 C   0  0  0  0  0  0  0  0  0  0  0  0
   -1.7903    0.1923   -5.2624 H   0  0  0  0  0  0  0  0  0  0  0  0
   -0.5869    1.4516   -4.0443 N   0  0  0  0  0  0  0  0  0  0  0  0
    0.0203    1.2213   -2.8139 C   0  0  0  0  0  0  0  0  0  0  0  0
    0.6346    1.9436   -2.2848 H   0  0  0  0  0  0  0  0  0  0  0  0
   -0.5862    1.1255    0.4113 C   0  0  0  0  0  0  0  0  0  0  0  0
   -1.5576    1.7464   -0.0046 O   0  0  0  0  0  0  0  0  0  0  0  0
    0.2864    1.7549    1.2809 N   0  0  0  0  0  0  0  0  0  0  0  0
    1.0273    1.1967    1.6953 H   0  0  0  0  0  0  0  0  0  0  0  0
    0.1512    3.1518    1.6772 C   0  0  0  0  0  0  0  0  0  0  0  0
   -0.8052    3.3163    2.1845 H   0  0  0  0  0  0  0  0  0  0  0  0
    0.9578    3.4306    2.3618 H   0  0  0  0  0  0  0  0  0  0  0  0
    0.2014    3.8051    0.7998 H   0  0  0  0  0  0  0  0  0  0  0  0
  1  2  1  0  0  0  0
  2  3  1  0  0  0  0
  2  4  1  0  0  0  0
  2  5  1  0  0  0  0
  5  6  2  0  0  0  0
  5  7  1  0  0  0  0
  7  8  1  0  0  0  0
  7  9  1  0  0  0  0
  9 10  1  0  0  0  0
  9 11  1  0  0  0  0
  9 22  1  0  0  0  0
 11 12  1  0  0  0  0
 11 13  1  0  0  0  0
 11 14  1  0  0  0  0
 14 15  1  0  0  0  0
 14 20  2  0  0  0  0
 15 16  1  0  0  0  0
 15 17  1  0  0  0  0
 17 18  1  0  0  0  0
 17 19  2  0  0  0  0
 19 20  1  0  0  0  0
 20 21  1  0  0  0  0
 22 23  2  0  0  0  0
 22 24  1  0  0  0  0
 24 25  1  0  0  0  0
 24 26  1  0  0  0  0
 26 27  1  0  0  0  0
 26 28  1  0  0  0  0
 26 29  1  0  0  0  0
M  END
$$$$

  -OEChem-04042215593D

 29 29  0     1  0  0  0  0  0999 V2000
   -3.5386   -3.6257    1.5462 H   0  0  0  0  0  0  0  0  0  0  0  0
   -3.4941   -2.7075    0.9538 C   0  0  0  0  0  0  0  0  0  0  0  0
   -4.0942   -1.9403    1.4490 H   0  0  0  0  0  0  0  0  0  0  0  0
   -3.9124   -2.9053   -0.0359 H   0  0  0  0  0  0  0  0  0  0  0  0
   -2.0574   -2.2379    0.8254 C   0  0  0  0  0  0  0  0  0  0  0  0
   -1.1511   -2.9051    1.2981 O   0  0  0  0  0  0  0  0  0  0  0  0
   -1.7779   -1.0587    0.1686 N   0  0  0  0  0  0  0  0  0  0  0  0
   -2.5693   -0.4837   -0.1179 H   0  0  0  0  0  0  0  0  0  0  0  0
   -0.4613   -0.4039    0.1474 C   0  0  1  0  0  0  0  0  0  0  0  0
    0.1305   -0.7960    0.9807 H   0  0  0  0  0  0  0  0  0  0  0  0
    0.2965   -0.7594   -1.1439 C   0  0  0  0  0  0  0  0  0  0  0  0
    1.3487   -0.4894   -1.0080 H   0  0  0  0  0  0  0  0  0  0  0  0
    0.2602   -1.8410   -1.3081 H   0  0  0  0  0  0  0  0  0  0  0  0
   -0.2222   -0.0410   -2.3636 C   0  0  0  0  0  0  0  0  0  0  0  0
   -1.2115   -0.4694   -3.2193 N   0  0  0  0  0  0  0  0  0  0  0  0
   -1.7674   -1.3154   -3.1202 H   0  0  0  0  0  0  0  0  0  0  0  0
   -1.3329    0.4523   -4.2423 C   0  0  0  0  0  0  0  0  0  0  0  0
   -2.0416    0.3846   -5.0628 H   0  0  0  0  0  0  0  0  0  0  0  0
   -0.4623    1.4198   -4.0858 N   0  0  0  0  0  0  0  0  0  0  0  0
    0.2352    1.1264   -2.9185 C   0  0  0  0  0  0  0  0  0  0  0  0
    1.0403    1.7314   -2.5126 H   0  0  0  0  0  0  0  0  0  0  0  0
   -0.5844    1.1136    0.3952 C   0  0  0  0  0  0  0  0  0  0  0  0
   -1.5578    1.7274   -0.0275 O   0  0  0  0  0  0  0  0  0  0  0  0
    0.2789    1.7487    1.2701 N   0  0  0  0  0  0  0  0  0  0  0  0
    1.0243    1.1963    1.6842 H   0  0  0  0  0  0  0  0  0  0  0  0
    0.1434    3.1494    1.6528 C   0  0  0  0  0  0  0  0  0  0  0  0
   -0.8234    3.3228    2.1370 H   0  0  0  0  0  0  0  0  0  0  0  0
    0.9358    3.4293    2.3536 H   0  0  0  0  0  0  0  0  0  0  0  0
    0.2172    3.7955    0.7717 H   0  0  0  0  0  0  0  0  0  0  0  0
  1  2  1  0  0  0  0
  2  3  1  0  0  0  0
  2  4  1  0  0  0  0
  2  5  1  0  0  0  0
  5  6  2  0  0  0  0
  5  7  1  0  0  0  0
  7  8  1  0  0  0  0
  7  9  1  0  0  0  0
  9 10  1  0  0  0  0
  9 11  1  0  0  0  0
  9 22  1  0  0  0  0
 11 12  1  0  0  0  0
 11 13  1  0  0  0  0
 11 14  1  0  0  0  0
 14 15  1  0  0  0  0
 14 20  2  0  0  0  0
 15 16  1  0  0  0  0
 15 17  1  0  0  0  0
 17 18  1  0  0  0  0
 17 19  2  0  0  0  0
 19 20  1  0  0  0  0
 20 21  1  0  0  0  0
 22 23  2  0  0  0  0
 22 24  1  0  0  0  0
 24 25  1  0  0  0  0
 24 26  1  0  0  0  0
 26 27  1  0  0  0  0
 26 28  1  0  0  0  0
 26 29  1  0  0  0  0
M  END
$$$$

  -OEChem-04042215593D

 29 29  0     1  0  0  0  0  0999 V2000
   -3.5389   -3.6138    1.5629 H   0  0  0  0  0  0  0  0  0  0  0  0
   -3.4952   -2.6964    0.9693 C   0  0  0  0  0  0  0  0  0  0  0  0
   -4.0808   -1.9237    1.4733 H   0  0  0  0  0  0  0  0  0  0  0  0
   -3.9299   -2.8912   -0.0138 H   0  0  0  0  0  0  0  0  0  0  0  0
   -2.0565   -2.2403    0.8183 C   0  0  0  0  0  0  0  0  0  0  0  0
   -1.1496   -2.9171    1.2757 O   0  0  0  0  0  0  0  0  0  0  0  0
   -1.7760   -1.0638    0.1565 N   0  0  0  0  0  0  0  0  0  0  0  0
   -2.5666   -0.4711   -0.0935 H   0  0  0  0  0  0  0  0  0  0  0  0
   -0.4558   -0.4150    0.1401 C   0  0  1  0  0  0  0  0  0  0  0  0
    0.1308   -0.8062    0.9777 H   0  0  0  0  0  0  0  0  0  0  0  0
    0.3121   -0.7649   -1.1469 C   0  0  0  0  0  0  0  0  0  0  0  0
    1.3661   -0.5070   -1.0016 H   0  0  0  0  0  0  0  0  0  0  0  0
    0.2642   -1.8450   -1.3196 H   0  0  0  0  0  0  0  0  0  0  0  0
   -0.1969   -0.0372   -2.3649 C   0  0  0  0  0  0  0  0  0  0  0  0
   -1.3504   -0.2917   -3.0709 N   0  0  0  0  0  0  0  0  0  0  0  0
   -2.0514   -0.9922   -2.8436 H   0  0  0  0  0  0  0  0  0  0  0  0
   -1.4121    0.5868   -4.1364 C   0  0  0  0  0  0  0  0  0  0  0  0
   -2.2181    0.6307   -4.8632 H   0  0  0  0  0  0  0  0  0  0  0  0
   -0.3518    1.3582   -4.1499 N   0  0  0  0  0  0  0  0  0  0  0  0
    0.4117    0.9821   -3.0499 C   0  0  0  0  0  0  0  0  0  0  0  0
    1.3631    1.4293   -2.7780 H   0  0  0  0  0  0  0  0  0  0  0  0
   -0.5832    1.1033    0.3830 C   0  0  0  0  0  0  0  0  0  0  0  0
   -1.5657    1.7080   -0.0334 O   0  0  0  0  0  0  0  0  0  0  0  0
    0.2731    1.7434    1.2612 N   0  0  0  0  0  0  0  0  0  0  0  0
    1.0271    1.1988    1.6700 H   0  0  0  0  0  0  0  0  0  0  0  0
    0.1292    3.1438    1.6408 C   0  0  0  0  0  0  0  0  0  0  0  0
   -0.8371    3.3118    2.1281 H   0  0  0  0  0  0  0  0  0  0  0  0
    0.9224    3.4308    2.3378 H   0  0  0  0  0  0  0  0  0  0  0  0
    0.1949    3.7884    0.7578 H   0  0  0  0  0  0  0  0  0  0  0  0
  1  2  1  0  0  0  0
  2  3  1  0  0  0  0
  2  4  1  0  0  0  0
  2  5  1  0  0  0  0
  5  6  2  0  0  0  0
  5  7  1  0  0  0  0
  7  8  1  0  0  0  0
  7  9  1  0  0  0  0
  9 10  1  0  0  0  0
  9 11  1  0  0  0  0
  9 22  1  0  0  0  0
 11 12  1  0  0  0  0
 11 13  1  0  0  0  0
 11 14  1  0  0  0  0
 14 15  1  0  0  0  0
 14 20  2  0  0  0  0
 15 16  1  0  0  0  0
 15 17  1  0  0  0  0
 17 18  1  0  0  0  0
 17 19  2  0  0  0  0
 19 20  1  0  0  0  0
 20 21  1  0  0  0  0
 22 23  2  0  0  0  0
 22 24  1  0  0  0  0
 24 25  1  0  0  0  0
 24 26  1  0  0  0  0
 26 27  1  0  0  0  0
 26 28  1  0  0  0  0
 26 29  1  0  0  0  0
M  END
$$$$

  -OEChem-04042215593D

 29 29  0     1  0  0  0  0  0999 V2000
   -3.5339   -3.6078    1.5806 H   0  0  0  0  0  0  0  0  0  0  0  0
   -3.4946   -2.6867    0.9925 C   0  0  0  0  0  0  0  0  0  0  0  0
   -4.0609   -1.9119    1.5148 H   0  0  0  0  0  0  0  0  0  0  0  0
   -3.9536   -2.8709    0.0185 H   0  0  0  0  0  0  0  0  0  0  0  0
   -2.0551   -2.2439    0.8115 C   0  0  0  0  0  0  0  0  0  0  0  0
   -1.1457   -2.9295    1.2505 O   0  0  0  0  0  0  0  0  0  0  0  0
   -1.7772   -1.0677    0.1471 N   0  0  0  0  0  0  0  0  0  0  0  0
   -2.5676   -0.4574   -0.0562 H   0  0  0  0  0  0  0  0  0  0  0  0
   -0.4534   -0.4245    0.1309 C   0  0  1  0  0  0  0  0  0  0  0  0
    0.1314   -0.8163    0.9693 H   0  0  0  0  0  0  0  0  0  0  0  0
    0.3207   -0.7691   -1.1547 C   0  0  0  0  0  0  0  0  0  0  0  0
    1.3772   -0.5261   -1.0030 H   0  0  0  0  0  0  0  0  0  0  0  0
    0.2590   -1.8480   -1.3317 H   0  0  0  0  0  0  0  0  0  0  0  0
   -0.1742   -0.0378   -2.3769 C   0  0  0  0  0  0  0  0  0  0  0  0
   -1.4310   -0.0788   -2.9358 N   0  0  0  0  0  0  0  0  0  0  0  0
   -2.2323   -0.5871   -2.5715 H   0  0  0  0  0  0  0  0  0  0  0  0
   -1.4420    0.7411   -4.0481 C   0  0  0  0  0  0  0  0  0  0  0  0
   -2.3047    0.9197   -4.6835 H   0  0  0  0  0  0  0  0  0  0  0  0
   -0.2565    1.2711   -4.2311 N   0  0  0  0  0  0  0  0  0  0  0  0
    0.5408    0.7972   -3.1952 C   0  0  0  0  0  0  0  0  0  0  0  0
    1.5869    1.0532   -3.0568 H   0  0  0  0  0  0  0  0  0  0  0  0
   -0.5852    1.0936    0.3747 C   0  0  0  0  0  0  0  0  0  0  0  0
   -1.5786    1.6898   -0.0303 O   0  0  0  0  0  0  0  0  0  0  0  0
    0.2671    1.7379    1.2538 N   0  0  0  0  0  0  0  0  0  0  0  0
    1.0331    1.2013    1.6510 H   0  0  0  0  0  0  0  0  0  0  0  0
    0.1121    3.1361    1.6382 C   0  0  0  0  0  0  0  0  0  0  0  0
   -0.8510    3.2931    2.1353 H   0  0  0  0  0  0  0  0  0  0  0  0
    0.9086    3.4301    2.3284 H   0  0  0  0  0  0  0  0  0  0  0  0
    0.1630    3.7834    0.7562 H   0  0  0  0  0  0  0  0  0  0  0  0
  1  2  1  0  0  0  0
  2  3  1  0  0  0  0
  2  4  1  0  0  0  0
  2  5  1  0  0  0  0
  5  6  2  0  0  0  0
  5  7  1  0  0  0  0
  7  8  1  0  0  0  0
  7  9  1  0  0  0  0
  9 10  1  0  0  0  0
  9 11  1  0  0  0  0
  9 22  1  0  0  0  0
 11 12  1  0  0  0  0
 11 13  1  0  0  0  0
 11 14  1  0  0  0  0
 14 15  1  0  0  0  0
 14 20  2  0  0  0  0
 15 16  1  0  0  0  0
 15 17  1  0  0  0  0
 17 18  1  0  0  0  0
 17 19  2  0  0  0  0
 19 20  1  0  0  0  0
 20 21  1  0  0  0  0
 22 23  2  0  0  0  0
 22 24  1  0  0  0  0
 24 25  1  0  0  0  0
 24 26  1  0  0  0  0
 26 27  1  0  0  0  0
 26 28  1  0  0  0  0
 26 29  1  0  0  0  0
M  END
$$$$

  -OEChem-04042215593D

 29 29  0     1  0  0  0  0  0999 V2000
   -3.5232   -3.6147    1.5900 H   0  0  0  0  0  0  0  0  0  0  0  0
   -3.4895   -2.6898    1.0074 C   0  0  0  0  0  0  0  0  0  0  0  0
   -4.0503   -1.9180    1.5401 H   0  0  0  0  0  0  0  0  0  0  0  0
   -3.9581   -2.8678    0.0366 H   0  0  0  0  0  0  0  0  0  0  0  0
   -2.0515   -2.2470    0.8146 C   0  0  0  0  0  0  0  0  0  0  0  0
   -1.1389   -2.9304    1.2507 O   0  0  0  0  0  0  0  0  0  0  0  0
   -1.7801   -1.0693    0.1498 N   0  0  0  0  0  0  0  0  0  0  0  0
   -2.5733   -0.4559   -0.0287 H   0  0  0  0  0  0  0  0  0  0  0  0
   -0.4550   -0.4274    0.1280 C   0  0  1  0  0  0  0  0  0  0  0  0
    0.1332   -0.8201    0.9637 H   0  0  0  0  0  0  0  0  0  0  0  0
    0.3164   -0.7672   -1.1620 C   0  0  0  0  0  0  0  0  0  0  0  0
    1.3756   -0.5358   -1.0109 H   0  0  0  0  0  0  0  0  0  0  0  0
    0.2430   -1.8454   -1.3389 H   0  0  0  0  0  0  0  0  0  0  0  0
   -0.1678   -0.0389   -2.3922 C   0  0  0  0  0  0  0  0  0  0  0  0
   -1.4615    0.1620   -2.8179 N   0  0  0  0  0  0  0  0  0  0  0  0
   -2.3039   -0.0964   -2.3112 H   0  0  0  0  0  0  0  0  0  0  0  0
   -1.4300    0.9013   -3.9844 C   0  0  0  0  0  0  0  0  0  0  0  0
   -2.3044    1.2313   -4.5378 H   0  0  0  0  0  0  0  0  0  0  0  0
   -0.1894    1.1506   -4.3284 N   0  0  0  0  0  0  0  0  0  0  0  0
    0.6051    0.5750   -3.3431 C   0  0  0  0  0  0  0  0  0  0  0  0
    1.6902    0.6121   -3.3290 H   0  0  0  0  0  0  0  0  0  0  0  0
   -0.5894    1.0896    0.3760 C   0  0  0  0  0  0  0  0  0  0  0  0
   -1.5911    1.6803   -0.0182 O   0  0  0  0  0  0  0  0  0  0  0  0
    0.2651    1.7341    1.2525 N   0  0  0  0  0  0  0  0  0  0  0  0
    1.0389    1.2005    1.6386 H   0  0  0  0  0  0  0  0  0  0  0  0
    0.1073    3.1302    1.6435 C   0  0  0  0  0  0  0  0  0  0  0  0
   -0.8554    3.2828    2.1426 H   0  0  0  0  0  0  0  0  0  0  0  0
    0.9040    3.4221    2.3344 H   0  0  0  0  0  0  0  0  0  0  0  0
    0.1560    3.7818    0.7647 H   0  0  0  0  0  0  0  0  0  0  0  0
  1  2  1  0  0  0  0
  2  3  1  0  0  0  0
  2  4  1  0  0  0  0
  2  5  1  0  0  0  0
  5  6  2  0  0  0  0
  5  7  1  0  0  0  0
  7  8  1  0  0  0  0
  7  9  1  0  0  0  0
  9 10  1  0  0  0  0
  9 11  1  0  0  0  0
  9 22  1  0  0  0  0
 11 12  1  0  0  0  0
 11 13  1  0  0  0  0
 11 14  1  0  0  0  0
 14 15  1  0  0  0  0
 14 20  2  0  0  0  0
 15 16  1  0  0  0  0
 15 17  1  0  0  0  0
 17 18  1  0  0  0  0
 17 19  2  0  0  0  0
 19 20  1  0  0  0  0
 20 21  1  0  0  0  0
 22 23  2  0  0  0  0
 22 24  1  0  0  0  0
 24 25  1  0  0  0  0
 24 26  1  0  0  0  0
 26 27  1  0  0  0  0
 26 28  1  0  0  0  0
 26 29  1  0  0  0  0
M  END
$$$$

  -OEChem-04042215593D

 29 29  0     1  0  0  0  0  0999 V2000
   -3.5139   -3.6365    1.5597 H   0  0  0  0  0  0  0  0  0  0  0  0
   -3.4796   -2.7091    0.9808 C   0  0  0  0  0  0  0  0  0  0  0  0
   -4.0666   -1.9479    1.5005 H   0  0  0  0  0  0  0  0  0  0  0  0
   -3.9192   -2.8912   -0.0028 H   0  0  0  0  0  0  0  0  0  0  0  0
   -2.0444   -2.2425    0.8265 C   0  0  0  0  0  0  0  0  0  0  0  0
   -1.1325   -2.9112    1.2863 O   0  0  0  0  0  0  0  0  0  0  0  0
   -1.7740   -1.0611    0.1677 N   0  0  0  0  0  0  0  0  0  0  0  0
   -2.5717   -0.4665   -0.0461 H   0  0  0  0  0  0  0  0  0  0  0  0
   -0.4490   -0.4180    0.1419 C   0  0  1  0  0  0  0  0  0  0  0  0
    0.1487   -0.8157    0.9687 H   0  0  0  0  0  0  0  0  0  0  0  0
    0.3036   -0.7539   -1.1614 C   0  0  0  0  0  0  0  0  0  0  0  0
    1.3658   -0.5297   -1.0205 H   0  0  0  0  0  0  0  0  0  0  0  0
    0.2221   -1.8316   -1.3376 H   0  0  0  0  0  0  0  0  0  0  0  0
   -0.1782   -0.0270   -2.3954 C   0  0  0  0  0  0  0  0  0  0  0  0
   -1.4398    0.4342   -2.6996 N   0  0  0  0  0  0  0  0  0  0  0  0
   -2.2115    0.5186   -2.0405 H   0  0  0  0  0  0  0  0  0  0  0  0
   -1.3980    1.0392   -3.9405 C   0  0  0  0  0  0  0  0  0  0  0  0
   -2.2390    1.5274   -4.4246 H   0  0  0  0  0  0  0  0  0  0  0  0
   -0.1915    0.9517   -4.4467 N   0  0  0  0  0  0  0  0  0  0  0  0
    0.5763    0.2915   -3.4942 C   0  0  0  0  0  0  0  0  0  0  0  0
    1.6316    0.0614   -3.6066 H   0  0  0  0  0  0  0  0  0  0  0  0
   -0.5851    1.0971    0.3993 C   0  0  0  0  0  0  0  0  0  0  0  0
   -1.5872    1.6885    0.0029 O   0  0  0  0  0  0  0  0  0  0  0  0
    0.2714    1.7404    1.2741 N   0  0  0  0  0  0  0  0  0  0  0  0
    1.0473    1.2067    1.6561 H   0  0  0  0  0  0  0  0  0  0  0  0
    0.1148    3.1355    1.6677 C   0  0  0  0  0  0  0  0  0  0  0  0
   -0.8506    3.2891    2.1613 H   0  0  0  0  0  0  0  0  0  0  0  0
    0.9082    3.4235    2.3641 H   0  0  0  0  0  0  0  0  0  0  0  0
    0.1704    3.7888    0.7906 H   0  0  0  0  0  0  0  0  0  0  0  0
  1  2  1  0  0  0  0
  2  3  1  0  0  0  0
  2  4  1  0  0  0  0
  2  5  1  0  0  0  0
  5  6  2  0  0  0  0
  5  7  1  0  0  0  0
  7  8  1  0  0  0  0
  7  9  1  0  0  0  0
  9 10  1  0  0  0  0
  9 11  1  0  0  0  0
  9 22  1  0  0  0  0
 11 12  1  0  0  0  0
 11 13  1  0  0  0  0
 11 14  1  0  0  0  0
 14 15  1  0  0  0  0
 14 20  2  0  0  0  0
 15 16  1  0  0  0  0
 15 17  1  0  0  0  0
 17 18  1  0  0  0  0
 17 19  2  0  0  0  0
 19 20  1  0  0  0  0
 20 21  1  0  0  0  0
 22 23  2  0  0  0  0
 22 24  1  0  0  0  0
 24 25  1  0  0  0  0
 24 26  1  0  0  0  0
 26 27  1  0  0  0  0
 26 28  1  0  0  0  0
 26 29  1  0  0  0  0
M  END
$$$$

  -OEChem-04042215593D

 29 29  0     1  0  0  0  0  0999 V2000
   -3.5100   -3.6571    1.4727 H   0  0  0  0  0  0  0  0  0  0  0  0
   -3.4682   -2.7243    0.9035 C   0  0  0  0  0  0  0  0  0  0  0  0
   -4.1051   -1.9842    1.3939 H   0  0  0  0  0  0  0  0  0  0  0  0
   -3.8457   -2.9099   -0.1049 H   0  0  0  0  0  0  0  0  0  0  0  0
   -2.0402   -2.2171    0.8357 C   0  0  0  0  0  0  0  0  0  0  0  0
   -1.1391   -2.8576    1.3533 O   0  0  0  0  0  0  0  0  0  0  0  0
   -1.7640   -1.0306    0.1892 N   0  0  0  0  0  0  0  0  0  0  0  0
   -2.5572   -0.4839   -0.1372 H   0  0  0  0  0  0  0  0  0  0  0  0
   -0.4427   -0.3816    0.1626 C   0  0  1  0  0  0  0  0  0  0  0  0
    0.1583   -0.7844    0.9844 H   0  0  0  0  0  0  0  0  0  0  0  0
    0.2947   -0.7335   -1.1470 C   0  0  0  0  0  0  0  0  0  0  0  0
    1.3569   -0.5015   -1.0186 H   0  0  0  0  0  0  0  0  0  0  0  0
    0.2187   -1.8142   -1.3077 H   0  0  0  0  0  0  0  0  0  0  0  0
   -0.1913   -0.0260   -2.3920 C   0  0  0  0  0  0  0  0  0  0  0  0
   -1.3568    0.6777   -2.6043 N   0  0  0  0  0  0  0  0  0  0  0  0
   -1.9778    1.0195   -1.8673 H   0  0  0  0  0  0  0  0  0  0  0  0
   -1.3690    1.1260   -3.9103 C   0  0  0  0  0  0  0  0  0  0  0  0
   -2.1476    1.7424   -4.3508 H   0  0  0  0  0  0  0  0  0  0  0  0
   -0.2955    0.7123   -4.5397 N   0  0  0  0  0  0  0  0  0  0  0  0
    0.4431   -0.0071   -3.6067 C   0  0  0  0  0  0  0  0  0  0  0  0
    1.3933   -0.4901   -3.8148 H   0  0  0  0  0  0  0  0  0  0  0  0
   -0.5652    1.1336    0.4311 C   0  0  0  0  0  0  0  0  0  0  0  0
   -1.5537    1.7455    0.0302 O   0  0  0  0  0  0  0  0  0  0  0  0
    0.3026    1.7629    1.3050 N   0  0  0  0  0  0  0  0  0  0  0  0
    1.0578    1.2104    1.7016 H   0  0  0  0  0  0  0  0  0  0  0  0
    0.1549    3.1527    1.7206 C   0  0  0  0  0  0  0  0  0  0  0  0
   -0.8085    3.3036    2.2191 H   0  0  0  0  0  0  0  0  0  0  0  0
    0.9516    3.4250    2.4196 H   0  0  0  0  0  0  0  0  0  0  0  0
    0.2127    3.8200    0.8541 H   0  0  0  0  0  0  0  0  0  0  0  0
  1  2  1  0  0  0  0
  2  3  1  0  0  0  0
  2  4  1  0  0  0  0
  2  5  1  0  0  0  0
  5  6  2  0  0  0  0
  5  7  1  0  0  0  0
  7  8  1  0  0  0  0
  7  9  1  0  0  0  0
  9 10  1  0  0  0  0
  9 11  1  0  0  0  0
  9 22  1  0  0  0  0
 11 12  1  0  0  0  0
 11 13  1  0  0  0  0
 11 14  1  0  0  0  0
 14 15  1  0  0  0  0
 14 20  2  0  0  0  0
 15 16  1  0  0  0  0
 15 17  1  0  0  0  0
 17 18  1  0  0  0  0
 17 19  2  0  0  0  0
 19 20  1  0  0  0  0
 20 21  1  0  0  0  0
 22 23  2  0  0  0  0
 22 24  1  0  0  0  0
 24 25  1  0  0  0  0
 24 26  1  0  0  0  0
 26 27  1  0  0  0  0
 26 28  1  0  0  0  0
 26 29  1  0  0  0  0
M  END
$$$$

  -OEChem-04042215593D

 29 29  0     1  0  0  0  0  0999 V2000
   -3.4967   -3.6818    1.3927 H   0  0  0  0  0  0  0  0  0  0  0  0
   -3.4618   -2.7340    0.8481 C   0  0  0  0  0  0  0  0  0  0  0  0
   -4.1239   -2.0191    1.3425 H   0  0  0  0  0  0  0  0  0  0  0  0
   -3.8134   -2.9012   -0.1729 H   0  0  0  0  0  0  0  0  0  0  0  0
   -2.0432   -2.1971    0.8254 C   0  0  0  0  0  0  0  0  0  0  0  0
   -1.1439   -2.8261    1.3603 O   0  0  0  0  0  0  0  0  0  0  0  0
   -1.7717   -1.0004    0.1957 N   0  0  0  0  0  0  0  0  0  0  0  0
   -2.5594   -0.4832   -0.1879 H   0  0  0  0  0  0  0  0  0  0  0  0
   -0.4554   -0.3431    0.1712 C   0  0  1  0  0  0  0  0  0  0  0  0
    0.1412   -0.7516    0.9933 H   0  0  0  0  0  0  0  0  0  0  0  0
    0.2878   -0.7099   -1.1311 C   0  0  0  0  0  0  0  0  0  0  0  0
    1.3442   -0.4553   -0.9995 H   0  0  0  0  0  0  0  0  0  0  0  0
    0.2347   -1.7947   -1.2728 H   0  0  0  0  0  0  0  0  0  0  0  0
   -0.1933   -0.0283   -2.3934 C   0  0  0  0  0  0  0  0  0  0  0  0
   -1.2072    0.8872   -2.5740 N   0  0  0  0  0  0  0  0  0  0  0  0
   -1.7199    1.3619   -1.8247 H   0  0  0  0  0  0  0  0  0  0  0  0
   -1.2908    1.2010   -3.9156 C   0  0  0  0  0  0  0  0  0  0  0  0
   -1.9837    1.9176   -4.3471 H   0  0  0  0  0  0  0  0  0  0  0  0
   -0.4044    0.5122   -4.5932 N   0  0  0  0  0  0  0  0  0  0  0  0
    0.2803   -0.2582   -3.6591 C   0  0  0  0  0  0  0  0  0  0  0  0
    1.0803   -0.9510   -3.9021 H   0  0  0  0  0  0  0  0  0  0  0  0
   -0.5557    1.1708    0.4584 C   0  0  0  0  0  0  0  0  0  0  0  0
   -1.5259    1.8114    0.0591 O   0  0  0  0  0  0  0  0  0  0  0  0
    0.3287    1.7763    1.3325 N   0  0  0  0  0  0  0  0  0  0  0  0
    1.0684    1.2028    1.7288 H   0  0  0  0  0  0  0  0  0  0  0  0
    0.2040    3.1619    1.7692 C   0  0  0  0  0  0  0  0  0  0  0  0
   -0.7366    3.3102    2.3099 H   0  0  0  0  0  0  0  0  0  0  0  0
    1.0312    3.4244    2.4358 H   0  0  0  0  0  0  0  0  0  0  0  0
    0.2267    3.8388    0.9086 H   0  0  0  0  0  0  0  0  0  0  0  0
  1  2  1  0  0  0  0
  2  3  1  0  0  0  0
  2  4  1  0  0  0  0
  2  5  1  0  0  0  0
  5  6  2  0  0  0  0
  5  7  1  0  0  0  0
  7  8  1  0  0  0  0
  7  9  1  0  0  0  0
  9 10  1  0  0  0  0
  9 11  1  0  0  0  0
  9 22  1  0  0  0  0
 11 12  1  0  0  0  0
 11 13  1  0  0  0  0
 11 14  1  0  0  0  0
 14 15  1  0  0  0  0
 14 20  2  0  0  0  0
 15 16  1  0  0  0  0
 15 17  1  0  0  0  0
 17 18  1  0  0  0  0
 17 19  2  0  0  0  0
 19 20  1  0  0  0  0
 20 21  1  0  0  0  0
 22 23  2  0  0  0  0
 22 24  1  0  0  0  0
 24 25  1  0  0  0  0
 24 26  1  0  0  0  0
 26 27  1  0  0  0  0
 26 28  1  0  0  0  0
 26 29  1  0  0  0  0
M  END
$$$$

  -OEChem-04042215593D

 29 29  0     1  0  0  0  0  0999 V2000
   -3.4961   -3.6927    1.3404 H   0  0  0  0  0  0  0  0  0  0  0  0
   -3.4604   -2.7411    0.8026 C   0  0  0  0  0  0  0  0  0  0  0  0
   -4.1402   -2.0365    1.2877 H   0  0  0  0  0  0  0  0  0  0  0  0
   -3.7893   -2.9054   -0.2264 H   0  0  0  0  0  0  0  0  0  0  0  0
   -2.0480   -2.1884    0.8121 C   0  0  0  0  0  0  0  0  0  0  0  0
   -1.1517   -2.8111    1.3594 O   0  0  0  0  0  0  0  0  0  0  0  0
   -1.7785   -0.9844    0.1957 N   0  0  0  0  0  0  0  0  0  0  0  0
   -2.5609   -0.4839   -0.2203 H   0  0  0  0  0  0  0  0  0  0  0  0
   -0.4661   -0.3204    0.1772 C   0  0  1  0  0  0  0  0  0  0  0  0
    0.1249   -0.7335    1.0007 H   0  0  0  0  0  0  0  0  0  0  0  0
    0.2869   -0.6954   -1.1171 C   0  0  0  0  0  0  0  0  0  0  0  0
    1.3380   -0.4223   -0.9801 H   0  0  0  0  0  0  0  0  0  0  0  0
    0.2529   -1.7825   -1.2467 H   0  0  0  0  0  0  0  0  0  0  0  0
   -0.1886   -0.0302   -2.3910 C   0  0  0  0  0  0  0  0  0  0  0  0
   -1.0059    1.0641   -2.5748 N   0  0  0  0  0  0  0  0  0  0  0  0
   -1.4124    1.6396   -1.8305 H   0  0  0  0  0  0  0  0  0  0  0  0
   -1.1810    1.2711   -3.9280 C   0  0  0  0  0  0  0  0  0  0  0  0
   -1.7733    2.0691   -4.3669 H   0  0  0  0  0  0  0  0  0  0  0  0
   -0.5269    0.3602   -4.6074 N   0  0  0  0  0  0  0  0  0  0  0  0
    0.0888   -0.4562   -3.6642 C   0  0  0  0  0  0  0  0  0  0  0  0
    0.7035   -1.3183   -3.9057 H   0  0  0  0  0  0  0  0  0  0  0  0
   -0.5502    1.1919    0.4774 C   0  0  0  0  0  0  0  0  0  0  0  0
   -1.4958    1.8586    0.0637 O   0  0  0  0  0  0  0  0  0  0  0  0
    0.3442    1.7789    1.3542 N   0  0  0  0  0  0  0  0  0  0  0  0
    1.0607    1.1857    1.7641 H   0  0  0  0  0  0  0  0  0  0  0  0
    0.2492    3.1674    1.7899 C   0  0  0  0  0  0  0  0  0  0  0  0
   -0.6896    3.3371    2.3273 H   0  0  0  0  0  0  0  0  0  0  0  0
    1.0799    3.4115    2.4591 H   0  0  0  0  0  0  0  0  0  0  0  0
    0.2905    3.8432    0.9292 H   0  0  0  0  0  0  0  0  0  0  0  0
  1  2  1  0  0  0  0
  2  3  1  0  0  0  0
  2  4  1  0  0  0  0
  2  5  1  0  0  0  0
  5  6  2  0  0  0  0
  5  7  1  0  0  0  0
  7  8  1  0  0  0  0
  7  9  1  0  0  0  0
  9 10  1  0  0  0  0
  9 11  1  0  0  0  0
  9 22  1  0  0  0  0
 11 12  1  0  0  0  0
 11 13  1  0  0  0  0
 11 14  1  0  0  0  0
 14 15  1  0  0  0  0
 14 20  2  0  0  0  0
 15 16  1  0  0  0  0
 15 17  1  0  0  0  0
 17 18  1  0  0  0  0
 17 19  2  0  0  0  0
 19 20  1  0  0  0  0
 20 21  1  0  0  0  0
 22 23  2  0  0  0  0
 22 24  1  0  0  0  0
 24 25  1  0  0  0  0
 24 26  1  0  0  0  0
 26 27  1  0  0  0  0
 26 28  1  0  0  0  0
 26 29  1  0  0  0  0
M  END
$$$$

  -OEChem-04042215593D

 29 29  0     1  0  0  0  0  0999 V2000
   -3.5090   -3.6900    1.3268 H   0  0  0  0  0  0  0  0  0  0  0  0
   -3.4659   -2.7486    0.7720 C   0  0  0  0  0  0  0  0  0  0  0  0
   -4.1628   -2.0403    1.2262 H   0  0  0  0  0  0  0  0  0  0  0  0
   -3.7672   -2.9349   -0.2616 H   0  0  0  0  0  0  0  0  0  0  0  0
   -2.0578   -2.1855    0.8061 C   0  0  0  0  0  0  0  0  0  0  0  0
   -1.1661   -2.8032    1.3662 O   0  0  0  0  0  0  0  0  0  0  0  0
   -1.7850   -0.9808    0.1924 N   0  0  0  0  0  0  0  0  0  0  0  0
   -2.5611   -0.4895   -0.2464 H   0  0  0  0  0  0  0  0  0  0  0  0
   -0.4741   -0.3149    0.1809 C   0  0  1  0  0  0  0  0  0  0  0  0
    0.1098   -0.7282    1.0096 H   0  0  0  0  0  0  0  0  0  0  0  0
    0.2900   -0.6982   -1.1040 C   0  0  0  0  0  0  0  0  0  0  0  0
    1.3390   -0.4194   -0.9626 H   0  0  0  0  0  0  0  0  0  0  0  0
    0.2612   -1.7865   -1.2251 H   0  0  0  0  0  0  0  0  0  0  0  0
   -0.1823   -0.0403   -2.3828 C   0  0  0  0  0  0  0  0  0  0  0  0
   -0.7677    1.1900   -2.5895 N   0  0  0  0  0  0  0  0  0  0  0  0
   -1.0551    1.8452   -1.8560 H   0  0  0  0  0  0  0  0  0  0  0  0
   -1.0411    1.3349   -3.9345 C   0  0  0  0  0  0  0  0  0  0  0  0
   -1.5154    2.2018   -4.3856 H   0  0  0  0  0  0  0  0  0  0  0  0
   -0.6523    0.2668   -4.5881 N   0  0  0  0  0  0  0  0  0  0  0  0
   -0.1200   -0.5952   -3.6350 C   0  0  0  0  0  0  0  0  0  0  0  0
    0.2863   -1.5781   -3.8546 H   0  0  0  0  0  0  0  0  0  0  0  0
   -0.5481    1.1980    0.4801 C   0  0  0  0  0  0  0  0  0  0  0  0
   -1.4641    1.8848    0.0360 O   0  0  0  0  0  0  0  0  0  0  0  0
    0.3486    1.7763    1.3604 N   0  0  0  0  0  0  0  0  0  0  0  0
    1.0496    1.1731    1.7826 H   0  0  0  0  0  0  0  0  0  0  0  0
    0.2825    3.1725    1.7763 C   0  0  0  0  0  0  0  0  0  0  0  0
   -0.6811    3.3873    2.2505 H   0  0  0  0  0  0  0  0  0  0  0  0
    1.0770    3.3897    2.4966 H   0  0  0  0  0  0  0  0  0  0  0  0
    0.4076    3.8359    0.9141 H   0  0  0  0  0  0  0  0  0  0  0  0
  1  2  1  0  0  0  0
  2  3  1  0  0  0  0
  2  4  1  0  0  0  0
  2  5  1  0  0  0  0
  5  6  2  0  0  0  0
  5  7  1  0  0  0  0
  7  8  1  0  0  0  0
  7  9  1  0  0  0  0
  9 10  1  0  0  0  0
  9 11  1  0  0  0  0
  9 22  1  0  0  0  0
 11 12  1  0  0  0  0
 11 13  1  0  0  0  0
 11 14  1  0  0  0  0
 14 15  1  0  0  0  0
 14 20  2  0  0  0  0
 15 16  1  0  0  0  0
 15 17  1  0  0  0  0
 17 18  1  0  0  0  0
 17 19  2  0  0  0  0
 19 20  1  0  0  0  0
 20 21  1  0  0  0  0
 22 23  2  0  0  0  0
 22 24  1  0  0  0  0
 24 25  1  0  0  0  0
 24 26  1  0  0  0  0
 26 27  1  0  0  0  0
 26 28  1  0  0  0  0
 26 29  1  0  0  0  0
M  END
$$$$

  -OEChem-04042215593D

 29 29  0     1  0  0  0  0  0999 V2000
   -3.5245   -3.6867    1.3163 H   0  0  0  0  0  0  0  0  0  0  0  0
   -3.4758   -2.7476    0.7581 C   0  0  0  0  0  0  0  0  0  0  0  0
   -4.1792   -2.0382    1.2004 H   0  0  0  0  0  0  0  0  0  0  0  0
   -3.7641   -2.9386   -0.2785 H   0  0  0  0  0  0  0  0  0  0  0  0
   -2.0688   -2.1830    0.8080 C   0  0  0  0  0  0  0  0  0  0  0  0
   -1.1857   -2.7932    1.3897 O   0  0  0  0  0  0  0  0  0  0  0  0
   -1.7878   -0.9852    0.1848 N   0  0  0  0  0  0  0  0  0  0  0  0
   -2.5570   -0.5002   -0.2734 H   0  0  0  0  0  0  0  0  0  0  0  0
   -0.4766   -0.3205    0.1802 C   0  0  1  0  0  0  0  0  0  0  0  0
    0.0985   -0.7279    1.0177 H   0  0  0  0  0  0  0  0  0  0  0  0
    0.2985   -0.7152   -1.0938 C   0  0  0  0  0  0  0  0  0  0  0  0
    1.3476   -0.4385   -0.9499 H   0  0  0  0  0  0  0  0  0  0  0  0
    0.2662   -1.8041   -1.2082 H   0  0  0  0  0  0  0  0  0  0  0  0
   -0.1759   -0.0596   -2.3722 C   0  0  0  0  0  0  0  0  0  0  0  0
   -0.5064    1.2548   -2.6217 N   0  0  0  0  0  0  0  0  0  0  0  0
   -0.6513    1.9745   -1.9086 H   0  0  0  0  0  0  0  0  0  0  0  0
   -0.8822    1.3733   -3.9449 C   0  0  0  0  0  0  0  0  0  0  0  0
   -1.2240    2.2901   -4.4164 H   0  0  0  0  0  0  0  0  0  0  0  0
   -0.7797    0.2135   -4.5480 N   0  0  0  0  0  0  0  0  0  0  0  0
   -0.3411   -0.6845   -3.5811 C   0  0  0  0  0  0  0  0  0  0  0  0
   -0.1570   -1.7393   -3.7612 H   0  0  0  0  0  0  0  0  0  0  0  0
   -0.5417    1.1959    0.4616 C   0  0  0  0  0  0  0  0  0  0  0  0
   -1.4241    1.8960   -0.0252 O   0  0  0  0  0  0  0  0  0  0  0  0
    0.3521    1.7748    1.3446 N   0  0  0  0  0  0  0  0  0  0  0  0
    1.0234    1.1633    1.8018 H   0  0  0  0  0  0  0  0  0  0  0  0
    0.2953    3.1763    1.7440 C   0  0  0  0  0  0  0  0  0  0  0  0
   -0.6711    3.4051    2.2055 H   0  0  0  0  0  0  0  0  0  0  0  0
    1.0844    3.3947    2.4700 H   0  0  0  0  0  0  0  0  0  0  0  0
    0.4350    3.8286    0.8757 H   0  0  0  0  0  0  0  0  0  0  0  0
  1  2  1  0  0  0  0
  2  3  1  0  0  0  0
  2  4  1  0  0  0  0
  2  5  1  0  0  0  0
  5  6  2  0  0  0  0
  5  7  1  0  0  0  0
  7  8  1  0  0  0  0
  7  9  1  0  0  0  0
  9 10  1  0  0  0  0
  9 11  1  0  0  0  0
  9 22  1  0  0  0  0
 11 12  1  0  0  0  0
 11 13  1  0  0  0  0
 11 14  1  0  0  0  0
 14 15  1  0  0  0  0
 14 20  2  0  0  0  0
 15 16  1  0  0  0  0
 15 17  1  0  0  0  0
 17 18  1  0  0  0  0
 17 19  2  0  0  0  0
 19 20  1  0  0  0  0
 20 21  1  0  0  0  0
 22 23  2  0  0  0  0
 22 24  1  0  0  0  0
 24 25  1  0  0  0  0
 24 26  1  0  0  0  0
 26 27  1  0  0  0  0
 26 28  1  0  0  0  0
 26 29  1  0  0  0  0
M  END
$$$$

  -OEChem-04042215593D

 29 29  0     1  0  0  0  0  0999 V2000
   -3.5456   -3.6734    1.3302 H   0  0  0  0  0  0  0  0  0  0  0  0
   -3.4876   -2.7401    0.7631 C   0  0  0  0  0  0  0  0  0  0  0  0
   -4.1872   -2.0211    1.1960 H   0  0  0  0  0  0  0  0  0  0  0  0
   -3.7736   -2.9388   -0.2727 H   0  0  0  0  0  0  0  0  0  0  0  0
   -2.0768   -2.1852    0.8127 C   0  0  0  0  0  0  0  0  0  0  0  0
   -1.2014   -2.7931    1.4083 O   0  0  0  0  0  0  0  0  0  0  0  0
   -1.7832   -0.9985    0.1744 N   0  0  0  0  0  0  0  0  0  0  0  0
   -2.5464   -0.5123   -0.2929 H   0  0  0  0  0  0  0  0  0  0  0  0
   -0.4700   -0.3378    0.1757 C   0  0  1  0  0  0  0  0  0  0  0  0
    0.0982   -0.7371    1.0217 H   0  0  0  0  0  0  0  0  0  0  0  0
    0.3124   -0.7395   -1.0896 C   0  0  0  0  0  0  0  0  0  0  0  0
    1.3644   -0.4734   -0.9470 H   0  0  0  0  0  0  0  0  0  0  0  0
    0.2687   -1.8281   -1.2044 H   0  0  0  0  0  0  0  0  0  0  0  0
   -0.1685   -0.0763   -2.3595 C   0  0  0  0  0  0  0  0  0  0  0  0
   -0.2362    1.2632   -2.6769 N   0  0  0  0  0  0  0  0  0  0  0  0
   -0.1674    2.0339   -2.0110 H   0  0  0  0  0  0  0  0  0  0  0  0
   -0.7222    1.3836   -3.9642 C   0  0  0  0  0  0  0  0  0  0  0  0
   -0.9192    2.3244   -4.4702 H   0  0  0  0  0  0  0  0  0  0  0  0
   -0.9242    0.1973   -4.4854 N   0  0  0  0  0  0  0  0  0  0  0  0
   -0.5793   -0.7186   -3.4983 C   0  0  0  0  0  0  0  0  0  0  0  0
   -0.6295   -1.7970   -3.6156 H   0  0  0  0  0  0  0  0  0  0  0  0
   -0.5360    1.1825    0.4320 C   0  0  0  0  0  0  0  0  0  0  0  0
   -1.4024    1.8793   -0.0852 O   0  0  0  0  0  0  0  0  0  0  0  0
    0.3485    1.7722    1.3177 N   0  0  0  0  0  0  0  0  0  0  0  0
    0.9985    1.1625    1.8070 H   0  0  0  0  0  0  0  0  0  0  0  0
    0.2860    3.1785    1.6989 C   0  0  0  0  0  0  0  0  0  0  0  0
   -0.6818    3.4095    2.1567 H   0  0  0  0  0  0  0  0  0  0  0  0
    1.0741    3.4094    2.4222 H   0  0  0  0  0  0  0  0  0  0  0  0
    0.4235    3.8204    0.8225 H   0  0  0  0  0  0  0  0  0  0  0  0
  1  2  1  0  0  0  0
  2  3  1  0  0  0  0
  2  4  1  0  0  0  0
  2  5  1  0  0  0  0
  5  6  2  0  0  0  0
  5  7  1  0  0  0  0
  7  8  1  0  0  0  0
  7  9  1  0  0  0  0
  9 10  1  0  0  0  0
  9 11  1  0  0  0  0
  9 22  1  0  0  0  0
 11 12  1  0  0  0  0
 11 13  1  0  0  0  0
 11 14  1  0  0  0  0
 14 15  1  0  0  0  0
 14 20  2  0  0  0  0
 15 16  1  0  0  0  0
 15 17  1  0  0  0  0
 17 18  1  0  0  0  0
 17 19  2  0  0  0  0
 19 20  1  0  0  0  0
 20 21  1  0  0  0  0
 22 23  2  0  0  0  0
 22 24  1  0  0  0  0
 24 25  1  0  0  0  0
 24 26  1  0  0  0  0
 26 27  1  0  0  0  0
 26 28  1  0  0  0  0
 26 29  1  0  0  0  0
M  END
$$$$

  -OEChem-04042215593D

 29 29  0     1  0  0  0  0  0999 V2000
   -3.5634   -3.6495    1.3586 H   0  0  0  0  0  0  0  0  0  0  0  0
   -3.4967   -2.7216    0.7836 C   0  0  0  0  0  0  0  0  0  0  0  0
   -4.1842   -1.9898    1.2144 H   0  0  0  0  0  0  0  0  0  0  0  0
   -3.7915   -2.9249   -0.2488 H   0  0  0  0  0  0  0  0  0  0  0  0
   -2.0783   -2.1852    0.8209 C   0  0  0  0  0  0  0  0  0  0  0  0
   -1.2092   -2.7960    1.4228 O   0  0  0  0  0  0  0  0  0  0  0  0
   -1.7698   -1.0136    0.1626 N   0  0  0  0  0  0  0  0  0  0  0  0
   -2.5309   -0.5136   -0.2943 H   0  0  0  0  0  0  0  0  0  0  0  0
   -0.4519   -0.3621    0.1650 C   0  0  1  0  0  0  0  0  0  0  0  0
    0.1116   -0.7510    1.0190 H   0  0  0  0  0  0  0  0  0  0  0  0
    0.3318   -0.7712   -1.0954 C   0  0  0  0  0  0  0  0  0  0  0  0
    1.3884   -0.5217   -0.9568 H   0  0  0  0  0  0  0  0  0  0  0  0
    0.2702   -1.8583   -1.2143 H   0  0  0  0  0  0  0  0  0  0  0  0
   -0.1568   -0.0954   -2.3526 C   0  0  0  0  0  0  0  0  0  0  0  0
    0.0329    1.2058   -2.7650 N   0  0  0  0  0  0  0  0  0  0  0  0
    0.4067    1.9660   -2.2000 H   0  0  0  0  0  0  0  0  0  0  0  0
   -0.5703    1.3635   -3.9982 C   0  0  0  0  0  0  0  0  0  0  0  0
   -0.6130    2.2944   -4.5565 H   0  0  0  0  0  0  0  0  0  0  0  0
   -1.0891    0.2273   -4.3985 N   0  0  0  0  0  0  0  0  0  0  0  0
   -0.8341   -0.6894   -3.3849 C   0  0  0  0  0  0  0  0  0  0  0  0
   -1.1305   -1.7338   -3.4099 H   0  0  0  0  0  0  0  0  0  0  0  0
   -0.5263    1.1623    0.3916 C   0  0  0  0  0  0  0  0  0  0  0  0
   -1.4099    1.8366   -0.1250 O   0  0  0  0  0  0  0  0  0  0  0  0
    0.3453    1.7728    1.2765 N   0  0  0  0  0  0  0  0  0  0  0  0
    0.9947    1.1753    1.7811 H   0  0  0  0  0  0  0  0  0  0  0  0
    0.2445    3.1767    1.6592 C   0  0  0  0  0  0  0  0  0  0  0  0
   -0.7240    3.3769    2.1298 H   0  0  0  0  0  0  0  0  0  0  0  0
    1.0346    3.4324    2.3720 H   0  0  0  0  0  0  0  0  0  0  0  0
    0.3501    3.8226    0.7812 H   0  0  0  0  0  0  0  0  0  0  0  0
  1  2  1  0  0  0  0
  2  3  1  0  0  0  0
  2  4  1  0  0  0  0
  2  5  1  0  0  0  0
  5  6  2  0  0  0  0
  5  7  1  0  0  0  0
  7  8  1  0  0  0  0
  7  9  1  0  0  0  0
  9 10  1  0  0  0  0
  9 11  1  0  0  0  0
  9 22  1  0  0  0  0
 11 12  1  0  0  0  0
 11 13  1  0  0  0  0
 11 14  1  0  0  0  0
 14 15  1  0  0  0  0
 14 20  2  0  0  0  0
 15 16  1  0  0  0  0
 15 17  1  0  0  0  0
 17 18  1  0  0  0  0
 17 19  2  0  0  0  0
 19 20  1  0  0  0  0
 20 21  1  0  0  0  0
 22 23  2  0  0  0  0
 22 24  1  0  0  0  0
 24 25  1  0  0  0  0
 24 26  1  0  0  0  0
 26 27  1  0  0  0  0
 26 28  1  0  0  0  0
 26 29  1  0  0  0  0
M  END
$$$$

  -OEChem-04042215593D

 29 29  0     1  0  0  0  0  0999 V2000
   -3.5764   -3.6233    1.4008 H   0  0  0  0  0  0  0  0  0  0  0  0
   -3.5040   -2.7004    0.8187 C   0  0  0  0  0  0  0  0  0  0  0  0
   -4.1678   -1.9527    1.2594 H   0  0  0  0  0  0  0  0  0  0  0  0
   -3.8244   -2.9036   -0.2060 H   0  0  0  0  0  0  0  0  0  0  0  0
   -2.0753   -2.1915    0.8223 C   0  0  0  0  0  0  0  0  0  0  0  0
   -1.2054   -2.8132    1.4120 O   0  0  0  0  0  0  0  0  0  0  0  0
   -1.7594   -1.0302    0.1499 N   0  0  0  0  0  0  0  0  0  0  0  0
   -2.5246   -0.5073   -0.2739 H   0  0  0  0  0  0  0  0  0  0  0  0
   -0.4385   -0.3850    0.1525 C   0  0  1  0  0  0  0  0  0  0  0  0
    0.1233   -0.7663    1.0109 H   0  0  0  0  0  0  0  0  0  0  0  0
    0.3478   -0.7935   -1.1057 C   0  0  0  0  0  0  0  0  0  0  0  0
    1.4071   -0.5566   -0.9669 H   0  0  0  0  0  0  0  0  0  0  0  0
    0.2735   -1.8789   -1.2327 H   0  0  0  0  0  0  0  0  0  0  0  0
   -0.1451   -0.1058   -2.3528 C   0  0  0  0  0  0  0  0  0  0  0  0
    0.2670    1.0941   -2.8898 N   0  0  0  0  0  0  0  0  0  0  0  0
    0.9041    1.7611   -2.4605 H   0  0  0  0  0  0  0  0  0  0  0  0
   -0.4343    1.3079   -4.0617 C   0  0  0  0  0  0  0  0  0  0  0  0
   -0.3401    2.1869   -4.6928 H   0  0  0  0  0  0  0  0  0  0  0  0
   -1.2303    0.2947   -4.3065 N   0  0  0  0  0  0  0  0  0  0  0  0
   -1.0567   -0.5937   -3.2512 C   0  0  0  0  0  0  0  0  0  0  0  0
   -1.5705   -1.5455   -3.1554 H   0  0  0  0  0  0  0  0  0  0  0  0
   -0.5252    1.1415    0.3596 C   0  0  0  0  0  0  0  0  0  0  0  0
   -1.4311    1.7930   -0.1469 O   0  0  0  0  0  0  0  0  0  0  0  0
    0.3349    1.7691    1.2437 N   0  0  0  0  0  0  0  0  0  0  0  0
    0.9873    1.1821    1.7563 H   0  0  0  0  0  0  0  0  0  0  0  0
    0.2018    3.1694    1.6291 C   0  0  0  0  0  0  0  0  0  0  0  0
   -0.7586    3.3401    2.1268 H   0  0  0  0  0  0  0  0  0  0  0  0
    1.0040    3.4500    2.3185 H   0  0  0  0  0  0  0  0  0  0  0  0
    0.2620    3.8175    0.7486 H   0  0  0  0  0  0  0  0  0  0  0  0
  1  2  1  0  0  0  0
  2  3  1  0  0  0  0
  2  4  1  0  0  0  0
  2  5  1  0  0  0  0
  5  6  2  0  0  0  0
  5  7  1  0  0  0  0
  7  8  1  0  0  0  0
  7  9  1  0  0  0  0
  9 10  1  0  0  0  0
  9 11  1  0  0  0  0
  9 22  1  0  0  0  0
 11 12  1  0  0  0  0
 11 13  1  0  0  0  0
 11 14  1  0  0  0  0
 14 15  1  0  0  0  0
 14 20  2  0  0  0  0
 15 16  1  0  0  0  0
 15 17  1  0  0  0  0
 17 18  1  0  0  0  0
 17 19  2  0  0  0  0
 19 20  1  0  0  0  0
 20 21  1  0  0  0  0
 22 23  2  0  0  0  0
 22 24  1  0  0  0  0
 24 25  1  0  0  0  0
 24 26  1  0  0  0  0
 26 27  1  0  0  0  0
 26 28  1  0  0  0  0
 26 29  1  0  0  0  0
M  END
$$$$

  -OEChem-04042215593D

 29 29  0     1  0  0  0  0  0999 V2000
   -3.5799   -3.6153    1.4424 H   0  0  0  0  0  0  0  0  0  0  0  0
   -3.5086   -2.6959    0.8547 C   0  0  0  0  0  0  0  0  0  0  0  0
   -4.1544   -1.9384    1.3054 H   0  0  0  0  0  0  0  0  0  0  0  0
   -3.8528   -2.8997   -0.1621 H   0  0  0  0  0  0  0  0  0  0  0  0
   -2.0741   -2.2035    0.8265 C   0  0  0  0  0  0  0  0  0  0  0  0
   -1.1984   -2.8346    1.3974 O   0  0  0  0  0  0  0  0  0  0  0  0
   -1.7601   -1.0458    0.1470 N   0  0  0  0  0  0  0  0  0  0  0  0
   -2.5317   -0.5044   -0.2412 H   0  0  0  0  0  0  0  0  0  0  0  0
   -0.4378   -0.4023    0.1451 C   0  0  1  0  0  0  0  0  0  0  0  0
    0.1254   -0.7792    1.0047 H   0  0  0  0  0  0  0  0  0  0  0  0
    0.3511   -0.8025   -1.1143 C   0  0  0  0  0  0  0  0  0  0  0  0
    1.4096   -0.5658   -0.9700 H   0  0  0  0  0  0  0  0  0  0  0  0
    0.2778   -1.8871   -1.2493 H   0  0  0  0  0  0  0  0  0  0  0  0
   -0.1387   -0.1096   -2.3596 C   0  0  0  0  0  0  0  0  0  0  0  0
    0.4503    0.9326   -3.0406 N   0  0  0  0  0  0  0  0  0  0  0  0
    1.2829    1.4453   -2.7605 H   0  0  0  0  0  0  0  0  0  0  0  0
   -0.3248    1.2191   -4.1492 C   0  0  0  0  0  0  0  0  0  0  0  0
   -0.1190    2.0082   -4.8668 H   0  0  0  0  0  0  0  0  0  0  0  0
   -1.3444    0.3971   -4.2161 N   0  0  0  0  0  0  0  0  0  0  0  0
   -1.2400   -0.4350   -3.1070 C   0  0  0  0  0  0  0  0  0  0  0  0
   -1.9316   -1.2381   -2.8710 H   0  0  0  0  0  0  0  0  0  0  0  0
   -0.5345    1.1244    0.3453 C   0  0  0  0  0  0  0  0  0  0  0  0
   -1.4630    1.7582   -0.1428 O   0  0  0  0  0  0  0  0  0  0  0  0
    0.3205    1.7635    1.2260 N   0  0  0  0  0  0  0  0  0  0  0  0
    0.9959    1.1901    1.7235 H   0  0  0  0  0  0  0  0  0  0  0  0
    0.1762    3.1644    1.6045 C   0  0  0  0  0  0  0  0  0  0  0  0
   -0.7853    3.3299    2.1019 H   0  0  0  0  0  0  0  0  0  0  0  0
    0.9764    3.4548    2.2921 H   0  0  0  0  0  0  0  0  0  0  0  0
    0.2307    3.8084    0.7204 H   0  0  0  0  0  0  0  0  0  0  0  0
  1  2  1  0  0  0  0
  2  3  1  0  0  0  0
  2  4  1  0  0  0  0
  2  5  1  0  0  0  0
  5  6  2  0  0  0  0
  5  7  1  0  0  0  0
  7  8  1  0  0  0  0
  7  9  1  0  0  0  0
  9 10  1  0  0  0  0
  9 11  1  0  0  0  0
  9 22  1  0  0  0  0
 11 12  1  0  0  0  0
 11 13  1  0  0  0  0
 11 14  1  0  0  0  0
 14 15  1  0  0  0  0
 14 20  2  0  0  0  0
 15 16  1  0  0  0  0
 15 17  1  0  0  0  0
 17 18  1  0  0  0  0
 17 19  2  0  0  0  0
 19 20  1  0  0  0  0
 20 21  1  0  0  0  0
 22 23  2  0  0  0  0
 22 24  1  0  0  0  0
 24 25  1  0  0  0  0
 24 26  1  0  0  0  0
 26 27  1  0  0  0  0
 26 28  1  0  0  0  0
 26 29  1  0  0  0  0
M  END
$$$$

  -OEChem-04042215593D

 29 29  0     1  0  0  0  0  0999 V2000
   -3.5692   -3.6131    1.5060 H   0  0  0  0  0  0  0  0  0  0  0  0
   -3.5072   -2.7012    0.9059 C   0  0  0  0  0  0  0  0  0  0  0  0
   -4.1335   -1.9334    1.3665 H   0  0  0  0  0  0  0  0  0  0  0  0
   -3.8819   -2.9134   -0.0983 H   0  0  0  0  0  0  0  0  0  0  0  0
   -2.0702   -2.2217    0.8310 C   0  0  0  0  0  0  0  0  0  0  0  0
   -1.1819   -2.8624    1.3709 O   0  0  0  0  0  0  0  0  0  0  0  0
   -1.7697   -1.0610    0.1505 N   0  0  0  0  0  0  0  0  0  0  0  0
   -2.5515   -0.5060   -0.1958 H   0  0  0  0  0  0  0  0  0  0  0  0
   -0.4488   -0.4145    0.1379 C   0  0  1  0  0  0  0  0  0  0  0  0
    0.1220   -0.7911    0.9927 H   0  0  0  0  0  0  0  0  0  0  0  0
    0.3391   -0.8011   -1.1272 C   0  0  0  0  0  0  0  0  0  0  0  0
    1.3931   -0.5508   -0.9737 H   0  0  0  0  0  0  0  0  0  0  0  0
    0.2821   -1.8857   -1.2678 H   0  0  0  0  0  0  0  0  0  0  0  0
   -0.1421   -0.1125   -2.3805 C   0  0  0  0  0  0  0  0  0  0  0  0
    0.5769    0.7221   -3.2078 N   0  0  0  0  0  0  0  0  0  0  0  0
    1.5377    1.0275   -3.0726 H   0  0  0  0  0  0  0  0  0  0  0  0
   -0.2388    1.1046   -4.2566 C   0  0  0  0  0  0  0  0  0  0  0  0
    0.0534    1.7703   -5.0636 H   0  0  0  0  0  0  0  0  0  0  0  0
   -1.4175    0.5427   -4.1435 N   0  0  0  0  0  0  0  0  0  0  0  0
   -1.3729   -0.2126   -2.9766 C   0  0  0  0  0  0  0  0  0  0  0  0
   -2.1968   -0.8106   -2.5999 H   0  0  0  0  0  0  0  0  0  0  0  0
   -0.5550    1.1106    0.3442 C   0  0  0  0  0  0  0  0  0  0  0  0
   -1.5030    1.7320   -0.1218 O   0  0  0  0  0  0  0  0  0  0  0  0
    0.3025    1.7547    1.2188 N   0  0  0  0  0  0  0  0  0  0  0  0
    1.0036    1.1914    1.6915 H   0  0  0  0  0  0  0  0  0  0  0  0
    0.1577    3.1570    1.5920 C   0  0  0  0  0  0  0  0  0  0  0  0
   -0.8088    3.3266    2.0781 H   0  0  0  0  0  0  0  0  0  0  0  0
    0.9506    3.4478    2.2878 H   0  0  0  0  0  0  0  0  0  0  0  0
    0.2236    3.7977    0.7065 H   0  0  0  0  0  0  0  0  0  0  0  0
  1  2  1  0  0  0  0
  2  3  1  0  0  0  0
  2  4  1  0  0  0  0
  2  5  1  0  0  0  0
  5  6  2  0  0  0  0
  5  7  1  0  0  0  0
  7  8  1  0  0  0  0
  7  9  1  0  0  0  0
  9 10  1  0  0  0  0
  9 11  1  0  0  0  0
  9 22  1  0  0  0  0
 11 12  1  0  0  0  0
 11 13  1  0  0  0  0
 11 14  1  0  0  0  0
 14 15  1  0  0  0  0
 14 20  2  0  0  0  0
 15 16  1  0  0  0  0
 15 17  1  0  0  0  0
 17 18  1  0  0  0  0
 17 19  2  0  0  0  0
 19 20  1  0  0  0  0
 20 21  1  0  0  0  0
 22 23  2  0  0  0  0
 22 24  1  0  0  0  0
 24 25  1  0  0  0  0
 24 26  1  0  0  0  0
 26 27  1  0  0  0  0
 26 28  1  0  0  0  0
 26 29  1  0  0  0  0
M  END
$$$$

  -OEChem-04042215593D

 29 29  0     1  0  0  0  0  0999 V2000
   -3.5457   -3.6318    1.5512 H   0  0  0  0  0  0  0  0  0  0  0  0
   -3.4978   -2.7203    0.9491 C   0  0  0  0  0  0  0  0  0  0  0  0
   -4.1159   -1.9531    1.4218 H   0  0  0  0  0  0  0  0  0  0  0  0
   -3.8925   -2.9340   -0.0471 H   0  0  0  0  0  0  0  0  0  0  0  0
   -2.0636   -2.2381    0.8442 C   0  0  0  0  0  0  0  0  0  0  0  0
   -1.1619   -2.8815    1.3581 O   0  0  0  0  0  0  0  0  0  0  0  0
   -1.7815   -1.0713    0.1662 N   0  0  0  0  0  0  0  0  0  0  0  0
   -2.5737   -0.5128   -0.1490 H   0  0  0  0  0  0  0  0  0  0  0  0
   -0.4637   -0.4187    0.1354 C   0  0  1  0  0  0  0  0  0  0  0  0
    0.1211   -0.7967    0.9802 H   0  0  0  0  0  0  0  0  0  0  0  0
    0.3105   -0.7953   -1.1422 C   0  0  0  0  0  0  0  0  0  0  0  0
    1.3604   -0.5277   -0.9890 H   0  0  0  0  0  0  0  0  0  0  0  0
    0.2718   -1.8807   -1.2812 H   0  0  0  0  0  0  0  0  0  0  0  0
   -0.1667   -0.1189   -2.4068 C   0  0  0  0  0  0  0  0  0  0  0  0
    0.6270    0.4611   -3.3726 N   0  0  0  0  0  0  0  0  0  0  0  0
    1.6430    0.5137   -3.3682 H   0  0  0  0  0  0  0  0  0  0  0  0
   -0.1890    0.9639   -4.3686 C   0  0  0  0  0  0  0  0  0  0  0  0
    0.1586    1.4757   -5.2615 H   0  0  0  0  0  0  0  0  0  0  0  0
   -1.4461    0.7292   -4.0850 N   0  0  0  0  0  0  0  0  0  0  0  0
   -1.4487    0.0684   -2.8606 C   0  0  0  0  0  0  0  0  0  0  0  0
   -2.3456   -0.2613   -2.3462 H   0  0  0  0  0  0  0  0  0  0  0  0
   -0.5761    1.1040    0.3542 C   0  0  0  0  0  0  0  0  0  0  0  0
   -1.5449    1.7162   -0.0802 O   0  0  0  0  0  0  0  0  0  0  0  0
    0.2905    1.7503    1.2178 N   0  0  0  0  0  0  0  0  0  0  0  0
    1.0177    1.1958    1.6602 H   0  0  0  0  0  0  0  0  0  0  0  0
    0.1482    3.1528    1.5915 C   0  0  0  0  0  0  0  0  0  0  0  0
   -0.8161    3.3231    2.0820 H   0  0  0  0  0  0  0  0  0  0  0  0
    0.9442    3.4433    2.2840 H   0  0  0  0  0  0  0  0  0  0  0  0
    0.2105    3.7932    0.7052 H   0  0  0  0  0  0  0  0  0  0  0  0
  1  2  1  0  0  0  0
  2  3  1  0  0  0  0
  2  4  1  0  0  0  0
  2  5  1  0  0  0  0
  5  6  2  0  0  0  0
  5  7  1  0  0  0  0
  7  8  1  0  0  0  0
  7  9  1  0  0  0  0
  9 10  1  0  0  0  0
  9 11  1  0  0  0  0
  9 22  1  0  0  0  0
 11 12  1  0  0  0  0
 11 13  1  0  0  0  0
 11 14  1  0  0  0  0
 14 15  1  0  0  0  0
 14 20  2  0  0  0  0
 15 16  1  0  0  0  0
 15 17  1  0  0  0  0
 17 18  1  0  0  0  0
 17 19  2  0  0  0  0
 19 20  1  0  0  0  0
 20 21  1  0  0  0  0
 22 23  2  0  0  0  0
 22 24  1  0  0  0  0
 24 25  1  0  0  0  0
 24 26  1  0  0  0  0
 26 27  1  0  0  0  0
 26 28  1  0  0  0  0
 26 29  1  0  0  0  0
M  END
$$$$

  -OEChem-04042215593D

 29 29  0     1  0  0  0  0  0999 V2000
   -3.5184   -3.6535    1.5532 H   0  0  0  0  0  0  0  0  0  0  0  0
   -3.4862   -2.7354    0.9600 C   0  0  0  0  0  0  0  0  0  0  0  0
   -4.1068   -1.9794    1.4470 H   0  0  0  0  0  0  0  0  0  0  0  0
   -3.8900   -2.9432   -0.0339 H   0  0  0  0  0  0  0  0  0  0  0  0
   -2.0582   -2.2374    0.8439 C   0  0  0  0  0  0  0  0  0  0  0  0
   -1.1431   -2.8813    1.3327 O   0  0  0  0  0  0  0  0  0  0  0  0
   -1.7966   -1.0575    0.1807 N   0  0  0  0  0  0  0  0  0  0  0  0
   -2.5987   -0.5024   -0.1138 H   0  0  0  0  0  0  0  0  0  0  0  0
   -0.4841   -0.3951    0.1359 C   0  0  1  0  0  0  0  0  0  0  0  0
    0.1112   -0.7793    0.9706 H   0  0  0  0  0  0  0  0  0  0  0  0
    0.2778   -0.7701   -1.1502 C   0  0  0  0  0  0  0  0  0  0  0  0
    1.3259   -0.4905   -1.0050 H   0  0  0  0  0  0  0  0  0  0  0  0
    0.2490   -1.8570   -1.2810 H   0  0  0  0  0  0  0  0  0  0  0  0
   -0.2023   -0.1116   -2.4242 C   0  0  0  0  0  0  0  0  0  0  0  0
    0.5839    0.1920   -3.5148 N   0  0  0  0  0  0  0  0  0  0  0  0
    1.5812    0.0137   -3.6077 H   0  0  0  0  0  0  0  0  0  0  0  0
   -0.2113    0.7721   -4.4847 C   0  0  0  0  0  0  0  0  0  0  0  0
    0.1354    1.1110   -5.4568 H   0  0  0  0  0  0  0  0  0  0  0  0
   -1.4495    0.8506   -4.0655 N   0  0  0  0  0  0  0  0  0  0  0  0
   -1.4581    0.3152   -2.7813 C   0  0  0  0  0  0  0  0  0  0  0  0
   -2.3437    0.2379   -2.1588 H   0  0  0  0  0  0  0  0  0  0  0  0
   -0.5897    1.1244    0.3810 C   0  0  0  0  0  0  0  0  0  0  0  0
   -1.5727    1.7425   -0.0107 O   0  0  0  0  0  0  0  0  0  0  0  0
    0.2956    1.7552    1.2371 N   0  0  0  0  0  0  0  0  0  0  0  0
    1.0450    1.1982    1.6374 H   0  0  0  0  0  0  0  0  0  0  0  0
    0.1668    3.1526    1.6340 C   0  0  0  0  0  0  0  0  0  0  0  0
   -0.7886    3.3212    2.1422 H   0  0  0  0  0  0  0  0  0  0  0  0
    0.9753    3.4277    2.3180 H   0  0  0  0  0  0  0  0  0  0  0  0
    0.2189    3.8055    0.7564 H   0  0  0  0  0  0  0  0  0  0  0  0
  1  2  1  0  0  0  0
  2  3  1  0  0  0  0
  2  4  1  0  0  0  0
  2  5  1  0  0  0  0
  5  6  2  0  0  0  0
  5  7  1  0  0  0  0
  7  8  1  0  0  0  0
  7  9  1  0  0  0  0
  9 10  1  0  0  0  0
  9 11  1  0  0  0  0
  9 22  1  0  0  0  0
 11 12  1  0  0  0  0
 11 13  1  0  0  0  0
 11 14  1  0  0  0  0
 14 15  1  0  0  0  0
 14 20  2  0  0  0  0
 15 16  1  0  0  0  0
 15 17  1  0  0  0  0
 17 18  1  0  0  0  0
 17 19  2  0  0  0  0
 19 20  1  0  0  0  0
 20 21  1  0  0  0  0
 22 23  2  0  0  0  0
 22 24  1  0  0  0  0
 24 25  1  0  0  0  0
 24 26  1  0  0  0  0
 26 27  1  0  0  0  0
 26 28  1  0  0  0  0
 26 29  1  0  0  0  0
M  END
$$$$

  -OEChem-04042215593D

 29 29  0     1  0  0  0  0  0999 V2000
   -3.4900   -3.6614    1.5433 H   0  0  0  0  0  0  0  0  0  0  0  0
   -3.4752   -2.7340    0.9642 C   0  0  0  0  0  0  0  0  0  0  0  0
   -4.0922   -1.9902    1.4742 H   0  0  0  0  0  0  0  0  0  0  0  0
   -3.8948   -2.9291   -0.0256 H   0  0  0  0  0  0  0  0  0  0  0  0
   -2.0532   -2.2235    0.8316 C   0  0  0  0  0  0  0  0  0  0  0  0
   -1.1248   -2.8713    1.2896 O   0  0  0  0  0  0  0  0  0  0  0  0
   -1.8118   -1.0273    0.1898 N   0  0  0  0  0  0  0  0  0  0  0  0
   -2.6227   -0.4771   -0.0893 H   0  0  0  0  0  0  0  0  0  0  0  0
   -0.5044   -0.3557    0.1314 C   0  0  1  0  0  0  0  0  0  0  0  0
    0.0990   -0.7507    0.9549 H   0  0  0  0  0  0  0  0  0  0  0  0
    0.2503   -0.7292   -1.1596 C   0  0  0  0  0  0  0  0  0  0  0  0
    1.2974   -0.4420   -1.0227 H   0  0  0  0  0  0  0  0  0  0  0  0
    0.2264   -1.8173   -1.2807 H   0  0  0  0  0  0  0  0  0  0  0  0
   -0.2319   -0.0893   -2.4427 C   0  0  0  0  0  0  0  0  0  0  0  0
    0.4790   -0.0636   -3.6234 N   0  0  0  0  0  0  0  0  0  0  0  0
    1.4091   -0.4475   -3.7746 H   0  0  0  0  0  0  0  0  0  0  0  0
   -0.2877    0.5588   -4.5895 C   0  0  0  0  0  0  0  0  0  0  0  0
    0.0175    0.7246   -5.6187 H   0  0  0  0  0  0  0  0  0  0  0  0
   -1.4419    0.9171   -4.0861 N   0  0  0  0  0  0  0  0  0  0  0  0
   -1.4235    0.5211   -2.7522 C   0  0  0  0  0  0  0  0  0  0  0  0
   -2.2543    0.6563   -2.0678 H   0  0  0  0  0  0  0  0  0  0  0  0
   -0.5935    1.1594    0.4107 C   0  0  0  0  0  0  0  0  0  0  0  0
   -1.5882    1.7902    0.0740 O   0  0  0  0  0  0  0  0  0  0  0  0
    0.3177    1.7643    1.2585 N   0  0  0  0  0  0  0  0  0  0  0  0
    1.0763    1.1944    1.6216 H   0  0  0  0  0  0  0  0  0  0  0  0
    0.1983    3.1468    1.7077 C   0  0  0  0  0  0  0  0  0  0  0  0
   -0.7426    3.2953    2.2483 H   0  0  0  0  0  0  0  0  0  0  0  0
    1.0251    3.3994    2.3784 H   0  0  0  0  0  0  0  0  0  0  0  0
    0.2250    3.8309    0.8530 H   0  0  0  0  0  0  0  0  0  0  0  0
  1  2  1  0  0  0  0
  2  3  1  0  0  0  0
  2  4  1  0  0  0  0
  2  5  1  0  0  0  0
  5  6  2  0  0  0  0
  5  7  1  0  0  0  0
  7  8  1  0  0  0  0
  7  9  1  0  0  0  0
  9 10  1  0  0  0  0
  9 11  1  0  0  0  0
  9 22  1  0  0  0  0
 11 12  1  0  0  0  0
 11 13  1  0  0  0  0
 11 14  1  0  0  0  0
 14 15  1  0  0  0  0
 14 20  2  0  0  0  0
 15 16  1  0  0  0  0
 15 17  1  0  0  0  0
 17 18  1  0  0  0  0
 17 19  2  0  0  0  0
 19 20  1  0  0  0  0
 20 21  1  0  0  0  0
 22 23  2  0  0  0  0
 22 24  1  0  0  0  0
 24 25  1  0  0  0  0
 24 26  1  0  0  0  0
 26 27  1  0  0  0  0
 26 28  1  0  0  0  0
 26 29  1  0  0  0  0
M  END
$$$$

  -OEChem-04042215593D

 29 29  0     1  0  0  0  0  0999 V2000
   -3.3863   -3.7338    1.4456 H   0  0  0  0  0  0  0  0  0  0  0  0
   -3.4186   -2.7665    0.9366 C   0  0  0  0  0  0  0  0  0  0  0  0
   -4.0215   -2.0758    1.5309 H   0  0  0  0  0  0  0  0  0  0  0  0
   -3.8861   -2.8982   -0.0421 H   0  0  0  0  0  0  0  0  0  0  0  0
   -2.0149   -2.2161    0.7704 C   0  0  0  0  0  0  0  0  0  0  0  0
   -1.0533   -2.8712    1.1416 O   0  0  0  0  0  0  0  0  0  0  0  0
   -1.8272   -0.9788    0.1907 N   0  0  0  0  0  0  0  0  0  0  0  0
   -2.6615   -0.4320   -0.0182 H   0  0  0  0  0  0  0  0  0  0  0  0
   -0.5417   -0.2672    0.1239 C   0  0  1  0  0  0  0  0  0  0  0  0
    0.0676   -0.6786    0.9353 H   0  0  0  0  0  0  0  0  0  0  0  0
    0.2328   -0.6264   -1.1633 C   0  0  0  0  0  0  0  0  0  0  0  0
    1.2982   -0.5517   -0.9247 H   0  0  0  0  0  0  0  0  0  0  0  0
    0.0360   -1.6766   -1.4032 H   0  0  0  0  0  0  0  0  0  0  0  0
    0.0130    0.1974   -2.4158 C   0  0  0  0  0  0  0  0  0  0  0  0
    0.6690   -0.0605   -3.6015 N   0  0  0  0  0  0  0  0  0  0  0  0
    1.3716   -0.7809   -3.7533 H   0  0  0  0  0  0  0  0  0  0  0  0
    0.2092    0.8094   -4.5700 C   0  0  0  0  0  0  0  0  0  0  0  0
    0.5567    0.8427   -5.5987 H   0  0  0  0  0  0  0  0  0  0  0  0
   -0.7126    1.5894   -4.0668 N   0  0  0  0  0  0  0  0  0  0  0  0
   -0.8600    1.2120   -2.7352 C   0  0  0  0  0  0  0  0  0  0  0  0
   -1.5951    1.6531   -2.0746 H   0  0  0  0  0  0  0  0  0  0  0  0
   -0.6475    1.2277    0.4902 C   0  0  0  0  0  0  0  0  0  0  0  0
   -1.6952    1.8311    0.2907 O   0  0  0  0  0  0  0  0  0  0  0  0
    0.2869    1.8017    1.3344 N   0  0  0  0  0  0  0  0  0  0  0  0
    1.0983    1.2460    1.5887 H   0  0  0  0  0  0  0  0  0  0  0  0
    0.1517    3.1434    1.8900 C   0  0  0  0  0  0  0  0  0  0  0  0
   -0.7499    3.2136    2.5075 H   0  0  0  0  0  0  0  0  0  0  0  0
    1.0176    3.3833    2.5144 H   0  0  0  0  0  0  0  0  0  0  0  0
    0.0881    3.8864    1.0878 H   0  0  0  0  0  0  0  0  0  0  0  0
  1  2  1  0  0  0  0
  2  3  1  0  0  0  0
  2  4  1  0  0  0  0
  2  5  1  0  0  0  0
  5  6  2  0  0  0  0
  5  7  1  0  0  0  0
  7  8  1  0  0  0  0
  7  9  1  0  0  0  0
  9 10  1  0  0  0  0
  9 11  1  0  0  0  0
  9 22  1  0  0  0  0
 11 12  1  0  0  0  0
 11 13  1  0  0  0  0
 11 14  1  0  0  0  0
 14 15  1  0  0  0  0
 14 20  2  0  0  0  0
 15 16  1  0  0  0  0
 15 17  1  0  0  0  0
 17 18  1  0  0  0  0
 17 19  2  0  0  0  0
 19 20  1  0  0  0  0
 20 21  1  0  0  0  0
 22 23  2  0  0  0  0
 22 24  1  0  0  0  0
 24 25  1  0  0  0  0
 24 26  1  0  0  0  0
 26 27  1  0  0  0  0
 26 28  1  0  0  0  0
 26 29  1  0  0  0  0
M  END
$$$$

  -OEChem-04042215593D

 29 29  0     1  0  0  0  0  0999 V2000
   -3.4331   -3.6772    1.4761 H   0  0  0  0  0  0  0  0  0  0  0  0
   -3.4520   -2.6973    0.9910 C   0  0  0  0  0  0  0  0  0  0  0  0
   -4.0154   -2.0038    1.6199 H   0  0  0  0  0  0  0  0  0  0  0  0
   -3.9530   -2.7917    0.0247 H   0  0  0  0  0  0  0  0  0  0  0  0
   -2.0383   -2.1846    0.7930 C   0  0  0  0  0  0  0  0  0  0  0  0
   -1.0861   -2.8675    1.1374 O   0  0  0  0  0  0  0  0  0  0  0  0
   -1.8302   -0.9500    0.2149 N   0  0  0  0  0  0  0  0  0  0  0  0
   -2.6530   -0.3785    0.0269 H   0  0  0  0  0  0  0  0  0  0  0  0
   -0.5277   -0.2727    0.1235 C   0  0  1  0  0  0  0  0  0  0  0  0
    0.0962   -0.7028    0.9139 H   0  0  0  0  0  0  0  0  0  0  0  0
    0.1937   -0.6420   -1.1937 C   0  0  0  0  0  0  0  0  0  0  0  0
    1.2691   -0.6182   -0.9912 H   0  0  0  0  0  0  0  0  0  0  0  0
   -0.0578   -1.6812   -1.4307 H   0  0  0  0  0  0  0  0  0  0  0  0
   -0.0261    0.1903   -2.4431 C   0  0  0  0  0  0  0  0  0  0  0  0
    0.3422   -0.2612   -3.6938 N   0  0  0  0  0  0  0  0  0  0  0  0
    0.7830   -1.1547   -3.9017 H   0  0  0  0  0  0  0  0  0  0  0  0
    0.0041    0.6881   -4.6367 C   0  0  0  0  0  0  0  0  0  0  0  0
    0.1801    0.6007   -5.7050 H   0  0  0  0  0  0  0  0  0  0  0  0
   -0.5609    1.7131   -4.0530 N   0  0  0  0  0  0  0  0  0  0  0  0
   -0.5974    1.4180   -2.6934 C   0  0  0  0  0  0  0  0  0  0  0  0
   -1.0212    2.0914   -1.9604 H   0  0  0  0  0  0  0  0  0  0  0  0
   -0.6114    1.2189    0.5032 C   0  0  0  0  0  0  0  0  0  0  0  0
   -1.6562    1.8333    0.3188 O   0  0  0  0  0  0  0  0  0  0  0  0
    0.3421    1.7792    1.3348 N   0  0  0  0  0  0  0  0  0  0  0  0
    1.1446    1.2088    1.5852 H   0  0  0  0  0  0  0  0  0  0  0  0
    0.2218    3.1144    1.9094 C   0  0  0  0  0  0  0  0  0  0  0  0
   -0.6436    3.1674    2.5784 H   0  0  0  0  0  0  0  0  0  0  0  0
    1.1196    3.3611    2.4844 H   0  0  0  0  0  0  0  0  0  0  0  0
    0.1026    3.8628    1.1187 H   0  0  0  0  0  0  0  0  0  0  0  0
  1  2  1  0  0  0  0
  2  3  1  0  0  0  0
  2  4  1  0  0  0  0
  2  5  1  0  0  0  0
  5  6  2  0  0  0  0
  5  7  1  0  0  0  0
  7  8  1  0  0  0  0
  7  9  1  0  0  0  0
  9 10  1  0  0  0  0
  9 11  1  0  0  0  0
  9 22  1  0  0  0  0
 11 12  1  0  0  0  0
 11 13  1  0  0  0  0
 11 14  1  0  0  0  0
 14 15  1  0  0  0  0
 14 20  2  0  0  0  0
 15 16  1  0  0  0  0
 15 17  1  0  0  0  0
 17 18  1  0  0  0  0
 17 19  2  0  0  0  0
 19 20  1  0  0  0  0
 20 21  1  0  0  0  0
 22 23  2  0  0  0  0
 22 24  1  0  0  0  0
 24 25  1  0  0  0  0
 24 26  1  0  0  0  0
 26 27  1  0  0  0  0
 26 28  1  0  0  0  0
 26 29  1  0  0  0  0
M  END
$$$$

  -OEChem-04042215593D

 29 29  0     1  0  0  0  0  0999 V2000
   -3.4622   -3.7002    1.4188 H   0  0  0  0  0  0  0  0  0  0  0  0
   -3.4646   -2.7277    0.9187 C   0  0  0  0  0  0  0  0  0  0  0  0
   -4.0554   -2.0272    1.5140 H   0  0  0  0  0  0  0  0  0  0  0  0
   -3.9258   -2.8380   -0.0656 H   0  0  0  0  0  0  0  0  0  0  0  0
   -2.0455   -2.2129    0.7702 C   0  0  0  0  0  0  0  0  0  0  0  0
   -1.1044   -2.8948    1.1452 O   0  0  0  0  0  0  0  0  0  0  0  0
   -1.8190   -0.9805    0.1951 N   0  0  0  0  0  0  0  0  0  0  0  0
   -2.6347   -0.4110   -0.0278 H   0  0  0  0  0  0  0  0  0  0  0  0
   -0.5140   -0.3041    0.1406 C   0  0  1  0  0  0  0  0  0  0  0  0
    0.1005   -0.7351    0.9377 H   0  0  0  0  0  0  0  0  0  0  0  0
    0.2150   -0.6574   -1.1775 C   0  0  0  0  0  0  0  0  0  0  0  0
    1.2902   -0.6478   -0.9731 H   0  0  0  0  0  0  0  0  0  0  0  0
   -0.0439   -1.6898   -1.4354 H   0  0  0  0  0  0  0  0  0  0  0  0
   -0.0001    0.2080   -2.4049 C   0  0  0  0  0  0  0  0  0  0  0  0
    0.0712   -0.2910   -3.6889 N   0  0  0  0  0  0  0  0  0  0  0  0
    0.2442   -1.2603   -3.9460 H   0  0  0  0  0  0  0  0  0  0  0  0
   -0.1404    0.7370   -4.5856 C   0  0  0  0  0  0  0  0  0  0  0  0
   -0.1448    0.6341   -5.6671 H   0  0  0  0  0  0  0  0  0  0  0  0
   -0.3317    1.8592   -3.9407 N   0  0  0  0  0  0  0  0  0  0  0  0
   -0.2493    1.5499   -2.5864 C   0  0  0  0  0  0  0  0  0  0  0  0
   -0.3401    2.2938   -1.8038 H   0  0  0  0  0  0  0  0  0  0  0  0
   -0.6272    1.1856    0.5154 C   0  0  0  0  0  0  0  0  0  0  0  0
   -1.6499    1.8042    0.2417 O   0  0  0  0  0  0  0  0  0  0  0  0
    0.2886    1.7622    1.3772 N   0  0  0  0  0  0  0  0  0  0  0  0
    1.0779    1.1969    1.6772 H   0  0  0  0  0  0  0  0  0  0  0  0
    0.1547    3.1172    1.8989 C   0  0  0  0  0  0  0  0  0  0  0  0
   -0.7556    3.2080    2.5009 H   0  0  0  0  0  0  0  0  0  0  0  0
    1.0130    3.3666    2.5302 H   0  0  0  0  0  0  0  0  0  0  0  0
    0.1084    3.8408    1.0781 H   0  0  0  0  0  0  0  0  0  0  0  0
  1  2  1  0  0  0  0
  2  3  1  0  0  0  0
  2  4  1  0  0  0  0
  2  5  1  0  0  0  0
  5  6  2  0  0  0  0
  5  7  1  0  0  0  0
  7  8  1  0  0  0  0
  7  9  1  0  0  0  0
  9 10  1  0  0  0  0
  9 11  1  0  0  0  0
  9 22  1  0  0  0  0
 11 12  1  0  0  0  0
 11 13  1  0  0  0  0
 11 14  1  0  0  0  0
 14 15  1  0  0  0  0
 14 20  2  0  0  0  0
 15 16  1  0  0  0  0
 15 17  1  0  0  0  0
 17 18  1  0  0  0  0
 17 19  2  0  0  0  0
 19 20  1  0  0  0  0
 20 21  1  0  0  0  0
 22 23  2  0  0  0  0
 22 24  1  0  0  0  0
 24 25  1  0  0  0  0
 24 26  1  0  0  0  0
 26 27  1  0  0  0  0
 26 28  1  0  0  0  0
 26 29  1  0  0  0  0
M  END
$$$$

  -OEChem-04042215593D

 29 29  0     1  0  0  0  0  0999 V2000
   -3.4863   -3.6847    1.4485 H   0  0  0  0  0  0  0  0  0  0  0  0
   -3.4732   -2.7251    0.9241 C   0  0  0  0  0  0  0  0  0  0  0  0
   -4.0724   -2.0068    1.4888 H   0  0  0  0  0  0  0  0  0  0  0  0
   -3.9141   -2.8584   -0.0667 H   0  0  0  0  0  0  0  0  0  0  0  0
   -2.0487   -2.2205    0.7932 C   0  0  0  0  0  0  0  0  0  0  0  0
   -1.1197   -2.8943    1.2102 O   0  0  0  0  0  0  0  0  0  0  0  0
   -1.8043   -1.0037    0.1930 N   0  0  0  0  0  0  0  0  0  0  0  0
   -2.6116   -0.4384   -0.0681 H   0  0  0  0  0  0  0  0  0  0  0  0
   -0.4958   -0.3342    0.1491 C   0  0  1  0  0  0  0  0  0  0  0  0
    0.1137   -0.7538    0.9560 H   0  0  0  0  0  0  0  0  0  0  0  0
    0.2331   -0.6953   -1.1662 C   0  0  0  0  0  0  0  0  0  0  0  0
    1.3088   -0.6811   -0.9644 H   0  0  0  0  0  0  0  0  0  0  0  0
   -0.0204   -1.7266   -1.4323 H   0  0  0  0  0  0  0  0  0  0  0  0
    0.0020    0.1941   -2.3705 C   0  0  0  0  0  0  0  0  0  0  0  0
   -0.2481   -0.2712   -3.6441 N   0  0  0  0  0  0  0  0  0  0  0  0
   -0.3574   -1.2455   -3.9166 H   0  0  0  0  0  0  0  0  0  0  0  0
   -0.3338    0.8059   -4.5047 C   0  0  0  0  0  0  0  0  0  0  0  0
   -0.5333    0.7400   -5.5706 H   0  0  0  0  0  0  0  0  0  0  0  0
   -0.1331    1.9212   -3.8491 N   0  0  0  0  0  0  0  0  0  0  0  0
    0.0794    1.5587   -2.5226 C   0  0  0  0  0  0  0  0  0  0  0  0
    0.3086    2.2666   -1.7324 H   0  0  0  0  0  0  0  0  0  0  0  0
   -0.6210    1.1642    0.4864 C   0  0  0  0  0  0  0  0  0  0  0  0
   -1.6194    1.7863    0.1419 O   0  0  0  0  0  0  0  0  0  0  0  0
    0.2736    1.7633    1.3552 N   0  0  0  0  0  0  0  0  0  0  0  0
    1.0442    1.2004    1.7037 H   0  0  0  0  0  0  0  0  0  0  0  0
    0.1350    3.1365    1.8262 C   0  0  0  0  0  0  0  0  0  0  0  0
   -0.8006    3.2590    2.3820 H   0  0  0  0  0  0  0  0  0  0  0  0
    0.9666    3.3955    2.4886 H   0  0  0  0  0  0  0  0  0  0  0  0
    0.1369    3.8334    0.9813 H   0  0  0  0  0  0  0  0  0  0  0  0
  1  2  1  0  0  0  0
  2  3  1  0  0  0  0
  2  4  1  0  0  0  0
  2  5  1  0  0  0  0
  5  6  2  0  0  0  0
  5  7  1  0  0  0  0
  7  8  1  0  0  0  0
  7  9  1  0  0  0  0
  9 10  1  0  0  0  0
  9 11  1  0  0  0  0
  9 22  1  0  0  0  0
 11 12  1  0  0  0  0
 11 13  1  0  0  0  0
 11 14  1  0  0  0  0
 14 15  1  0  0  0  0
 14 20  2  0  0  0  0
 15 16  1  0  0  0  0
 15 17  1  0  0  0  0
 17 18  1  0  0  0  0
 17 19  2  0  0  0  0
 19 20  1  0  0  0  0
 20 21  1  0  0  0  0
 22 23  2  0  0  0  0
 22 24  1  0  0  0  0
 24 25  1  0  0  0  0
 24 26  1  0  0  0  0
 26 27  1  0  0  0  0
 26 28  1  0  0  0  0
 26 29  1  0  0  0  0
M  END
$$$$

  -OEChem-04042215593D

 29 29  0     1  0  0  0  0  0999 V2000
   -3.5064   -3.6730    1.4800 H   0  0  0  0  0  0  0  0  0  0  0  0
   -3.4819   -2.7259    0.9338 C   0  0  0  0  0  0  0  0  0  0  0  0
   -4.0863   -1.9926    1.4734 H   0  0  0  0  0  0  0  0  0  0  0  0
   -3.9098   -2.8806   -0.0595 H   0  0  0  0  0  0  0  0  0  0  0  0
   -2.0534   -2.2303    0.8114 C   0  0  0  0  0  0  0  0  0  0  0  0
   -1.1339   -2.9001    1.2548 O   0  0  0  0  0  0  0  0  0  0  0  0
   -1.7946   -1.0286    0.1870 N   0  0  0  0  0  0  0  0  0  0  0  0
   -2.5955   -0.4610   -0.0881 H   0  0  0  0  0  0  0  0  0  0  0  0
   -0.4831   -0.3646    0.1522 C   0  0  1  0  0  0  0  0  0  0  0  0
    0.1187   -0.7727    0.9705 H   0  0  0  0  0  0  0  0  0  0  0  0
    0.2544   -0.7264   -1.1561 C   0  0  0  0  0  0  0  0  0  0  0  0
    1.3289   -0.7020   -0.9486 H   0  0  0  0  0  0  0  0  0  0  0  0
    0.0126   -1.7564   -1.4376 H   0  0  0  0  0  0  0  0  0  0  0  0
    0.0074    0.1907   -2.3320 C   0  0  0  0  0  0  0  0  0  0  0  0
   -0.5343   -0.1770   -3.5441 N   0  0  0  0  0  0  0  0  0  0  0  0
   -0.9054   -1.0936   -3.7838 H   0  0  0  0  0  0  0  0  0  0  0  0
   -0.5053    0.9150   -4.3906 C   0  0  0  0  0  0  0  0  0  0  0  0
   -0.8796    0.9251   -5.4103 H   0  0  0  0  0  0  0  0  0  0  0  0
    0.0475    1.9385   -3.7878 N   0  0  0  0  0  0  0  0  0  0  0  0
    0.3751    1.5024   -2.5082 C   0  0  0  0  0  0  0  0  0  0  0  0
    0.8774    2.1120   -1.7631 H   0  0  0  0  0  0  0  0  0  0  0  0
   -0.6135    1.1423    0.4525 C   0  0  0  0  0  0  0  0  0  0  0  0
   -1.6007    1.7587    0.0675 O   0  0  0  0  0  0  0  0  0  0  0  0
    0.2643    1.7616    1.3242 N   0  0  0  0  0  0  0  0  0  0  0  0
    1.0244    1.2057    1.7059 H   0  0  0  0  0  0  0  0  0  0  0  0
    0.1242    3.1500    1.7476 C   0  0  0  0  0  0  0  0  0  0  0  0
   -0.8238    3.2961    2.2759 H   0  0  0  0  0  0  0  0  0  0  0  0
    0.9413    3.4247    2.4215 H   0  0  0  0  0  0  0  0  0  0  0  0
    0.1517    3.8192    0.8810 H   0  0  0  0  0  0  0  0  0  0  0  0
  1  2  1  0  0  0  0
  2  3  1  0  0  0  0
  2  4  1  0  0  0  0
  2  5  1  0  0  0  0
  5  6  2  0  0  0  0
  5  7  1  0  0  0  0
  7  8  1  0  0  0  0
  7  9  1  0  0  0  0
  9 10  1  0  0  0  0
  9 11  1  0  0  0  0
  9 22  1  0  0  0  0
 11 12  1  0  0  0  0
 11 13  1  0  0  0  0
 11 14  1  0  0  0  0
 14 15  1  0  0  0  0
 14 20  2  0  0  0  0
 15 16  1  0  0  0  0
 15 17  1  0  0  0  0
 17 18  1  0  0  0  0
 17 19  2  0  0  0  0
 19 20  1  0  0  0  0
 20 21  1  0  0  0  0
 22 23  2  0  0  0  0
 22 24  1  0  0  0  0
 24 25  1  0  0  0  0
 24 26  1  0  0  0  0
 26 27  1  0  0  0  0
 26 28  1  0  0  0  0
 26 29  1  0  0  0  0
M  END
$$$$

  -OEChem-04042215593D

 29 29  0     1  0  0  0  0  0999 V2000
   -3.5206   -3.6466    1.5195 H   0  0  0  0  0  0  0  0  0  0  0  0
   -3.4866   -2.7215    0.9373 C   0  0  0  0  0  0  0  0  0  0  0  0
   -4.0935   -1.9660    1.4421 H   0  0  0  0  0  0  0  0  0  0  0  0
   -3.9049   -2.9131   -0.0537 H   0  0  0  0  0  0  0  0  0  0  0  0
   -2.0546   -2.2364    0.8109 C   0  0  0  0  0  0  0  0  0  0  0  0
   -1.1401   -2.9054    1.2653 O   0  0  0  0  0  0  0  0  0  0  0  0
   -1.7870   -1.0439    0.1728 N   0  0  0  0  0  0  0  0  0  0  0  0
   -2.5841   -0.4720   -0.1039 H   0  0  0  0  0  0  0  0  0  0  0  0
   -0.4738   -0.3824    0.1496 C   0  0  1  0  0  0  0  0  0  0  0  0
    0.1189   -0.7831    0.9784 H   0  0  0  0  0  0  0  0  0  0  0  0
    0.2790   -0.7435   -1.1479 C   0  0  0  0  0  0  0  0  0  0  0  0
    1.3514   -0.7139   -0.9297 H   0  0  0  0  0  0  0  0  0  0  0  0
    0.0445   -1.7713   -1.4432 H   0  0  0  0  0  0  0  0  0  0  0  0
    0.0250    0.1930   -2.3033 C   0  0  0  0  0  0  0  0  0  0  0  0
   -0.7618   -0.0523   -3.4061 N   0  0  0  0  0  0  0  0  0  0  0  0
   -1.3392   -0.8750   -3.5630 H   0  0  0  0  0  0  0  0  0  0  0  0
   -0.6585    1.0250   -4.2658 C   0  0  0  0  0  0  0  0  0  0  0  0
   -1.1820    1.1200   -5.2128 H   0  0  0  0  0  0  0  0  0  0  0  0
    0.1704    1.9158   -3.7780 N   0  0  0  0  0  0  0  0  0  0  0  0
    0.6058    1.4096   -2.5583 C   0  0  0  0  0  0  0  0  0  0  0  0
    1.3205    1.9034   -1.9069 H   0  0  0  0  0  0  0  0  0  0  0  0
   -0.6062    1.1296    0.4266 C   0  0  0  0  0  0  0  0  0  0  0  0
   -1.5909    1.7403    0.0257 O   0  0  0  0  0  0  0  0  0  0  0  0
    0.2599    1.7576    1.3038 N   0  0  0  0  0  0  0  0  0  0  0  0
    1.0207    1.2084    1.6933 H   0  0  0  0  0  0  0  0  0  0  0  0
    0.1242    3.1542    1.7006 C   0  0  0  0  0  0  0  0  0  0  0  0
   -0.8466    3.3255    2.1778 H   0  0  0  0  0  0  0  0  0  0  0  0
    0.9107    3.4228    2.4125 H   0  0  0  0  0  0  0  0  0  0  0  0
    0.2088    3.8102    0.8276 H   0  0  0  0  0  0  0  0  0  0  0  0
  1  2  1  0  0  0  0
  2  3  1  0  0  0  0
  2  4  1  0  0  0  0
  2  5  1  0  0  0  0
  5  6  2  0  0  0  0
  5  7  1  0  0  0  0
  7  8  1  0  0  0  0
  7  9  1  0  0  0  0
  9 10  1  0  0  0  0
  9 11  1  0  0  0  0
  9 22  1  0  0  0  0
 11 12  1  0  0  0  0
 11 13  1  0  0  0  0
 11 14  1  0  0  0  0
 14 15  1  0  0  0  0
 14 20  2  0  0  0  0
 15 16  1  0  0  0  0
 15 17  1  0  0  0  0
 17 18  1  0  0  0  0
 17 19  2  0  0  0  0
 19 20  1  0  0  0  0
 20 21  1  0  0  0  0
 22 23  2  0  0  0  0
 22 24  1  0  0  0  0
 24 25  1  0  0  0  0
 24 26  1  0  0  0  0
 26 27  1  0  0  0  0
 26 28  1  0  0  0  0
 26 29  1  0  0  0  0
M  END
$$$$

  -OEChem-04042215593D

 29 29  0     1  0  0  0  0  0999 V2000
   -3.5303   -3.6355    1.5142 H   0  0  0  0  0  0  0  0  0  0  0  0
   -3.4899   -2.7045    0.9418 C   0  0  0  0  0  0  0  0  0  0  0  0
   -4.0808   -1.9463    1.4615 H   0  0  0  0  0  0  0  0  0  0  0  0
   -3.9210   -2.8790   -0.0468 H   0  0  0  0  0  0  0  0  0  0  0  0
   -2.0534   -2.2373    0.8052 C   0  0  0  0  0  0  0  0  0  0  0  0
   -1.1450   -2.9117    1.2635 O   0  0  0  0  0  0  0  0  0  0  0  0
   -1.7765   -1.0519    0.1581 N   0  0  0  0  0  0  0  0  0  0  0  0
   -2.5698   -0.4668   -0.1011 H   0  0  0  0  0  0  0  0  0  0  0  0
   -0.4600   -0.3969    0.1439 C   0  0  1  0  0  0  0  0  0  0  0  0
    0.1257   -0.7937    0.9794 H   0  0  0  0  0  0  0  0  0  0  0  0
    0.3029   -0.7577   -1.1464 C   0  0  0  0  0  0  0  0  0  0  0  0
    1.3738   -0.7357   -0.9204 H   0  0  0  0  0  0  0  0  0  0  0  0
    0.0634   -1.7816   -1.4515 H   0  0  0  0  0  0  0  0  0  0  0  0
    0.0516    0.1920   -2.2898 C   0  0  0  0  0  0  0  0  0  0  0  0
   -0.9326    0.1013   -3.2473 N   0  0  0  0  0  0  0  0  0  0  0  0
   -1.6773   -0.5906   -3.2819 H   0  0  0  0  0  0  0  0  0  0  0  0
   -0.7688    1.1436   -4.1404 C   0  0  0  0  0  0  0  0  0  0  0  0
   -1.4108    1.3404   -4.9940 H   0  0  0  0  0  0  0  0  0  0  0  0
    0.2796    1.8604   -3.8141 N   0  0  0  0  0  0  0  0  0  0  0  0
    0.8010    1.2774   -2.6646 C   0  0  0  0  0  0  0  0  0  0  0  0
    1.6862    1.6285   -2.1430 H   0  0  0  0  0  0  0  0  0  0  0  0
   -0.5966    1.1182    0.4063 C   0  0  0  0  0  0  0  0  0  0  0  0
   -1.5868    1.7194    0.0019 O   0  0  0  0  0  0  0  0  0  0  0  0
    0.2581    1.7548    1.2885 N   0  0  0  0  0  0  0  0  0  0  0  0
    1.0217    1.2130    1.6829 H   0  0  0  0  0  0  0  0  0  0  0  0
    0.1092    3.1520    1.6784 C   0  0  0  0  0  0  0  0  0  0  0  0
   -0.8548    3.3121    2.1725 H   0  0  0  0  0  0  0  0  0  0  0  0
    0.9048    3.4382    2.3729 H   0  0  0  0  0  0  0  0  0  0  0  0
    0.1671    3.8026    0.7994 H   0  0  0  0  0  0  0  0  0  0  0  0
  1  2  1  0  0  0  0
  2  3  1  0  0  0  0
  2  4  1  0  0  0  0
  2  5  1  0  0  0  0
  5  6  2  0  0  0  0
  5  7  1  0  0  0  0
  7  8  1  0  0  0  0
  7  9  1  0  0  0  0
  9 10  1  0  0  0  0
  9 11  1  0  0  0  0
  9 22  1  0  0  0  0
 11 12  1  0  0  0  0
 11 13  1  0  0  0  0
 11 14  1  0  0  0  0
 14 15  1  0  0  0  0
 14 20  2  0  0  0  0
 15 16  1  0  0  0  0
 15 17  1  0  0  0  0
 17 18  1  0  0  0  0
 17 19  2  0  0  0  0
 19 20  1  0  0  0  0
 20 21  1  0  0  0  0
 22 23  2  0  0  0  0
 22 24  1  0  0  0  0
 24 25  1  0  0  0  0
 24 26  1  0  0  0  0
 26 27  1  0  0  0  0
 26 28  1  0  0  0  0
 26 29  1  0  0  0  0
M  END
$$$$

  -OEChem-04042215593D

 29 29  0     1  0  0  0  0  0999 V2000
   -3.5328   -3.6209    1.5343 H   0  0  0  0  0  0  0  0  0  0  0  0
   -3.4906   -2.6994    0.9469 C   0  0  0  0  0  0  0  0  0  0  0  0
   -4.0769   -1.9307    1.4561 H   0  0  0  0  0  0  0  0  0  0  0  0
   -3.9255   -2.8881   -0.0374 H   0  0  0  0  0  0  0  0  0  0  0  0
   -2.0526   -2.2412    0.7974 C   0  0  0  0  0  0  0  0  0  0  0  0
   -1.1442   -2.9215    1.2466 O   0  0  0  0  0  0  0  0  0  0  0  0
   -1.7749   -1.0575    0.1471 N   0  0  0  0  0  0  0  0  0  0  0  0
   -2.5682   -0.4610   -0.0841 H   0  0  0  0  0  0  0  0  0  0  0  0
   -0.4559   -0.4061    0.1395 C   0  0  1  0  0  0  0  0  0  0  0  0
    0.1235   -0.8022    0.9798 H   0  0  0  0  0  0  0  0  0  0  0  0
    0.3180   -0.7624   -1.1460 C   0  0  0  0  0  0  0  0  0  0  0  0
    1.3875   -0.7498   -0.9129 H   0  0  0  0  0  0  0  0  0  0  0  0
    0.0722   -1.7820   -1.4604 H   0  0  0  0  0  0  0  0  0  0  0  0
    0.0747    0.1945   -2.2845 C   0  0  0  0  0  0  0  0  0  0  0  0
   -1.0468    0.2854   -3.0767 N   0  0  0  0  0  0  0  0  0  0  0  0
   -1.9104   -0.2387   -2.9589 H   0  0  0  0  0  0  0  0  0  0  0  0
   -0.8360    1.2757   -4.0175 C   0  0  0  0  0  0  0  0  0  0  0  0
   -1.5574    1.5865   -4.7675 H   0  0  0  0  0  0  0  0  0  0  0  0
    0.3645    1.7854   -3.8784 N   0  0  0  0  0  0  0  0  0  0  0  0
    0.9425    1.1201   -2.8033 C   0  0  0  0  0  0  0  0  0  0  0  0
    1.9453    1.3062   -2.4310 H   0  0  0  0  0  0  0  0  0  0  0  0
   -0.5950    1.1096    0.3979 C   0  0  0  0  0  0  0  0  0  0  0  0
   -1.5891    1.7052   -0.0068 O   0  0  0  0  0  0  0  0  0  0  0  0
    0.2533    1.7487    1.2843 N   0  0  0  0  0  0  0  0  0  0  0  0
    1.0274    1.2146    1.6683 H   0  0  0  0  0  0  0  0  0  0  0  0
    0.1069    3.1490    1.6629 C   0  0  0  0  0  0  0  0  0  0  0  0
   -0.8678    3.3206    2.1316 H   0  0  0  0  0  0  0  0  0  0  0  0
    0.8869    3.4317    2.3763 H   0  0  0  0  0  0  0  0  0  0  0  0
    0.1931    3.7939    0.7820 H   0  0  0  0  0  0  0  0  0  0  0  0
  1  2  1  0  0  0  0
  2  3  1  0  0  0  0
  2  4  1  0  0  0  0
  2  5  1  0  0  0  0
  5  6  2  0  0  0  0
  5  7  1  0  0  0  0
  7  8  1  0  0  0  0
  7  9  1  0  0  0  0
  9 10  1  0  0  0  0
  9 11  1  0  0  0  0
  9 22  1  0  0  0  0
 11 12  1  0  0  0  0
 11 13  1  0  0  0  0
 11 14  1  0  0  0  0
 14 15  1  0  0  0  0
 14 20  2  0  0  0  0
 15 16  1  0  0  0  0
 15 17  1  0  0  0  0
 17 18  1  0  0  0  0
 17 19  2  0  0  0  0
 19 20  1  0  0  0  0
 20 21  1  0  0  0  0
 22 23  2  0  0  0  0
 22 24  1  0  0  0  0
 24 25  1  0  0  0  0
 24 26  1  0  0  0  0
 26 27  1  0  0  0  0
 26 28  1  0  0  0  0
 26 29  1  0  0  0  0
M  END
$$$$

  -OEChem-04042215593D

 29 29  0     1  0  0  0  0  0999 V2000
   -3.5292   -3.6206    1.5385 H   0  0  0  0  0  0  0  0  0  0  0  0
   -3.4890   -2.6972    0.9539 C   0  0  0  0  0  0  0  0  0  0  0  0
   -4.0686   -1.9284    1.4708 H   0  0  0  0  0  0  0  0  0  0  0  0
   -3.9330   -2.8814   -0.0272 H   0  0  0  0  0  0  0  0  0  0  0  0
   -2.0507   -2.2426    0.7941 C   0  0  0  0  0  0  0  0  0  0  0  0
   -1.1414   -2.9232    1.2410 O   0  0  0  0  0  0  0  0  0  0  0  0
   -1.7740   -1.0589    0.1426 N   0  0  0  0  0  0  0  0  0  0  0  0
   -2.5682   -0.4575   -0.0703 H   0  0  0  0  0  0  0  0  0  0  0  0
   -0.4529   -0.4097    0.1358 C   0  0  1  0  0  0  0  0  0  0  0  0
    0.1260   -0.8058    0.9764 H   0  0  0  0  0  0  0  0  0  0  0  0
    0.3241   -0.7637   -1.1490 C   0  0  0  0  0  0  0  0  0  0  0  0
    1.3933   -0.7645   -0.9147 H   0  0  0  0  0  0  0  0  0  0  0  0
    0.0654   -1.7795   -1.4652 H   0  0  0  0  0  0  0  0  0  0  0  0
    0.0916    0.1910   -2.2927 C   0  0  0  0  0  0  0  0  0  0  0  0
   -1.0995    0.4909   -2.9136 N   0  0  0  0  0  0  0  0  0  0  0  0
   -2.0222    0.1783   -2.6219 H   0  0  0  0  0  0  0  0  0  0  0  0
   -0.8510    1.4132   -3.9120 C   0  0  0  0  0  0  0  0  0  0  0  0
   -1.6070    1.8544   -4.5552 H   0  0  0  0  0  0  0  0  0  0  0  0
    0.4317    1.6812   -3.9721 N   0  0  0  0  0  0  0  0  0  0  0  0
    1.0295    0.9265   -2.9691 C   0  0  0  0  0  0  0  0  0  0  0  0
    2.0936    0.9230   -2.7524 H   0  0  0  0  0  0  0  0  0  0  0  0
   -0.5942    1.1059    0.3944 C   0  0  0  0  0  0  0  0  0  0  0  0
   -1.5932    1.6975   -0.0067 O   0  0  0  0  0  0  0  0  0  0  0  0
    0.2518    1.7464    1.2817 N   0  0  0  0  0  0  0  0  0  0  0  0
    1.0314    1.2159    1.6600 H   0  0  0  0  0  0  0  0  0  0  0  0
    0.1008    3.1455    1.6629 C   0  0  0  0  0  0  0  0  0  0  0  0
   -0.8751    3.3132    2.1305 H   0  0  0  0  0  0  0  0  0  0  0  0
    0.8792    3.4290    2.3780 H   0  0  0  0  0  0  0  0  0  0  0  0
    0.1858    3.7924    0.7834 H   0  0  0  0  0  0  0  0  0  0  0  0
  1  2  1  0  0  0  0
  2  3  1  0  0  0  0
  2  4  1  0  0  0  0
  2  5  1  0  0  0  0
  5  6  2  0  0  0  0
  5  7  1  0  0  0  0
  7  8  1  0  0  0  0
  7  9  1  0  0  0  0
  9 10  1  0  0  0  0
  9 11  1  0  0  0  0
  9 22  1  0  0  0  0
 11 12  1  0  0  0  0
 11 13  1  0  0  0  0
 11 14  1  0  0  0  0
 14 15  1  0  0  0  0
 14 20  2  0  0  0  0
 15 16  1  0  0  0  0
 15 17  1  0  0  0  0
 17 18  1  0  0  0  0
 17 19  2  0  0  0  0
 19 20  1  0  0  0  0
 20 21  1  0  0  0  0
 22 23  2  0  0  0  0
 22 24  1  0  0  0  0
 24 25  1  0  0  0  0
 24 26  1  0  0  0  0
 26 27  1  0  0  0  0
 26 28  1  0  0  0  0
 26 29  1  0  0  0  0
M  END
$$$$

  -OEChem-04042215593D

 29 29  0     1  0  0  0  0  0999 V2000
   -3.5158   -3.6421    1.5110 H   0  0  0  0  0  0  0  0  0  0  0  0
   -3.4811   -2.7054    0.9478 C   0  0  0  0  0  0  0  0  0  0  0  0
   -4.0636   -1.9518    1.4831 H   0  0  0  0  0  0  0  0  0  0  0  0
   -3.9256   -2.8696   -0.0366 H   0  0  0  0  0  0  0  0  0  0  0  0
   -2.0455   -2.2394    0.7967 C   0  0  0  0  0  0  0  0  0  0  0  0
   -1.1336   -2.9150    1.2459 O   0  0  0  0  0  0  0  0  0  0  0  0
   -1.7742   -1.0509    0.1512 N   0  0  0  0  0  0  0  0  0  0  0  0
   -2.5721   -0.4574   -0.0679 H   0  0  0  0  0  0  0  0  0  0  0  0
   -0.4534   -0.3999    0.1410 C   0  0  1  0  0  0  0  0  0  0  0  0
    0.1305   -0.7994    0.9766 H   0  0  0  0  0  0  0  0  0  0  0  0
    0.3166   -0.7529   -1.1496 C   0  0  0  0  0  0  0  0  0  0  0  0
    1.3868   -0.7658   -0.9201 H   0  0  0  0  0  0  0  0  0  0  0  0
    0.0453   -1.7672   -1.4605 H   0  0  0  0  0  0  0  0  0  0  0  0
    0.0930    0.1914   -2.3062 C   0  0  0  0  0  0  0  0  0  0  0  0
   -1.0934    0.7183   -2.7658 N   0  0  0  0  0  0  0  0  0  0  0  0
   -1.9884    0.6757   -2.2816 H   0  0  0  0  0  0  0  0  0  0  0  0
   -0.8204    1.5348   -3.8460 C   0  0  0  0  0  0  0  0  0  0  0  0
   -1.5599    2.1122   -4.3934 H   0  0  0  0  0  0  0  0  0  0  0  0
    0.4642    1.5209   -4.1105 N   0  0  0  0  0  0  0  0  0  0  0  0
    1.0434    0.6886   -3.1595 C   0  0  0  0  0  0  0  0  0  0  0  0
    2.1046    0.4660   -3.1016 H   0  0  0  0  0  0  0  0  0  0  0  0
   -0.5955    1.1137    0.4102 C   0  0  0  0  0  0  0  0  0  0  0  0
   -1.5996    1.7041    0.0171 O   0  0  0  0  0  0  0  0  0  0  0  0
    0.2535    1.7515    1.2964 N   0  0  0  0  0  0  0  0  0  0  0  0
    1.0403    1.2226    1.6619 H   0  0  0  0  0  0  0  0  0  0  0  0
    0.0982    3.1460    1.6923 C   0  0  0  0  0  0  0  0  0  0  0  0
   -0.8653    3.2986    2.1899 H   0  0  0  0  0  0  0  0  0  0  0  0
    0.8944    3.4335    2.3860 H   0  0  0  0  0  0  0  0  0  0  0  0
    0.1502    3.8006    0.8159 H   0  0  0  0  0  0  0  0  0  0  0  0
  1  2  1  0  0  0  0
  2  3  1  0  0  0  0
  2  4  1  0  0  0  0
  2  5  1  0  0  0  0
  5  6  2  0  0  0  0
  5  7  1  0  0  0  0
  7  8  1  0  0  0  0
  7  9  1  0  0  0  0
  9 10  1  0  0  0  0
  9 11  1  0  0  0  0
  9 22  1  0  0  0  0
 11 12  1  0  0  0  0
 11 13  1  0  0  0  0
 11 14  1  0  0  0  0
 14 15  1  0  0  0  0
 14 20  2  0  0  0  0
 15 16  1  0  0  0  0
 15 17  1  0  0  0  0
 17 18  1  0  0  0  0
 17 19  2  0  0  0  0
 19 20  1  0  0  0  0
 20 21  1  0  0  0  0
 22 23  2  0  0  0  0
 22 24  1  0  0  0  0
 24 25  1  0  0  0  0
 24 26  1  0  0  0  0
 26 27  1  0  0  0  0
 26 28  1  0  0  0  0
 26 29  1  0  0  0  0
M  END
$$$$

  -OEChem-04042215593D

 29 29  0     1  0  0  0  0  0999 V2000
   -3.5018   -3.6659    1.4705 H   0  0  0  0  0  0  0  0  0  0  0  0
   -3.4697   -2.7255    0.9132 C   0  0  0  0  0  0  0  0  0  0  0  0
   -4.0849   -1.9874    1.4334 H   0  0  0  0  0  0  0  0  0  0  0  0
   -3.8796   -2.8938   -0.0855 H   0  0  0  0  0  0  0  0  0  0  0  0
   -2.0400   -2.2290    0.8091 C   0  0  0  0  0  0  0  0  0  0  0  0
   -1.1288   -2.8866    1.2858 O   0  0  0  0  0  0  0  0  0  0  0  0
   -1.7729   -1.0331    0.1755 N   0  0  0  0  0  0  0  0  0  0  0  0
   -2.5727   -0.4677   -0.1014 H   0  0  0  0  0  0  0  0  0  0  0  0
   -0.4555   -0.3757    0.1574 C   0  0  1  0  0  0  0  0  0  0  0  0
    0.1365   -0.7802    0.9849 H   0  0  0  0  0  0  0  0  0  0  0  0
    0.3009   -0.7315   -1.1429 C   0  0  0  0  0  0  0  0  0  0  0  0
    1.3731   -0.7438   -0.9224 H   0  0  0  0  0  0  0  0  0  0  0  0
    0.0273   -1.7489   -1.4421 H   0  0  0  0  0  0  0  0  0  0  0  0
    0.0789    0.1946   -2.3170 C   0  0  0  0  0  0  0  0  0  0  0  0
   -1.0311    0.9451   -2.6380 N   0  0  0  0  0  0  0  0  0  0  0  0
   -1.8096    1.1442   -2.0068 H   0  0  0  0  0  0  0  0  0  0  0  0
   -0.7722    1.6357   -3.8056 C   0  0  0  0  0  0  0  0  0  0  0  0
   -1.4529    2.3375   -4.2791 H   0  0  0  0  0  0  0  0  0  0  0  0
    0.4225    1.3334   -4.2537 N   0  0  0  0  0  0  0  0  0  0  0  0
    0.9613    0.4375   -3.3373 C   0  0  0  0  0  0  0  0  0  0  0  0
    1.9488   -0.0068   -3.4195 H   0  0  0  0  0  0  0  0  0  0  0  0
   -0.5911    1.1356    0.4431 C   0  0  0  0  0  0  0  0  0  0  0  0
   -1.5908    1.7387    0.0559 O   0  0  0  0  0  0  0  0  0  0  0  0
    0.2697    1.7630    1.3248 N   0  0  0  0  0  0  0  0  0  0  0  0
    1.0498    1.2228    1.6887 H   0  0  0  0  0  0  0  0  0  0  0  0
    0.1222    3.1531    1.7390 C   0  0  0  0  0  0  0  0  0  0  0  0
   -0.8401    3.3049    2.2389 H   0  0  0  0  0  0  0  0  0  0  0  0
    0.9198    3.4262    2.4364 H   0  0  0  0  0  0  0  0  0  0  0  0
    0.1785    3.8190    0.8714 H   0  0  0  0  0  0  0  0  0  0  0  0
  1  2  1  0  0  0  0
  2  3  1  0  0  0  0
  2  4  1  0  0  0  0
  2  5  1  0  0  0  0
  5  6  2  0  0  0  0
  5  7  1  0  0  0  0
  7  8  1  0  0  0  0
  7  9  1  0  0  0  0
  9 10  1  0  0  0  0
  9 11  1  0  0  0  0
  9 22  1  0  0  0  0
 11 12  1  0  0  0  0
 11 13  1  0  0  0  0
 11 14  1  0  0  0  0
 14 15  1  0  0  0  0
 14 20  2  0  0  0  0
 15 16  1  0  0  0  0
 15 17  1  0  0  0  0
 17 18  1  0  0  0  0
 17 19  2  0  0  0  0
 19 20  1  0  0  0  0
 20 21  1  0  0  0  0
 22 23  2  0  0  0  0
 22 24  1  0  0  0  0
 24 25  1  0  0  0  0
 24 26  1  0  0  0  0
 26 27  1  0  0  0  0
 26 28  1  0  0  0  0
 26 29  1  0  0  0  0
M  END
$$$$

  -OEChem-04042215593D

 29 29  0     1  0  0  0  0  0999 V2000
   -3.4816   -3.6942    1.4122 H   0  0  0  0  0  0  0  0  0  0  0  0
   -3.4589   -2.7400    0.8781 C   0  0  0  0  0  0  0  0  0  0  0  0
   -4.0936   -2.0250    1.4071 H   0  0  0  0  0  0  0  0  0  0  0  0
   -3.8519   -2.8910   -0.1303 H   0  0  0  0  0  0  0  0  0  0  0  0
   -2.0375   -2.2160    0.8058 C   0  0  0  0  0  0  0  0  0  0  0  0
   -1.1225   -2.8643    1.2881 O   0  0  0  0  0  0  0  0  0  0  0  0
   -1.7811   -1.0080    0.1912 N   0  0  0  0  0  0  0  0  0  0  0  0
   -2.5829   -0.4635   -0.1199 H   0  0  0  0  0  0  0  0  0  0  0  0
   -0.4693   -0.3412    0.1686 C   0  0  1  0  0  0  0  0  0  0  0  0
    0.1244   -0.7540    0.9908 H   0  0  0  0  0  0  0  0  0  0  0  0
    0.2866   -0.7030   -1.1314 C   0  0  0  0  0  0  0  0  0  0  0  0
    1.3586   -0.6986   -0.9088 H   0  0  0  0  0  0  0  0  0  0  0  0
    0.0273   -1.7285   -1.4152 H   0  0  0  0  0  0  0  0  0  0  0  0
    0.0682    0.1989   -2.3267 C   0  0  0  0  0  0  0  0  0  0  0  0
   -0.9030    1.1495   -2.5559 N   0  0  0  0  0  0  0  0  0  0  0  0
   -1.5751    1.4915   -1.8629 H   0  0  0  0  0  0  0  0  0  0  0  0
   -0.6907    1.7126   -3.7981 C   0  0  0  0  0  0  0  0  0  0  0  0
   -1.2885    2.5081   -4.2336 H   0  0  0  0  0  0  0  0  0  0  0  0
    0.3468    1.1534   -4.3729 N   0  0  0  0  0  0  0  0  0  0  0  0
    0.8253    0.2104   -3.4695 C   0  0  0  0  0  0  0  0  0  0  0  0
    1.6846   -0.4297   -3.6464 H   0  0  0  0  0  0  0  0  0  0  0  0
   -0.5882    1.1662    0.4795 C   0  0  0  0  0  0  0  0  0  0  0  0
   -1.5766    1.7927    0.1012 O   0  0  0  0  0  0  0  0  0  0  0  0
    0.2913    1.7715    1.3581 N   0  0  0  0  0  0  0  0  0  0  0  0
    1.0585    1.2114    1.7198 H   0  0  0  0  0  0  0  0  0  0  0  0
    0.1619    3.1554    1.7979 C   0  0  0  0  0  0  0  0  0  0  0  0
   -0.7830    3.3015    2.3318 H   0  0  0  0  0  0  0  0  0  0  0  0
    0.9835    3.4161    2.4719 H   0  0  0  0  0  0  0  0  0  0  0  0
    0.1908    3.8344    0.9392 H   0  0  0  0  0  0  0  0  0  0  0  0
  1  2  1  0  0  0  0
  2  3  1  0  0  0  0
  2  4  1  0  0  0  0
  2  5  1  0  0  0  0
  5  6  2  0  0  0  0
  5  7  1  0  0  0  0
  7  8  1  0  0  0  0
  7  9  1  0  0  0  0
  9 10  1  0  0  0  0
  9 11  1  0  0  0  0
  9 22  1  0  0  0  0
 11 12  1  0  0  0  0
 11 13  1  0  0  0  0
 11 14  1  0  0  0  0
 14 15  1  0  0  0  0
 14 20  2  0  0  0  0
 15 16  1  0  0  0  0
 15 17  1  0  0  0  0
 17 18  1  0  0  0  0
 17 19  2  0  0  0  0
 19 20  1  0  0  0  0
 20 21  1  0  0  0  0
 22 23  2  0  0  0  0
 22 24  1  0  0  0  0
 24 25  1  0  0  0  0
 24 26  1  0  0  0  0
 26 27  1  0  0  0  0
 26 28  1  0  0  0  0
 26 29  1  0  0  0  0
M  END
$$$$

  -OEChem-04042215593D

 29 29  0     1  0  0  0  0  0999 V2000
   -3.4726   -3.7142    1.3573 H   0  0  0  0  0  0  0  0  0  0  0  0
   -3.4536   -2.7535    0.8350 C   0  0  0  0  0  0  0  0  0  0  0  0
   -4.1083   -2.0542    1.3606 H   0  0  0  0  0  0  0  0  0  0  0  0
   -3.8258   -2.8979   -0.1821 H   0  0  0  0  0  0  0  0  0  0  0  0
   -2.0386   -2.2090    0.7955 C   0  0  0  0  0  0  0  0  0  0  0  0
   -1.1231   -2.8508    1.2856 O   0  0  0  0  0  0  0  0  0  0  0  0
   -1.7890   -0.9899    0.2001 N   0  0  0  0  0  0  0  0  0  0  0  0
   -2.5902   -0.4627   -0.1415 H   0  0  0  0  0  0  0  0  0  0  0  0
   -0.4826   -0.3138    0.1795 C   0  0  1  0  0  0  0  0  0  0  0  0
    0.1091   -0.7346    0.9991 H   0  0  0  0  0  0  0  0  0  0  0  0
    0.2809   -0.6773   -1.1163 C   0  0  0  0  0  0  0  0  0  0  0  0
    1.3502   -0.6468   -0.8846 H   0  0  0  0  0  0  0  0  0  0  0  0
    0.0476   -1.7120   -1.3893 H   0  0  0  0  0  0  0  0  0  0  0  0
    0.0684    0.2068   -2.3273 C   0  0  0  0  0  0  0  0  0  0  0  0
   -0.7155    1.3276   -2.4987 N   0  0  0  0  0  0  0  0  0  0  0  0
   -1.2837    1.7775   -1.7742 H   0  0  0  0  0  0  0  0  0  0  0  0
   -0.5822    1.7755   -3.7970 C   0  0  0  0  0  0  0  0  0  0  0  0
   -1.0801    2.6473   -4.2118 H   0  0  0  0  0  0  0  0  0  0  0  0
    0.2374    0.9935   -4.4571 N   0  0  0  0  0  0  0  0  0  0  0  0
    0.6452    0.0151   -3.5565 C   0  0  0  0  0  0  0  0  0  0  0  0
    1.3299   -0.7930   -3.7960 H   0  0  0  0  0  0  0  0  0  0  0  0
   -0.5857    1.1899    0.5126 C   0  0  0  0  0  0  0  0  0  0  0  0
   -1.5540    1.8430    0.1294 O   0  0  0  0  0  0  0  0  0  0  0  0
    0.3078    1.7747    1.3913 N   0  0  0  0  0  0  0  0  0  0  0  0
    1.0558    1.1937    1.7602 H   0  0  0  0  0  0  0  0  0  0  0  0
    0.2050    3.1577    1.8415 C   0  0  0  0  0  0  0  0  0  0  0  0
   -0.7351    3.3170    2.3799 H   0  0  0  0  0  0  0  0  0  0  0  0
    1.0338    3.3992    2.5141 H   0  0  0  0  0  0  0  0  0  0  0  0
    0.2433    3.8422    0.9877 H   0  0  0  0  0  0  0  0  0  0  0  0
  1  2  1  0  0  0  0
  2  3  1  0  0  0  0
  2  4  1  0  0  0  0
  2  5  1  0  0  0  0
  5  6  2  0  0  0  0
  5  7  1  0  0  0  0
  7  8  1  0  0  0  0
  7  9  1  0  0  0  0
  9 10  1  0  0  0  0
  9 11  1  0  0  0  0
  9 22  1  0  0  0  0
 11 12  1  0  0  0  0
 11 13  1  0  0  0  0
 11 14  1  0  0  0  0
 14 15  1  0  0  0  0
 14 20  2  0  0  0  0
 15 16  1  0  0  0  0
 15 17  1  0  0  0  0
 17 18  1  0  0  0  0
 17 19  2  0  0  0  0
 19 20  1  0  0  0  0
 20 21  1  0  0  0  0
 22 23  2  0  0  0  0
 22 24  1  0  0  0  0
 24 25  1  0  0  0  0
 24 26  1  0  0  0  0
 26 27  1  0  0  0  0
 26 28  1  0  0  0  0
 26 29  1  0  0  0  0
M  END
$$$$

  -OEChem-04042215593D

 29 29  0     1  0  0  0  0  0999 V2000
   -3.4829   -3.7143    1.3171 H   0  0  0  0  0  0  0  0  0  0  0  0
   -3.4581   -2.7536    0.7951 C   0  0  0  0  0  0  0  0  0  0  0  0
   -4.1295   -2.0586    1.3049 H   0  0  0  0  0  0  0  0  0  0  0  0
   -3.8065   -2.9003   -0.2301 H   0  0  0  0  0  0  0  0  0  0  0  0
   -2.0462   -2.1989    0.7869 C   0  0  0  0  0  0  0  0  0  0  0  0
   -1.1356   -2.8377    1.2898 O   0  0  0  0  0  0  0  0  0  0  0  0
   -1.7938   -0.9756    0.2015 N   0  0  0  0  0  0  0  0  0  0  0  0
   -2.5903   -0.4578   -0.1649 H   0  0  0  0  0  0  0  0  0  0  0  0
   -0.4889   -0.2972    0.1862 C   0  0  1  0  0  0  0  0  0  0  0  0
    0.0968   -0.7222    1.0078 H   0  0  0  0  0  0  0  0  0  0  0  0
    0.2827   -0.6692   -1.1023 C   0  0  0  0  0  0  0  0  0  0  0  0
    1.3497   -0.6232   -0.8626 H   0  0  0  0  0  0  0  0  0  0  0  0
    0.0648   -1.7101   -1.3646 H   0  0  0  0  0  0  0  0  0  0  0  0
    0.0764    0.2035   -2.3236 C   0  0  0  0  0  0  0  0  0  0  0  0
   -0.4799    1.4577   -2.4604 N   0  0  0  0  0  0  0  0  0  0  0  0
   -0.9277    1.9980   -1.7138 H   0  0  0  0  0  0  0  0  0  0  0  0
   -0.4525    1.8192   -3.7920 C   0  0  0  0  0  0  0  0  0  0  0  0
   -0.8370    2.7522   -4.1940 H   0  0  0  0  0  0  0  0  0  0  0  0
    0.1010    0.8668   -4.5023 N   0  0  0  0  0  0  0  0  0  0  0  0
    0.4293   -0.1420   -3.6030 C   0  0  0  0  0  0  0  0  0  0  0  0
    0.9009   -1.0802   -3.8799 H   0  0  0  0  0  0  0  0  0  0  0  0
   -0.5763    1.2051    0.5274 C   0  0  0  0  0  0  0  0  0  0  0  0
   -1.5144    1.8851    0.1195 O   0  0  0  0  0  0  0  0  0  0  0  0
    0.3256    1.7741    1.4082 N   0  0  0  0  0  0  0  0  0  0  0  0
    1.0507    1.1742    1.7927 H   0  0  0  0  0  0  0  0  0  0  0  0
    0.2452    3.1573    1.8628 C   0  0  0  0  0  0  0  0  0  0  0  0
   -0.7026    3.3365    2.3813 H   0  0  0  0  0  0  0  0  0  0  0  0
    1.0641    3.3757    2.5554 H   0  0  0  0  0  0  0  0  0  0  0  0
    0.3185    3.8448    1.0137 H   0  0  0  0  0  0  0  0  0  0  0  0
  1  2  1  0  0  0  0
  2  3  1  0  0  0  0
  2  4  1  0  0  0  0
  2  5  1  0  0  0  0
  5  6  2  0  0  0  0
  5  7  1  0  0  0  0
  7  8  1  0  0  0  0
  7  9  1  0  0  0  0
  9 10  1  0  0  0  0
  9 11  1  0  0  0  0
  9 22  1  0  0  0  0
 11 12  1  0  0  0  0
 11 13  1  0  0  0  0
 11 14  1  0  0  0  0
 14 15  1  0  0  0  0
 14 20  2  0  0  0  0
 15 16  1  0  0  0  0
 15 17  1  0  0  0  0
 17 18  1  0  0  0  0
 17 19  2  0  0  0  0
 19 20  1  0  0  0  0
 20 21  1  0  0  0  0
 22 23  2  0  0  0  0
 22 24  1  0  0  0  0
 24 25  1  0  0  0  0
 24 26  1  0  0  0  0
 26 27  1  0  0  0  0
 26 28  1  0  0  0  0
 26 29  1  0  0  0  0
M  END
$$$$

  -OEChem-04042215593D

 29 29  0     1  0  0  0  0  0999 V2000
   -3.4975   -3.7075    1.2980 H   0  0  0  0  0  0  0  0  0  0  0  0
   -3.4644   -2.7545    0.7627 C   0  0  0  0  0  0  0  0  0  0  0  0
   -4.1513   -2.0554    1.2454 H   0  0  0  0  0  0  0  0  0  0  0  0
   -3.7867   -2.9185   -0.2684 H   0  0  0  0  0  0  0  0  0  0  0  0
   -2.0553   -2.1932    0.7814 C   0  0  0  0  0  0  0  0  0  0  0  0
   -1.1521   -2.8254    1.3059 O   0  0  0  0  0  0  0  0  0  0  0  0
   -1.7956   -0.9720    0.1945 N   0  0  0  0  0  0  0  0  0  0  0  0
   -2.5837   -0.4646   -0.2036 H   0  0  0  0  0  0  0  0  0  0  0  0
   -0.4899   -0.2953    0.1889 C   0  0  1  0  0  0  0  0  0  0  0  0
    0.0865   -0.7196    1.0172 H   0  0  0  0  0  0  0  0  0  0  0  0
    0.2902   -0.6773   -1.0913 C   0  0  0  0  0  0  0  0  0  0  0  0
    1.3554   -0.6253   -0.8448 H   0  0  0  0  0  0  0  0  0  0  0  0
    0.0776   -1.7209   -1.3475 H   0  0  0  0  0  0  0  0  0  0  0  0
    0.0889    0.1927   -2.3154 C   0  0  0  0  0  0  0  0  0  0  0  0
   -0.2107    1.5336   -2.4360 N   0  0  0  0  0  0  0  0  0  0  0  0
   -0.5052    2.1474   -1.6717 H   0  0  0  0  0  0  0  0  0  0  0  0
   -0.3004    1.8521   -3.7764 C   0  0  0  0  0  0  0  0  0  0  0  0
   -0.5508    2.8333   -4.1697 H   0  0  0  0  0  0  0  0  0  0  0  0
   -0.0519    0.7930   -4.5076 N   0  0  0  0  0  0  0  0  0  0  0  0
    0.1870   -0.2433   -3.6119 C   0  0  0  0  0  0  0  0  0  0  0  0
    0.4178   -1.2638   -3.9028 H   0  0  0  0  0  0  0  0  0  0  0  0
   -0.5666    1.2088    0.5233 C   0  0  0  0  0  0  0  0  0  0  0  0
   -1.4704    1.9092    0.0779 O   0  0  0  0  0  0  0  0  0  0  0  0
    0.3345    1.7716    1.4091 N   0  0  0  0  0  0  0  0  0  0  0  0
    1.0295    1.1577    1.8261 H   0  0  0  0  0  0  0  0  0  0  0  0
    0.2685    3.1592    1.8534 C   0  0  0  0  0  0  0  0  0  0  0  0
   -0.6951    3.3636    2.3322 H   0  0  0  0  0  0  0  0  0  0  0  0
    1.0630    3.3624    2.5780 H   0  0  0  0  0  0  0  0  0  0  0  0
    0.3932    3.8397    1.0046 H   0  0  0  0  0  0  0  0  0  0  0  0
  1  2  1  0  0  0  0
  2  3  1  0  0  0  0
  2  4  1  0  0  0  0
  2  5  1  0  0  0  0
  5  6  2  0  0  0  0
  5  7  1  0  0  0  0
  7  8  1  0  0  0  0
  7  9  1  0  0  0  0
  9 10  1  0  0  0  0
  9 11  1  0  0  0  0
  9 22  1  0  0  0  0
 11 12  1  0  0  0  0
 11 13  1  0  0  0  0
 11 14  1  0  0  0  0
 14 15  1  0  0  0  0
 14 20  2  0  0  0  0
 15 16  1  0  0  0  0
 15 17  1  0  0  0  0
 17 18  1  0  0  0  0
 17 19  2  0  0  0  0
 19 20  1  0  0  0  0
 20 21  1  0  0  0  0
 22 23  2  0  0  0  0
 22 24  1  0  0  0  0
 24 25  1  0  0  0  0
 24 26  1  0  0  0  0
 26 27  1  0  0  0  0
 26 28  1  0  0  0  0
 26 29  1  0  0  0  0
M  END
$$$$

  -OEChem-04042215593D

 29 29  0     1  0  0  0  0  0999 V2000
   -3.5209   -3.6884    1.3057 H   0  0  0  0  0  0  0  0  0  0  0  0
   -3.4775   -2.7415    0.7602 C   0  0  0  0  0  0  0  0  0  0  0  0
   -4.1653   -2.0332    1.2282 H   0  0  0  0  0  0  0  0  0  0  0  0
   -3.7904   -2.9151   -0.2723 H   0  0  0  0  0  0  0  0  0  0  0  0
   -2.0657   -2.1876    0.7870 C   0  0  0  0  0  0  0  0  0  0  0  0
   -1.1721   -2.8168    1.3312 O   0  0  0  0  0  0  0  0  0  0  0  0
   -1.7916   -0.9774    0.1847 N   0  0  0  0  0  0  0  0  0  0  0  0
   -2.5721   -0.4695   -0.2278 H   0  0  0  0  0  0  0  0  0  0  0  0
   -0.4823   -0.3083    0.1829 C   0  0  1  0  0  0  0  0  0  0  0  0
    0.0872   -0.7260    1.0194 H   0  0  0  0  0  0  0  0  0  0  0  0
    0.3027   -0.7033   -1.0886 C   0  0  0  0  0  0  0  0  0  0  0  0
    1.3681   -0.6590   -0.8417 H   0  0  0  0  0  0  0  0  0  0  0  0
    0.0812   -1.7457   -1.3422 H   0  0  0  0  0  0  0  0  0  0  0  0
    0.1009    0.1707   -2.3079 C   0  0  0  0  0  0  0  0  0  0  0  0
    0.0738    1.5441   -2.4347 N   0  0  0  0  0  0  0  0  0  0  0  0
   -0.0078    2.2095   -1.6645 H   0  0  0  0  0  0  0  0  0  0  0  0
   -0.1354    1.8605   -3.7626 C   0  0  0  0  0  0  0  0  0  0  0  0
   -0.2374    2.8684   -4.1547 H   0  0  0  0  0  0  0  0  0  0  0  0
   -0.2062    0.7673   -4.4823 N   0  0  0  0  0  0  0  0  0  0  0  0
   -0.0626   -0.2882   -3.5895 C   0  0  0  0  0  0  0  0  0  0  0  0
   -0.0783   -1.3366   -3.8720 H   0  0  0  0  0  0  0  0  0  0  0  0
   -0.5558    1.2004    0.4933 C   0  0  0  0  0  0  0  0  0  0  0  0
   -1.4426    1.9023    0.0197 O   0  0  0  0  0  0  0  0  0  0  0  0
    0.3389    1.7709    1.3808 N   0  0  0  0  0  0  0  0  0  0  0  0
    1.0094    1.1539    1.8317 H   0  0  0  0  0  0  0  0  0  0  0  0
    0.2657    3.1615    1.8145 C   0  0  0  0  0  0  0  0  0  0  0  0
   -0.6986    3.3642    2.2925 H   0  0  0  0  0  0  0  0  0  0  0  0
    1.0600    3.3745    2.5365 H   0  0  0  0  0  0  0  0  0  0  0  0
    0.3856    3.8365    0.9607 H   0  0  0  0  0  0  0  0  0  0  0  0
  1  2  1  0  0  0  0
  2  3  1  0  0  0  0
  2  4  1  0  0  0  0
  2  5  1  0  0  0  0
  5  6  2  0  0  0  0
  5  7  1  0  0  0  0
  7  8  1  0  0  0  0
  7  9  1  0  0  0  0
  9 10  1  0  0  0  0
  9 11  1  0  0  0  0
  9 22  1  0  0  0  0
 11 12  1  0  0  0  0
 11 13  1  0  0  0  0
 11 14  1  0  0  0  0
 14 15  1  0  0  0  0
 14 20  2  0  0  0  0
 15 16  1  0  0  0  0
 15 17  1  0  0  0  0
 17 18  1  0  0  0  0
 17 19  2  0  0  0  0
 19 20  1  0  0  0  0
 20 21  1  0  0  0  0
 22 23  2  0  0  0  0
 22 24  1  0  0  0  0
 24 25  1  0  0  0  0
 24 26  1  0  0  0  0
 26 27  1  0  0  0  0
 26 28  1  0  0  0  0
 26 29  1  0  0  0  0
M  END
$$$$

  -OEChem-04042215593D

 29 29  0     1  0  0  0  0  0999 V2000
   -3.5465   -3.6494    1.3451 H   0  0  0  0  0  0  0  0  0  0  0  0
   -3.4902   -2.7111    0.7862 C   0  0  0  0  0  0  0  0  0  0  0  0
   -4.1630   -1.9850    1.2486 H   0  0  0  0  0  0  0  0  0  0  0  0
   -3.8117   -2.8930   -0.2421 H   0  0  0  0  0  0  0  0  0  0  0  0
   -2.0690   -2.1815    0.7970 C   0  0  0  0  0  0  0  0  0  0  0  0
   -1.1855   -2.8125    1.3555 O   0  0  0  0  0  0  0  0  0  0  0  0
   -1.7752   -0.9903    0.1670 N   0  0  0  0  0  0  0  0  0  0  0  0
   -2.5492   -0.4711   -0.2446 H   0  0  0  0  0  0  0  0  0  0  0  0
   -0.4590   -0.3351    0.1661 C   0  0  1  0  0  0  0  0  0  0  0  0
    0.1047   -0.7394    1.0129 H   0  0  0  0  0  0  0  0  0  0  0  0
    0.3260   -0.7447   -1.0993 C   0  0  0  0  0  0  0  0  0  0  0  0
    1.3930   -0.7211   -0.8575 H   0  0  0  0  0  0  0  0  0  0  0  0
    0.0833   -1.7816   -1.3563 H   0  0  0  0  0  0  0  0  0  0  0  0
    0.1208    0.1416   -2.3061 C   0  0  0  0  0  0  0  0  0  0  0  0
    0.3717    1.4885   -2.4648 N   0  0  0  0  0  0  0  0  0  0  0  0
    0.6114    2.1457   -1.7246 H   0  0  0  0  0  0  0  0  0  0  0  0
    0.0328    1.8482   -3.7549 C   0  0  0  0  0  0  0  0  0  0  0  0
    0.0954    2.8549   -4.1579 H   0  0  0  0  0  0  0  0  0  0  0  0
   -0.3807    0.7993   -4.4241 N   0  0  0  0  0  0  0  0  0  0  0  0
   -0.3311   -0.2673   -3.5338 C   0  0  0  0  0  0  0  0  0  0  0  0
   -0.6133   -1.2866   -3.7796 H   0  0  0  0  0  0  0  0  0  0  0  0
   -0.5411    1.1807    0.4380 C   0  0  0  0  0  0  0  0  0  0  0  0
   -1.4439    1.8585   -0.0388 O   0  0  0  0  0  0  0  0  0  0  0  0
    0.3390    1.7745    1.3258 N   0  0  0  0  0  0  0  0  0  0  0  0
    0.9958    1.1665    1.8081 H   0  0  0  0  0  0  0  0  0  0  0  0
    0.2183    3.1599    1.7657 C   0  0  0  0  0  0  0  0  0  0  0  0
   -0.7409    3.3204    2.2694 H   0  0  0  0  0  0  0  0  0  0  0  0
    1.0222    3.4055    2.4664 H   0  0  0  0  0  0  0  0  0  0  0  0
    0.2856    3.8416    0.9114 H   0  0  0  0  0  0  0  0  0  0  0  0
  1  2  1  0  0  0  0
  2  3  1  0  0  0  0
  2  4  1  0  0  0  0
  2  5  1  0  0  0  0
  5  6  2  0  0  0  0
  5  7  1  0  0  0  0
  7  8  1  0  0  0  0
  7  9  1  0  0  0  0
  9 10  1  0  0  0  0
  9 11  1  0  0  0  0
  9 22  1  0  0  0  0
 11 12  1  0  0  0  0
 11 13  1  0  0  0  0
 11 14  1  0  0  0  0
 14 15  1  0  0  0  0
 14 20  2  0  0  0  0
 15 16  1  0  0  0  0
 15 17  1  0  0  0  0
 17 18  1  0  0  0  0
 17 19  2  0  0  0  0
 19 20  1  0  0  0  0
 20 21  1  0  0  0  0
 22 23  2  0  0  0  0
 22 24  1  0  0  0  0
 24 25  1  0  0  0  0
 24 26  1  0  0  0  0
 26 27  1  0  0  0  0
 26 28  1  0  0  0  0
 26 29  1  0  0  0  0
M  END
$$$$

  -OEChem-04042215593D

 29 29  0     1  0  0  0  0  0999 V2000
   -3.5652   -3.6233    1.3908 H   0  0  0  0  0  0  0  0  0  0  0  0
   -3.4997   -2.6944    0.8174 C   0  0  0  0  0  0  0  0  0  0  0  0
   -4.1571   -1.9510    1.2749 H   0  0  0  0  0  0  0  0  0  0  0  0
   -3.8342   -2.8868   -0.2048 H   0  0  0  0  0  0  0  0  0  0  0  0
   -2.0703   -2.1864    0.8071 C   0  0  0  0  0  0  0  0  0  0  0  0
   -1.1916   -2.8204    1.3699 O   0  0  0  0  0  0  0  0  0  0  0  0
   -1.7645   -1.0107    0.1545 N   0  0  0  0  0  0  0  0  0  0  0  0
   -2.5373   -0.4772   -0.2414 H   0  0  0  0  0  0  0  0  0  0  0  0
   -0.4443   -0.3634    0.1523 C   0  0  1  0  0  0  0  0  0  0  0  0
    0.1169   -0.7555    1.0064 H   0  0  0  0  0  0  0  0  0  0  0  0
    0.3421   -0.7777   -1.1091 C   0  0  0  0  0  0  0  0  0  0  0  0
    1.4108   -0.7717   -0.8735 H   0  0  0  0  0  0  0  0  0  0  0  0
    0.0814   -1.8082   -1.3746 H   0  0  0  0  0  0  0  0  0  0  0  0
    0.1262    0.1249   -2.2987 C   0  0  0  0  0  0  0  0  0  0  0  0
    0.6251    1.3897   -2.5278 N   0  0  0  0  0  0  0  0  0  0  0  0
    1.1526    1.9600   -1.8708 H   0  0  0  0  0  0  0  0  0  0  0  0
    0.1806    1.8150   -3.7655 C   0  0  0  0  0  0  0  0  0  0  0  0
    0.3946    2.7848   -4.2055 H   0  0  0  0  0  0  0  0  0  0  0  0
   -0.5363    0.8776   -4.3370 N   0  0  0  0  0  0  0  0  0  0  0  0
   -0.5781   -0.1788   -3.4341 C   0  0  0  0  0  0  0  0  0  0  0  0
   -1.0956   -1.1175   -3.6080 H   0  0  0  0  0  0  0  0  0  0  0  0
   -0.5362    1.1580    0.3923 C   0  0  0  0  0  0  0  0  0  0  0  0
   -1.4604    1.8103   -0.0794 O   0  0  0  0  0  0  0  0  0  0  0  0
    0.3317    1.7739    1.2774 N   0  0  0  0  0  0  0  0  0  0  0  0
    0.9890    1.1794    1.7750 H   0  0  0  0  0  0  0  0  0  0  0  0
    0.1847    3.1612    1.7028 C   0  0  0  0  0  0  0  0  0  0  0  0
   -0.7722    3.3058    2.2152 H   0  0  0  0  0  0  0  0  0  0  0  0
    0.9906    3.4333    2.3911 H   0  0  0  0  0  0  0  0  0  0  0  0
    0.2270    3.8338    0.8398 H   0  0  0  0  0  0  0  0  0  0  0  0
  1  2  1  0  0  0  0
  2  3  1  0  0  0  0
  2  4  1  0  0  0  0
  2  5  1  0  0  0  0
  5  6  2  0  0  0  0
  5  7  1  0  0  0  0
  7  8  1  0  0  0  0
  7  9  1  0  0  0  0
  9 10  1  0  0  0  0
  9 11  1  0  0  0  0
  9 22  1  0  0  0  0
 11 12  1  0  0  0  0
 11 13  1  0  0  0  0
 11 14  1  0  0  0  0
 14 15  1  0  0  0  0
 14 20  2  0  0  0  0
 15 16  1  0  0  0  0
 15 17  1  0  0  0  0
 17 18  1  0  0  0  0
 17 19  2  0  0  0  0
 19 20  1  0  0  0  0
 20 21  1  0  0  0  0
 22 23  2  0  0  0  0
 22 24  1  0  0  0  0
 24 25  1  0  0  0  0
 24 26  1  0  0  0  0
 26 27  1  0  0  0  0
 26 28  1  0  0  0  0
 26 29  1  0  0  0  0
M  END
$$$$

  -OEChem-04042215593D

 29 29  0     1  0  0  0  0  0999 V2000
   -3.5715   -3.6123    1.4240 H   0  0  0  0  0  0  0  0  0  0  0  0
   -3.5040   -2.6882    0.8430 C   0  0  0  0  0  0  0  0  0  0  0  0
   -4.1469   -1.9344    1.3039 H   0  0  0  0  0  0  0  0  0  0  0  0
   -3.8546   -2.8842   -0.1732 H   0  0  0  0  0  0  0  0  0  0  0  0
   -2.0698   -2.1953    0.8095 C   0  0  0  0  0  0  0  0  0  0  0  0
   -1.1895   -2.8351    1.3632 O   0  0  0  0  0  0  0  0  0  0  0  0
   -1.7613   -1.0269    0.1455 N   0  0  0  0  0  0  0  0  0  0  0  0
   -2.5366   -0.4808   -0.2281 H   0  0  0  0  0  0  0  0  0  0  0  0
   -0.4403   -0.3811    0.1436 C   0  0  1  0  0  0  0  0  0  0  0  0
    0.1197   -0.7659    1.0018 H   0  0  0  0  0  0  0  0  0  0  0  0
    0.3486   -0.7944   -1.1154 C   0  0  0  0  0  0  0  0  0  0  0  0
    1.4176   -0.7975   -0.8815 H   0  0  0  0  0  0  0  0  0  0  0  0
    0.0798   -1.8206   -1.3883 H   0  0  0  0  0  0  0  0  0  0  0  0
    0.1257    0.1181   -2.2941 C   0  0  0  0  0  0  0  0  0  0  0  0
    0.8284    1.2508   -2.6440 N   0  0  0  0  0  0  0  0  0  0  0  0
    1.5783    1.6872   -2.1131 H   0  0  0  0  0  0  0  0  0  0  0  0
    0.2984    1.7427   -3.8226 C   0  0  0  0  0  0  0  0  0  0  0  0
    0.6392    2.6387   -4.3334 H   0  0  0  0  0  0  0  0  0  0  0  0
   -0.6728    0.9681   -4.2423 N   0  0  0  0  0  0  0  0  0  0  0  0
   -0.7921   -0.0458   -3.2981 C   0  0  0  0  0  0  0  0  0  0  0  0
   -1.5087   -0.8598   -3.3547 H   0  0  0  0  0  0  0  0  0  0  0  0
   -0.5393    1.1427    0.3674 C   0  0  0  0  0  0  0  0  0  0  0  0
   -1.4804    1.7774   -0.0950 O   0  0  0  0  0  0  0  0  0  0  0  0
    0.3205    1.7718    1.2512 N   0  0  0  0  0  0  0  0  0  0  0  0
    0.9966    1.1912    1.7393 H   0  0  0  0  0  0  0  0  0  0  0  0
    0.1649    3.1627    1.6613 C   0  0  0  0  0  0  0  0  0  0  0  0
   -0.7925    3.3062    2.1732 H   0  0  0  0  0  0  0  0  0  0  0  0
    0.9699    3.4480    2.3454 H   0  0  0  0  0  0  0  0  0  0  0  0
    0.2014    3.8256    0.7904 H   0  0  0  0  0  0  0  0  0  0  0  0
  1  2  1  0  0  0  0
  2  3  1  0  0  0  0
  2  4  1  0  0  0  0
  2  5  1  0  0  0  0
  5  6  2  0  0  0  0
  5  7  1  0  0  0  0
  7  8  1  0  0  0  0
  7  9  1  0  0  0  0
  9 10  1  0  0  0  0
  9 11  1  0  0  0  0
  9 22  1  0  0  0  0
 11 12  1  0  0  0  0
 11 13  1  0  0  0  0
 11 14  1  0  0  0  0
 14 15  1  0  0  0  0
 14 20  2  0  0  0  0
 15 16  1  0  0  0  0
 15 17  1  0  0  0  0
 17 18  1  0  0  0  0
 17 19  2  0  0  0  0
 19 20  1  0  0  0  0
 20 21  1  0  0  0  0
 22 23  2  0  0  0  0
 22 24  1  0  0  0  0
 24 25  1  0  0  0  0
 24 26  1  0  0  0  0
 26 27  1  0  0  0  0
 26 28  1  0  0  0  0
 26 29  1  0  0  0  0
M  END
$$$$

  -OEChem-04042215593D

 29 29  0     1  0  0  0  0  0999 V2000
   -3.5694   -3.6092    1.4504 H   0  0  0  0  0  0  0  0  0  0  0  0
   -3.5056   -2.6869    0.8663 C   0  0  0  0  0  0  0  0  0  0  0  0
   -4.1365   -1.9284    1.3361 H   0  0  0  0  0  0  0  0  0  0  0  0
   -3.8738   -2.8829   -0.1436 H   0  0  0  0  0  0  0  0  0  0  0  0
   -2.0687   -2.2037    0.8083 C   0  0  0  0  0  0  0  0  0  0  0  0
   -1.1837   -2.8495    1.3475 O   0  0  0  0  0  0  0  0  0  0  0  0
   -1.7628   -1.0371    0.1396 N   0  0  0  0  0  0  0  0  0  0  0  0
   -2.5419   -0.4788   -0.2077 H   0  0  0  0  0  0  0  0  0  0  0  0
   -0.4411   -0.3917    0.1363 C   0  0  1  0  0  0  0  0  0  0  0  0
    0.1194   -0.7739    0.9954 H   0  0  0  0  0  0  0  0  0  0  0  0
    0.3498   -0.8017   -1.1220 C   0  0  0  0  0  0  0  0  0  0  0  0
    1.4180   -0.8054   -0.8844 H   0  0  0  0  0  0  0  0  0  0  0  0
    0.0822   -1.8268   -1.4004 H   0  0  0  0  0  0  0  0  0  0  0  0
    0.1278    0.1129   -2.2988 C   0  0  0  0  0  0  0  0  0  0  0  0
    0.9793    1.0696   -2.8064 N   0  0  0  0  0  0  0  0  0  0  0  0
    1.8868    1.3344   -2.4309 H   0  0  0  0  0  0  0  0  0  0  0  0
    0.3795    1.6390   -3.9147 C   0  0  0  0  0  0  0  0  0  0  0  0
    0.8102    2.4326   -4.5185 H   0  0  0  0  0  0  0  0  0  0  0  0
   -0.7842    1.0790   -4.1398 N   0  0  0  0  0  0  0  0  0  0  0  0
   -0.9562    0.1305   -3.1371 C   0  0  0  0  0  0  0  0  0  0  0  0
   -1.8243   -0.5142   -3.0387 H   0  0  0  0  0  0  0  0  0  0  0  0
   -0.5463    1.1324    0.3557 C   0  0  0  0  0  0  0  0  0  0  0  0
   -1.5033    1.7536   -0.0925 O   0  0  0  0  0  0  0  0  0  0  0  0
    0.3089    1.7696    1.2378 N   0  0  0  0  0  0  0  0  0  0  0  0
    1.0075    1.2016    1.7082 H   0  0  0  0  0  0  0  0  0  0  0  0
    0.1489    3.1623    1.6395 C   0  0  0  0  0  0  0  0  0  0  0  0
   -0.8115    3.3074    2.1455 H   0  0  0  0  0  0  0  0  0  0  0  0
    0.9496    3.4526    2.3266 H   0  0  0  0  0  0  0  0  0  0  0  0
    0.1890    3.8207    0.7652 H   0  0  0  0  0  0  0  0  0  0  0  0
  1  2  1  0  0  0  0
  2  3  1  0  0  0  0
  2  4  1  0  0  0  0
  2  5  1  0  0  0  0
  5  6  2  0  0  0  0
  5  7  1  0  0  0  0
  7  8  1  0  0  0  0
  7  9  1  0  0  0  0
  9 10  1  0  0  0  0
  9 11  1  0  0  0  0
  9 22  1  0  0  0  0
 11 12  1  0  0  0  0
 11 13  1  0  0  0  0
 11 14  1  0  0  0  0
 14 15  1  0  0  0  0
 14 20  2  0  0  0  0
 15 16  1  0  0  0  0
 15 17  1  0  0  0  0
 17 18  1  0  0  0  0
 17 19  2  0  0  0  0
 19 20  1  0  0  0  0
 20 21  1  0  0  0  0
 22 23  2  0  0  0  0
 22 24  1  0  0  0  0
 24 25  1  0  0  0  0
 24 26  1  0  0  0  0
 26 27  1  0  0  0  0
 26 28  1  0  0  0  0
 26 29  1  0  0  0  0
M  END
$$$$

  -OEChem-04042215593D

 29 29  0     1  0  0  0  0  0999 V2000
   -3.5552   -3.6196    1.4746 H   0  0  0  0  0  0  0  0  0  0  0  0
   -3.4998   -2.6954    0.8926 C   0  0  0  0  0  0  0  0  0  0  0  0
   -4.1194   -1.9363    1.3766 H   0  0  0  0  0  0  0  0  0  0  0  0
   -3.8871   -2.8866   -0.1111 H   0  0  0  0  0  0  0  0  0  0  0  0
   -2.0635   -2.2154    0.8088 C   0  0  0  0  0  0  0  0  0  0  0  0
   -1.1683   -2.8677    1.3228 O   0  0  0  0  0  0  0  0  0  0  0  0
   -1.7713   -1.0441    0.1431 N   0  0  0  0  0  0  0  0  0  0  0  0
   -2.5589   -0.4800   -0.1741 H   0  0  0  0  0  0  0  0  0  0  0  0
   -0.4528   -0.3930    0.1320 C   0  0  1  0  0  0  0  0  0  0  0  0
    0.1130   -0.7756    0.9874 H   0  0  0  0  0  0  0  0  0  0  0  0
    0.3351   -0.7963   -1.1307 C   0  0  0  0  0  0  0  0  0  0  0  0
    1.4017   -0.7832   -0.8872 H   0  0  0  0  0  0  0  0  0  0  0  0
    0.0841   -1.8259   -1.4069 H   0  0  0  0  0  0  0  0  0  0  0  0
    0.1157    0.1087   -2.3171 C   0  0  0  0  0  0  0  0  0  0  0  0
    1.0596    0.8489   -2.9948 N   0  0  0  0  0  0  0  0  0  0  0  0
    2.0525    0.9066   -2.7808 H   0  0  0  0  0  0  0  0  0  0  0  0
    0.4308    1.5087   -4.0344 C   0  0  0  0  0  0  0  0  0  0  0  0
    0.9225    2.1702   -4.7418 H   0  0  0  0  0  0  0  0  0  0  0  0
   -0.8465    1.2166   -4.0506 N   0  0  0  0  0  0  0  0  0  0  0  0
   -1.0594    0.3530   -2.9808 C   0  0  0  0  0  0  0  0  0  0  0  0
   -2.0207   -0.0767   -2.7162 H   0  0  0  0  0  0  0  0  0  0  0  0
   -0.5630    1.1291    0.3605 C   0  0  0  0  0  0  0  0  0  0  0  0
   -1.5360    1.7414   -0.0650 O   0  0  0  0  0  0  0  0  0  0  0  0
    0.2959    1.7673    1.2380 N   0  0  0  0  0  0  0  0  0  0  0  0
    1.0202    1.2089    1.6801 H   0  0  0  0  0  0  0  0  0  0  0  0
    0.1385    3.1610    1.6364 C   0  0  0  0  0  0  0  0  0  0  0  0
   -0.8199    3.3085    2.1451 H   0  0  0  0  0  0  0  0  0  0  0  0
    0.9414    3.4532    2.3198 H   0  0  0  0  0  0  0  0  0  0  0  0
    0.1759    3.8158    0.7594 H   0  0  0  0  0  0  0  0  0  0  0  0
  1  2  1  0  0  0  0
  2  3  1  0  0  0  0
  2  4  1  0  0  0  0
  2  5  1  0  0  0  0
  5  6  2  0  0  0  0
  5  7  1  0  0  0  0
  7  8  1  0  0  0  0
  7  9  1  0  0  0  0
  9 10  1  0  0  0  0
  9 11  1  0  0  0  0
  9 22  1  0  0  0  0
 11 12  1  0  0  0  0
 11 13  1  0  0  0  0
 11 14  1  0  0  0  0
 14 15  1  0  0  0  0
 14 20  2  0  0  0  0
 15 16  1  0  0  0  0
 15 17  1  0  0  0  0
 17 18  1  0  0  0  0
 17 19  2  0  0  0  0
 19 20  1  0  0  0  0
 20 21  1  0  0  0  0
 22 23  2  0  0  0  0
 22 24  1  0  0  0  0
 24 25  1  0  0  0  0
 24 26  1  0  0  0  0
 26 27  1  0  0  0  0
 26 28  1  0  0  0  0
 26 29  1  0  0  0  0
M  END
$$$$

  -OEChem-04042215593D

 29 29  0     1  0  0  0  0  0999 V2000
   -3.5277   -3.6454    1.4836 H   0  0  0  0  0  0  0  0  0  0  0  0
   -3.4905   -2.7110    0.9167 C   0  0  0  0  0  0  0  0  0  0  0  0
   -4.1034   -1.9645    1.4277 H   0  0  0  0  0  0  0  0  0  0  0  0
   -3.8996   -2.8871   -0.0811 H   0  0  0  0  0  0  0  0  0  0  0  0
   -2.0589   -2.2211    0.8095 C   0  0  0  0  0  0  0  0  0  0  0  0
   -1.1500   -2.8731    1.2993 O   0  0  0  0  0  0  0  0  0  0  0  0
   -1.7871   -1.0384    0.1547 N   0  0  0  0  0  0  0  0  0  0  0  0
   -2.5847   -0.4771   -0.1414 H   0  0  0  0  0  0  0  0  0  0  0  0
   -0.4738   -0.3769    0.1293 C   0  0  1  0  0  0  0  0  0  0  0  0
    0.1025   -0.7638    0.9759 H   0  0  0  0  0  0  0  0  0  0  0  0
    0.3086   -0.7725   -1.1404 C   0  0  0  0  0  0  0  0  0  0  0  0
    1.3742   -0.7384   -0.8940 H   0  0  0  0  0  0  0  0  0  0  0  0
    0.0772   -1.8087   -1.4089 H   0  0  0  0  0  0  0  0  0  0  0  0
    0.0895    0.1153   -2.3426 C   0  0  0  0  0  0  0  0  0  0  0  0
    1.0579    0.6117   -3.1881 N   0  0  0  0  0  0  0  0  0  0  0  0
    2.0608    0.4570   -3.1154 H   0  0  0  0  0  0  0  0  0  0  0  0
    0.4383    1.3500   -4.1791 C   0  0  0  0  0  0  0  0  0  0  0  0
    0.9496    1.8617   -4.9893 H   0  0  0  0  0  0  0  0  0  0  0  0
   -0.8599    1.3398   -4.0057 N   0  0  0  0  0  0  0  0  0  0  0  0
   -1.0926    0.5811   -2.8624 C   0  0  0  0  0  0  0  0  0  0  0  0
   -2.0753    0.3760   -2.4485 H   0  0  0  0  0  0  0  0  0  0  0  0
   -0.5829    1.1418    0.3797 C   0  0  0  0  0  0  0  0  0  0  0  0
   -1.5717    1.7543   -0.0075 O   0  0  0  0  0  0  0  0  0  0  0  0
    0.2913    1.7693    1.2496 N   0  0  0  0  0  0  0  0  0  0  0  0
    1.0336    1.2100    1.6594 H   0  0  0  0  0  0  0  0  0  0  0  0
    0.1428    3.1581    1.6681 C   0  0  0  0  0  0  0  0  0  0  0  0
   -0.8005    3.2969    2.2067 H   0  0  0  0  0  0  0  0  0  0  0  0
    0.9653    3.4441    2.3306 H   0  0  0  0  0  0  0  0  0  0  0  0
    0.1531    3.8230    0.7979 H   0  0  0  0  0  0  0  0  0  0  0  0
  1  2  1  0  0  0  0
  2  3  1  0  0  0  0
  2  4  1  0  0  0  0
  2  5  1  0  0  0  0
  5  6  2  0  0  0  0
  5  7  1  0  0  0  0
  7  8  1  0  0  0  0
  7  9  1  0  0  0  0
  9 10  1  0  0  0  0
  9 11  1  0  0  0  0
  9 22  1  0  0  0  0
 11 12  1  0  0  0  0
 11 13  1  0  0  0  0
 11 14  1  0  0  0  0
 14 15  1  0  0  0  0
 14 20  2  0  0  0  0
 15 16  1  0  0  0  0
 15 17  1  0  0  0  0
 17 18  1  0  0  0  0
 17 19  2  0  0  0  0
 19 20  1  0  0  0  0
 20 21  1  0  0  0  0
 22 23  2  0  0  0  0
 22 24  1  0  0  0  0
 24 25  1  0  0  0  0
 24 26  1  0  0  0  0
 26 27  1  0  0  0  0
 26 28  1  0  0  0  0
 26 29  1  0  0  0  0
M  END
$$$$

  -OEChem-04042215593D

 29 29  0     1  0  0  0  0  0999 V2000
   -3.4899   -3.6697    1.4907 H   0  0  0  0  0  0  0  0  0  0  0  0
   -3.4747   -2.7313    0.9295 C   0  0  0  0  0  0  0  0  0  0  0  0
   -4.0903   -1.9970    1.4546 H   0  0  0  0  0  0  0  0  0  0  0  0
   -3.8960   -2.9070   -0.0631 H   0  0  0  0  0  0  0  0  0  0  0  0
   -2.0520   -2.2203    0.8039 C   0  0  0  0  0  0  0  0  0  0  0  0
   -1.1248   -2.8751    1.2540 O   0  0  0  0  0  0  0  0  0  0  0  0
   -1.8076   -1.0192    0.1716 N   0  0  0  0  0  0  0  0  0  0  0  0
   -2.6178   -0.4610   -0.0941 H   0  0  0  0  0  0  0  0  0  0  0  0
   -0.5015   -0.3437    0.1289 C   0  0  1  0  0  0  0  0  0  0  0  0
    0.0872   -0.7404    0.9624 H   0  0  0  0  0  0  0  0  0  0  0  0
    0.2744   -0.7292   -1.1483 C   0  0  0  0  0  0  0  0  0  0  0  0
    1.3398   -0.6762   -0.9039 H   0  0  0  0  0  0  0  0  0  0  0  0
    0.0585   -1.7711   -1.4068 H   0  0  0  0  0  0  0  0  0  0  0  0
    0.0523    0.1382   -2.3663 C   0  0  0  0  0  0  0  0  0  0  0  0
    0.9781    0.3770   -3.3592 N   0  0  0  0  0  0  0  0  0  0  0  0
    1.9309    0.0216   -3.3930 H   0  0  0  0  0  0  0  0  0  0  0  0
    0.3922    1.1680   -4.3291 C   0  0  0  0  0  0  0  0  0  0  0  0
    0.8851    1.5189   -5.2314 H   0  0  0  0  0  0  0  0  0  0  0  0
   -0.8493    1.4308   -4.0061 N   0  0  0  0  0  0  0  0  0  0  0  0
   -1.0774    0.7963   -2.7884 C   0  0  0  0  0  0  0  0  0  0  0  0
   -2.0277    0.8030   -2.2638 H   0  0  0  0  0  0  0  0  0  0  0  0
   -0.6020    1.1691    0.4171 C   0  0  0  0  0  0  0  0  0  0  0  0
   -1.6062    1.7889    0.0859 O   0  0  0  0  0  0  0  0  0  0  0  0
    0.2975    1.7744    1.2770 N   0  0  0  0  0  0  0  0  0  0  0  0
    1.0642    1.2108    1.6325 H   0  0  0  0  0  0  0  0  0  0  0  0
    0.1688    3.1547    1.7296 C   0  0  0  0  0  0  0  0  0  0  0  0
   -0.7694    3.2931    2.2773 H   0  0  0  0  0  0  0  0  0  0  0  0
    0.9983    3.4138    2.3944 H   0  0  0  0  0  0  0  0  0  0  0  0
    0.1833    3.8404    0.8757 H   0  0  0  0  0  0  0  0  0  0  0  0
  1  2  1  0  0  0  0
  2  3  1  0  0  0  0
  2  4  1  0  0  0  0
  2  5  1  0  0  0  0
  5  6  2  0  0  0  0
  5  7  1  0  0  0  0
  7  8  1  0  0  0  0
  7  9  1  0  0  0  0
  9 10  1  0  0  0  0
  9 11  1  0  0  0  0
  9 22  1  0  0  0  0
 11 12  1  0  0  0  0
 11 13  1  0  0  0  0
 11 14  1  0  0  0  0
 14 15  1  0  0  0  0
 14 20  2  0  0  0  0
 15 16  1  0  0  0  0
 15 17  1  0  0  0  0
 17 18  1  0  0  0  0
 17 19  2  0  0  0  0
 19 20  1  0  0  0  0
 20 21  1  0  0  0  0
 22 23  2  0  0  0  0
 22 24  1  0  0  0  0
 24 25  1  0  0  0  0
 24 26  1  0  0  0  0
 26 27  1  0  0  0  0
 26 28  1  0  0  0  0
 26 29  1  0  0  0  0
M  END
$$$$

  -OEChem-04042215593D

 29 29  0     1  0  0  0  0  0999 V2000
   -3.4546   -3.6795    1.4845 H   0  0  0  0  0  0  0  0  0  0  0  0
   -3.4573   -2.7311    0.9402 C   0  0  0  0  0  0  0  0  0  0  0  0
   -4.0622   -2.0090    1.4941 H   0  0  0  0  0  0  0  0  0  0  0  0
   -3.9034   -2.8906   -0.0444 H   0  0  0  0  0  0  0  0  0  0  0  0
   -2.0404   -2.2114    0.7877 C   0  0  0  0  0  0  0  0  0  0  0  0
   -1.0977   -2.8736    1.1930 O   0  0  0  0  0  0  0  0  0  0  0  0
   -1.8209   -0.9914    0.1835 N   0  0  0  0  0  0  0  0  0  0  0  0
   -2.6419   -0.4350   -0.0510 H   0  0  0  0  0  0  0  0  0  0  0  0
   -0.5222   -0.3041    0.1241 C   0  0  1  0  0  0  0  0  0  0  0  0
    0.0771   -0.7134    0.9440 H   0  0  0  0  0  0  0  0  0  0  0  0
    0.2485   -0.6796   -1.1601 C   0  0  0  0  0  0  0  0  0  0  0  0
    1.3145   -0.6141   -0.9212 H   0  0  0  0  0  0  0  0  0  0  0  0
    0.0432   -1.7259   -1.4093 H   0  0  0  0  0  0  0  0  0  0  0  0
    0.0245    0.1686   -2.3931 C   0  0  0  0  0  0  0  0  0  0  0  0
    0.8397    0.1534   -3.5052 N   0  0  0  0  0  0  0  0  0  0  0  0
    1.6954   -0.3858   -3.6166 H   0  0  0  0  0  0  0  0  0  0  0  0
    0.2956    0.9799   -4.4688 C   0  0  0  0  0  0  0  0  0  0  0  0
    0.7278    1.1699   -5.4470 H   0  0  0  0  0  0  0  0  0  0  0  0
   -0.8243    1.4989   -4.0338 N   0  0  0  0  0  0  0  0  0  0  0  0
   -1.0151    0.9942   -2.7509 C   0  0  0  0  0  0  0  0  0  0  0  0
   -1.8923    1.1992   -2.1477 H   0  0  0  0  0  0  0  0  0  0  0  0
   -0.6107    1.2006    0.4551 C   0  0  0  0  0  0  0  0  0  0  0  0
   -1.6324    1.8251    0.1954 O   0  0  0  0  0  0  0  0  0  0  0  0
    0.3165    1.7794    1.3040 N   0  0  0  0  0  0  0  0  0  0  0  0
    1.1008    1.2093    1.6070 H   0  0  0  0  0  0  0  0  0  0  0  0
    0.1945    3.1389    1.8174 C   0  0  0  0  0  0  0  0  0  0  0  0
   -0.7269    3.2481    2.3992 H   0  0  0  0  0  0  0  0  0  0  0  0
    1.0428    3.3765    2.4662 H   0  0  0  0  0  0  0  0  0  0  0  0
    0.1780    3.8592    0.9927 H   0  0  0  0  0  0  0  0  0  0  0  0
  1  2  1  0  0  0  0
  2  3  1  0  0  0  0
  2  4  1  0  0  0  0
  2  5  1  0  0  0  0
  5  6  2  0  0  0  0
  5  7  1  0  0  0  0
  7  8  1  0  0  0  0
  7  9  1  0  0  0  0
  9 10  1  0  0  0  0
  9 11  1  0  0  0  0
  9 22  1  0  0  0  0
 11 12  1  0  0  0  0
 11 13  1  0  0  0  0
 11 14  1  0  0  0  0
 14 15  1  0  0  0  0
 14 20  2  0  0  0  0
 15 16  1  0  0  0  0
 15 17  1  0  0  0  0
 17 18  1  0  0  0  0
 17 19  2  0  0  0  0
 19 20  1  0  0  0  0
 20 21  1  0  0  0  0
 22 23  2  0  0  0  0
 22 24  1  0  0  0  0
 24 25  1  0  0  0  0
 24 26  1  0  0  0  0
 26 27  1  0  0  0  0
 26 28  1  0  0  0  0
 26 29  1  0  0  0  0
M  END
$$$$

  -OEChem-04042215593D

 29 29  0     1  0  0  0  0  0999 V2000
   -3.4116   -3.7181    1.4121 H   0  0  0  0  0  0  0  0  0  0  0  0
   -3.4345   -2.7356    0.9323 C   0  0  0  0  0  0  0  0  0  0  0  0
   -4.0136   -2.0519    1.5578 H   0  0  0  0  0  0  0  0  0  0  0  0
   -3.9220   -2.8299   -0.0411 H   0  0  0  0  0  0  0  0  0  0  0  0
   -2.0236   -2.2071    0.7556 C   0  0  0  0  0  0  0  0  0  0  0  0
   -1.0686   -2.8862    1.0992 O   0  0  0  0  0  0  0  0  0  0  0  0
   -1.8206   -0.9647    0.1927 N   0  0  0  0  0  0  0  0  0  0  0  0
   -2.6463   -0.3945    0.0123 H   0  0  0  0  0  0  0  0  0  0  0  0
   -0.5240   -0.2721    0.1347 C   0  0  1  0  0  0  0  0  0  0  0  0
    0.0897   -0.6985    0.9353 H   0  0  0  0  0  0  0  0  0  0  0  0
    0.2262   -0.6214   -1.1760 C   0  0  0  0  0  0  0  0  0  0  0  0
    1.2593   -0.8459   -0.8921 H   0  0  0  0  0  0  0  0  0  0  0  0
   -0.1941   -1.5508   -1.5745 H   0  0  0  0  0  0  0  0  0  0  0  0
    0.3108    0.3736   -2.3194 C   0  0  0  0  0  0  0  0  0  0  0  0
    0.9772    0.0725   -3.4893 N   0  0  0  0  0  0  0  0  0  0  0  0
    1.4655   -0.7970   -3.6925 H   0  0  0  0  0  0  0  0  0  0  0  0
    0.8710    1.1378   -4.3603 C   0  0  0  0  0  0  0  0  0  0  0  0
    1.3051    1.1802   -5.3553 H   0  0  0  0  0  0  0  0  0  0  0  0
    0.1680    2.0934   -3.8098 N   0  0  0  0  0  0  0  0  0  0  0  0
   -0.2007    1.6320   -2.5497 C   0  0  0  0  0  0  0  0  0  0  0  0
   -0.8160    2.2107   -1.8735 H   0  0  0  0  0  0  0  0  0  0  0  0
   -0.6515    1.2122    0.5291 C   0  0  0  0  0  0  0  0  0  0  0  0
   -1.7034    1.8050    0.3133 O   0  0  0  0  0  0  0  0  0  0  0  0
    0.2661    1.7885    1.3893 N   0  0  0  0  0  0  0  0  0  0  0  0
    1.0890    1.2460    1.6357 H   0  0  0  0  0  0  0  0  0  0  0  0
    0.1125    3.1272    1.9468 C   0  0  0  0  0  0  0  0  0  0  0  0
   -0.7863    3.1827    2.5700 H   0  0  0  0  0  0  0  0  0  0  0  0
    0.9784    3.3808    2.5661 H   0  0  0  0  0  0  0  0  0  0  0  0
    0.0321    3.8690    1.1450 H   0  0  0  0  0  0  0  0  0  0  0  0
  1  2  1  0  0  0  0
  2  3  1  0  0  0  0
  2  4  1  0  0  0  0
  2  5  1  0  0  0  0
  5  6  2  0  0  0  0
  5  7  1  0  0  0  0
  7  8  1  0  0  0  0
  7  9  1  0  0  0  0
  9 10  1  0  0  0  0
  9 11  1  0  0  0  0
  9 22  1  0  0  0  0
 11 12  1  0  0  0  0
 11 13  1  0  0  0  0
 11 14  1  0  0  0  0
 14 15  1  0  0  0  0
 14 20  2  0  0  0  0
 15 16  1  0  0  0  0
 15 17  1  0  0  0  0
 17 18  1  0  0  0  0
 17 19  2  0  0  0  0
 19 20  1  0  0  0  0
 20 21  1  0  0  0  0
 22 23  2  0  0  0  0
 22 24  1  0  0  0  0
 24 25  1  0  0  0  0
 24 26  1  0  0  0  0
 26 27  1  0  0  0  0
 26 28  1  0  0  0  0
 26 29  1  0  0  0  0
M  END
$$$$

  -OEChem-04042215593D

 29 29  0     1  0  0  0  0  0999 V2000
   -3.4458   -3.7231    1.3674 H   0  0  0  0  0  0  0  0  0  0  0  0
   -3.4507   -2.7417    0.8852 C   0  0  0  0  0  0  0  0  0  0  0  0
   -4.0401   -2.0529    1.4952 H   0  0  0  0  0  0  0  0  0  0  0  0
   -3.9156   -2.8343   -0.0993 H   0  0  0  0  0  0  0  0  0  0  0  0
   -2.0325   -2.2230    0.7410 C   0  0  0  0  0  0  0  0  0  0  0  0
   -1.0889   -2.9088    1.1024 O   0  0  0  0  0  0  0  0  0  0  0  0
   -1.8106   -0.9796    0.1881 N   0  0  0  0  0  0  0  0  0  0  0  0
   -2.6289   -0.4056   -0.0133 H   0  0  0  0  0  0  0  0  0  0  0  0
   -0.5085   -0.2954    0.1507 C   0  0  1  0  0  0  0  0  0  0  0  0
    0.1053   -0.7319    0.9455 H   0  0  0  0  0  0  0  0  0  0  0  0
    0.2292   -0.6230   -1.1744 C   0  0  0  0  0  0  0  0  0  0  0  0
    1.2602   -0.8789   -0.9104 H   0  0  0  0  0  0  0  0  0  0  0  0
   -0.2171   -1.5325   -1.5899 H   0  0  0  0  0  0  0  0  0  0  0  0
    0.3208    0.3965   -2.2975 C   0  0  0  0  0  0  0  0  0  0  0  0
    0.6950    0.0307   -3.5745 N   0  0  0  0  0  0  0  0  0  0  0  0
    0.9243   -0.9115   -3.8838 H   0  0  0  0  0  0  0  0  0  0  0  0
    0.7013    1.1480   -4.3849 C   0  0  0  0  0  0  0  0  0  0  0  0
    0.9575    1.1553   -5.4403 H   0  0  0  0  0  0  0  0  0  0  0  0
    0.3554    2.2019   -3.6923 N   0  0  0  0  0  0  0  0  0  0  0  0
    0.1091    1.7548   -2.3979 C   0  0  0  0  0  0  0  0  0  0  0  0
   -0.1873    2.4217   -1.5979 H   0  0  0  0  0  0  0  0  0  0  0  0
   -0.6547    1.1834    0.5539 C   0  0  0  0  0  0  0  0  0  0  0  0
   -1.6835    1.7885    0.2713 O   0  0  0  0  0  0  0  0  0  0  0  0
    0.2407    1.7643    1.4339 N   0  0  0  0  0  0  0  0  0  0  0  0
    1.0513    1.2190    1.7133 H   0  0  0  0  0  0  0  0  0  0  0  0
    0.0909    3.1194    1.9515 C   0  0  0  0  0  0  0  0  0  0  0  0
   -0.8347    3.2095    2.5297 H   0  0  0  0  0  0  0  0  0  0  0  0
    0.9320    3.3697    2.6051 H   0  0  0  0  0  0  0  0  0  0  0  0
    0.0648    3.8425    1.1293 H   0  0  0  0  0  0  0  0  0  0  0  0
  1  2  1  0  0  0  0
  2  3  1  0  0  0  0
  2  4  1  0  0  0  0
  2  5  1  0  0  0  0
  5  6  2  0  0  0  0
  5  7  1  0  0  0  0
  7  8  1  0  0  0  0
  7  9  1  0  0  0  0
  9 10  1  0  0  0  0
  9 11  1  0  0  0  0
  9 22  1  0  0  0  0
 11 12  1  0  0  0  0
 11 13  1  0  0  0  0
 11 14  1  0  0  0  0
 14 15  1  0  0  0  0
 14 20  2  0  0  0  0
 15 16  1  0  0  0  0
 15 17  1  0  0  0  0
 17 18  1  0  0  0  0
 17 19  2  0  0  0  0
 19 20  1  0  0  0  0
 20 21  1  0  0  0  0
 22 23  2  0  0  0  0
 22 24  1  0  0  0  0
 24 25  1  0  0  0  0
 24 26  1  0  0  0  0
 26 27  1  0  0  0  0
 26 28  1  0  0  0  0
 26 29  1  0  0  0  0
M  END
$$$$

  -OEChem-04042215593D

 29 29  0     1  0  0  0  0  0999 V2000
   -3.4639   -3.7057    1.3988 H   0  0  0  0  0  0  0  0  0  0  0  0
   -3.4579   -2.7367    0.8921 C   0  0  0  0  0  0  0  0  0  0  0  0
   -4.0595   -2.0326    1.4718 H   0  0  0  0  0  0  0  0  0  0  0  0
   -3.9013   -2.8540   -0.0996 H   0  0  0  0  0  0  0  0  0  0  0  0
   -2.0366   -2.2223    0.7664 C   0  0  0  0  0  0  0  0  0  0  0  0
   -1.1032   -2.9002    1.1664 O   0  0  0  0  0  0  0  0  0  0  0  0
   -1.7989   -0.9922    0.1908 N   0  0  0  0  0  0  0  0  0  0  0  0
   -2.6092   -0.4203   -0.0460 H   0  0  0  0  0  0  0  0  0  0  0  0
   -0.4909   -0.3191    0.1599 C   0  0  1  0  0  0  0  0  0  0  0  0
    0.1222   -0.7476    0.9597 H   0  0  0  0  0  0  0  0  0  0  0  0
    0.2368   -0.6542   -1.1697 C   0  0  0  0  0  0  0  0  0  0  0  0
    1.2673   -0.9242   -0.9188 H   0  0  0  0  0  0  0  0  0  0  0  0
   -0.2219   -1.5554   -1.5897 H   0  0  0  0  0  0  0  0  0  0  0  0
    0.3217    0.3840   -2.2747 C   0  0  0  0  0  0  0  0  0  0  0  0
    0.3759    0.0507   -3.6123 N   0  0  0  0  0  0  0  0  0  0  0  0
    0.3252   -0.8898   -3.9977 H   0  0  0  0  0  0  0  0  0  0  0  0
    0.5000    1.2044   -4.3609 C   0  0  0  0  0  0  0  0  0  0  0  0
    0.5575    1.2442   -5.4449 H   0  0  0  0  0  0  0  0  0  0  0  0
    0.5442    2.2471   -3.5716 N   0  0  0  0  0  0  0  0  0  0  0  0
    0.4344    1.7565   -2.2745 C   0  0  0  0  0  0  0  0  0  0  0  0
    0.4717    2.3904   -1.3957 H   0  0  0  0  0  0  0  0  0  0  0  0
   -0.6466    1.1669    0.5322 C   0  0  0  0  0  0  0  0  0  0  0  0
   -1.6456    1.7830    0.1774 O   0  0  0  0  0  0  0  0  0  0  0  0
    0.2321    1.7645    1.4179 N   0  0  0  0  0  0  0  0  0  0  0  0
    1.0134    1.2105    1.7572 H   0  0  0  0  0  0  0  0  0  0  0  0
    0.0783    3.1335    1.8957 C   0  0  0  0  0  0  0  0  0  0  0  0
   -0.8700    3.2477    2.4316 H   0  0  0  0  0  0  0  0  0  0  0  0
    0.8942    3.3906    2.5782 H   0  0  0  0  0  0  0  0  0  0  0  0
    0.0956    3.8365    1.0560 H   0  0  0  0  0  0  0  0  0  0  0  0
  1  2  1  0  0  0  0
  2  3  1  0  0  0  0
  2  4  1  0  0  0  0
  2  5  1  0  0  0  0
  5  6  2  0  0  0  0
  5  7  1  0  0  0  0
  7  8  1  0  0  0  0
  7  9  1  0  0  0  0
  9 10  1  0  0  0  0
  9 11  1  0  0  0  0
  9 22  1  0  0  0  0
 11 12  1  0  0  0  0
 11 13  1  0  0  0  0
 11 14  1  0  0  0  0
 14 15  1  0  0  0  0
 14 20  2  0  0  0  0
 15 16  1  0  0  0  0
 15 17  1  0  0  0  0
 17 18  1  0  0  0  0
 17 19  2  0  0  0  0
 19 20  1  0  0  0  0
 20 21  1  0  0  0  0
 22 23  2  0  0  0  0
 22 24  1  0  0  0  0
 24 25  1  0  0  0  0
 24 26  1  0  0  0  0
 26 27  1  0  0  0  0
 26 28  1  0  0  0  0
 26 29  1  0  0  0  0
M  END
$$$$

  -OEChem-04042215593D

 29 29  0     1  0  0  0  0  0999 V2000
   -3.4899   -3.6844    1.4410 H   0  0  0  0  0  0  0  0  0  0  0  0
   -3.4709   -2.7266    0.9137 C   0  0  0  0  0  0  0  0  0  0  0  0
   -4.0696   -2.0045    1.4742 H   0  0  0  0  0  0  0  0  0  0  0  0
   -3.9085   -2.8608   -0.0784 H   0  0  0  0  0  0  0  0  0  0  0  0
   -2.0438   -2.2287    0.7866 C   0  0  0  0  0  0  0  0  0  0  0  0
   -1.1195   -2.9052    1.2091 O   0  0  0  0  0  0  0  0  0  0  0  0
   -1.7910   -1.0145    0.1843 N   0  0  0  0  0  0  0  0  0  0  0  0
   -2.5950   -0.4395   -0.0660 H   0  0  0  0  0  0  0  0  0  0  0  0
   -0.4794   -0.3487    0.1580 C   0  0  1  0  0  0  0  0  0  0  0  0
    0.1278   -0.7644    0.9686 H   0  0  0  0  0  0  0  0  0  0  0  0
    0.2510   -0.6945   -1.1655 C   0  0  0  0  0  0  0  0  0  0  0  0
    1.2833   -0.9570   -0.9131 H   0  0  0  0  0  0  0  0  0  0  0  0
   -0.1996   -1.5961   -1.5928 H   0  0  0  0  0  0  0  0  0  0  0  0
    0.3212    0.3682   -2.2430 C   0  0  0  0  0  0  0  0  0  0  0  0
    0.0757    0.1497   -3.5818 N   0  0  0  0  0  0  0  0  0  0  0  0
   -0.2480   -0.7202   -3.9988 H   0  0  0  0  0  0  0  0  0  0  0  0
    0.3259    1.3168   -4.2776 C   0  0  0  0  0  0  0  0  0  0  0  0
    0.2053    1.4439   -5.3498 H   0  0  0  0  0  0  0  0  0  0  0  0
    0.7391    2.2499   -3.4570 N   0  0  0  0  0  0  0  0  0  0  0  0
    0.7464    1.6747   -2.1910 C   0  0  0  0  0  0  0  0  0  0  0  0
    1.0795    2.1885   -1.2948 H   0  0  0  0  0  0  0  0  0  0  0  0
   -0.6399    1.1478    0.4916 C   0  0  0  0  0  0  0  0  0  0  0  0
   -1.6306    1.7568    0.1031 O   0  0  0  0  0  0  0  0  0  0  0  0
    0.2244    1.7658    1.3777 N   0  0  0  0  0  0  0  0  0  0  0  0
    0.9945    1.2173    1.7500 H   0  0  0  0  0  0  0  0  0  0  0  0
    0.0666    3.1479    1.8147 C   0  0  0  0  0  0  0  0  0  0  0  0
   -0.8883    3.2786    2.3344 H   0  0  0  0  0  0  0  0  0  0  0  0
    0.8737    3.4228    2.5005 H   0  0  0  0  0  0  0  0  0  0  0  0
    0.0963    3.8269    0.9559 H   0  0  0  0  0  0  0  0  0  0  0  0
  1  2  1  0  0  0  0
  2  3  1  0  0  0  0
  2  4  1  0  0  0  0
  2  5  1  0  0  0  0
  5  6  2  0  0  0  0
  5  7  1  0  0  0  0
  7  8  1  0  0  0  0
  7  9  1  0  0  0  0
  9 10  1  0  0  0  0
  9 11  1  0  0  0  0
  9 22  1  0  0  0  0
 11 12  1  0  0  0  0
 11 13  1  0  0  0  0
 11 14  1  0  0  0  0
 14 15  1  0  0  0  0
 14 20  2  0  0  0  0
 15 16  1  0  0  0  0
 15 17  1  0  0  0  0
 17 18  1  0  0  0  0
 17 19  2  0  0  0  0
 19 20  1  0  0  0  0
 20 21  1  0  0  0  0
 22 23  2  0  0  0  0
 22 24  1  0  0  0  0
 24 25  1  0  0  0  0
 24 26  1  0  0  0  0
 26 27  1  0  0  0  0
 26 28  1  0  0  0  0
 26 29  1  0  0  0  0
M  END
$$$$

  -OEChem-04042215593D

 29 29  0     1  0  0  0  0  0999 V2000
   -3.5079   -3.6792    1.4649 H   0  0  0  0  0  0  0  0  0  0  0  0
   -3.4812   -2.7283    0.9253 C   0  0  0  0  0  0  0  0  0  0  0  0
   -4.0809   -1.9967    1.4720 H   0  0  0  0  0  0  0  0  0  0  0  0
   -3.9128   -2.8742   -0.0678 H   0  0  0  0  0  0  0  0  0  0  0  0
   -2.0510   -2.2378    0.8015 C   0  0  0  0  0  0  0  0  0  0  0  0
   -1.1336   -2.9092    1.2463 O   0  0  0  0  0  0  0  0  0  0  0  0
   -1.7879   -1.0369    0.1770 N   0  0  0  0  0  0  0  0  0  0  0  0
   -2.5877   -0.4611   -0.0846 H   0  0  0  0  0  0  0  0  0  0  0  0
   -0.4742   -0.3746    0.1571 C   0  0  1  0  0  0  0  0  0  0  0  0
    0.1248   -0.7788    0.9797 H   0  0  0  0  0  0  0  0  0  0  0  0
    0.2685   -0.7254   -1.1553 C   0  0  0  0  0  0  0  0  0  0  0  0
    1.3016   -0.9745   -0.8929 H   0  0  0  0  0  0  0  0  0  0  0  0
   -0.1658   -1.6291   -1.5949 H   0  0  0  0  0  0  0  0  0  0  0  0
    0.3254    0.3622   -2.2032 C   0  0  0  0  0  0  0  0  0  0  0  0
   -0.1808    0.2942   -3.4823 N   0  0  0  0  0  0  0  0  0  0  0  0
   -0.7381   -0.4640   -3.8693 H   0  0  0  0  0  0  0  0  0  0  0  0
    0.1676    1.4497   -4.1563 C   0  0  0  0  0  0  0  0  0  0  0  0
   -0.1106    1.6834   -5.1800 H   0  0  0  0  0  0  0  0  0  0  0  0
    0.8910    2.2229   -3.3842 N   0  0  0  0  0  0  0  0  0  0  0  0
    1.0036    1.5557   -2.1698 C   0  0  0  0  0  0  0  0  0  0  0  0
    1.5727    1.9207   -1.3202 H   0  0  0  0  0  0  0  0  0  0  0  0
   -0.6338    1.1307    0.4562 C   0  0  0  0  0  0  0  0  0  0  0  0
   -1.6214    1.7320    0.0473 O   0  0  0  0  0  0  0  0  0  0  0  0
    0.2196    1.7645    1.3417 N   0  0  0  0  0  0  0  0  0  0  0  0
    0.9918    1.2263    1.7243 H   0  0  0  0  0  0  0  0  0  0  0  0
    0.0718    3.1616    1.7320 C   0  0  0  0  0  0  0  0  0  0  0  0
   -0.8861    3.3188    2.2390 H   0  0  0  0  0  0  0  0  0  0  0  0
    0.8762    3.4511    2.4150 H   0  0  0  0  0  0  0  0  0  0  0  0
    0.1156    3.8116    0.8516 H   0  0  0  0  0  0  0  0  0  0  0  0
  1  2  1  0  0  0  0
  2  3  1  0  0  0  0
  2  4  1  0  0  0  0
  2  5  1  0  0  0  0
  5  6  2  0  0  0  0
  5  7  1  0  0  0  0
  7  8  1  0  0  0  0
  7  9  1  0  0  0  0
  9 10  1  0  0  0  0
  9 11  1  0  0  0  0
  9 22  1  0  0  0  0
 11 12  1  0  0  0  0
 11 13  1  0  0  0  0
 11 14  1  0  0  0  0
 14 15  1  0  0  0  0
 14 20  2  0  0  0  0
 15 16  1  0  0  0  0
 15 17  1  0  0  0  0
 17 18  1  0  0  0  0
 17 19  2  0  0  0  0
 19 20  1  0  0  0  0
 20 21  1  0  0  0  0
 22 23  2  0  0  0  0
 22 24  1  0  0  0  0
 24 25  1  0  0  0  0
 24 26  1  0  0  0  0
 26 27  1  0  0  0  0
 26 28  1  0  0  0  0
 26 29  1  0  0  0  0
M  END
$$$$

  -OEChem-04042215593D

 29 29  0     1  0  0  0  0  0999 V2000
   -3.5226   -3.6460    1.5113 H   0  0  0  0  0  0  0  0  0  0  0  0
   -3.4848   -2.7186    0.9332 C   0  0  0  0  0  0  0  0  0  0  0  0
   -4.0836   -1.9610    1.4445 H   0  0  0  0  0  0  0  0  0  0  0  0
   -3.9088   -2.9019   -0.0568 H   0  0  0  0  0  0  0  0  0  0  0  0
   -2.0504   -2.2430    0.8018 C   0  0  0  0  0  0  0  0  0  0  0  0
   -1.1390   -2.9148    1.2582 O   0  0  0  0  0  0  0  0  0  0  0  0
   -1.7785   -1.0514    0.1637 N   0  0  0  0  0  0  0  0  0  0  0  0
   -2.5745   -0.4709   -0.0985 H   0  0  0  0  0  0  0  0  0  0  0  0
   -0.4629   -0.3935    0.1518 C   0  0  1  0  0  0  0  0  0  0  0  0
    0.1285   -0.7912    0.9830 H   0  0  0  0  0  0  0  0  0  0  0  0
    0.2915   -0.7461   -1.1512 C   0  0  0  0  0  0  0  0  0  0  0  0
    1.3232   -0.9926   -0.8802 H   0  0  0  0  0  0  0  0  0  0  0  0
   -0.1359   -1.6469   -1.6033 H   0  0  0  0  0  0  0  0  0  0  0  0
    0.3428    0.3599   -2.1765 C   0  0  0  0  0  0  0  0  0  0  0  0
   -0.3849    0.4496   -3.3415 N   0  0  0  0  0  0  0  0  0  0  0  0
   -1.1282   -0.1789   -3.6370 H   0  0  0  0  0  0  0  0  0  0  0  0
    0.0250    1.5777   -4.0274 C   0  0  0  0  0  0  0  0  0  0  0  0
   -0.3886    1.9181   -4.9725 H   0  0  0  0  0  0  0  0  0  0  0  0
    0.9922    2.1773   -3.3758 N   0  0  0  0  0  0  0  0  0  0  0  0
    1.2044    1.4262   -2.2256 C   0  0  0  0  0  0  0  0  0  0  0  0
    1.9585    1.6474   -1.4762 H   0  0  0  0  0  0  0  0  0  0  0  0
   -0.6227    1.1168    0.4290 C   0  0  0  0  0  0  0  0  0  0  0  0
   -1.6095    1.7124    0.0079 O   0  0  0  0  0  0  0  0  0  0  0  0
    0.2218    1.7585    1.3172 N   0  0  0  0  0  0  0  0  0  0  0  0
    0.9946    1.2255    1.7057 H   0  0  0  0  0  0  0  0  0  0  0  0
    0.0758    3.1611    1.6876 C   0  0  0  0  0  0  0  0  0  0  0  0
   -0.9054    3.3390    2.1399 H   0  0  0  0  0  0  0  0  0  0  0  0
    0.8457    3.4433    2.4122 H   0  0  0  0  0  0  0  0  0  0  0  0
    0.1787    3.8020    0.8055 H   0  0  0  0  0  0  0  0  0  0  0  0
  1  2  1  0  0  0  0
  2  3  1  0  0  0  0
  2  4  1  0  0  0  0
  2  5  1  0  0  0  0
  5  6  2  0  0  0  0
  5  7  1  0  0  0  0
  7  8  1  0  0  0  0
  7  9  1  0  0  0  0
  9 10  1  0  0  0  0
  9 11  1  0  0  0  0
  9 22  1  0  0  0  0
 11 12  1  0  0  0  0
 11 13  1  0  0  0  0
 11 14  1  0  0  0  0
 14 15  1  0  0  0  0
 14 20  2  0  0  0  0
 15 16  1  0  0  0  0
 15 17  1  0  0  0  0
 17 18  1  0  0  0  0
 17 19  2  0  0  0  0
 19 20  1  0  0  0  0
 20 21  1  0  0  0  0
 22 23  2  0  0  0  0
 22 24  1  0  0  0  0
 24 25  1  0  0  0  0
 24 26  1  0  0  0  0
 26 27  1  0  0  0  0
 26 28  1  0  0  0  0
 26 29  1  0  0  0  0
M  END
$$$$

  -OEChem-04042215593D

 29 29  0     1  0  0  0  0  0999 V2000
   -3.5342   -3.6397    1.5098 H   0  0  0  0  0  0  0  0  0  0  0  0
   -3.4888   -2.7185    0.9221 C   0  0  0  0  0  0  0  0  0  0  0  0
   -4.0924   -1.9546    1.4182 H   0  0  0  0  0  0  0  0  0  0  0  0
   -3.9022   -2.9124   -0.0704 H   0  0  0  0  0  0  0  0  0  0  0  0
   -2.0525   -2.2463    0.8012 C   0  0  0  0  0  0  0  0  0  0  0  0
   -1.1464   -2.9187    1.2667 O   0  0  0  0  0  0  0  0  0  0  0  0
   -1.7727   -1.0595    0.1575 N   0  0  0  0  0  0  0  0  0  0  0  0
   -2.5655   -0.4731   -0.1003 H   0  0  0  0  0  0  0  0  0  0  0  0
   -0.4547   -0.4060    0.1536 C   0  0  1  0  0  0  0  0  0  0  0  0
    0.1299   -0.8007    0.9912 H   0  0  0  0  0  0  0  0  0  0  0  0
    0.3099   -0.7587   -1.1428 C   0  0  0  0  0  0  0  0  0  0  0  0
    1.3383   -1.0111   -0.8652 H   0  0  0  0  0  0  0  0  0  0  0  0
   -0.1187   -1.6535   -1.6057 H   0  0  0  0  0  0  0  0  0  0  0  0
    0.3628    0.3588   -2.1539 C   0  0  0  0  0  0  0  0  0  0  0  0
   -0.5373    0.6176   -3.1618 N   0  0  0  0  0  0  0  0  0  0  0  0
   -1.4232    0.1411   -3.3143 H   0  0  0  0  0  0  0  0  0  0  0  0
   -0.0804    1.7032   -3.8851 C   0  0  0  0  0  0  0  0  0  0  0  0
   -0.5969    2.1520   -4.7286 H   0  0  0  0  0  0  0  0  0  0  0  0
    1.0712    2.1133   -3.4093 N   0  0  0  0  0  0  0  0  0  0  0  0
    1.3614    1.2805   -2.3350 C   0  0  0  0  0  0  0  0  0  0  0  0
    2.2588    1.3486   -1.7275 H   0  0  0  0  0  0  0  0  0  0  0  0
   -0.6144    1.1072    0.4200 C   0  0  0  0  0  0  0  0  0  0  0  0
   -1.6035    1.6974   -0.0055 O   0  0  0  0  0  0  0  0  0  0  0  0
    0.2220    1.7542    1.3116 N   0  0  0  0  0  0  0  0  0  0  0  0
    1.0092    1.2322    1.6855 H   0  0  0  0  0  0  0  0  0  0  0  0
    0.0865    3.1651    1.6528 C   0  0  0  0  0  0  0  0  0  0  0  0
   -0.9011    3.3638    2.0823 H   0  0  0  0  0  0  0  0  0  0  0  0
    0.8452    3.4510    2.3875 H   0  0  0  0  0  0  0  0  0  0  0  0
    0.2157    3.7875    0.7609 H   0  0  0  0  0  0  0  0  0  0  0  0
  1  2  1  0  0  0  0
  2  3  1  0  0  0  0
  2  4  1  0  0  0  0
  2  5  1  0  0  0  0
  5  6  2  0  0  0  0
  5  7  1  0  0  0  0
  7  8  1  0  0  0  0
  7  9  1  0  0  0  0
  9 10  1  0  0  0  0
  9 11  1  0  0  0  0
  9 22  1  0  0  0  0
 11 12  1  0  0  0  0
 11 13  1  0  0  0  0
 11 14  1  0  0  0  0
 14 15  1  0  0  0  0
 14 20  2  0  0  0  0
 15 16  1  0  0  0  0
 15 17  1  0  0  0  0
 17 18  1  0  0  0  0
 17 19  2  0  0  0  0
 19 20  1  0  0  0  0
 20 21  1  0  0  0  0
 22 23  2  0  0  0  0
 22 24  1  0  0  0  0
 24 25  1  0  0  0  0
 24 26  1  0  0  0  0
 26 27  1  0  0  0  0
 26 28  1  0  0  0  0
 26 29  1  0  0  0  0
M  END
$$$$

  -OEChem-04042215593D

 29 29  0     1  0  0  0  0  0999 V2000
   -3.5363   -3.6315    1.5127 H   0  0  0  0  0  0  0  0  0  0  0  0
   -3.4890   -2.7107    0.9246 C   0  0  0  0  0  0  0  0  0  0  0  0
   -4.0869   -1.9439    1.4232 H   0  0  0  0  0  0  0  0  0  0  0  0
   -3.9073   -2.9030   -0.0662 H   0  0  0  0  0  0  0  0  0  0  0  0
   -2.0509   -2.2456    0.7969 C   0  0  0  0  0  0  0  0  0  0  0  0
   -1.1467   -2.9197    1.2638 O   0  0  0  0  0  0  0  0  0  0  0  0
   -1.7681   -1.0610    0.1500 N   0  0  0  0  0  0  0  0  0  0  0  0
   -2.5599   -0.4700   -0.0996 H   0  0  0  0  0  0  0  0  0  0  0  0
   -0.4474   -0.4120    0.1502 C   0  0  1  0  0  0  0  0  0  0  0  0
    0.1335   -0.8060    0.9907 H   0  0  0  0  0  0  0  0  0  0  0  0
    0.3231   -0.7648   -1.1433 C   0  0  0  0  0  0  0  0  0  0  0  0
    1.3480   -1.0304   -0.8645 H   0  0  0  0  0  0  0  0  0  0  0  0
   -0.1159   -1.6514   -1.6125 H   0  0  0  0  0  0  0  0  0  0  0  0
    0.3846    0.3540   -2.1524 C   0  0  0  0  0  0  0  0  0  0  0  0
   -0.6244    0.7972   -2.9768 N   0  0  0  0  0  0  0  0  0  0  0  0
   -1.5979    0.5025   -2.9459 H   0  0  0  0  0  0  0  0  0  0  0  0
   -0.1290    1.8241   -3.7575 C   0  0  0  0  0  0  0  0  0  0  0  0
   -0.7056    2.3888   -4.4846 H   0  0  0  0  0  0  0  0  0  0  0  0
    1.1411    2.0211   -3.4944 N   0  0  0  0  0  0  0  0  0  0  0  0
    1.4745    1.1085   -2.5006 C   0  0  0  0  0  0  0  0  0  0  0  0
    2.4628    1.0092   -2.0618 H   0  0  0  0  0  0  0  0  0  0  0  0
   -0.6078    1.1023    0.4125 C   0  0  0  0  0  0  0  0  0  0  0  0
   -1.5987    1.6889   -0.0161 O   0  0  0  0  0  0  0  0  0  0  0  0
    0.2238    1.7522    1.3065 N   0  0  0  0  0  0  0  0  0  0  0  0
    1.0170    1.2355    1.6751 H   0  0  0  0  0  0  0  0  0  0  0  0
    0.0806    3.1615    1.6507 C   0  0  0  0  0  0  0  0  0  0  0  0
   -0.9110    3.3554    2.0731 H   0  0  0  0  0  0  0  0  0  0  0  0
    0.8324    3.4479    2.3923 H   0  0  0  0  0  0  0  0  0  0  0  0
    0.2141    3.7869    0.7618 H   0  0  0  0  0  0  0  0  0  0  0  0
  1  2  1  0  0  0  0
  2  3  1  0  0  0  0
  2  4  1  0  0  0  0
  2  5  1  0  0  0  0
  5  6  2  0  0  0  0
  5  7  1  0  0  0  0
  7  8  1  0  0  0  0
  7  9  1  0  0  0  0
  9 10  1  0  0  0  0
  9 11  1  0  0  0  0
  9 22  1  0  0  0  0
 11 12  1  0  0  0  0
 11 13  1  0  0  0  0
 11 14  1  0  0  0  0
 14 15  1  0  0  0  0
 14 20  2  0  0  0  0
 15 16  1  0  0  0  0
 15 17  1  0  0  0  0
 17 18  1  0  0  0  0
 17 19  2  0  0  0  0
 19 20  1  0  0  0  0
 20 21  1  0  0  0  0
 22 23  2  0  0  0  0
 22 24  1  0  0  0  0
 24 25  1  0  0  0  0
 24 26  1  0  0  0  0
 26 27  1  0  0  0  0
 26 28  1  0  0  0  0
 26 29  1  0  0  0  0
M  END
$$$$

  -OEChem-04042215593D

 29 29  0     1  0  0  0  0  0999 V2000
   -3.5300   -3.6405    1.4927 H   0  0  0  0  0  0  0  0  0  0  0  0
   -3.4847   -2.7126    0.9158 C   0  0  0  0  0  0  0  0  0  0  0  0
   -4.0845   -1.9531    1.4232 H   0  0  0  0  0  0  0  0  0  0  0  0
   -3.9023   -2.8940   -0.0774 H   0  0  0  0  0  0  0  0  0  0  0  0
   -2.0476   -2.2426    0.7943 C   0  0  0  0  0  0  0  0  0  0  0  0
   -1.1424   -2.9144    1.2624 O   0  0  0  0  0  0  0  0  0  0  0  0
   -1.7670   -1.0551    0.1514 N   0  0  0  0  0  0  0  0  0  0  0  0
   -2.5611   -0.4682   -0.0992 H   0  0  0  0  0  0  0  0  0  0  0  0
   -0.4468   -0.4038    0.1528 C   0  0  1  0  0  0  0  0  0  0  0  0
    0.1329   -0.7991    0.9933 H   0  0  0  0  0  0  0  0  0  0  0  0
    0.3260   -0.7592   -1.1396 C   0  0  0  0  0  0  0  0  0  0  0  0
    1.3486   -1.0327   -0.8599 H   0  0  0  0  0  0  0  0  0  0  0  0
   -0.1207   -1.6441   -1.6047 H   0  0  0  0  0  0  0  0  0  0  0  0
    0.3959    0.3486   -2.1619 C   0  0  0  0  0  0  0  0  0  0  0  0
   -0.6502    0.9818   -2.7951 N   0  0  0  0  0  0  0  0  0  0  0  0
   -1.6345    0.8996   -2.5459 H   0  0  0  0  0  0  0  0  0  0  0  0
   -0.1299    1.9270   -3.6578 C   0  0  0  0  0  0  0  0  0  0  0  0
   -0.7191    2.6055   -4.2679 H   0  0  0  0  0  0  0  0  0  0  0  0
    1.1812    1.8939   -3.6279 N   0  0  0  0  0  0  0  0  0  0  0  0
    1.5212    0.9125   -2.7038 C   0  0  0  0  0  0  0  0  0  0  0  0
    2.5391    0.6356   -2.4460 H   0  0  0  0  0  0  0  0  0  0  0  0
   -0.6057    1.1096    0.4204 C   0  0  0  0  0  0  0  0  0  0  0  0
   -1.5980    1.6976   -0.0053 O   0  0  0  0  0  0  0  0  0  0  0  0
    0.2272    1.7561    1.3152 N   0  0  0  0  0  0  0  0  0  0  0  0
    1.0182    1.2360    1.6841 H   0  0  0  0  0  0  0  0  0  0  0  0
    0.0809    3.1620    1.6720 C   0  0  0  0  0  0  0  0  0  0  0  0
   -0.9064    3.3469    2.1081 H   0  0  0  0  0  0  0  0  0  0  0  0
    0.8402    3.4466    2.4066 H   0  0  0  0  0  0  0  0  0  0  0  0
    0.2006    3.7957    0.7869 H   0  0  0  0  0  0  0  0  0  0  0  0
  1  2  1  0  0  0  0
  2  3  1  0  0  0  0
  2  4  1  0  0  0  0
  2  5  1  0  0  0  0
  5  6  2  0  0  0  0
  5  7  1  0  0  0  0
  7  8  1  0  0  0  0
  7  9  1  0  0  0  0
  9 10  1  0  0  0  0
  9 11  1  0  0  0  0
  9 22  1  0  0  0  0
 11 12  1  0  0  0  0
 11 13  1  0  0  0  0
 11 14  1  0  0  0  0
 14 15  1  0  0  0  0
 14 20  2  0  0  0  0
 15 16  1  0  0  0  0
 15 17  1  0  0  0  0
 17 18  1  0  0  0  0
 17 19  2  0  0  0  0
 19 20  1  0  0  0  0
 20 21  1  0  0  0  0
 22 23  2  0  0  0  0
 22 24  1  0  0  0  0
 24 25  1  0  0  0  0
 24 26  1  0  0  0  0
 26 27  1  0  0  0  0
 26 28  1  0  0  0  0
 26 29  1  0  0  0  0
M  END
$$$$

  -OEChem-04042215593D

 29 29  0     1  0  0  0  0  0999 V2000
   -3.5083   -3.6703    1.4572 H   0  0  0  0  0  0  0  0  0  0  0  0
   -3.4740   -2.7284    0.9023 C   0  0  0  0  0  0  0  0  0  0  0  0
   -4.0852   -1.9892    1.4256 H   0  0  0  0  0  0  0  0  0  0  0  0
   -3.8862   -2.8924   -0.0961 H   0  0  0  0  0  0  0  0  0  0  0  0
   -2.0428   -2.2369    0.7967 C   0  0  0  0  0  0  0  0  0  0  0  0
   -1.1329   -2.9010    1.2670 O   0  0  0  0  0  0  0  0  0  0  0  0
   -1.7718   -1.0405    0.1658 N   0  0  0  0  0  0  0  0  0  0  0  0
   -2.5699   -0.4680   -0.1037 H   0  0  0  0  0  0  0  0  0  0  0  0
   -0.4548   -0.3826    0.1626 C   0  0  1  0  0  0  0  0  0  0  0  0
    0.1295   -0.7826    0.9977 H   0  0  0  0  0  0  0  0  0  0  0  0
    0.3148   -0.7386   -1.1336 C   0  0  0  0  0  0  0  0  0  0  0  0
    1.3363   -1.0180   -0.8565 H   0  0  0  0  0  0  0  0  0  0  0  0
   -0.1396   -1.6248   -1.5887 H   0  0  0  0  0  0  0  0  0  0  0  0
    0.3924    0.3492   -2.1803 C   0  0  0  0  0  0  0  0  0  0  0  0
   -0.6095    1.1769   -2.6378 N   0  0  0  0  0  0  0  0  0  0  0  0
   -1.5232    1.2986   -2.1979 H   0  0  0  0  0  0  0  0  0  0  0  0
   -0.0813    2.0159   -3.5991 C   0  0  0  0  0  0  0  0  0  0  0  0
   -0.6306    2.7999   -4.1125 H   0  0  0  0  0  0  0  0  0  0  0  0
    1.1859    1.7387   -3.7934 N   0  0  0  0  0  0  0  0  0  0  0  0
    1.4918    0.7019   -2.9191 C   0  0  0  0  0  0  0  0  0  0  0  0
    2.4701    0.2383   -2.8336 H   0  0  0  0  0  0  0  0  0  0  0  0
   -0.6106    1.1272    0.4487 C   0  0  0  0  0  0  0  0  0  0  0  0
   -1.6009    1.7242    0.0287 O   0  0  0  0  0  0  0  0  0  0  0  0
    0.2310    1.7638    1.3422 N   0  0  0  0  0  0  0  0  0  0  0  0
    1.0170    1.2341    1.7089 H   0  0  0  0  0  0  0  0  0  0  0  0
    0.0894    3.1646    1.7202 C   0  0  0  0  0  0  0  0  0  0  0  0
   -0.8852    3.3404    2.1875 H   0  0  0  0  0  0  0  0  0  0  0  0
    0.8697    3.4431    2.4349 H   0  0  0  0  0  0  0  0  0  0  0  0
    0.1803    3.8095    0.8399 H   0  0  0  0  0  0  0  0  0  0  0  0
  1  2  1  0  0  0  0
  2  3  1  0  0  0  0
  2  4  1  0  0  0  0
  2  5  1  0  0  0  0
  5  6  2  0  0  0  0
  5  7  1  0  0  0  0
  7  8  1  0  0  0  0
  7  9  1  0  0  0  0
  9 10  1  0  0  0  0
  9 11  1  0  0  0  0
  9 22  1  0  0  0  0
 11 12  1  0  0  0  0
 11 13  1  0  0  0  0
 11 14  1  0  0  0  0
 14 15  1  0  0  0  0
 14 20  2  0  0  0  0
 15 16  1  0  0  0  0
 15 17  1  0  0  0  0
 17 18  1  0  0  0  0
 17 19  2  0  0  0  0
 19 20  1  0  0  0  0
 20 21  1  0  0  0  0
 22 23  2  0  0  0  0
 22 24  1  0  0  0  0
 24 25  1  0  0  0  0
 24 26  1  0  0  0  0
 26 27  1  0  0  0  0
 26 28  1  0  0  0  0
 26 29  1  0  0  0  0
M  END
$$$$

  -OEChem-04042215593D

 29 29  0     1  0  0  0  0  0999 V2000
   -3.4880   -3.6910    1.4290 H   0  0  0  0  0  0  0  0  0  0  0  0
   -3.4602   -2.7469    0.8777 C   0  0  0  0  0  0  0  0  0  0  0  0
   -4.0951   -2.0208    1.3913 H   0  0  0  0  0  0  0  0  0  0  0  0
   -3.8505   -2.9149   -0.1289 H   0  0  0  0  0  0  0  0  0  0  0  0
   -2.0366   -2.2290    0.8000 C   0  0  0  0  0  0  0  0  0  0  0  0
   -1.1214   -2.8819    1.2757 O   0  0  0  0  0  0  0  0  0  0  0  0
   -1.7785   -1.0206    0.1871 N   0  0  0  0  0  0  0  0  0  0  0  0
   -2.5808   -0.4670   -0.1082 H   0  0  0  0  0  0  0  0  0  0  0  0
   -0.4667   -0.3527    0.1743 C   0  0  1  0  0  0  0  0  0  0  0  0
    0.1238   -0.7601    1.0013 H   0  0  0  0  0  0  0  0  0  0  0  0
    0.2986   -0.7113   -1.1258 C   0  0  0  0  0  0  0  0  0  0  0  0
    1.3226   -0.9835   -0.8500 H   0  0  0  0  0  0  0  0  0  0  0  0
   -0.1535   -1.6061   -1.5663 H   0  0  0  0  0  0  0  0  0  0  0  0
    0.3777    0.3523   -2.2001 C   0  0  0  0  0  0  0  0  0  0  0  0
   -0.5107    1.3599   -2.5096 N   0  0  0  0  0  0  0  0  0  0  0  0
   -1.3283    1.6230   -1.9524 H   0  0  0  0  0  0  0  0  0  0  0  0
   -0.0059    2.0888   -3.5679 C   0  0  0  0  0  0  0  0  0  0  0  0
   -0.4826    2.9583   -4.0115 H   0  0  0  0  0  0  0  0  0  0  0  0
    1.1412    1.5838   -3.9535 N   0  0  0  0  0  0  0  0  0  0  0  0
    1.3897    0.5045   -3.1124 C   0  0  0  0  0  0  0  0  0  0  0  0
    2.2692   -0.1298   -3.1702 H   0  0  0  0  0  0  0  0  0  0  0  0
   -0.6103    1.1524    0.4867 C   0  0  0  0  0  0  0  0  0  0  0  0
   -1.5944    1.7679    0.0792 O   0  0  0  0  0  0  0  0  0  0  0  0
    0.2498    1.7718    1.3749 N   0  0  0  0  0  0  0  0  0  0  0  0
    1.0289    1.2273    1.7346 H   0  0  0  0  0  0  0  0  0  0  0  0
    0.1151    3.1639    1.7867 C   0  0  0  0  0  0  0  0  0  0  0  0
   -0.8629    3.3352    2.2488 H   0  0  0  0  0  0  0  0  0  0  0  0
    0.8898    3.4189    2.5164 H   0  0  0  0  0  0  0  0  0  0  0  0
    0.2197    3.8303    0.9241 H   0  0  0  0  0  0  0  0  0  0  0  0
  1  2  1  0  0  0  0
  2  3  1  0  0  0  0
  2  4  1  0  0  0  0
  2  5  1  0  0  0  0
  5  6  2  0  0  0  0
  5  7  1  0  0  0  0
  7  8  1  0  0  0  0
  7  9  1  0  0  0  0
  9 10  1  0  0  0  0
  9 11  1  0  0  0  0
  9 22  1  0  0  0  0
 11 12  1  0  0  0  0
 11 13  1  0  0  0  0
 11 14  1  0  0  0  0
 14 15  1  0  0  0  0
 14 20  2  0  0  0  0
 15 16  1  0  0  0  0
 15 17  1  0  0  0  0
 17 18  1  0  0  0  0
 17 19  2  0  0  0  0
 19 20  1  0  0  0  0
 20 21  1  0  0  0  0
 22 23  2  0  0  0  0
 22 24  1  0  0  0  0
 24 25  1  0  0  0  0
 24 26  1  0  0  0  0
 26 27  1  0  0  0  0
 26 28  1  0  0  0  0
 26 29  1  0  0  0  0
M  END
$$$$

  -OEChem-04042215593D

 29 29  0     1  0  0  0  0  0999 V2000
   -3.4691   -3.7242    1.3675 H   0  0  0  0  0  0  0  0  0  0  0  0
   -3.4520   -2.7620    0.8482 C   0  0  0  0  0  0  0  0  0  0  0  0
   -4.0947   -2.0606    1.3855 H   0  0  0  0  0  0  0  0  0  0  0  0
   -3.8404   -2.9008   -0.1636 H   0  0  0  0  0  0  0  0  0  0  0  0
   -2.0346   -2.2250    0.7895 C   0  0  0  0  0  0  0  0  0  0  0  0
   -1.1149   -2.8734    1.2626 O   0  0  0  0  0  0  0  0  0  0  0  0
   -1.7879   -1.0036    0.1976 N   0  0  0  0  0  0  0  0  0  0  0  0
   -2.5937   -0.4632   -0.1120 H   0  0  0  0  0  0  0  0  0  0  0  0
   -0.4824   -0.3238    0.1844 C   0  0  1  0  0  0  0  0  0  0  0  0
    0.1073   -0.7392    1.0082 H   0  0  0  0  0  0  0  0  0  0  0  0
    0.2901   -0.6833   -1.1127 C   0  0  0  0  0  0  0  0  0  0  0  0
    1.3164   -0.9363   -0.8274 H   0  0  0  0  0  0  0  0  0  0  0  0
   -0.1448   -1.5926   -1.5413 H   0  0  0  0  0  0  0  0  0  0  0  0
    0.3733    0.3595   -2.2089 C   0  0  0  0  0  0  0  0  0  0  0  0
   -0.3464    1.5193   -2.4040 N   0  0  0  0  0  0  0  0  0  0  0  0
   -1.0693    1.8867   -1.7776 H   0  0  0  0  0  0  0  0  0  0  0  0
    0.1078    2.1438   -3.5476 C   0  0  0  0  0  0  0  0  0  0  0  0
   -0.2740    3.0814   -3.9413 H   0  0  0  0  0  0  0  0  0  0  0  0
    1.0729    1.4395   -4.0873 N   0  0  0  0  0  0  0  0  0  0  0  0
    1.2459    0.3301   -3.2664 C   0  0  0  0  0  0  0  0  0  0  0  0
    1.9775   -0.4533   -3.4403 H   0  0  0  0  0  0  0  0  0  0  0  0
   -0.6141    1.1759    0.5229 C   0  0  0  0  0  0  0  0  0  0  0  0
   -1.5830    1.8147    0.1170 O   0  0  0  0  0  0  0  0  0  0  0  0
    0.2604    1.7756    1.4104 N   0  0  0  0  0  0  0  0  0  0  0  0
    1.0283    1.2138    1.7680 H   0  0  0  0  0  0  0  0  0  0  0  0
    0.1407    3.1617    1.8466 C   0  0  0  0  0  0  0  0  0  0  0  0
   -0.8199    3.3256    2.3461 H   0  0  0  0  0  0  0  0  0  0  0  0
    0.9417    3.4069    2.5509 H   0  0  0  0  0  0  0  0  0  0  0  0
    0.2137    3.8404    0.9904 H   0  0  0  0  0  0  0  0  0  0  0  0
  1  2  1  0  0  0  0
  2  3  1  0  0  0  0
  2  4  1  0  0  0  0
  2  5  1  0  0  0  0
  5  6  2  0  0  0  0
  5  7  1  0  0  0  0
  7  8  1  0  0  0  0
  7  9  1  0  0  0  0
  9 10  1  0  0  0  0
  9 11  1  0  0  0  0
  9 22  1  0  0  0  0
 11 12  1  0  0  0  0
 11 13  1  0  0  0  0
 11 14  1  0  0  0  0
 14 15  1  0  0  0  0
 14 20  2  0  0  0  0
 15 16  1  0  0  0  0
 15 17  1  0  0  0  0
 17 18  1  0  0  0  0
 17 19  2  0  0  0  0
 19 20  1  0  0  0  0
 20 21  1  0  0  0  0
 22 23  2  0  0  0  0
 22 24  1  0  0  0  0
 24 25  1  0  0  0  0
 24 26  1  0  0  0  0
 26 27  1  0  0  0  0
 26 28  1  0  0  0  0
 26 29  1  0  0  0  0
M  END
$$$$

  -OEChem-04042215593D

 29 29  0     1  0  0  0  0  0999 V2000
   -3.4671   -3.7407    1.3115 H   0  0  0  0  0  0  0  0  0  0  0  0
   -3.4519   -2.7695    0.8091 C   0  0  0  0  0  0  0  0  0  0  0  0
   -4.1082   -2.0831    1.3494 H   0  0  0  0  0  0  0  0  0  0  0  0
   -3.8253   -2.8944   -0.2102 H   0  0  0  0  0  0  0  0  0  0  0  0
   -2.0389   -2.2190    0.7781 C   0  0  0  0  0  0  0  0  0  0  0  0
   -1.1193   -2.8660    1.2532 O   0  0  0  0  0  0  0  0  0  0  0  0
   -1.7952   -0.9888    0.2035 N   0  0  0  0  0  0  0  0  0  0  0  0
   -2.5999   -0.4569   -0.1233 H   0  0  0  0  0  0  0  0  0  0  0  0
   -0.4929   -0.3040    0.1957 C   0  0  1  0  0  0  0  0  0  0  0  0
    0.0933   -0.7277    1.0177 H   0  0  0  0  0  0  0  0  0  0  0  0
    0.2863   -0.6642   -1.0973 C   0  0  0  0  0  0  0  0  0  0  0  0
    1.3140   -0.8963   -0.7996 H   0  0  0  0  0  0  0  0  0  0  0  0
   -0.1288   -1.5863   -1.5182 H   0  0  0  0  0  0  0  0  0  0  0  0
    0.3770    0.3667   -2.2060 C   0  0  0  0  0  0  0  0  0  0  0  0
   -0.1273    1.6466   -2.3089 N   0  0  0  0  0  0  0  0  0  0  0  0
   -0.7381    2.1054   -1.6261 H   0  0  0  0  0  0  0  0  0  0  0  0
    0.2406    2.1796   -3.5274 C   0  0  0  0  0  0  0  0  0  0  0  0
   -0.0281    3.1702   -3.8830 H   0  0  0  0  0  0  0  0  0  0  0  0
    0.9604    1.3115   -4.1955 N   0  0  0  0  0  0  0  0  0  0  0  0
    1.0499    0.1834   -3.3871 C   0  0  0  0  0  0  0  0  0  0  0  0
    1.5850   -0.7224   -3.6566 H   0  0  0  0  0  0  0  0  0  0  0  0
   -0.6111    1.1916    0.5533 C   0  0  0  0  0  0  0  0  0  0  0  0
   -1.5535    1.8574    0.1318 O   0  0  0  0  0  0  0  0  0  0  0  0
    0.2729    1.7731    1.4435 N   0  0  0  0  0  0  0  0  0  0  0  0
    1.0196    1.1915    1.8145 H   0  0  0  0  0  0  0  0  0  0  0  0
    0.1747    3.1583    1.8880 C   0  0  0  0  0  0  0  0  0  0  0  0
   -0.7790    3.3315    2.3978 H   0  0  0  0  0  0  0  0  0  0  0  0
    0.9856    3.3895    2.5854 H   0  0  0  0  0  0  0  0  0  0  0  0
    0.2481    3.8411    1.0350 H   0  0  0  0  0  0  0  0  0  0  0  0
  1  2  1  0  0  0  0
  2  3  1  0  0  0  0
  2  4  1  0  0  0  0
  2  5  1  0  0  0  0
  5  6  2  0  0  0  0
  5  7  1  0  0  0  0
  7  8  1  0  0  0  0
  7  9  1  0  0  0  0
  9 10  1  0  0  0  0
  9 11  1  0  0  0  0
  9 22  1  0  0  0  0
 11 12  1  0  0  0  0
 11 13  1  0  0  0  0
 11 14  1  0  0  0  0
 14 15  1  0  0  0  0
 14 20  2  0  0  0  0
 15 16  1  0  0  0  0
 15 17  1  0  0  0  0
 17 18  1  0  0  0  0
 17 19  2  0  0  0  0
 19 20  1  0  0  0  0
 20 21  1  0  0  0  0
 22 23  2  0  0  0  0
 22 24  1  0  0  0  0
 24 25  1  0  0  0  0
 24 26  1  0  0  0  0
 26 27  1  0  0  0  0
 26 28  1  0  0  0  0
 26 29  1  0  0  0  0
M  END
$$$$

  -OEChem-04042215593D

 29 29  0     1  0  0  0  0  0999 V2000
   -3.4745   -3.7415    1.2670 H   0  0  0  0  0  0  0  0  0  0  0  0
   -3.4570   -2.7666    0.7718 C   0  0  0  0  0  0  0  0  0  0  0  0
   -4.1264   -2.0880    1.3060 H   0  0  0  0  0  0  0  0  0  0  0  0
   -3.8130   -2.8864   -0.2543 H   0  0  0  0  0  0  0  0  0  0  0  0
   -2.0467   -2.2082    0.7686 C   0  0  0  0  0  0  0  0  0  0  0  0
   -1.1336   -2.8509    1.2619 O   0  0  0  0  0  0  0  0  0  0  0  0
   -1.7972   -0.9767    0.1994 N   0  0  0  0  0  0  0  0  0  0  0  0
   -2.5948   -0.4543   -0.1585 H   0  0  0  0  0  0  0  0  0  0  0  0
   -0.4949   -0.2927    0.2005 C   0  0  1  0  0  0  0  0  0  0  0  0
    0.0821   -0.7202    1.0270 H   0  0  0  0  0  0  0  0  0  0  0  0
    0.2936   -0.6604   -1.0843 C   0  0  0  0  0  0  0  0  0  0  0  0
    1.3209   -0.8761   -0.7730 H   0  0  0  0  0  0  0  0  0  0  0  0
   -0.1049   -1.5929   -1.4982 H   0  0  0  0  0  0  0  0  0  0  0  0
    0.3938    0.3638   -2.1991 C   0  0  0  0  0  0  0  0  0  0  0  0
    0.1358    1.7192   -2.2308 N   0  0  0  0  0  0  0  0  0  0  0  0
   -0.3272    2.2536   -1.4909 H   0  0  0  0  0  0  0  0  0  0  0  0
    0.3836    2.1936   -3.5030 C   0  0  0  0  0  0  0  0  0  0  0  0
    0.2408    3.2211   -3.8248 H   0  0  0  0  0  0  0  0  0  0  0  0
    0.8066    1.2194   -4.2706 N   0  0  0  0  0  0  0  0  0  0  0  0
    0.8134    0.0798   -3.4740 C   0  0  0  0  0  0  0  0  0  0  0  0
    1.1119   -0.9058   -3.8184 H   0  0  0  0  0  0  0  0  0  0  0  0
   -0.5992    1.2024    0.5600 C   0  0  0  0  0  0  0  0  0  0  0  0
   -1.5066    1.8940    0.1080 O   0  0  0  0  0  0  0  0  0  0  0  0
    0.2893    1.7700    1.4548 N   0  0  0  0  0  0  0  0  0  0  0  0
    0.9980    1.1648    1.8613 H   0  0  0  0  0  0  0  0  0  0  0  0
    0.2014    3.1521    1.9111 C   0  0  0  0  0  0  0  0  0  0  0  0
   -0.7522    3.3275    2.4201 H   0  0  0  0  0  0  0  0  0  0  0  0
    1.0125    3.3706    2.6123 H   0  0  0  0  0  0  0  0  0  0  0  0
    0.2822    3.8419    1.0646 H   0  0  0  0  0  0  0  0  0  0  0  0
  1  2  1  0  0  0  0
  2  3  1  0  0  0  0
  2  4  1  0  0  0  0
  2  5  1  0  0  0  0
  5  6  2  0  0  0  0
  5  7  1  0  0  0  0
  7  8  1  0  0  0  0
  7  9  1  0  0  0  0
  9 10  1  0  0  0  0
  9 11  1  0  0  0  0
  9 22  1  0  0  0  0
 11 12  1  0  0  0  0
 11 13  1  0  0  0  0
 11 14  1  0  0  0  0
 14 15  1  0  0  0  0
 14 20  2  0  0  0  0
 15 16  1  0  0  0  0
 15 17  1  0  0  0  0
 17 18  1  0  0  0  0
 17 19  2  0  0  0  0
 19 20  1  0  0  0  0
 20 21  1  0  0  0  0
 22 23  2  0  0  0  0
 22 24  1  0  0  0  0
 24 25  1  0  0  0  0
 24 26  1  0  0  0  0
 26 27  1  0  0  0  0
 26 28  1  0  0  0  0
 26 29  1  0  0  0  0
M  END
$$$$

  -OEChem-04042215593D

 29 29  0     1  0  0  0  0  0999 V2000
   -3.5040   -3.7076    1.2939 H   0  0  0  0  0  0  0  0  0  0  0  0
   -3.4680   -2.7556    0.7567 C   0  0  0  0  0  0  0  0  0  0  0  0
   -4.1524   -2.0535    1.2391 H   0  0  0  0  0  0  0  0  0  0  0  0
   -3.7910   -2.9199   -0.2741 H   0  0  0  0  0  0  0  0  0  0  0  0
   -2.0566   -2.1999    0.7735 C   0  0  0  0  0  0  0  0  0  0  0  0
   -1.1547   -2.8387    1.2918 O   0  0  0  0  0  0  0  0  0  0  0  0
   -1.7922   -0.9765    0.1933 N   0  0  0  0  0  0  0  0  0  0  0  0
   -2.5804   -0.4565   -0.1887 H   0  0  0  0  0  0  0  0  0  0  0  0
   -0.4851   -0.3017    0.1995 C   0  0  1  0  0  0  0  0  0  0  0  0
    0.0861   -0.7267    1.0311 H   0  0  0  0  0  0  0  0  0  0  0  0
    0.3050   -0.6790   -1.0805 C   0  0  0  0  0  0  0  0  0  0  0  0
    1.3309   -0.8949   -0.7654 H   0  0  0  0  0  0  0  0  0  0  0  0
   -0.0946   -1.6120   -1.4925 H   0  0  0  0  0  0  0  0  0  0  0  0
    0.4120    0.3478   -2.1918 C   0  0  0  0  0  0  0  0  0  0  0  0
    0.4246    1.7283   -2.1696 N   0  0  0  0  0  0  0  0  0  0  0  0
    0.1800    2.3119   -1.3683 H   0  0  0  0  0  0  0  0  0  0  0  0
    0.5391    2.1932   -3.4648 C   0  0  0  0  0  0  0  0  0  0  0  0
    0.5432    3.2402   -3.7539 H   0  0  0  0  0  0  0  0  0  0  0  0
    0.6299    1.1868   -4.2987 N   0  0  0  0  0  0  0  0  0  0  0  0
    0.5471    0.0377   -3.5212 C   0  0  0  0  0  0  0  0  0  0  0  0
    0.5848   -0.9728   -3.9171 H   0  0  0  0  0  0  0  0  0  0  0  0
   -0.5846    1.1971    0.5417 C   0  0  0  0  0  0  0  0  0  0  0  0
   -1.4732    1.8945    0.0655 O   0  0  0  0  0  0  0  0  0  0  0  0
    0.2995    1.7673    1.4398 N   0  0  0  0  0  0  0  0  0  0  0  0
    0.9811    1.1541    1.8799 H   0  0  0  0  0  0  0  0  0  0  0  0
    0.2118    3.1525    1.8874 C   0  0  0  0  0  0  0  0  0  0  0  0
   -0.7645    3.3477    2.3437 H   0  0  0  0  0  0  0  0  0  0  0  0
    0.9876    3.3589    2.6312 H   0  0  0  0  0  0  0  0  0  0  0  0
    0.3504    3.8374    1.0445 H   0  0  0  0  0  0  0  0  0  0  0  0
  1  2  1  0  0  0  0
  2  3  1  0  0  0  0
  2  4  1  0  0  0  0
  2  5  1  0  0  0  0
  5  6  2  0  0  0  0
  5  7  1  0  0  0  0
  7  8  1  0  0  0  0
  7  9  1  0  0  0  0
  9 10  1  0  0  0  0
  9 11  1  0  0  0  0
  9 22  1  0  0  0  0
 11 12  1  0  0  0  0
 11 13  1  0  0  0  0
 11 14  1  0  0  0  0
 14 15  1  0  0  0  0
 14 20  2  0  0  0  0
 15 16  1  0  0  0  0
 15 17  1  0  0  0  0
 17 18  1  0  0  0  0
 17 19  2  0  0  0  0
 19 20  1  0  0  0  0
 20 21  1  0  0  0  0
 22 23  2  0  0  0  0
 22 24  1  0  0  0  0
 24 25  1  0  0  0  0
 24 26  1  0  0  0  0
 26 27  1  0  0  0  0
 26 28  1  0  0  0  0
 26 29  1  0  0  0  0
M  END
$$$$

  -OEChem-04042215593D

 29 29  0     1  0  0  0  0  0999 V2000
   -3.5404   -3.6538    1.3217 H   0  0  0  0  0  0  0  0  0  0  0  0
   -3.4862   -2.7021    0.7859 C   0  0  0  0  0  0  0  0  0  0  0  0
   -4.1432   -1.9819    1.2796 H   0  0  0  0  0  0  0  0  0  0  0  0
   -3.8296   -2.8549   -0.2402 H   0  0  0  0  0  0  0  0  0  0  0  0
   -2.0605   -2.1846    0.7825 C   0  0  0  0  0  0  0  0  0  0  0  0
   -1.1730   -2.8307    1.3165 O   0  0  0  0  0  0  0  0  0  0  0  0
   -1.7686   -0.9834    0.1715 N   0  0  0  0  0  0  0  0  0  0  0  0
   -2.5473   -0.4467   -0.2077 H   0  0  0  0  0  0  0  0  0  0  0  0
   -0.4513   -0.3297    0.1765 C   0  0  1  0  0  0  0  0  0  0  0  0
    0.1135   -0.7411    1.0193 H   0  0  0  0  0  0  0  0  0  0  0  0
    0.3352   -0.7258   -1.0980 C   0  0  0  0  0  0  0  0  0  0  0  0
    1.3574   -0.9632   -0.7864 H   0  0  0  0  0  0  0  0  0  0  0  0
   -0.0853   -1.6484   -1.5127 H   0  0  0  0  0  0  0  0  0  0  0  0
    0.4485    0.3097   -2.1973 C   0  0  0  0  0  0  0  0  0  0  0  0
    0.7450    1.6569   -2.1411 N   0  0  0  0  0  0  0  0  0  0  0  0
    0.8265    2.2196   -1.2960 H   0  0  0  0  0  0  0  0  0  0  0  0
    0.7182    2.1688   -3.4238 C   0  0  0  0  0  0  0  0  0  0  0  0
    0.8885    3.2096   -3.6836 H   0  0  0  0  0  0  0  0  0  0  0  0
    0.4530    1.2174   -4.2849 N   0  0  0  0  0  0  0  0  0  0  0  0
    0.2779    0.0601   -3.5349 C   0  0  0  0  0  0  0  0  0  0  0  0
    0.0369   -0.9119   -3.9550 H   0  0  0  0  0  0  0  0  0  0  0  0
   -0.5601    1.1778    0.4765 C   0  0  0  0  0  0  0  0  0  0  0  0
   -1.4766    1.8444    0.0103 O   0  0  0  0  0  0  0  0  0  0  0  0
    0.3081    1.7743    1.3740 N   0  0  0  0  0  0  0  0  0  0  0  0
    0.9748    1.1701    1.8477 H   0  0  0  0  0  0  0  0  0  0  0  0
    0.1493    3.1447    1.8478 C   0  0  0  0  0  0  0  0  0  0  0  0
   -0.7978    3.2559    2.3863 H   0  0  0  0  0  0  0  0  0  0  0  0
    0.9667    3.4079    2.5261 H   0  0  0  0  0  0  0  0  0  0  0  0
    0.1604    3.8467    1.0076 H   0  0  0  0  0  0  0  0  0  0  0  0
  1  2  1  0  0  0  0
  2  3  1  0  0  0  0
  2  4  1  0  0  0  0
  2  5  1  0  0  0  0
  5  6  2  0  0  0  0
  5  7  1  0  0  0  0
  7  8  1  0  0  0  0
  7  9  1  0  0  0  0
  9 10  1  0  0  0  0
  9 11  1  0  0  0  0
  9 22  1  0  0  0  0
 11 12  1  0  0  0  0
 11 13  1  0  0  0  0
 11 14  1  0  0  0  0
 14 15  1  0  0  0  0
 14 20  2  0  0  0  0
 15 16  1  0  0  0  0
 15 17  1  0  0  0  0
 17 18  1  0  0  0  0
 17 19  2  0  0  0  0
 19 20  1  0  0  0  0
 20 21  1  0  0  0  0
 22 23  2  0  0  0  0
 22 24  1  0  0  0  0
 24 25  1  0  0  0  0
 24 26  1  0  0  0  0
 26 27  1  0  0  0  0
 26 28  1  0  0  0  0
 26 29  1  0  0  0  0
M  END
$$$$

  -OEChem-04042215593D

 29 29  0     1  0  0  0  0  0999 V2000
   -3.5606   -3.6199    1.3804 H   0  0  0  0  0  0  0  0  0  0  0  0
   -3.4965   -2.6841    0.8183 C   0  0  0  0  0  0  0  0  0  0  0  0
   -4.1423   -1.9423    1.2944 H   0  0  0  0  0  0  0  0  0  0  0  0
   -3.8461   -2.8613   -0.2017 H   0  0  0  0  0  0  0  0  0  0  0  0
   -2.0643   -2.1851    0.7953 C   0  0  0  0  0  0  0  0  0  0  0  0
   -1.1823   -2.8298    1.3403 O   0  0  0  0  0  0  0  0  0  0  0  0
   -1.7602   -1.0015    0.1567 N   0  0  0  0  0  0  0  0  0  0  0  0
   -2.5359   -0.4545   -0.2149 H   0  0  0  0  0  0  0  0  0  0  0  0
   -0.4381   -0.3576    0.1586 C   0  0  1  0  0  0  0  0  0  0  0  0
    0.1237   -0.7553    1.0098 H   0  0  0  0  0  0  0  0  0  0  0  0
    0.3483   -0.7649   -1.1109 C   0  0  0  0  0  0  0  0  0  0  0  0
    1.3688   -1.0186   -0.8073 H   0  0  0  0  0  0  0  0  0  0  0  0
   -0.0877   -1.6771   -1.5319 H   0  0  0  0  0  0  0  0  0  0  0  0
    0.4522    0.2860   -2.1922 C   0  0  0  0  0  0  0  0  0  0  0  0
    1.0079    1.5484   -2.1413 N   0  0  0  0  0  0  0  0  0  0  0  0
    1.3792    2.0133   -1.3155 H   0  0  0  0  0  0  0  0  0  0  0  0
    0.8705    2.1371   -3.3840 C   0  0  0  0  0  0  0  0  0  0  0  0
    1.1985    3.1409   -3.6383 H   0  0  0  0  0  0  0  0  0  0  0  0
    0.2884    1.3084   -4.2162 N   0  0  0  0  0  0  0  0  0  0  0  0
    0.0189    0.1562   -3.4862 C   0  0  0  0  0  0  0  0  0  0  0  0
   -0.4676   -0.7270   -3.8890 H   0  0  0  0  0  0  0  0  0  0  0  0
   -0.5524    1.1576    0.4211 C   0  0  0  0  0  0  0  0  0  0  0  0
   -1.4862    1.8014   -0.0434 O   0  0  0  0  0  0  0  0  0  0  0  0
    0.3067    1.7736    1.3147 N   0  0  0  0  0  0  0  0  0  0  0  0
    0.9628    1.1781    1.8132 H   0  0  0  0  0  0  0  0  0  0  0  0
    0.1315    3.1495    1.7660 C   0  0  0  0  0  0  0  0  0  0  0  0
   -0.8175    3.2590    2.3017 H   0  0  0  0  0  0  0  0  0  0  0  0
    0.9452    3.4332    2.4404 H   0  0  0  0  0  0  0  0  0  0  0  0
    0.1354    3.8369    0.9135 H   0  0  0  0  0  0  0  0  0  0  0  0
  1  2  1  0  0  0  0
  2  3  1  0  0  0  0
  2  4  1  0  0  0  0
  2  5  1  0  0  0  0
  5  6  2  0  0  0  0
  5  7  1  0  0  0  0
  7  8  1  0  0  0  0
  7  9  1  0  0  0  0
  9 10  1  0  0  0  0
  9 11  1  0  0  0  0
  9 22  1  0  0  0  0
 11 12  1  0  0  0  0
 11 13  1  0  0  0  0
 11 14  1  0  0  0  0
 14 15  1  0  0  0  0
 14 20  2  0  0  0  0
 15 16  1  0  0  0  0
 15 17  1  0  0  0  0
 17 18  1  0  0  0  0
 17 19  2  0  0  0  0
 19 20  1  0  0  0  0
 20 21  1  0  0  0  0
 22 23  2  0  0  0  0
 22 24  1  0  0  0  0
 24 25  1  0  0  0  0
 24 26  1  0  0  0  0
 26 27  1  0  0  0  0
 26 28  1  0  0  0  0
 26 29  1  0  0  0  0
M  END
$$$$

  -OEChem-04042215593D

 29 29  0     1  0  0  0  0  0999 V2000
   -3.5671   -3.6059    1.4208 H   0  0  0  0  0  0  0  0  0  0  0  0
   -3.5002   -2.6785    0.8454 C   0  0  0  0  0  0  0  0  0  0  0  0
   -4.1368   -1.9252    1.3155 H   0  0  0  0  0  0  0  0  0  0  0  0
   -3.8588   -2.8668   -0.1694 H   0  0  0  0  0  0  0  0  0  0  0  0
   -2.0646   -2.1908    0.8047 C   0  0  0  0  0  0  0  0  0  0  0  0
   -1.1822   -2.8378    1.3463 O   0  0  0  0  0  0  0  0  0  0  0  0
   -1.7572   -1.0177    0.1485 N   0  0  0  0  0  0  0  0  0  0  0  0
   -2.5335   -0.4622   -0.2092 H   0  0  0  0  0  0  0  0  0  0  0  0
   -0.4336   -0.3768    0.1463 C   0  0  1  0  0  0  0  0  0  0  0  0
    0.1288   -0.7650    1.0014 H   0  0  0  0  0  0  0  0  0  0  0  0
    0.3505   -0.7892   -1.1212 C   0  0  0  0  0  0  0  0  0  0  0  0
    1.3705   -1.0558   -0.8273 H   0  0  0  0  0  0  0  0  0  0  0  0
   -0.0986   -1.6924   -1.5482 H   0  0  0  0  0  0  0  0  0  0  0  0
    0.4402    0.2754   -2.1867 C   0  0  0  0  0  0  0  0  0  0  0  0
    1.2227    1.4106   -2.2045 N   0  0  0  0  0  0  0  0  0  0  0  0
    1.8309    1.7396   -1.4586 H   0  0  0  0  0  0  0  0  0  0  0  0
    0.9981    2.0746   -3.3960 C   0  0  0  0  0  0  0  0  0  0  0  0
    1.4656    3.0113   -3.6858 H   0  0  0  0  0  0  0  0  0  0  0  0
    0.1424    1.4085   -4.1324 N   0  0  0  0  0  0  0  0  0  0  0  0
   -0.2159    0.2886   -3.3899 C   0  0  0  0  0  0  0  0  0  0  0  0
   -0.9144   -0.4734   -3.7223 H   0  0  0  0  0  0  0  0  0  0  0  0
   -0.5495    1.1434    0.3852 C   0  0  0  0  0  0  0  0  0  0  0  0
   -1.4979    1.7705   -0.0732 O   0  0  0  0  0  0  0  0  0  0  0  0
    0.3049    1.7741    1.2733 N   0  0  0  0  0  0  0  0  0  0  0  0
    0.9713    1.1911    1.7722 H   0  0  0  0  0  0  0  0  0  0  0  0
    0.1237    3.1557    1.7040 C   0  0  0  0  0  0  0  0  0  0  0  0
   -0.8314    3.2717    2.2273 H   0  0  0  0  0  0  0  0  0  0  0  0
    0.9292    3.4493    2.3840 H   0  0  0  0  0  0  0  0  0  0  0  0
    0.1371    3.8313    0.8419 H   0  0  0  0  0  0  0  0  0  0  0  0
  1  2  1  0  0  0  0
  2  3  1  0  0  0  0
  2  4  1  0  0  0  0
  2  5  1  0  0  0  0
  5  6  2  0  0  0  0
  5  7  1  0  0  0  0
  7  8  1  0  0  0  0
  7  9  1  0  0  0  0
  9 10  1  0  0  0  0
  9 11  1  0  0  0  0
  9 22  1  0  0  0  0
 11 12  1  0  0  0  0
 11 13  1  0  0  0  0
 11 14  1  0  0  0  0
 14 15  1  0  0  0  0
 14 20  2  0  0  0  0
 15 16  1  0  0  0  0
 15 17  1  0  0  0  0
 17 18  1  0  0  0  0
 17 19  2  0  0  0  0
 19 20  1  0  0  0  0
 20 21  1  0  0  0  0
 22 23  2  0  0  0  0
 22 24  1  0  0  0  0
 24 25  1  0  0  0  0
 24 26  1  0  0  0  0
 26 27  1  0  0  0  0
 26 28  1  0  0  0  0
 26 29  1  0  0  0  0
M  END
$$$$

  -OEChem-04042215593D

 29 29  0     1  0  0  0  0  0999 V2000
   -3.5697   -3.6039    1.4453 H   0  0  0  0  0  0  0  0  0  0  0  0
   -3.5026   -2.6792    0.8652 C   0  0  0  0  0  0  0  0  0  0  0  0
   -4.1289   -1.9196    1.3393 H   0  0  0  0  0  0  0  0  0  0  0  0
   -3.8737   -2.8688   -0.1449 H   0  0  0  0  0  0  0  0  0  0  0  0
   -2.0641   -2.2017    0.8065 C   0  0  0  0  0  0  0  0  0  0  0  0
   -1.1801   -2.8523    1.3414 O   0  0  0  0  0  0  0  0  0  0  0  0
   -1.7564   -1.0327    0.1432 N   0  0  0  0  0  0  0  0  0  0  0  0
   -2.5342   -0.4708   -0.2010 H   0  0  0  0  0  0  0  0  0  0  0  0
   -0.4327   -0.3917    0.1401 C   0  0  1  0  0  0  0  0  0  0  0  0
    0.1311   -0.7745    0.9970 H   0  0  0  0  0  0  0  0  0  0  0  0
    0.3509   -0.8013   -1.1278 C   0  0  0  0  0  0  0  0  0  0  0  0
    1.3704   -1.0766   -0.8402 H   0  0  0  0  0  0  0  0  0  0  0  0
   -0.1051   -1.6975   -1.5624 H   0  0  0  0  0  0  0  0  0  0  0  0
    0.4319    0.2738   -2.1818 C   0  0  0  0  0  0  0  0  0  0  0  0
    1.3936    1.2501   -2.3289 N   0  0  0  0  0  0  0  0  0  0  0  0
    2.1867    1.4182   -1.7145 H   0  0  0  0  0  0  0  0  0  0  0  0
    1.0918    1.9890   -3.4579 C   0  0  0  0  0  0  0  0  0  0  0  0
    1.6680    2.8344   -3.8229 H   0  0  0  0  0  0  0  0  0  0  0  0
    0.0118    1.5188   -4.0329 N   0  0  0  0  0  0  0  0  0  0  0  0
   -0.4125    0.4528   -3.2463 C   0  0  0  0  0  0  0  0  0  0  0  0
   -1.2858   -0.1584   -3.4535 H   0  0  0  0  0  0  0  0  0  0  0  0
   -0.5540    1.1303    0.3694 C   0  0  0  0  0  0  0  0  0  0  0  0
   -1.5147    1.7441   -0.0824 O   0  0  0  0  0  0  0  0  0  0  0  0
    0.2946    1.7717    1.2553 N   0  0  0  0  0  0  0  0  0  0  0  0
    0.9886    1.2049    1.7341 H   0  0  0  0  0  0  0  0  0  0  0  0
    0.1194    3.1613    1.6614 C   0  0  0  0  0  0  0  0  0  0  0  0
   -0.8413    3.2938    2.1702 H   0  0  0  0  0  0  0  0  0  0  0  0
    0.9184    3.4593    2.3468 H   0  0  0  0  0  0  0  0  0  0  0  0
    0.1492    3.8220    0.7885 H   0  0  0  0  0  0  0  0  0  0  0  0
  1  2  1  0  0  0  0
  2  3  1  0  0  0  0
  2  4  1  0  0  0  0
  2  5  1  0  0  0  0
  5  6  2  0  0  0  0
  5  7  1  0  0  0  0
  7  8  1  0  0  0  0
  7  9  1  0  0  0  0
  9 10  1  0  0  0  0
  9 11  1  0  0  0  0
  9 22  1  0  0  0  0
 11 12  1  0  0  0  0
 11 13  1  0  0  0  0
 11 14  1  0  0  0  0
 14 15  1  0  0  0  0
 14 20  2  0  0  0  0
 15 16  1  0  0  0  0
 15 17  1  0  0  0  0
 17 18  1  0  0  0  0
 17 19  2  0  0  0  0
 19 20  1  0  0  0  0
 20 21  1  0  0  0  0
 22 23  2  0  0  0  0
 22 24  1  0  0  0  0
 24 25  1  0  0  0  0
 24 26  1  0  0  0  0
 26 27  1  0  0  0  0
 26 28  1  0  0  0  0
 26 29  1  0  0  0  0
M  END
$$$$

  -OEChem-04042215593D

 29 29  0     1  0  0  0  0  0999 V2000
   -3.5624   -3.6119    1.4617 H   0  0  0  0  0  0  0  0  0  0  0  0
   -3.5011   -2.6875    0.8806 C   0  0  0  0  0  0  0  0  0  0  0  0
   -4.1210   -1.9271    1.3618 H   0  0  0  0  0  0  0  0  0  0  0  0
   -3.8837   -2.8770   -0.1251 H   0  0  0  0  0  0  0  0  0  0  0  0
   -2.0629   -2.2116    0.8047 C   0  0  0  0  0  0  0  0  0  0  0  0
   -1.1727   -2.8666    1.3240 O   0  0  0  0  0  0  0  0  0  0  0  0
   -1.7625   -1.0405    0.1420 N   0  0  0  0  0  0  0  0  0  0  0  0
   -2.5453   -0.4728   -0.1808 H   0  0  0  0  0  0  0  0  0  0  0  0
   -0.4403   -0.3964    0.1369 C   0  0  1  0  0  0  0  0  0  0  0  0
    0.1247   -0.7796    0.9926 H   0  0  0  0  0  0  0  0  0  0  0  0
    0.3442   -0.8005   -1.1320 C   0  0  0  0  0  0  0  0  0  0  0  0
    1.3637   -1.0725   -0.8421 H   0  0  0  0  0  0  0  0  0  0  0  0
   -0.1070   -1.6973   -1.5699 H   0  0  0  0  0  0  0  0  0  0  0  0
    0.4236    0.2749   -2.1860 C   0  0  0  0  0  0  0  0  0  0  0  0
    1.5057    1.0653   -2.5061 N   0  0  0  0  0  0  0  0  0  0  0  0
    2.4178    1.0559   -2.0558 H   0  0  0  0  0  0  0  0  0  0  0  0
    1.1496    1.8807   -3.5644 C   0  0  0  0  0  0  0  0  0  0  0  0
    1.7988    2.6149   -4.0326 H   0  0  0  0  0  0  0  0  0  0  0  0
   -0.0847    1.6358   -3.9304 N   0  0  0  0  0  0  0  0  0  0  0  0
   -0.5520    0.6407   -3.0775 C   0  0  0  0  0  0  0  0  0  0  0  0
   -1.5465    0.2067   -3.1201 H   0  0  0  0  0  0  0  0  0  0  0  0
   -0.5651    1.1249    0.3696 C   0  0  0  0  0  0  0  0  0  0  0  0
   -1.5368    1.7310   -0.0692 O   0  0  0  0  0  0  0  0  0  0  0  0
    0.2823    1.7691    1.2538 N   0  0  0  0  0  0  0  0  0  0  0  0
    1.0042    1.2149    1.7046 H   0  0  0  0  0  0  0  0  0  0  0  0
    0.1189    3.1651    1.6416 C   0  0  0  0  0  0  0  0  0  0  0  0
   -0.8478    3.3156    2.1339 H   0  0  0  0  0  0  0  0  0  0  0  0
    0.9106    3.4605    2.3367 H   0  0  0  0  0  0  0  0  0  0  0  0
    0.1713    3.8150    0.7615 H   0  0  0  0  0  0  0  0  0  0  0  0
  1  2  1  0  0  0  0
  2  3  1  0  0  0  0
  2  4  1  0  0  0  0
  2  5  1  0  0  0  0
  5  6  2  0  0  0  0
  5  7  1  0  0  0  0
  7  8  1  0  0  0  0
  7  9  1  0  0  0  0
  9 10  1  0  0  0  0
  9 11  1  0  0  0  0
  9 22  1  0  0  0  0
 11 12  1  0  0  0  0
 11 13  1  0  0  0  0
 11 14  1  0  0  0  0
 14 15  1  0  0  0  0
 14 20  2  0  0  0  0
 15 16  1  0  0  0  0
 15 17  1  0  0  0  0
 17 18  1  0  0  0  0
 17 19  2  0  0  0  0
 19 20  1  0  0  0  0
 20 21  1  0  0  0  0
 22 23  2  0  0  0  0
 22 24  1  0  0  0  0
 24 25  1  0  0  0  0
 24 26  1  0  0  0  0
 26 27  1  0  0  0  0
 26 28  1  0  0  0  0
 26 29  1  0  0  0  0
M  END
$$$$

  -OEChem-04042215593D

 29 29  0     1  0  0  0  0  0999 V2000
   -3.5418   -3.6224    1.4861 H   0  0  0  0  0  0  0  0  0  0  0  0
   -3.4941   -2.7008    0.8996 C   0  0  0  0  0  0  0  0  0  0  0  0
   -4.1085   -1.9407    1.3883 H   0  0  0  0  0  0  0  0  0  0  0  0
   -3.8936   -2.8965   -0.0984 H   0  0  0  0  0  0  0  0  0  0  0  0
   -2.0589   -2.2205    0.7967 C   0  0  0  0  0  0  0  0  0  0  0  0
   -1.1560   -2.8795    1.2883 O   0  0  0  0  0  0  0  0  0  0  0  0
   -1.7751   -1.0395    0.1438 N   0  0  0  0  0  0  0  0  0  0  0  0
   -2.5664   -0.4693   -0.1529 H   0  0  0  0  0  0  0  0  0  0  0  0
   -0.4570   -0.3865    0.1326 C   0  0  1  0  0  0  0  0  0  0  0  0
    0.1129   -0.7723    0.9839 H   0  0  0  0  0  0  0  0  0  0  0  0
    0.3280   -0.7842   -1.1383 C   0  0  0  0  0  0  0  0  0  0  0  0
    1.3491   -1.0415   -0.8403 H   0  0  0  0  0  0  0  0  0  0  0  0
   -0.1089   -1.6898   -1.5725 H   0  0  0  0  0  0  0  0  0  0  0  0
    0.4080    0.2797   -2.2054 C   0  0  0  0  0  0  0  0  0  0  0  0
    1.5466    0.8609   -2.7194 N   0  0  0  0  0  0  0  0  0  0  0  0
    2.5052    0.6646   -2.4405 H   0  0  0  0  0  0  0  0  0  0  0  0
    1.1733    1.7487   -3.7111 C   0  0  0  0  0  0  0  0  0  0  0  0
    1.8583    2.3546   -4.2970 H   0  0  0  0  0  0  0  0  0  0  0  0
   -0.1293    1.7506   -3.8499 N   0  0  0  0  0  0  0  0  0  0  0  0
   -0.6212    0.8428   -2.9169 C   0  0  0  0  0  0  0  0  0  0  0  0
   -1.6717    0.6047   -2.7794 H   0  0  0  0  0  0  0  0  0  0  0  0
   -0.5845    1.1316    0.3838 C   0  0  0  0  0  0  0  0  0  0  0  0
   -1.5728    1.7334   -0.0230 O   0  0  0  0  0  0  0  0  0  0  0  0
    0.2699    1.7696    1.2656 N   0  0  0  0  0  0  0  0  0  0  0  0
    1.0276    1.2254    1.6675 H   0  0  0  0  0  0  0  0  0  0  0  0
    0.1176    3.1655    1.6580 C   0  0  0  0  0  0  0  0  0  0  0  0
   -0.8553    3.3264    2.1345 H   0  0  0  0  0  0  0  0  0  0  0  0
    0.9008    3.4463    2.3686 H   0  0  0  0  0  0  0  0  0  0  0  0
    0.1935    3.8191    0.7825 H   0  0  0  0  0  0  0  0  0  0  0  0
  1  2  1  0  0  0  0
  2  3  1  0  0  0  0
  2  4  1  0  0  0  0
  2  5  1  0  0  0  0
  5  6  2  0  0  0  0
  5  7  1  0  0  0  0
  7  8  1  0  0  0  0
  7  9  1  0  0  0  0
  9 10  1  0  0  0  0
  9 11  1  0  0  0  0
  9 22  1  0  0  0  0
 11 12  1  0  0  0  0
 11 13  1  0  0  0  0
 11 14  1  0  0  0  0
 14 15  1  0  0  0  0
 14 20  2  0  0  0  0
 15 16  1  0  0  0  0
 15 17  1  0  0  0  0
 17 18  1  0  0  0  0
 17 19  2  0  0  0  0
 19 20  1  0  0  0  0
 20 21  1  0  0  0  0
 22 23  2  0  0  0  0
 22 24  1  0  0  0  0
 24 25  1  0  0  0  0
 24 26  1  0  0  0  0
 26 27  1  0  0  0  0
 26 28  1  0  0  0  0
 26 29  1  0  0  0  0
M  END
$$$$

  -OEChem-04042215593D

 29 29  0     1  0  0  0  0  0999 V2000
   -3.5103   -3.6525    1.4709 H   0  0  0  0  0  0  0  0  0  0  0  0
   -3.4809   -2.7145    0.9097 C   0  0  0  0  0  0  0  0  0  0  0  0
   -4.0883   -1.9720    1.4329 H   0  0  0  0  0  0  0  0  0  0  0  0
   -3.9017   -2.8846   -0.0842 H   0  0  0  0  0  0  0  0  0  0  0  0
   -2.0515   -2.2216    0.7893 C   0  0  0  0  0  0  0  0  0  0  0  0
   -1.1342   -2.8830    1.2501 O   0  0  0  0  0  0  0  0  0  0  0  0
   -1.7907   -1.0254    0.1549 N   0  0  0  0  0  0  0  0  0  0  0  0
   -2.5931   -0.4579   -0.1158 H   0  0  0  0  0  0  0  0  0  0  0  0
   -0.4800   -0.3586    0.1314 C   0  0  1  0  0  0  0  0  0  0  0  0
    0.0973   -0.7507    0.9751 H   0  0  0  0  0  0  0  0  0  0  0  0
    0.3054   -0.7500   -1.1423 C   0  0  0  0  0  0  0  0  0  0  0  0
    1.3300   -0.9809   -0.8353 H   0  0  0  0  0  0  0  0  0  0  0  0
   -0.1097   -1.6714   -1.5639 H   0  0  0  0  0  0  0  0  0  0  0  0
    0.3835    0.2936   -2.2322 C   0  0  0  0  0  0  0  0  0  0  0  0
    1.5100    0.6504   -2.9418 N   0  0  0  0  0  0  0  0  0  0  0  0
    2.4474    0.2753   -2.8154 H   0  0  0  0  0  0  0  0  0  0  0  0
    1.1536    1.5928   -3.8878 C   0  0  0  0  0  0  0  0  0  0  0  0
    1.8357    2.0612   -4.5914 H   0  0  0  0  0  0  0  0  0  0  0  0
   -0.1309    1.8381   -3.8184 N   0  0  0  0  0  0  0  0  0  0  0  0
   -0.6264    1.0340   -2.7961 C   0  0  0  0  0  0  0  0  0  0  0  0
   -1.6703    0.9862   -2.5010 H   0  0  0  0  0  0  0  0  0  0  0  0
   -0.6039    1.1538    0.4133 C   0  0  0  0  0  0  0  0  0  0  0  0
   -1.6097    1.7573    0.0555 O   0  0  0  0  0  0  0  0  0  0  0  0
    0.2686    1.7754    1.2889 N   0  0  0  0  0  0  0  0  0  0  0  0
    1.0461    1.2300    1.6492 H   0  0  0  0  0  0  0  0  0  0  0  0
    0.1222    3.1624    1.7140 C   0  0  0  0  0  0  0  0  0  0  0  0
   -0.8318    3.3062    2.2322 H   0  0  0  0  0  0  0  0  0  0  0  0
    0.9314    3.4364    2.3976 H   0  0  0  0  0  0  0  0  0  0  0  0
    0.1575    3.8333    0.8490 H   0  0  0  0  0  0  0  0  0  0  0  0
  1  2  1  0  0  0  0
  2  3  1  0  0  0  0
  2  4  1  0  0  0  0
  2  5  1  0  0  0  0
  5  6  2  0  0  0  0
  5  7  1  0  0  0  0
  7  8  1  0  0  0  0
  7  9  1  0  0  0  0
  9 10  1  0  0  0  0
  9 11  1  0  0  0  0
  9 22  1  0  0  0  0
 11 12  1  0  0  0  0
 11 13  1  0  0  0  0
 11 14  1  0  0  0  0
 14 15  1  0  0  0  0
 14 20  2  0  0  0  0
 15 16  1  0  0  0  0
 15 17  1  0  0  0  0
 17 18  1  0  0  0  0
 17 19  2  0  0  0  0
 19 20  1  0  0  0  0
 20 21  1  0  0  0  0
 22 23  2  0  0  0  0
 22 24  1  0  0  0  0
 24 25  1  0  0  0  0
 24 26  1  0  0  0  0
 26 27  1  0  0  0  0
 26 28  1  0  0  0  0
 26 29  1  0  0  0  0
M  END
$$$$

  -OEChem-04042215593D

 29 29  0     1  0  0  0  0  0999 V2000
   -3.4600   -3.6889    1.4545 H   0  0  0  0  0  0  0  0  0  0  0  0
   -3.4595   -2.7330    0.9230 C   0  0  0  0  0  0  0  0  0  0  0  0
   -4.0583   -2.0152    1.4889 H   0  0  0  0  0  0  0  0  0  0  0  0
   -3.9097   -2.8764   -0.0622 H   0  0  0  0  0  0  0  0  0  0  0  0
   -2.0403   -2.2189    0.7737 C   0  0  0  0  0  0  0  0  0  0  0  0
   -1.1023   -2.8834    1.1858 O   0  0  0  0  0  0  0  0  0  0  0  0
   -1.8114   -1.0020    0.1662 N   0  0  0  0  0  0  0  0  0  0  0  0
   -2.6280   -0.4389   -0.0681 H   0  0  0  0  0  0  0  0  0  0  0  0
   -0.5100   -0.3174    0.1277 C   0  0  1  0  0  0  0  0  0  0  0  0
    0.0762   -0.7195    0.9604 H   0  0  0  0  0  0  0  0  0  0  0  0
    0.2772   -0.6989   -1.1489 C   0  0  0  0  0  0  0  0  0  0  0  0
    1.3055   -0.9050   -0.8359 H   0  0  0  0  0  0  0  0  0  0  0  0
   -0.1180   -1.6350   -1.5571 H   0  0  0  0  0  0  0  0  0  0  0  0
    0.3530    0.3208   -2.2640 C   0  0  0  0  0  0  0  0  0  0  0  0
    1.4029    0.4448   -3.1491 N   0  0  0  0  0  0  0  0  0  0  0  0
    2.2620   -0.1006   -3.1440 H   0  0  0  0  0  0  0  0  0  0  0  0
    1.0930    1.4245   -4.0726 C   0  0  0  0  0  0  0  0  0  0  0  0
    1.7384    1.7446   -4.8856 H   0  0  0  0  0  0  0  0  0  0  0  0
   -0.0978    1.9103   -3.8286 N   0  0  0  0  0  0  0  0  0  0  0  0
   -0.5782    1.2257   -2.7160 C   0  0  0  0  0  0  0  0  0  0  0  0
   -1.5676    1.3697   -2.2943 H   0  0  0  0  0  0  0  0  0  0  0  0
   -0.6253    1.1871    0.4520 C   0  0  0  0  0  0  0  0  0  0  0  0
   -1.6488    1.7948    0.1582 O   0  0  0  0  0  0  0  0  0  0  0  0
    0.2735    1.7836    1.3185 N   0  0  0  0  0  0  0  0  0  0  0  0
    1.0687    1.2324    1.6276 H   0  0  0  0  0  0  0  0  0  0  0  0
    0.1359    3.1532    1.7999 C   0  0  0  0  0  0  0  0  0  0  0  0
   -0.7935    3.2685    2.3675 H   0  0  0  0  0  0  0  0  0  0  0  0
    0.9744    3.4107    2.4540 H   0  0  0  0  0  0  0  0  0  0  0  0
    0.1251    3.8555    0.9596 H   0  0  0  0  0  0  0  0  0  0  0  0
  1  2  1  0  0  0  0
  2  3  1  0  0  0  0
  2  4  1  0  0  0  0
  2  5  1  0  0  0  0
  5  6  2  0  0  0  0
  5  7  1  0  0  0  0
  7  8  1  0  0  0  0
  7  9  1  0  0  0  0
  9 10  1  0  0  0  0
  9 11  1  0  0  0  0
  9 22  1  0  0  0  0
 11 12  1  0  0  0  0
 11 13  1  0  0  0  0
 11 14  1  0  0  0  0
 14 15  1  0  0  0  0
 14 20  2  0  0  0  0
 15 16  1  0  0  0  0
 15 17  1  0  0  0  0
 17 18  1  0  0  0  0
 17 19  2  0  0  0  0
 19 20  1  0  0  0  0
 20 21  1  0  0  0  0
 22 23  2  0  0  0  0
 22 24  1  0  0  0  0
 24 25  1  0  0  0  0
 24 26  1  0  0  0  0
 26 27  1  0  0  0  0
 26 28  1  0  0  0  0
 26 29  1  0  0  0  0
M  END
$$$$

  -OEChem-04042215593D

 29 29  0     1  0  0  0  0  0999 V2000
   -3.3971   -3.7377    1.4139 H   0  0  0  0  0  0  0  0  0  0  0  0
   -3.4207   -2.7685    0.9083 C   0  0  0  0  0  0  0  0  0  0  0  0
   -4.0219   -2.0762    1.5025 H   0  0  0  0  0  0  0  0  0  0  0  0
   -3.8841   -2.8933   -0.0732 H   0  0  0  0  0  0  0  0  0  0  0  0
   -2.0127   -2.2274    0.7504 C   0  0  0  0  0  0  0  0  0  0  0  0
   -1.0570   -2.8870    1.1286 O   0  0  0  0  0  0  0  0  0  0  0  0
   -1.8145   -0.9915    0.1717 N   0  0  0  0  0  0  0  0  0  0  0  0
   -2.6441   -0.4369   -0.0363 H   0  0  0  0  0  0  0  0  0  0  0  0
   -0.5262   -0.2832    0.1290 C   0  0  1  0  0  0  0  0  0  0  0  0
    0.0712   -0.6912    0.9509 H   0  0  0  0  0  0  0  0  0  0  0  0
    0.2640   -0.6415   -1.1538 C   0  0  0  0  0  0  0  0  0  0  0  0
    1.2952   -0.8308   -0.8390 H   0  0  0  0  0  0  0  0  0  0  0  0
   -0.1173   -1.5865   -1.5547 H   0  0  0  0  0  0  0  0  0  0  0  0
    0.3414    0.3588   -2.2899 C   0  0  0  0  0  0  0  0  0  0  0  0
    1.2523    0.2576   -3.3208 N   0  0  0  0  0  0  0  0  0  0  0  0
    1.9727   -0.4548   -3.4170 H   0  0  0  0  0  0  0  0  0  0  0  0
    1.0245    1.2756   -4.2253 C   0  0  0  0  0  0  0  0  0  0  0  0
    1.5993    1.4501   -5.1305 H   0  0  0  0  0  0  0  0  0  0  0  0
    0.0088    2.0011   -3.8334 N   0  0  0  0  0  0  0  0  0  0  0  0
   -0.4398    1.4352   -2.6437 C   0  0  0  0  0  0  0  0  0  0  0  0
   -1.3118    1.7911   -2.1087 H   0  0  0  0  0  0  0  0  0  0  0  0
   -0.6616    1.2092    0.4948 C   0  0  0  0  0  0  0  0  0  0  0  0
   -1.7113    1.7972    0.2585 O   0  0  0  0  0  0  0  0  0  0  0  0
    0.2421    1.7993    1.3609 N   0  0  0  0  0  0  0  0  0  0  0  0
    1.0612    1.2612    1.6284 H   0  0  0  0  0  0  0  0  0  0  0  0
    0.0820    3.1484    1.8912 C   0  0  0  0  0  0  0  0  0  0  0  0
   -0.8383    3.2226    2.4803 H   0  0  0  0  0  0  0  0  0  0  0  0
    0.9270    3.4036    2.5377 H   0  0  0  0  0  0  0  0  0  0  0  0
    0.0386    3.8778    1.0755 H   0  0  0  0  0  0  0  0  0  0  0  0
  1  2  1  0  0  0  0
  2  3  1  0  0  0  0
  2  4  1  0  0  0  0
  2  5  1  0  0  0  0
  5  6  2  0  0  0  0
  5  7  1  0  0  0  0
  7  8  1  0  0  0  0
  7  9  1  0  0  0  0
  9 10  1  0  0  0  0
  9 11  1  0  0  0  0
  9 22  1  0  0  0  0
 11 12  1  0  0  0  0
 11 13  1  0  0  0  0
 11 14  1  0  0  0  0
 14 15  1  0  0  0  0
 14 20  2  0  0  0  0
 15 16  1  0  0  0  0
 15 17  1  0  0  0  0
 17 18  1  0  0  0  0
 17 19  2  0  0  0  0
 19 20  1  0  0  0  0
 20 21  1  0  0  0  0
 22 23  2  0  0  0  0
 22 24  1  0  0  0  0
 24 25  1  0  0  0  0
 24 26  1  0  0  0  0
 26 27  1  0  0  0  0
 26 28  1  0  0  0  0
 26 29  1  0  0  0  0
M  END
$$$$

  -OEChem-04042215593D

 29 29  0     1  0  0  0  0  0999 V2000
   -3.4306   -3.7178    1.3811 H   0  0  0  0  0  0  0  0  0  0  0  0
   -3.4294   -2.7539    0.8646 C   0  0  0  0  0  0  0  0  0  0  0  0
   -4.0414   -2.0493    1.4330 H   0  0  0  0  0  0  0  0  0  0  0  0
   -3.8647   -2.8854   -0.1289 H   0  0  0  0  0  0  0  0  0  0  0  0
   -2.0119   -2.2277    0.7428 C   0  0  0  0  0  0  0  0  0  0  0  0
   -1.0718   -2.9037    1.1300 O   0  0  0  0  0  0  0  0  0  0  0  0
   -1.7853   -0.9886    0.1823 N   0  0  0  0  0  0  0  0  0  0  0  0
   -2.6013   -0.4161   -0.0331 H   0  0  0  0  0  0  0  0  0  0  0  0
   -0.4826   -0.3042    0.1672 C   0  0  1  0  0  0  0  0  0  0  0  0
    0.1342   -0.7267    0.9674 H   0  0  0  0  0  0  0  0  0  0  0  0
    0.2560   -0.6158   -1.1648 C   0  0  0  0  0  0  0  0  0  0  0  0
    1.1729   -1.1502   -0.8957 H   0  0  0  0  0  0  0  0  0  0  0  0
   -0.3559   -1.3247   -1.7323 H   0  0  0  0  0  0  0  0  0  0  0  0
    0.6608    0.4815   -2.1377 C   0  0  0  0  0  0  0  0  0  0  0  0
    1.3162    0.1822   -3.3150 N   0  0  0  0  0  0  0  0  0  0  0  0
    1.5692   -0.7493   -3.6379 H   0  0  0  0  0  0  0  0  0  0  0  0
    1.5699    1.3491   -4.0069 C   0  0  0  0  0  0  0  0  0  0  0  0
    2.0750    1.4117   -4.9666 H   0  0  0  0  0  0  0  0  0  0  0  0
    1.1129    2.3727   -3.3336 N   0  0  0  0  0  0  0  0  0  0  0  0
    0.5379    1.8546   -2.1774 C   0  0  0  0  0  0  0  0  0  0  0  0
    0.0730    2.4839   -1.4290 H   0  0  0  0  0  0  0  0  0  0  0  0
   -0.6738    1.1723    0.5583 C   0  0  0  0  0  0  0  0  0  0  0  0
   -1.6906    1.7655    0.2126 O   0  0  0  0  0  0  0  0  0  0  0  0
    0.1833    1.7770    1.4598 N   0  0  0  0  0  0  0  0  0  0  0  0
    0.9944    1.2485    1.7684 H   0  0  0  0  0  0  0  0  0  0  0  0
    0.0077    3.1421    1.9408 C   0  0  0  0  0  0  0  0  0  0  0  0
   -0.9645    3.2541    2.4323 H   0  0  0  0  0  0  0  0  0  0  0  0
    0.7896    3.3917    2.6645 H   0  0  0  0  0  0  0  0  0  0  0  0
    0.0664    3.8516    1.1086 H   0  0  0  0  0  0  0  0  0  0  0  0
  1  2  1  0  0  0  0
  2  3  1  0  0  0  0
  2  4  1  0  0  0  0
  2  5  1  0  0  0  0
  5  6  2  0  0  0  0
  5  7  1  0  0  0  0
  7  8  1  0  0  0  0
  7  9  1  0  0  0  0
  9 10  1  0  0  0  0
  9 11  1  0  0  0  0
  9 22  1  0  0  0  0
 11 12  1  0  0  0  0
 11 13  1  0  0  0  0
 11 14  1  0  0  0  0
 14 15  1  0  0  0  0
 14 20  2  0  0  0  0
 15 16  1  0  0  0  0
 15 17  1  0  0  0  0
 17 18  1  0  0  0  0
 17 19  2  0  0  0  0
 19 20  1  0  0  0  0
 20 21  1  0  0  0  0
 22 23  2  0  0  0  0
 22 24  1  0  0  0  0
 24 25  1  0  0  0  0
 24 26  1  0  0  0  0
 26 27  1  0  0  0  0
 26 28  1  0  0  0  0
 26 29  1  0  0  0  0
M  END
$$$$

  -OEChem-04042215593D

 29 29  0     1  0  0  0  0  0999 V2000
   -3.4562   -3.7045    1.3700 H   0  0  0  0  0  0  0  0  0  0  0  0
   -3.4413   -2.7350    0.8643 C   0  0  0  0  0  0  0  0  0  0  0  0
   -4.0442   -2.0283    1.4399 H   0  0  0  0  0  0  0  0  0  0  0  0
   -3.8777   -2.8491   -0.1308 H   0  0  0  0  0  0  0  0  0  0  0  0
   -2.0167   -2.2267    0.7496 C   0  0  0  0  0  0  0  0  0  0  0  0
   -1.0879   -2.9060    1.1577 O   0  0  0  0  0  0  0  0  0  0  0  0
   -1.7717   -0.9952    0.1806 N   0  0  0  0  0  0  0  0  0  0  0  0
   -2.5794   -0.4194   -0.0565 H   0  0  0  0  0  0  0  0  0  0  0  0
   -0.4630   -0.3219    0.1756 C   0  0  1  0  0  0  0  0  0  0  0  0
    0.1530   -0.7446    0.9762 H   0  0  0  0  0  0  0  0  0  0  0  0
    0.2664   -0.6308   -1.1632 C   0  0  0  0  0  0  0  0  0  0  0  0
    1.1756   -1.1870   -0.9135 H   0  0  0  0  0  0  0  0  0  0  0  0
   -0.3648   -1.3184   -1.7356 H   0  0  0  0  0  0  0  0  0  0  0  0
    0.6758    0.4778   -2.1214 C   0  0  0  0  0  0  0  0  0  0  0  0
    1.0389    0.2121   -3.4262 N   0  0  0  0  0  0  0  0  0  0  0  0
    1.0469   -0.7038   -3.8698 H   0  0  0  0  0  0  0  0  0  0  0  0
    1.3858    1.3925   -4.0525 C   0  0  0  0  0  0  0  0  0  0  0  0
    1.7097    1.4825   -5.0854 H   0  0  0  0  0  0  0  0  0  0  0  0
    1.2721    2.3910   -3.2154 N   0  0  0  0  0  0  0  0  0  0  0  0
    0.8289    1.8436   -2.0161 C   0  0  0  0  0  0  0  0  0  0  0  0
    0.6622    2.4412   -1.1281 H   0  0  0  0  0  0  0  0  0  0  0  0
   -0.6667    1.1567    0.5523 C   0  0  0  0  0  0  0  0  0  0  0  0
   -1.6566    1.7591    0.1508 O   0  0  0  0  0  0  0  0  0  0  0  0
    0.1734    1.7713    1.4635 N   0  0  0  0  0  0  0  0  0  0  0  0
    0.9579    1.2337    1.8219 H   0  0  0  0  0  0  0  0  0  0  0  0
   -0.0115    3.1422    1.9246 C   0  0  0  0  0  0  0  0  0  0  0  0
   -0.9791    3.2507    2.4259 H   0  0  0  0  0  0  0  0  0  0  0  0
    0.7772    3.4125    2.6333 H   0  0  0  0  0  0  0  0  0  0  0  0
    0.0283    3.8393    1.0808 H   0  0  0  0  0  0  0  0  0  0  0  0
  1  2  1  0  0  0  0
  2  3  1  0  0  0  0
  2  4  1  0  0  0  0
  2  5  1  0  0  0  0
  5  6  2  0  0  0  0
  5  7  1  0  0  0  0
  7  8  1  0  0  0  0
  7  9  1  0  0  0  0
  9 10  1  0  0  0  0
  9 11  1  0  0  0  0
  9 22  1  0  0  0  0
 11 12  1  0  0  0  0
 11 13  1  0  0  0  0
 11 14  1  0  0  0  0
 14 15  1  0  0  0  0
 14 20  2  0  0  0  0
 15 16  1  0  0  0  0
 15 17  1  0  0  0  0
 17 18  1  0  0  0  0
 17 19  2  0  0  0  0
 19 20  1  0  0  0  0
 20 21  1  0  0  0  0
 22 23  2  0  0  0  0
 22 24  1  0  0  0  0
 24 25  1  0  0  0  0
 24 26  1  0  0  0  0
 26 27  1  0  0  0  0
 26 28  1  0  0  0  0
 26 29  1  0  0  0  0
M  END
$$$$

  -OEChem-04042215593D

 29 29  0     1  0  0  0  0  0999 V2000
   -3.4868   -3.6809    1.4036 H   0  0  0  0  0  0  0  0  0  0  0  0
   -3.4590   -2.7243    0.8745 C   0  0  0  0  0  0  0  0  0  0  0  0
   -4.0666   -2.0008    1.4233 H   0  0  0  0  0  0  0  0  0  0  0  0
   -3.8806   -2.8608   -0.1241 H   0  0  0  0  0  0  0  0  0  0  0  0
   -2.0299   -2.2267    0.7693 C   0  0  0  0  0  0  0  0  0  0  0  0
   -1.1114   -2.9042    1.2024 O   0  0  0  0  0  0  0  0  0  0  0  0
   -1.7683   -1.0087    0.1788 N   0  0  0  0  0  0  0  0  0  0  0  0
   -2.5683   -0.4302   -0.0773 H   0  0  0  0  0  0  0  0  0  0  0  0
   -0.4539   -0.3460    0.1785 C   0  0  1  0  0  0  0  0  0  0  0  0
    0.1578   -0.7604    0.9865 H   0  0  0  0  0  0  0  0  0  0  0  0
    0.2706   -0.6664   -1.1600 C   0  0  0  0  0  0  0  0  0  0  0  0
    1.1773   -1.2305   -0.9193 H   0  0  0  0  0  0  0  0  0  0  0  0
   -0.3668   -1.3452   -1.7361 H   0  0  0  0  0  0  0  0  0  0  0  0
    0.6757    0.4597   -2.0948 C   0  0  0  0  0  0  0  0  0  0  0  0
    0.7506    0.3206   -3.4651 N   0  0  0  0  0  0  0  0  0  0  0  0
    0.5005   -0.5097   -3.9978 H   0  0  0  0  0  0  0  0  0  0  0  0
    1.2084    1.5023   -4.0144 C   0  0  0  0  0  0  0  0  0  0  0  0
    1.3545    1.6844   -5.0753 H   0  0  0  0  0  0  0  0  0  0  0  0
    1.4481    2.3732   -3.0672 N   0  0  0  0  0  0  0  0  0  0  0  0
    1.1260    1.7409   -1.8716 C   0  0  0  0  0  0  0  0  0  0  0  0
    1.2562    2.2045   -0.9005 H   0  0  0  0  0  0  0  0  0  0  0  0
   -0.6597    1.1423    0.5239 C   0  0  0  0  0  0  0  0  0  0  0  0
   -1.6377    1.7422    0.0907 O   0  0  0  0  0  0  0  0  0  0  0  0
    0.1689    1.7711    1.4366 N   0  0  0  0  0  0  0  0  0  0  0  0
    0.9400    1.2350    1.8250 H   0  0  0  0  0  0  0  0  0  0  0  0
   -0.0073    3.1571    1.8535 C   0  0  0  0  0  0  0  0  0  0  0  0
   -0.9805    3.2912    2.3372 H   0  0  0  0  0  0  0  0  0  0  0  0
    0.7742    3.4408    2.5648 H   0  0  0  0  0  0  0  0  0  0  0  0
    0.0523    3.8275    0.9896 H   0  0  0  0  0  0  0  0  0  0  0  0
  1  2  1  0  0  0  0
  2  3  1  0  0  0  0
  2  4  1  0  0  0  0
  2  5  1  0  0  0  0
  5  6  2  0  0  0  0
  5  7  1  0  0  0  0
  7  8  1  0  0  0  0
  7  9  1  0  0  0  0
  9 10  1  0  0  0  0
  9 11  1  0  0  0  0
  9 22  1  0  0  0  0
 11 12  1  0  0  0  0
 11 13  1  0  0  0  0
 11 14  1  0  0  0  0
 14 15  1  0  0  0  0
 14 20  2  0  0  0  0
 15 16  1  0  0  0  0
 15 17  1  0  0  0  0
 17 18  1  0  0  0  0
 17 19  2  0  0  0  0
 19 20  1  0  0  0  0
 20 21  1  0  0  0  0
 22 23  2  0  0  0  0
 22 24  1  0  0  0  0
 24 25  1  0  0  0  0
 24 26  1  0  0  0  0
 26 27  1  0  0  0  0
 26 28  1  0  0  0  0
 26 29  1  0  0  0  0
M  END
$$$$

  -OEChem-04042215593D

 29 29  0     1  0  0  0  0  0999 V2000
   -3.5084   -3.6634    1.4603 H   0  0  0  0  0  0  0  0  0  0  0  0
   -3.4727   -2.7220    0.9048 C   0  0  0  0  0  0  0  0  0  0  0  0
   -4.0791   -1.9803    1.4305 H   0  0  0  0  0  0  0  0  0  0  0  0
   -3.8902   -2.8839   -0.0917 H   0  0  0  0  0  0  0  0  0  0  0  0
   -2.0403   -2.2355    0.7929 C   0  0  0  0  0  0  0  0  0  0  0  0
   -1.1283   -2.9070    1.2484 O   0  0  0  0  0  0  0  0  0  0  0  0
   -1.7687   -1.0337    0.1748 N   0  0  0  0  0  0  0  0  0  0  0  0
   -2.5638   -0.4543   -0.0936 H   0  0  0  0  0  0  0  0  0  0  0  0
   -0.4513   -0.3779    0.1713 C   0  0  1  0  0  0  0  0  0  0  0  0
    0.1573   -0.7794    0.9883 H   0  0  0  0  0  0  0  0  0  0  0  0
    0.2760   -0.7076   -1.1606 C   0  0  0  0  0  0  0  0  0  0  0  0
    1.1885   -1.2608   -0.9168 H   0  0  0  0  0  0  0  0  0  0  0  0
   -0.3494   -1.3897   -1.7457 H   0  0  0  0  0  0  0  0  0  0  0  0
    0.6659    0.4474   -2.0597 C   0  0  0  0  0  0  0  0  0  0  0  0
    0.4827    0.4988   -3.4247 N   0  0  0  0  0  0  0  0  0  0  0  0
   -0.0060   -0.1904   -3.9918 H   0  0  0  0  0  0  0  0  0  0  0  0
    1.0492    1.6639   -3.9059 C   0  0  0  0  0  0  0  0  0  0  0  0
    1.0416    1.9796   -4.9452 H   0  0  0  0  0  0  0  0  0  0  0  0
    1.6059    2.3322   -2.9262 N   0  0  0  0  0  0  0  0  0  0  0  0
    1.3841    1.5839   -1.7763 C   0  0  0  0  0  0  0  0  0  0  0  0
    1.7595    1.8543   -0.7948 H   0  0  0  0  0  0  0  0  0  0  0  0
   -0.6540    1.1210    0.4786 C   0  0  0  0  0  0  0  0  0  0  0  0
   -1.6314    1.7107    0.0292 O   0  0  0  0  0  0  0  0  0  0  0  0
    0.1684    1.7686    1.3834 N   0  0  0  0  0  0  0  0  0  0  0  0
    0.9405    1.2426    1.7831 H   0  0  0  0  0  0  0  0  0  0  0  0
    0.0073    3.1709    1.7481 C   0  0  0  0  0  0  0  0  0  0  0  0
   -0.9793    3.3421    2.1915 H   0  0  0  0  0  0  0  0  0  0  0  0
    0.7689    3.4615    2.4780 H   0  0  0  0  0  0  0  0  0  0  0  0
    0.1130    3.8097    0.8648 H   0  0  0  0  0  0  0  0  0  0  0  0
  1  2  1  0  0  0  0
  2  3  1  0  0  0  0
  2  4  1  0  0  0  0
  2  5  1  0  0  0  0
  5  6  2  0  0  0  0
  5  7  1  0  0  0  0
  7  8  1  0  0  0  0
  7  9  1  0  0  0  0
  9 10  1  0  0  0  0
  9 11  1  0  0  0  0
  9 22  1  0  0  0  0
 11 12  1  0  0  0  0
 11 13  1  0  0  0  0
 11 14  1  0  0  0  0
 14 15  1  0  0  0  0
 14 20  2  0  0  0  0
 15 16  1  0  0  0  0
 15 17  1  0  0  0  0
 17 18  1  0  0  0  0
 17 19  2  0  0  0  0
 19 20  1  0  0  0  0
 20 21  1  0  0  0  0
 22 23  2  0  0  0  0
 22 24  1  0  0  0  0
 24 25  1  0  0  0  0
 24 26  1  0  0  0  0
 26 27  1  0  0  0  0
 26 28  1  0  0  0  0
 26 29  1  0  0  0  0
M  END
$$$$

  -OEChem-04042215593D

 29 29  0     1  0  0  0  0  0999 V2000
   -3.5243   -3.6541    1.4912 H   0  0  0  0  0  0  0  0  0  0  0  0
   -3.4817   -2.7246    0.9165 C   0  0  0  0  0  0  0  0  0  0  0  0
   -4.0898   -1.9701    1.4214 H   0  0  0  0  0  0  0  0  0  0  0  0
   -3.8915   -2.9067   -0.0798 H   0  0  0  0  0  0  0  0  0  0  0  0
   -2.0471   -2.2443    0.8066 C   0  0  0  0  0  0  0  0  0  0  0  0
   -1.1405   -2.9108    1.2801 O   0  0  0  0  0  0  0  0  0  0  0  0
   -1.7679   -1.0543    0.1691 N   0  0  0  0  0  0  0  0  0  0  0  0
   -2.5599   -0.4742   -0.1069 H   0  0  0  0  0  0  0  0  0  0  0  0
   -0.4493   -0.4019    0.1659 C   0  0  1  0  0  0  0  0  0  0  0  0
    0.1521   -0.7934    0.9929 H   0  0  0  0  0  0  0  0  0  0  0  0
    0.2894   -0.7392   -1.1552 C   0  0  0  0  0  0  0  0  0  0  0  0
    1.2076   -1.2781   -0.8999 H   0  0  0  0  0  0  0  0  0  0  0  0
   -0.3181   -1.4274   -1.7517 H   0  0  0  0  0  0  0  0  0  0  0  0
    0.6661    0.4400   -2.0218 C   0  0  0  0  0  0  0  0  0  0  0  0
    0.2580    0.6809   -3.3147 N   0  0  0  0  0  0  0  0  0  0  0  0
   -0.4268    0.1421   -3.8403 H   0  0  0  0  0  0  0  0  0  0  0  0
    0.8960    1.8190   -3.7712 C   0  0  0  0  0  0  0  0  0  0  0  0
    0.7525    2.2637   -4.7517 H   0  0  0  0  0  0  0  0  0  0  0  0
    1.7066    2.2838   -2.8515 N   0  0  0  0  0  0  0  0  0  0  0  0
    1.5813    1.4295   -1.7627 C   0  0  0  0  0  0  0  0  0  0  0  0
    2.1440    1.5253   -0.8391 H   0  0  0  0  0  0  0  0  0  0  0  0
   -0.6431    1.1051    0.4439 C   0  0  0  0  0  0  0  0  0  0  0  0
   -1.6183    1.6903   -0.0175 O   0  0  0  0  0  0  0  0  0  0  0  0
    0.1770    1.7635    1.3428 N   0  0  0  0  0  0  0  0  0  0  0  0
    0.9524    1.2444    1.7444 H   0  0  0  0  0  0  0  0  0  0  0  0
    0.0350    3.1783    1.6642 C   0  0  0  0  0  0  0  0  0  0  0  0
   -0.9591    3.3813    2.0762 H   0  0  0  0  0  0  0  0  0  0  0  0
    0.7825    3.4747    2.4062 H   0  0  0  0  0  0  0  0  0  0  0  0
    0.1767    3.7897    0.7667 H   0  0  0  0  0  0  0  0  0  0  0  0
  1  2  1  0  0  0  0
  2  3  1  0  0  0  0
  2  4  1  0  0  0  0
  2  5  1  0  0  0  0
  5  6  2  0  0  0  0
  5  7  1  0  0  0  0
  7  8  1  0  0  0  0
  7  9  1  0  0  0  0
  9 10  1  0  0  0  0
  9 11  1  0  0  0  0
  9 22  1  0  0  0  0
 11 12  1  0  0  0  0
 11 13  1  0  0  0  0
 11 14  1  0  0  0  0
 14 15  1  0  0  0  0
 14 20  2  0  0  0  0
 15 16  1  0  0  0  0
 15 17  1  0  0  0  0
 17 18  1  0  0  0  0
 17 19  2  0  0  0  0
 19 20  1  0  0  0  0
 20 21  1  0  0  0  0
 22 23  2  0  0  0  0
 22 24  1  0  0  0  0
 24 25  1  0  0  0  0
 24 26  1  0  0  0  0
 26 27  1  0  0  0  0
 26 28  1  0  0  0  0
 26 29  1  0  0  0  0
M  END
$$$$

  -OEChem-04042215593D

 29 29  0     1  0  0  0  0  0999 V2000
   -3.5367   -3.6467    1.5027 H   0  0  0  0  0  0  0  0  0  0  0  0
   -3.4872   -2.7228    0.9195 C   0  0  0  0  0  0  0  0  0  0  0  0
   -4.0931   -1.9607    1.4157 H   0  0  0  0  0  0  0  0  0  0  0  0
   -3.8949   -2.9119   -0.0764 H   0  0  0  0  0  0  0  0  0  0  0  0
   -2.0498   -2.2510    0.8089 C   0  0  0  0  0  0  0  0  0  0  0  0
   -1.1480   -2.9182    1.2901 O   0  0  0  0  0  0  0  0  0  0  0  0
   -1.7639   -1.0678    0.1613 N   0  0  0  0  0  0  0  0  0  0  0  0
   -2.5536   -0.4857   -0.1164 H   0  0  0  0  0  0  0  0  0  0  0  0
   -0.4437   -0.4183    0.1629 C   0  0  1  0  0  0  0  0  0  0  0  0
    0.1510   -0.8046    0.9971 H   0  0  0  0  0  0  0  0  0  0  0  0
    0.3061   -0.7578   -1.1495 C   0  0  0  0  0  0  0  0  0  0  0  0
    1.2251   -1.2905   -0.8846 H   0  0  0  0  0  0  0  0  0  0  0  0
   -0.2894   -1.4468   -1.7569 H   0  0  0  0  0  0  0  0  0  0  0  0
    0.6776    0.4374   -1.9928 C   0  0  0  0  0  0  0  0  0  0  0  0
    0.0786    0.8587   -3.1581 N   0  0  0  0  0  0  0  0  0  0  0  0
   -0.7707    0.4783   -3.5698 H   0  0  0  0  0  0  0  0  0  0  0  0
    0.7725    1.9557   -3.6337 C   0  0  0  0  0  0  0  0  0  0  0  0
    0.5140    2.5183   -4.5263 H   0  0  0  0  0  0  0  0  0  0  0  0
    1.7928    2.2195   -2.8526 N   0  0  0  0  0  0  0  0  0  0  0  0
    1.7516    1.2750   -1.8339 C   0  0  0  0  0  0  0  0  0  0  0  0
    2.4749    1.2073   -1.0268 H   0  0  0  0  0  0  0  0  0  0  0  0
   -0.6331    1.0933    0.4239 C   0  0  0  0  0  0  0  0  0  0  0  0
   -1.6054    1.6754   -0.0490 O   0  0  0  0  0  0  0  0  0  0  0  0
    0.1820    1.7584    1.3222 N   0  0  0  0  0  0  0  0  0  0  0  0
    0.9641    1.2461    1.7193 H   0  0  0  0  0  0  0  0  0  0  0  0
    0.0496    3.1797    1.6179 C   0  0  0  0  0  0  0  0  0  0  0  0
   -0.9485    3.3999    2.0108 H   0  0  0  0  0  0  0  0  0  0  0  0
    0.7883    3.4804    2.3670 H   0  0  0  0  0  0  0  0  0  0  0  0
    0.2119    3.7743    0.7126 H   0  0  0  0  0  0  0  0  0  0  0  0
  1  2  1  0  0  0  0
  2  3  1  0  0  0  0
  2  4  1  0  0  0  0
  2  5  1  0  0  0  0
  5  6  2  0  0  0  0
  5  7  1  0  0  0  0
  7  8  1  0  0  0  0
  7  9  1  0  0  0  0
  9 10  1  0  0  0  0
  9 11  1  0  0  0  0
  9 22  1  0  0  0  0
 11 12  1  0  0  0  0
 11 13  1  0  0  0  0
 11 14  1  0  0  0  0
 14 15  1  0  0  0  0
 14 20  2  0  0  0  0
 15 16  1  0  0  0  0
 15 17  1  0  0  0  0
 17 18  1  0  0  0  0
 17 19  2  0  0  0  0
 19 20  1  0  0  0  0
 20 21  1  0  0  0  0
 22 23  2  0  0  0  0
 22 24  1  0  0  0  0
 24 25  1  0  0  0  0
 24 26  1  0  0  0  0
 26 27  1  0  0  0  0
 26 28  1  0  0  0  0
 26 29  1  0  0  0  0
M  END
$$$$

  -OEChem-04042215593D

 29 29  0     1  0  0  0  0  0999 V2000
   -3.5436   -3.6444    1.4935 H   0  0  0  0  0  0  0  0  0  0  0  0
   -3.4899   -2.7207    0.9104 C   0  0  0  0  0  0  0  0  0  0  0  0
   -4.0962   -1.9571    1.4038 H   0  0  0  0  0  0  0  0  0  0  0  0
   -3.8943   -2.9091   -0.0870 H   0  0  0  0  0  0  0  0  0  0  0  0
   -2.0510   -2.2521    0.8058 C   0  0  0  0  0  0  0  0  0  0  0  0
   -1.1532   -2.9188    1.2950 O   0  0  0  0  0  0  0  0  0  0  0  0
   -1.7594   -1.0720    0.1552 N   0  0  0  0  0  0  0  0  0  0  0  0
   -2.5467   -0.4885   -0.1253 H   0  0  0  0  0  0  0  0  0  0  0  0
   -0.4379   -0.4254    0.1640 C   0  0  1  0  0  0  0  0  0  0  0  0
    0.1503   -0.8109    1.0033 H   0  0  0  0  0  0  0  0  0  0  0  0
    0.3207   -0.7669   -1.1421 C   0  0  0  0  0  0  0  0  0  0  0  0
    1.2370   -1.3010   -0.8699 H   0  0  0  0  0  0  0  0  0  0  0  0
   -0.2711   -1.4527   -1.7572 H   0  0  0  0  0  0  0  0  0  0  0  0
    0.6946    0.4342   -1.9745 C   0  0  0  0  0  0  0  0  0  0  0  0
   -0.0497    1.0295   -2.9675 N   0  0  0  0  0  0  0  0  0  0  0  0
   -1.0158    0.8143   -3.2053 H   0  0  0  0  0  0  0  0  0  0  0  0
    0.6865    2.0726   -3.4965 C   0  0  0  0  0  0  0  0  0  0  0  0
    0.3433    2.7447   -4.2777 H   0  0  0  0  0  0  0  0  0  0  0  0
    1.8622    2.1366   -2.9178 N   0  0  0  0  0  0  0  0  0  0  0  0
    1.8842    1.1149   -1.9758 C   0  0  0  0  0  0  0  0  0  0  0  0
    2.7284    0.8891   -1.3312 H   0  0  0  0  0  0  0  0  0  0  0  0
   -0.6238    1.0881    0.4177 C   0  0  0  0  0  0  0  0  0  0  0  0
   -1.5928    1.6700   -0.0645 O   0  0  0  0  0  0  0  0  0  0  0  0
    0.1863    1.7553    1.3186 N   0  0  0  0  0  0  0  0  0  0  0  0
    0.9735    1.2467    1.7109 H   0  0  0  0  0  0  0  0  0  0  0  0
    0.0587    3.1795    1.6015 C   0  0  0  0  0  0  0  0  0  0  0  0
   -0.9417    3.4075    1.9842 H   0  0  0  0  0  0  0  0  0  0  0  0
    0.7925    3.4828    2.3544 H   0  0  0  0  0  0  0  0  0  0  0  0
    0.2315    3.7661    0.6929 H   0  0  0  0  0  0  0  0  0  0  0  0
  1  2  1  0  0  0  0
  2  3  1  0  0  0  0
  2  4  1  0  0  0  0
  2  5  1  0  0  0  0
  5  6  2  0  0  0  0
  5  7  1  0  0  0  0
  7  8  1  0  0  0  0
  7  9  1  0  0  0  0
  9 10  1  0  0  0  0
  9 11  1  0  0  0  0
  9 22  1  0  0  0  0
 11 12  1  0  0  0  0
 11 13  1  0  0  0  0
 11 14  1  0  0  0  0
 14 15  1  0  0  0  0
 14 20  2  0  0  0  0
 15 16  1  0  0  0  0
 15 17  1  0  0  0  0
 17 18  1  0  0  0  0
 17 19  2  0  0  0  0
 19 20  1  0  0  0  0
 20 21  1  0  0  0  0
 22 23  2  0  0  0  0
 22 24  1  0  0  0  0
 24 25  1  0  0  0  0
 24 26  1  0  0  0  0
 26 27  1  0  0  0  0
 26 28  1  0  0  0  0
 26 29  1  0  0  0  0
M  END
$$$$

  -OEChem-04042215593D

 29 29  0     1  0  0  0  0  0999 V2000
   -3.5464   -3.6439    1.4803 H   0  0  0  0  0  0  0  0  0  0  0  0
   -3.4893   -2.7200    0.8982 C   0  0  0  0  0  0  0  0  0  0  0  0
   -4.1004   -1.9578    1.3875 H   0  0  0  0  0  0  0  0  0  0  0  0
   -3.8852   -2.9084   -0.1025 H   0  0  0  0  0  0  0  0  0  0  0  0
   -2.0502   -2.2496    0.8041 C   0  0  0  0  0  0  0  0  0  0  0  0
   -1.1550   -2.9154    1.2992 O   0  0  0  0  0  0  0  0  0  0  0  0
   -1.7556   -1.0688    0.1556 N   0  0  0  0  0  0  0  0  0  0  0  0
   -2.5422   -0.4863   -0.1285 H   0  0  0  0  0  0  0  0  0  0  0  0
   -0.4331   -0.4232    0.1683 C   0  0  1  0  0  0  0  0  0  0  0  0
    0.1527   -0.8086    1.0094 H   0  0  0  0  0  0  0  0  0  0  0  0
    0.3300   -0.7669   -1.1351 C   0  0  0  0  0  0  0  0  0  0  0  0
    1.2399   -1.3120   -0.8630 H   0  0  0  0  0  0  0  0  0  0  0  0
   -0.2694   -1.4446   -1.7516 H   0  0  0  0  0  0  0  0  0  0  0  0
    0.7119    0.4285   -1.9729 C   0  0  0  0  0  0  0  0  0  0  0  0
   -0.1133    1.1951   -2.7647 N   0  0  0  0  0  0  0  0  0  0  0  0
   -1.1312    1.1545   -2.7817 H   0  0  0  0  0  0  0  0  0  0  0  0
    0.6516    2.1702   -3.3748 C   0  0  0  0  0  0  0  0  0  0  0  0
    0.2662    2.9439   -4.0327 H   0  0  0  0  0  0  0  0  0  0  0  0
    1.9125    2.0318   -3.0391 N   0  0  0  0  0  0  0  0  0  0  0  0
    1.9652    0.9444   -2.1745 C   0  0  0  0  0  0  0  0  0  0  0  0
    2.8741    0.5611   -1.7206 H   0  0  0  0  0  0  0  0  0  0  0  0
   -0.6187    1.0901    0.4233 C   0  0  0  0  0  0  0  0  0  0  0  0
   -1.5857    1.6731   -0.0635 O   0  0  0  0  0  0  0  0  0  0  0  0
    0.1890    1.7562    1.3268 N   0  0  0  0  0  0  0  0  0  0  0  0
    0.9796    1.2486    1.7136 H   0  0  0  0  0  0  0  0  0  0  0  0
    0.0602    3.1798    1.6133 C   0  0  0  0  0  0  0  0  0  0  0  0
   -0.9421    3.4070    1.9913 H   0  0  0  0  0  0  0  0  0  0  0  0
    0.7900    3.4803    2.3712 H   0  0  0  0  0  0  0  0  0  0  0  0
    0.2379    3.7694    0.7077 H   0  0  0  0  0  0  0  0  0  0  0  0
  1  2  1  0  0  0  0
  2  3  1  0  0  0  0
  2  4  1  0  0  0  0
  2  5  1  0  0  0  0
  5  6  2  0  0  0  0
  5  7  1  0  0  0  0
  7  8  1  0  0  0  0
  7  9  1  0  0  0  0
  9 10  1  0  0  0  0
  9 11  1  0  0  0  0
  9 22  1  0  0  0  0
 11 12  1  0  0  0  0
 11 13  1  0  0  0  0
 11 14  1  0  0  0  0
 14 15  1  0  0  0  0
 14 20  2  0  0  0  0
 15 16  1  0  0  0  0
 15 17  1  0  0  0  0
 17 18  1  0  0  0  0
 17 19  2  0  0  0  0
 19 20  1  0  0  0  0
 20 21  1  0  0  0  0
 22 23  2  0  0  0  0
 22 24  1  0  0  0  0
 24 25  1  0  0  0  0
 24 26  1  0  0  0  0
 26 27  1  0  0  0  0
 26 28  1  0  0  0  0
 26 29  1  0  0  0  0
M  END
$$$$

  -OEChem-04042215593D

 29 29  0     1  0  0  0  0  0999 V2000
   -3.5336   -3.6580    1.4588 H   0  0  0  0  0  0  0  0  0  0  0  0
   -3.4823   -2.7292    0.8836 C   0  0  0  0  0  0  0  0  0  0  0  0
   -4.1055   -1.9771    1.3734 H   0  0  0  0  0  0  0  0  0  0  0  0
   -3.8689   -2.9152   -0.1212 H   0  0  0  0  0  0  0  0  0  0  0  0
   -2.0477   -2.2426    0.8042 C   0  0  0  0  0  0  0  0  0  0  0  0
   -1.1500   -2.9022    1.3029 O   0  0  0  0  0  0  0  0  0  0  0  0
   -1.7587   -1.0555    0.1641 N   0  0  0  0  0  0  0  0  0  0  0  0
   -2.5474   -0.4823   -0.1318 H   0  0  0  0  0  0  0  0  0  0  0  0
   -0.4376   -0.4063    0.1756 C   0  0  1  0  0  0  0  0  0  0  0  0
    0.1481   -0.7951    1.0149 H   0  0  0  0  0  0  0  0  0  0  0  0
    0.3281   -0.7555   -1.1267 C   0  0  0  0  0  0  0  0  0  0  0  0
    1.2327   -1.3085   -0.8536 H   0  0  0  0  0  0  0  0  0  0  0  0
   -0.2800   -1.4318   -1.7366 H   0  0  0  0  0  0  0  0  0  0  0  0
    0.7190    0.4215   -1.9892 C   0  0  0  0  0  0  0  0  0  0  0  0
   -0.1091    1.3527   -2.5766 N   0  0  0  0  0  0  0  0  0  0  0  0
   -1.1016    1.4773   -2.3715 H   0  0  0  0  0  0  0  0  0  0  0  0
    0.6697    2.2456   -3.2862 C   0  0  0  0  0  0  0  0  0  0  0  0
    0.2928    3.1094   -3.8266 H   0  0  0  0  0  0  0  0  0  0  0  0
    1.9342    1.9062   -3.2031 N   0  0  0  0  0  0  0  0  0  0  0  0
    1.9780    0.7681   -2.4053 C   0  0  0  0  0  0  0  0  0  0  0  0
    2.8861    0.2322   -2.1455 H   0  0  0  0  0  0  0  0  0  0  0  0
   -0.6182    1.1049    0.4436 C   0  0  0  0  0  0  0  0  0  0  0  0
   -1.5816    1.6965   -0.0416 O   0  0  0  0  0  0  0  0  0  0  0  0
    0.1952    1.7635    1.3472 N   0  0  0  0  0  0  0  0  0  0  0  0
    0.9845    1.2506    1.7301 H   0  0  0  0  0  0  0  0  0  0  0  0
    0.0628    3.1817    1.6569 C   0  0  0  0  0  0  0  0  0  0  0  0
   -0.9392    3.3993    2.0415 H   0  0  0  0  0  0  0  0  0  0  0  0
    0.7936    3.4720    2.4179 H   0  0  0  0  0  0  0  0  0  0  0  0
    0.2365    3.7865    0.7607 H   0  0  0  0  0  0  0  0  0  0  0  0
  1  2  1  0  0  0  0
  2  3  1  0  0  0  0
  2  4  1  0  0  0  0
  2  5  1  0  0  0  0
  5  6  2  0  0  0  0
  5  7  1  0  0  0  0
  7  8  1  0  0  0  0
  7  9  1  0  0  0  0
  9 10  1  0  0  0  0
  9 11  1  0  0  0  0
  9 22  1  0  0  0  0
 11 12  1  0  0  0  0
 11 13  1  0  0  0  0
 11 14  1  0  0  0  0
 14 15  1  0  0  0  0
 14 20  2  0  0  0  0
 15 16  1  0  0  0  0
 15 17  1  0  0  0  0
 17 18  1  0  0  0  0
 17 19  2  0  0  0  0
 19 20  1  0  0  0  0
 20 21  1  0  0  0  0
 22 23  2  0  0  0  0
 22 24  1  0  0  0  0
 24 25  1  0  0  0  0
 24 26  1  0  0  0  0
 26 27  1  0  0  0  0
 26 28  1  0  0  0  0
 26 29  1  0  0  0  0
M  END
$$$$

  -OEChem-04042215593D

 29 29  0     1  0  0  0  0  0999 V2000
   -3.5105   -3.6835    1.4325 H   0  0  0  0  0  0  0  0  0  0  0  0
   -3.4684   -2.7504    0.8639 C   0  0  0  0  0  0  0  0  0  0  0  0
   -4.1112   -2.0127    1.3500 H   0  0  0  0  0  0  0  0  0  0  0  0
   -3.8382   -2.9368   -0.1471 H   0  0  0  0  0  0  0  0  0  0  0  0
   -2.0418   -2.2384    0.8059 C   0  0  0  0  0  0  0  0  0  0  0  0
   -1.1376   -2.8896    1.3039 O   0  0  0  0  0  0  0  0  0  0  0  0
   -1.7669   -1.0393    0.1824 N   0  0  0  0  0  0  0  0  0  0  0  0
   -2.5606   -0.4816   -0.1288 H   0  0  0  0  0  0  0  0  0  0  0  0
   -0.4511   -0.3795    0.1878 C   0  0  1  0  0  0  0  0  0  0  0  0
    0.1387   -0.7742    1.0217 H   0  0  0  0  0  0  0  0  0  0  0  0
    0.3143   -0.7321   -1.1164 C   0  0  0  0  0  0  0  0  0  0  0  0
    1.2178   -1.2863   -0.8419 H   0  0  0  0  0  0  0  0  0  0  0  0
   -0.2987   -1.4148   -1.7141 H   0  0  0  0  0  0  0  0  0  0  0  0
    0.7088    0.4210   -2.0138 C   0  0  0  0  0  0  0  0  0  0  0  0
   -0.0422    1.5059   -2.4129 N   0  0  0  0  0  0  0  0  0  0  0  0
   -0.9636    1.7577   -2.0457 H   0  0  0  0  0  0  0  0  0  0  0  0
    0.7337    2.3074   -3.2261 C   0  0  0  0  0  0  0  0  0  0  0  0
    0.4118    3.2458   -3.6685 H   0  0  0  0  0  0  0  0  0  0  0  0
    1.9230    1.7754   -3.3770 N   0  0  0  0  0  0  0  0  0  0  0  0
    1.9190    0.6011   -2.6318 C   0  0  0  0  0  0  0  0  0  0  0  0
    2.7633   -0.0766   -2.5471 H   0  0  0  0  0  0  0  0  0  0  0  0
   -0.6242    1.1267    0.4807 C   0  0  0  0  0  0  0  0  0  0  0  0
   -1.5803    1.7348    0.0014 O   0  0  0  0  0  0  0  0  0  0  0  0
    0.2028    1.7709    1.3823 N   0  0  0  0  0  0  0  0  0  0  0  0
    0.9839    1.2441    1.7635 H   0  0  0  0  0  0  0  0  0  0  0  0
    0.0780    3.1842    1.7173 C   0  0  0  0  0  0  0  0  0  0  0  0
   -0.9228    3.4004    2.1060 H   0  0  0  0  0  0  0  0  0  0  0  0
    0.8105    3.4574    2.4832 H   0  0  0  0  0  0  0  0  0  0  0  0
    0.2548    3.8038    0.8320 H   0  0  0  0  0  0  0  0  0  0  0  0
  1  2  1  0  0  0  0
  2  3  1  0  0  0  0
  2  4  1  0  0  0  0
  2  5  1  0  0  0  0
  5  6  2  0  0  0  0
  5  7  1  0  0  0  0
  7  8  1  0  0  0  0
  7  9  1  0  0  0  0
  9 10  1  0  0  0  0
  9 11  1  0  0  0  0
  9 22  1  0  0  0  0
 11 12  1  0  0  0  0
 11 13  1  0  0  0  0
 11 14  1  0  0  0  0
 14 15  1  0  0  0  0
 14 20  2  0  0  0  0
 15 16  1  0  0  0  0
 15 17  1  0  0  0  0
 17 18  1  0  0  0  0
 17 19  2  0  0  0  0
 19 20  1  0  0  0  0
 20 21  1  0  0  0  0
 22 23  2  0  0  0  0
 22 24  1  0  0  0  0
 24 25  1  0  0  0  0
 24 26  1  0  0  0  0
 26 27  1  0  0  0  0
 26 28  1  0  0  0  0
 26 29  1  0  0  0  0
M  END
$$$$

  -OEChem-04042215593D

 29 29  0     1  0  0  0  0  0999 V2000
   -3.4822   -3.7154    1.3971 H   0  0  0  0  0  0  0  0  0  0  0  0
   -3.4541   -2.7724    0.8439 C   0  0  0  0  0  0  0  0  0  0  0  0
   -4.1109   -2.0539    1.3401 H   0  0  0  0  0  0  0  0  0  0  0  0
   -3.8180   -2.9487   -0.1712 H   0  0  0  0  0  0  0  0  0  0  0  0
   -2.0360   -2.2357    0.7997 C   0  0  0  0  0  0  0  0  0  0  0  0
   -1.1231   -2.8812    1.2892 O   0  0  0  0  0  0  0  0  0  0  0  0
   -1.7778   -1.0221    0.1971 N   0  0  0  0  0  0  0  0  0  0  0  0
   -2.5774   -0.4778   -0.1225 H   0  0  0  0  0  0  0  0  0  0  0  0
   -0.4686   -0.3494    0.1980 C   0  0  1  0  0  0  0  0  0  0  0  0
    0.1245   -0.7520    1.0258 H   0  0  0  0  0  0  0  0  0  0  0  0
    0.3000   -0.7026   -1.1061 C   0  0  0  0  0  0  0  0  0  0  0  0
    1.2059   -1.2504   -0.8263 H   0  0  0  0  0  0  0  0  0  0  0  0
   -0.3112   -1.3968   -1.6924 H   0  0  0  0  0  0  0  0  0  0  0  0
    0.6961    0.4278   -2.0350 C   0  0  0  0  0  0  0  0  0  0  0  0
    0.0869    1.6424   -2.2706 N   0  0  0  0  0  0  0  0  0  0  0  0
   -0.7536    1.9897   -1.7988 H   0  0  0  0  0  0  0  0  0  0  0  0
    0.8372    2.3508   -3.1872 C   0  0  0  0  0  0  0  0  0  0  0  0
    0.6001    3.3450   -3.5550 H   0  0  0  0  0  0  0  0  0  0  0  0
    1.8849    1.6481   -3.5444 N   0  0  0  0  0  0  0  0  0  0  0  0
    1.8086    0.4532   -2.8365 C   0  0  0  0  0  0  0  0  0  0  0  0
    2.5375   -0.3488   -2.9059 H   0  0  0  0  0  0  0  0  0  0  0  0
   -0.6326    1.1506    0.5205 C   0  0  0  0  0  0  0  0  0  0  0  0
   -1.5760    1.7807    0.0458 O   0  0  0  0  0  0  0  0  0  0  0  0
    0.2107    1.7752    1.4209 N   0  0  0  0  0  0  0  0  0  0  0  0
    0.9840    1.2324    1.7962 H   0  0  0  0  0  0  0  0  0  0  0  0
    0.0956    3.1811    1.7892 C   0  0  0  0  0  0  0  0  0  0  0  0
   -0.9010    3.3937    2.1906 H   0  0  0  0  0  0  0  0  0  0  0  0
    0.8351    3.4322    2.5556 H   0  0  0  0  0  0  0  0  0  0  0  0
    0.2693    3.8207    0.9177 H   0  0  0  0  0  0  0  0  0  0  0  0
  1  2  1  0  0  0  0
  2  3  1  0  0  0  0
  2  4  1  0  0  0  0
  2  5  1  0  0  0  0
  5  6  2  0  0  0  0
  5  7  1  0  0  0  0
  7  8  1  0  0  0  0
  7  9  1  0  0  0  0
  9 10  1  0  0  0  0
  9 11  1  0  0  0  0
  9 22  1  0  0  0  0
 11 12  1  0  0  0  0
 11 13  1  0  0  0  0
 11 14  1  0  0  0  0
 14 15  1  0  0  0  0
 14 20  2  0  0  0  0
 15 16  1  0  0  0  0
 15 17  1  0  0  0  0
 17 18  1  0  0  0  0
 17 19  2  0  0  0  0
 19 20  1  0  0  0  0
 20 21  1  0  0  0  0
 22 23  2  0  0  0  0
 22 24  1  0  0  0  0
 24 25  1  0  0  0  0
 24 26  1  0  0  0  0
 26 27  1  0  0  0  0
 26 28  1  0  0  0  0
 26 29  1  0  0  0  0
M  END
$$$$

  -OEChem-04042215593D

 29 29  0     1  0  0  0  0  0999 V2000
   -3.4675   -3.7392    1.3521 H   0  0  0  0  0  0  0  0  0  0  0  0
   -3.4450   -2.7882    0.8126 C   0  0  0  0  0  0  0  0  0  0  0  0
   -4.1164   -2.0849    1.3109 H   0  0  0  0  0  0  0  0  0  0  0  0
   -3.7946   -2.9542   -0.2091 H   0  0  0  0  0  0  0  0  0  0  0  0
   -2.0337   -2.2329    0.7921 C   0  0  0  0  0  0  0  0  0  0  0  0
   -1.1183   -2.8714    1.2862 O   0  0  0  0  0  0  0  0  0  0  0  0
   -1.7852   -1.0086    0.2072 N   0  0  0  0  0  0  0  0  0  0  0  0
   -2.5857   -0.4789   -0.1336 H   0  0  0  0  0  0  0  0  0  0  0  0
   -0.4811   -0.3266    0.2099 C   0  0  1  0  0  0  0  0  0  0  0  0
    0.1121   -0.7369    1.0338 H   0  0  0  0  0  0  0  0  0  0  0  0
    0.2918   -0.6777   -1.0937 C   0  0  0  0  0  0  0  0  0  0  0  0
    1.2029   -1.2128   -0.8057 H   0  0  0  0  0  0  0  0  0  0  0  0
   -0.3099   -1.3862   -1.6728 H   0  0  0  0  0  0  0  0  0  0  0  0
    0.6906    0.4385   -2.0414 C   0  0  0  0  0  0  0  0  0  0  0  0
    0.2731    1.7504   -2.1320 N   0  0  0  0  0  0  0  0  0  0  0  0
   -0.4682    2.1808   -1.5710 H   0  0  0  0  0  0  0  0  0  0  0  0
    0.9661    2.3758   -3.1481 C   0  0  0  0  0  0  0  0  0  0  0  0
    0.8341    3.4106   -3.4507 H   0  0  0  0  0  0  0  0  0  0  0  0
    1.8090    1.5349   -3.6960 N   0  0  0  0  0  0  0  0  0  0  0  0
    1.6481    0.3313   -3.0178 C   0  0  0  0  0  0  0  0  0  0  0  0
    2.2115   -0.5722   -3.2310 H   0  0  0  0  0  0  0  0  0  0  0  0
   -0.6371    1.1679    0.5548 C   0  0  0  0  0  0  0  0  0  0  0  0
   -1.5569    1.8230    0.0706 O   0  0  0  0  0  0  0  0  0  0  0  0
    0.2171    1.7747    1.4573 N   0  0  0  0  0  0  0  0  0  0  0  0
    0.9668    1.2099    1.8482 H   0  0  0  0  0  0  0  0  0  0  0  0
    0.1156    3.1756    1.8484 C   0  0  0  0  0  0  0  0  0  0  0  0
   -0.8799    3.3921    2.2506 H   0  0  0  0  0  0  0  0  0  0  0  0
    0.8554    3.4062    2.6211 H   0  0  0  0  0  0  0  0  0  0  0  0
    0.2985    3.8277    0.9880 H   0  0  0  0  0  0  0  0  0  0  0  0
  1  2  1  0  0  0  0
  2  3  1  0  0  0  0
  2  4  1  0  0  0  0
  2  5  1  0  0  0  0
  5  6  2  0  0  0  0
  5  7  1  0  0  0  0
  7  8  1  0  0  0  0
  7  9  1  0  0  0  0
  9 10  1  0  0  0  0
  9 11  1  0  0  0  0
  9 22  1  0  0  0  0
 11 12  1  0  0  0  0
 11 13  1  0  0  0  0
 11 14  1  0  0  0  0
 14 15  1  0  0  0  0
 14 20  2  0  0  0  0
 15 16  1  0  0  0  0
 15 17  1  0  0  0  0
 17 18  1  0  0  0  0
 17 19  2  0  0  0  0
 19 20  1  0  0  0  0
 20 21  1  0  0  0  0
 22 23  2  0  0  0  0
 22 24  1  0  0  0  0
 24 25  1  0  0  0  0
 24 26  1  0  0  0  0
 26 27  1  0  0  0  0
 26 28  1  0  0  0  0
 26 29  1  0  0  0  0
M  END
$$$$

  -OEChem-04042215593D

 29 29  0     1  0  0  0  0  0999 V2000
   -3.4706   -3.7459    1.3127 H   0  0  0  0  0  0  0  0  0  0  0  0
   -3.4463   -2.7925    0.7777 C   0  0  0  0  0  0  0  0  0  0  0  0
   -4.1307   -2.0962    1.2683 H   0  0  0  0  0  0  0  0  0  0  0  0
   -3.7783   -2.9568   -0.2502 H   0  0  0  0  0  0  0  0  0  0  0  0
   -2.0386   -2.2273    0.7821 C   0  0  0  0  0  0  0  0  0  0  0  0
   -1.1267   -2.8620    1.2876 O   0  0  0  0  0  0  0  0  0  0  0  0
   -1.7892   -0.9979    0.2080 N   0  0  0  0  0  0  0  0  0  0  0  0
   -2.5862   -0.4763   -0.1531 H   0  0  0  0  0  0  0  0  0  0  0  0
   -0.4870   -0.3126    0.2193 C   0  0  1  0  0  0  0  0  0  0  0  0
    0.0998   -0.7287    1.0447 H   0  0  0  0  0  0  0  0  0  0  0  0
    0.2953   -0.6629   -1.0787 C   0  0  0  0  0  0  0  0  0  0  0  0
    1.2114   -1.1801   -0.7752 H   0  0  0  0  0  0  0  0  0  0  0  0
   -0.2890   -1.3879   -1.6552 H   0  0  0  0  0  0  0  0  0  0  0  0
    0.7019    0.4457   -2.0335 C   0  0  0  0  0  0  0  0  0  0  0  0
    0.5119    1.8130   -2.0022 N   0  0  0  0  0  0  0  0  0  0  0  0
   -0.0966    2.3139   -1.3492 H   0  0  0  0  0  0  0  0  0  0  0  0
    1.1089    2.3762   -3.1121 C   0  0  0  0  0  0  0  0  0  0  0  0
    1.0960    3.4337   -3.3598 H   0  0  0  0  0  0  0  0  0  0  0  0
    1.6875    1.4451   -3.8297 N   0  0  0  0  0  0  0  0  0  0  0  0
    1.4416    0.2452   -3.1715 C   0  0  0  0  0  0  0  0  0  0  0  0
    1.7940   -0.7237   -3.5129 H   0  0  0  0  0  0  0  0  0  0  0  0
   -0.6343    1.1791    0.5740 C   0  0  0  0  0  0  0  0  0  0  0  0
   -1.5243    1.8573    0.0701 O   0  0  0  0  0  0  0  0  0  0  0  0
    0.2250    1.7704    1.4819 N   0  0  0  0  0  0  0  0  0  0  0  0
    0.9433    1.1838    1.8990 H   0  0  0  0  0  0  0  0  0  0  0  0
    0.1351    3.1674    1.8894 C   0  0  0  0  0  0  0  0  0  0  0  0
   -0.8602    3.3889    2.2889 H   0  0  0  0  0  0  0  0  0  0  0  0
    0.8734    3.3810    2.6684 H   0  0  0  0  0  0  0  0  0  0  0  0
    0.3291    3.8280    1.0383 H   0  0  0  0  0  0  0  0  0  0  0  0
  1  2  1  0  0  0  0
  2  3  1  0  0  0  0
  2  4  1  0  0  0  0
  2  5  1  0  0  0  0
  5  6  2  0  0  0  0
  5  7  1  0  0  0  0
  7  8  1  0  0  0  0
  7  9  1  0  0  0  0
  9 10  1  0  0  0  0
  9 11  1  0  0  0  0
  9 22  1  0  0  0  0
 11 12  1  0  0  0  0
 11 13  1  0  0  0  0
 11 14  1  0  0  0  0
 14 15  1  0  0  0  0
 14 20  2  0  0  0  0
 15 16  1  0  0  0  0
 15 17  1  0  0  0  0
 17 18  1  0  0  0  0
 17 19  2  0  0  0  0
 19 20  1  0  0  0  0
 20 21  1  0  0  0  0
 22 23  2  0  0  0  0
 22 24  1  0  0  0  0
 24 25  1  0  0  0  0
 24 26  1  0  0  0  0
 26 27  1  0  0  0  0
 26 28  1  0  0  0  0
 26 29  1  0  0  0  0
M  END
$$$$

  -OEChem-04042215593D

 29 29  0     1  0  0  0  0  0999 V2000
   -3.4991   -3.7165    1.2833 H   0  0  0  0  0  0  0  0  0  0  0  0
   -3.4611   -2.7542    0.7652 C   0  0  0  0  0  0  0  0  0  0  0  0
   -4.1321   -2.0553    1.2704 H   0  0  0  0  0  0  0  0  0  0  0  0
   -3.7998   -2.8944   -0.2642 H   0  0  0  0  0  0  0  0  0  0  0  0
   -2.0450   -2.2110    0.7744 C   0  0  0  0  0  0  0  0  0  0  0  0
   -1.1458   -2.8539    1.2921 O   0  0  0  0  0  0  0  0  0  0  0  0
   -1.7749   -0.9899    0.1932 N   0  0  0  0  0  0  0  0  0  0  0  0
   -2.5628   -0.4596   -0.1755 H   0  0  0  0  0  0  0  0  0  0  0  0
   -0.4666   -0.3177    0.2133 C   0  0  1  0  0  0  0  0  0  0  0  0
    0.1098   -0.7334    1.0462 H   0  0  0  0  0  0  0  0  0  0  0  0
    0.3212   -0.6783   -1.0772 C   0  0  0  0  0  0  0  0  0  0  0  0
    1.2363   -1.1884   -0.7589 H   0  0  0  0  0  0  0  0  0  0  0  0
   -0.2535   -1.4118   -1.6529 H   0  0  0  0  0  0  0  0  0  0  0  0
    0.7446    0.4270   -2.0282 C   0  0  0  0  0  0  0  0  0  0  0  0
    0.8120    1.7997   -1.8899 N   0  0  0  0  0  0  0  0  0  0  0  0
    0.4182    2.3408   -1.1189 H   0  0  0  0  0  0  0  0  0  0  0  0
    1.2721    2.3462   -3.0714 C   0  0  0  0  0  0  0  0  0  0  0  0
    1.3967    3.4086   -3.2610 H   0  0  0  0  0  0  0  0  0  0  0  0
    1.5276    1.3966   -3.9369 N   0  0  0  0  0  0  0  0  0  0  0  0
    1.2007    0.2037   -3.3028 C   0  0  0  0  0  0  0  0  0  0  0  0
    1.2961   -0.7773   -3.7586 H   0  0  0  0  0  0  0  0  0  0  0  0
   -0.6117    1.1769    0.5537 C   0  0  0  0  0  0  0  0  0  0  0  0
   -1.4950    1.8546    0.0411 O   0  0  0  0  0  0  0  0  0  0  0  0
    0.2391    1.7723    1.4674 N   0  0  0  0  0  0  0  0  0  0  0  0
    0.9223    1.1757    1.9274 H   0  0  0  0  0  0  0  0  0  0  0  0
    0.1060    3.1554    1.9108 C   0  0  0  0  0  0  0  0  0  0  0  0
   -0.8683    3.3142    2.3848 H   0  0  0  0  0  0  0  0  0  0  0  0
    0.8871    3.3951    2.6388 H   0  0  0  0  0  0  0  0  0  0  0  0
    0.2022    3.8426    1.0637 H   0  0  0  0  0  0  0  0  0  0  0  0
  1  2  1  0  0  0  0
  2  3  1  0  0  0  0
  2  4  1  0  0  0  0
  2  5  1  0  0  0  0
  5  6  2  0  0  0  0
  5  7  1  0  0  0  0
  7  8  1  0  0  0  0
  7  9  1  0  0  0  0
  9 10  1  0  0  0  0
  9 11  1  0  0  0  0
  9 22  1  0  0  0  0
 11 12  1  0  0  0  0
 11 13  1  0  0  0  0
 11 14  1  0  0  0  0
 14 15  1  0  0  0  0
 14 20  2  0  0  0  0
 15 16  1  0  0  0  0
 15 17  1  0  0  0  0
 17 18  1  0  0  0  0
 17 19  2  0  0  0  0
 19 20  1  0  0  0  0
 20 21  1  0  0  0  0
 22 23  2  0  0  0  0
 22 24  1  0  0  0  0
 24 25  1  0  0  0  0
 24 26  1  0  0  0  0
 26 27  1  0  0  0  0
 26 28  1  0  0  0  0
 26 29  1  0  0  0  0
M  END
$$$$

  -OEChem-04042215593D

 29 29  0     1  0  0  0  0  0999 V2000
   -3.5416   -3.6492    1.3237 H   0  0  0  0  0  0  0  0  0  0  0  0
   -3.4806   -2.6993    0.7855 C   0  0  0  0  0  0  0  0  0  0  0  0
   -4.1348   -1.9742    1.2753 H   0  0  0  0  0  0  0  0  0  0  0  0
   -3.8222   -2.8532   -0.2408 H   0  0  0  0  0  0  0  0  0  0  0  0
   -2.0519   -2.1900    0.7843 C   0  0  0  0  0  0  0  0  0  0  0  0
   -1.1696   -2.8384    1.3238 O   0  0  0  0  0  0  0  0  0  0  0  0
   -1.7512   -0.9907    0.1739 N   0  0  0  0  0  0  0  0  0  0  0  0
   -2.5265   -0.4436   -0.1982 H   0  0  0  0  0  0  0  0  0  0  0  0
   -0.4302   -0.3439    0.1949 C   0  0  1  0  0  0  0  0  0  0  0  0
    0.1395   -0.7500    1.0371 H   0  0  0  0  0  0  0  0  0  0  0  0
    0.3523   -0.7196   -1.0928 C   0  0  0  0  0  0  0  0  0  0  0  0
    1.2595   -1.2424   -0.7735 H   0  0  0  0  0  0  0  0  0  0  0  0
   -0.2322   -1.4433   -1.6709 H   0  0  0  0  0  0  0  0  0  0  0  0
    0.7923    0.3896   -2.0298 C   0  0  0  0  0  0  0  0  0  0  0  0
    1.1329    1.7081   -1.7967 N   0  0  0  0  0  0  0  0  0  0  0  0
    1.0560    2.2015   -0.9085 H   0  0  0  0  0  0  0  0  0  0  0  0
    1.4420    2.3077   -3.0020 C   0  0  0  0  0  0  0  0  0  0  0  0
    1.7268    3.3486   -3.1265 H   0  0  0  0  0  0  0  0  0  0  0  0
    1.3391    1.4389   -3.9770 N   0  0  0  0  0  0  0  0  0  0  0  0
    0.9292    0.2485   -3.3874 C   0  0  0  0  0  0  0  0  0  0  0  0
    0.7408   -0.6717   -3.9324 H   0  0  0  0  0  0  0  0  0  0  0  0
   -0.5813    1.1593    0.4947 C   0  0  0  0  0  0  0  0  0  0  0  0
   -1.4933    1.8075   -0.0046 O   0  0  0  0  0  0  0  0  0  0  0  0
    0.2551    1.7760    1.4089 N   0  0  0  0  0  0  0  0  0  0  0  0
    0.9115    1.1823    1.9103 H   0  0  0  0  0  0  0  0  0  0  0  0
    0.0544    3.1433    1.8762 C   0  0  0  0  0  0  0  0  0  0  0  0
   -0.9035    3.2318    2.3997 H   0  0  0  0  0  0  0  0  0  0  0  0
    0.8543    3.4284    2.5665 H   0  0  0  0  0  0  0  0  0  0  0  0
    0.0610    3.8431    1.0339 H   0  0  0  0  0  0  0  0  0  0  0  0
  1  2  1  0  0  0  0
  2  3  1  0  0  0  0
  2  4  1  0  0  0  0
  2  5  1  0  0  0  0
  5  6  2  0  0  0  0
  5  7  1  0  0  0  0
  7  8  1  0  0  0  0
  7  9  1  0  0  0  0
  9 10  1  0  0  0  0
  9 11  1  0  0  0  0
  9 22  1  0  0  0  0
 11 12  1  0  0  0  0
 11 13  1  0  0  0  0
 11 14  1  0  0  0  0
 14 15  1  0  0  0  0
 14 20  2  0  0  0  0
 15 16  1  0  0  0  0
 15 17  1  0  0  0  0
 17 18  1  0  0  0  0
 17 19  2  0  0  0  0
 19 20  1  0  0  0  0
 20 21  1  0  0  0  0
 22 23  2  0  0  0  0
 22 24  1  0  0  0  0
 24 25  1  0  0  0  0
 24 26  1  0  0  0  0
 26 27  1  0  0  0  0
 26 28  1  0  0  0  0
 26 29  1  0  0  0  0
M  END
$$$$

  -OEChem-04042215593D

 29 29  0     1  0  0  0  0  0999 V2000
   -3.5640   -3.6155    1.3748 H   0  0  0  0  0  0  0  0  0  0  0  0
   -3.4925   -2.6823    0.8091 C   0  0  0  0  0  0  0  0  0  0  0  0
   -4.1418   -1.9371    1.2748 H   0  0  0  0  0  0  0  0  0  0  0  0
   -3.8319   -2.8636   -0.2135 H   0  0  0  0  0  0  0  0  0  0  0  0
   -2.0590   -2.1866    0.7983 C   0  0  0  0  0  0  0  0  0  0  0  0
   -1.1827   -2.8343    1.3486 O   0  0  0  0  0  0  0  0  0  0  0  0
   -1.7454   -1.0038    0.1627 N   0  0  0  0  0  0  0  0  0  0  0  0
   -2.5159   -0.4494   -0.2092 H   0  0  0  0  0  0  0  0  0  0  0  0
   -0.4190   -0.3682    0.1791 C   0  0  1  0  0  0  0  0  0  0  0  0
    0.1486   -0.7628    1.0280 H   0  0  0  0  0  0  0  0  0  0  0  0
    0.3591   -0.7590   -1.1053 C   0  0  0  0  0  0  0  0  0  0  0  0
    1.2627   -1.2913   -0.7918 H   0  0  0  0  0  0  0  0  0  0  0  0
   -0.2347   -1.4735   -1.6855 H   0  0  0  0  0  0  0  0  0  0  0  0
    0.7945    0.3618   -2.0272 C   0  0  0  0  0  0  0  0  0  0  0  0
    1.3854    1.5767   -1.7406 N   0  0  0  0  0  0  0  0  0  0  0  0
    1.5674    1.9560   -0.8135 H   0  0  0  0  0  0  0  0  0  0  0  0
    1.5807    2.2623   -2.9243 C   0  0  0  0  0  0  0  0  0  0  0  0
    2.0130    3.2554   -3.0066 H   0  0  0  0  0  0  0  0  0  0  0  0
    1.1687    1.5412   -3.9376 N   0  0  0  0  0  0  0  0  0  0  0  0
    0.6710    0.3625   -3.3932 C   0  0  0  0  0  0  0  0  0  0  0  0
    0.2425   -0.4481   -3.9750 H   0  0  0  0  0  0  0  0  0  0  0  0
   -0.5662    1.1435    0.4446 C   0  0  0  0  0  0  0  0  0  0  0  0
   -1.4892    1.7761   -0.0555 O   0  0  0  0  0  0  0  0  0  0  0  0
    0.2675    1.7737    1.3531 N   0  0  0  0  0  0  0  0  0  0  0  0
    0.8964    1.1815    1.8896 H   0  0  0  0  0  0  0  0  0  0  0  0
    0.0658    3.1511    1.7893 C   0  0  0  0  0  0  0  0  0  0  0  0
   -0.8994    3.2550    2.2960 H   0  0  0  0  0  0  0  0  0  0  0  0
    0.8564    3.4475    2.4853 H   0  0  0  0  0  0  0  0  0  0  0  0
    0.0884    3.8327    0.9324 H   0  0  0  0  0  0  0  0  0  0  0  0
  1  2  1  0  0  0  0
  2  3  1  0  0  0  0
  2  4  1  0  0  0  0
  2  5  1  0  0  0  0
  5  6  2  0  0  0  0
  5  7  1  0  0  0  0
  7  8  1  0  0  0  0
  7  9  1  0  0  0  0
  9 10  1  0  0  0  0
  9 11  1  0  0  0  0
  9 22  1  0  0  0  0
 11 12  1  0  0  0  0
 11 13  1  0  0  0  0
 11 14  1  0  0  0  0
 14 15  1  0  0  0  0
 14 20  2  0  0  0  0
 15 16  1  0  0  0  0
 15 17  1  0  0  0  0
 17 18  1  0  0  0  0
 17 19  2  0  0  0  0
 19 20  1  0  0  0  0
 20 21  1  0  0  0  0
 22 23  2  0  0  0  0
 22 24  1  0  0  0  0
 24 25  1  0  0  0  0
 24 26  1  0  0  0  0
 26 27  1  0  0  0  0
 26 28  1  0  0  0  0
 26 29  1  0  0  0  0
M  END
$$$$

  -OEChem-04042215593D

 29 29  0     1  0  0  0  0  0999 V2000
   -3.5732   -3.5984    1.4151 H   0  0  0  0  0  0  0  0  0  0  0  0
   -3.4993   -2.6706    0.8411 C   0  0  0  0  0  0  0  0  0  0  0  0
   -4.1335   -1.9146    1.3104 H   0  0  0  0  0  0  0  0  0  0  0  0
   -3.8556   -2.8557   -0.1752 H   0  0  0  0  0  0  0  0  0  0  0  0
   -2.0607   -2.1911    0.8057 C   0  0  0  0  0  0  0  0  0  0  0  0
   -1.1853   -2.8395    1.3569 O   0  0  0  0  0  0  0  0  0  0  0  0
   -1.7427   -1.0207    0.1500 N   0  0  0  0  0  0  0  0  0  0  0  0
   -2.5132   -0.4590   -0.2111 H   0  0  0  0  0  0  0  0  0  0  0  0
   -0.4143   -0.3895    0.1601 C   0  0  1  0  0  0  0  0  0  0  0  0
    0.1531   -0.7738    1.0137 H   0  0  0  0  0  0  0  0  0  0  0  0
    0.3606   -0.7900   -1.1213 C   0  0  0  0  0  0  0  0  0  0  0  0
    1.2620   -1.3322   -0.8188 H   0  0  0  0  0  0  0  0  0  0  0  0
   -0.2434   -1.4927   -1.7053 H   0  0  0  0  0  0  0  0  0  0  0  0
    0.7820    0.3463   -2.0252 C   0  0  0  0  0  0  0  0  0  0  0  0
    1.6012    1.4210   -1.7465 N   0  0  0  0  0  0  0  0  0  0  0  0
    2.0192    1.6464   -0.8469 H   0  0  0  0  0  0  0  0  0  0  0  0
    1.7067    2.1977   -2.8849 C   0  0  0  0  0  0  0  0  0  0  0  0
    2.2772    3.1189   -2.9618 H   0  0  0  0  0  0  0  0  0  0  0  0
    1.0201    1.6612   -3.8637 N   0  0  0  0  0  0  0  0  0  0  0  0
    0.4347    0.5132   -3.3409 C   0  0  0  0  0  0  0  0  0  0  0  0
   -0.2064   -0.1601   -3.9018 H   0  0  0  0  0  0  0  0  0  0  0  0
   -0.5587    1.1283    0.3987 C   0  0  0  0  0  0  0  0  0  0  0  0
   -1.4979    1.7444   -0.0930 O   0  0  0  0  0  0  0  0  0  0  0  0
    0.2731    1.7724    1.2992 N   0  0  0  0  0  0  0  0  0  0  0  0
    0.9131    1.1929    1.8353 H   0  0  0  0  0  0  0  0  0  0  0  0
    0.0715    3.1570    1.7109 C   0  0  0  0  0  0  0  0  0  0  0  0
   -0.8859    3.2662    2.2312 H   0  0  0  0  0  0  0  0  0  0  0  0
    0.8721    3.4722    2.3869 H   0  0  0  0  0  0  0  0  0  0  0  0
    0.0758    3.8206    0.8396 H   0  0  0  0  0  0  0  0  0  0  0  0
  1  2  1  0  0  0  0
  2  3  1  0  0  0  0
  2  4  1  0  0  0  0
  2  5  1  0  0  0  0
  5  6  2  0  0  0  0
  5  7  1  0  0  0  0
  7  8  1  0  0  0  0
  7  9  1  0  0  0  0
  9 10  1  0  0  0  0
  9 11  1  0  0  0  0
  9 22  1  0  0  0  0
 11 12  1  0  0  0  0
 11 13  1  0  0  0  0
 11 14  1  0  0  0  0
 14 15  1  0  0  0  0
 14 20  2  0  0  0  0
 15 16  1  0  0  0  0
 15 17  1  0  0  0  0
 17 18  1  0  0  0  0
 17 19  2  0  0  0  0
 19 20  1  0  0  0  0
 20 21  1  0  0  0  0
 22 23  2  0  0  0  0
 22 24  1  0  0  0  0
 24 25  1  0  0  0  0
 24 26  1  0  0  0  0
 26 27  1  0  0  0  0
 26 28  1  0  0  0  0
 26 29  1  0  0  0  0
M  END
$$$$

  -OEChem-04042215593D

 29 29  0     1  0  0  0  0  0999 V2000
   -3.5766   -3.5922    1.4452 H   0  0  0  0  0  0  0  0  0  0  0  0
   -3.5016   -2.6668    0.8672 C   0  0  0  0  0  0  0  0  0  0  0  0
   -4.1216   -1.9032    1.3432 H   0  0  0  0  0  0  0  0  0  0  0  0
   -3.8740   -2.8510   -0.1433 H   0  0  0  0  0  0  0  0  0  0  0  0
   -2.0593   -2.2009    0.8093 C   0  0  0  0  0  0  0  0  0  0  0  0
   -1.1814   -2.8528    1.3526 O   0  0  0  0  0  0  0  0  0  0  0  0
   -1.7415   -1.0369    0.1426 N   0  0  0  0  0  0  0  0  0  0  0  0
   -2.5140   -0.4693   -0.2047 H   0  0  0  0  0  0  0  0  0  0  0  0
   -0.4129   -0.4058    0.1470 C   0  0  1  0  0  0  0  0  0  0  0  0
    0.1574   -0.7831    1.0019 H   0  0  0  0  0  0  0  0  0  0  0  0
    0.3592   -0.8078   -1.1343 C   0  0  0  0  0  0  0  0  0  0  0  0
    1.2594   -1.3584   -0.8437 H   0  0  0  0  0  0  0  0  0  0  0  0
   -0.2531   -1.4994   -1.7232 H   0  0  0  0  0  0  0  0  0  0  0  0
    0.7663    0.3433   -2.0220 C   0  0  0  0  0  0  0  0  0  0  0  0
    1.7818    1.2549   -1.8254 N   0  0  0  0  0  0  0  0  0  0  0  0
    2.4045    1.3058   -1.0229 H   0  0  0  0  0  0  0  0  0  0  0  0
    1.8080    2.1163   -2.9064 C   0  0  0  0  0  0  0  0  0  0  0  0
    2.4984    2.9462   -3.0269 H   0  0  0  0  0  0  0  0  0  0  0  0
    0.8822    1.7847   -3.7724 N   0  0  0  0  0  0  0  0  0  0  0  0
    0.2227    0.6853   -3.2330 C   0  0  0  0  0  0  0  0  0  0  0  0
   -0.6037    0.1666   -3.7094 H   0  0  0  0  0  0  0  0  0  0  0  0
   -0.5594    1.1152    0.3716 C   0  0  0  0  0  0  0  0  0  0  0  0
   -1.5117    1.7180   -0.1124 O   0  0  0  0  0  0  0  0  0  0  0  0
    0.2698    1.7708    1.2656 N   0  0  0  0  0  0  0  0  0  0  0  0
    0.9420    1.2079    1.7787 H   0  0  0  0  0  0  0  0  0  0  0  0
    0.0741    3.1620    1.6560 C   0  0  0  0  0  0  0  0  0  0  0  0
   -0.8873    3.2849    2.1660 H   0  0  0  0  0  0  0  0  0  0  0  0
    0.8706    3.4808    2.3353 H   0  0  0  0  0  0  0  0  0  0  0  0
    0.0913    3.8131    0.7754 H   0  0  0  0  0  0  0  0  0  0  0  0
  1  2  1  0  0  0  0
  2  3  1  0  0  0  0
  2  4  1  0  0  0  0
  2  5  1  0  0  0  0
  5  6  2  0  0  0  0
  5  7  1  0  0  0  0
  7  8  1  0  0  0  0
  7  9  1  0  0  0  0
  9 10  1  0  0  0  0
  9 11  1  0  0  0  0
  9 22  1  0  0  0  0
 11 12  1  0  0  0  0
 11 13  1  0  0  0  0
 11 14  1  0  0  0  0
 14 15  1  0  0  0  0
 14 20  2  0  0  0  0
 15 16  1  0  0  0  0
 15 17  1  0  0  0  0
 17 18  1  0  0  0  0
 17 19  2  0  0  0  0
 19 20  1  0  0  0  0
 20 21  1  0  0  0  0
 22 23  2  0  0  0  0
 22 24  1  0  0  0  0
 24 25  1  0  0  0  0
 24 26  1  0  0  0  0
 26 27  1  0  0  0  0
 26 28  1  0  0  0  0
 26 29  1  0  0  0  0
M  END
$$$$

  -OEChem-04042215593D

 29 29  0     1  0  0  0  0  0999 V2000
   -3.5688   -3.6080    1.4540 H   0  0  0  0  0  0  0  0  0  0  0  0
   -3.5008   -2.6789    0.8813 C   0  0  0  0  0  0  0  0  0  0  0  0
   -4.1149   -1.9182    1.3694 H   0  0  0  0  0  0  0  0  0  0  0  0
   -3.8853   -2.8568   -0.1259 H   0  0  0  0  0  0  0  0  0  0  0  0
   -2.0590   -2.2125    0.8106 C   0  0  0  0  0  0  0  0  0  0  0  0
   -1.1765   -2.8660    1.3445 O   0  0  0  0  0  0  0  0  0  0  0  0
   -1.7464   -1.0477    0.1427 N   0  0  0  0  0  0  0  0  0  0  0  0
   -2.5220   -0.4763   -0.1915 H   0  0  0  0  0  0  0  0  0  0  0  0
   -0.4187   -0.4146    0.1439 C   0  0  1  0  0  0  0  0  0  0  0  0
    0.1556   -0.7907    0.9966 H   0  0  0  0  0  0  0  0  0  0  0  0
    0.3501   -0.8092   -1.1408 C   0  0  0  0  0  0  0  0  0  0  0  0
    1.2489   -1.3674   -0.8609 H   0  0  0  0  0  0  0  0  0  0  0  0
   -0.2681   -1.4907   -1.7350 H   0  0  0  0  0  0  0  0  0  0  0  0
    0.7489    0.3508   -2.0188 C   0  0  0  0  0  0  0  0  0  0  0  0
    1.9154    1.0827   -1.9696 N   0  0  0  0  0  0  0  0  0  0  0  0
    2.6833    0.9562   -1.3146 H   0  0  0  0  0  0  0  0  0  0  0  0
    1.8832    2.0196   -2.9857 C   0  0  0  0  0  0  0  0  0  0  0  0
    2.6659    2.7437   -3.1930 H   0  0  0  0  0  0  0  0  0  0  0  0
    0.7725    1.9055   -3.6717 N   0  0  0  0  0  0  0  0  0  0  0  0
    0.0538    0.8717   -3.0797 C   0  0  0  0  0  0  0  0  0  0  0  0
   -0.9168    0.5207   -3.4171 H   0  0  0  0  0  0  0  0  0  0  0  0
   -0.5690    1.1064    0.3693 C   0  0  0  0  0  0  0  0  0  0  0  0
   -1.5304    1.7014   -0.1070 O   0  0  0  0  0  0  0  0  0  0  0  0
    0.2580    1.7678    1.2602 N   0  0  0  0  0  0  0  0  0  0  0  0
    0.9676    1.2215    1.7391 H   0  0  0  0  0  0  0  0  0  0  0  0
    0.0835    3.1699    1.6197 C   0  0  0  0  0  0  0  0  0  0  0  0
   -0.8833    3.3218    2.1112 H   0  0  0  0  0  0  0  0  0  0  0  0
    0.8746    3.4862    2.3060 H   0  0  0  0  0  0  0  0  0  0  0  0
    0.1282    3.8021    0.7265 H   0  0  0  0  0  0  0  0  0  0  0  0
  1  2  1  0  0  0  0
  2  3  1  0  0  0  0
  2  4  1  0  0  0  0
  2  5  1  0  0  0  0
  5  6  2  0  0  0  0
  5  7  1  0  0  0  0
  7  8  1  0  0  0  0
  7  9  1  0  0  0  0
  9 10  1  0  0  0  0
  9 11  1  0  0  0  0
  9 22  1  0  0  0  0
 11 12  1  0  0  0  0
 11 13  1  0  0  0  0
 11 14  1  0  0  0  0
 14 15  1  0  0  0  0
 14 20  2  0  0  0  0
 15 16  1  0  0  0  0
 15 17  1  0  0  0  0
 17 18  1  0  0  0  0
 17 19  2  0  0  0  0
 19 20  1  0  0  0  0
 20 21  1  0  0  0  0
 22 23  2  0  0  0  0
 22 24  1  0  0  0  0
 24 25  1  0  0  0  0
 24 26  1  0  0  0  0
 26 27  1  0  0  0  0
 26 28  1  0  0  0  0
 26 29  1  0  0  0  0
M  END
$$$$

  -OEChem-04042215593D

 29 29  0     1  0  0  0  0  0999 V2000
   -3.5580   -3.6097    1.4921 H   0  0  0  0  0  0  0  0  0  0  0  0
   -3.4971   -2.6945    0.8966 C   0  0  0  0  0  0  0  0  0  0  0  0
   -4.1095   -1.9242    1.3714 H   0  0  0  0  0  0  0  0  0  0  0  0
   -3.8888   -2.8975   -0.1030 H   0  0  0  0  0  0  0  0  0  0  0  0
   -2.0572   -2.2271    0.8030 C   0  0  0  0  0  0  0  0  0  0  0  0
   -1.1640   -2.8894    1.3076 O   0  0  0  0  0  0  0  0  0  0  0  0
   -1.7575   -1.0543    0.1430 N   0  0  0  0  0  0  0  0  0  0  0  0
   -2.5401   -0.4770   -0.1639 H   0  0  0  0  0  0  0  0  0  0  0  0
   -0.4322   -0.4157    0.1424 C   0  0  1  0  0  0  0  0  0  0  0  0
    0.1452   -0.7951    0.9914 H   0  0  0  0  0  0  0  0  0  0  0  0
    0.3374   -0.7991   -1.1451 C   0  0  0  0  0  0  0  0  0  0  0  0
    1.2369   -1.3565   -0.8658 H   0  0  0  0  0  0  0  0  0  0  0  0
   -0.2777   -1.4802   -1.7428 H   0  0  0  0  0  0  0  0  0  0  0  0
    0.7336    0.3622   -2.0235 C   0  0  0  0  0  0  0  0  0  0  0  0
    1.9905    0.9074   -2.1677 N   0  0  0  0  0  0  0  0  0  0  0  0
    2.8383    0.6079   -1.6917 H   0  0  0  0  0  0  0  0  0  0  0  0
    1.9218    1.9174   -3.1093 C   0  0  0  0  0  0  0  0  0  0  0  0
    2.7592    2.5303   -3.4306 H   0  0  0  0  0  0  0  0  0  0  0  0
    0.6990    2.0266   -3.5668 N   0  0  0  0  0  0  0  0  0  0  0  0
   -0.0540    1.0638   -2.9011 C   0  0  0  0  0  0  0  0  0  0  0  0
   -1.1137    0.8875   -3.0598 H   0  0  0  0  0  0  0  0  0  0  0  0
   -0.5873    1.1022    0.3831 C   0  0  0  0  0  0  0  0  0  0  0  0
   -1.5599    1.6931   -0.0756 O   0  0  0  0  0  0  0  0  0  0  0  0
    0.2409    1.7614    1.2740 N   0  0  0  0  0  0  0  0  0  0  0  0
    1.0007    1.2337    1.6929 H   0  0  0  0  0  0  0  0  0  0  0  0
    0.0933    3.1733    1.6057 C   0  0  0  0  0  0  0  0  0  0  0  0
   -0.8956    3.3654    2.0353 H   0  0  0  0  0  0  0  0  0  0  0  0
    0.8507    3.4722    2.3365 H   0  0  0  0  0  0  0  0  0  0  0  0
    0.2139    3.7904    0.7090 H   0  0  0  0  0  0  0  0  0  0  0  0
  1  2  1  0  0  0  0
  2  3  1  0  0  0  0
  2  4  1  0  0  0  0
  2  5  1  0  0  0  0
  5  6  2  0  0  0  0
  5  7  1  0  0  0  0
  7  8  1  0  0  0  0
  7  9  1  0  0  0  0
  9 10  1  0  0  0  0
  9 11  1  0  0  0  0
  9 22  1  0  0  0  0
 11 12  1  0  0  0  0
 11 13  1  0  0  0  0
 11 14  1  0  0  0  0
 14 15  1  0  0  0  0
 14 20  2  0  0  0  0
 15 16  1  0  0  0  0
 15 17  1  0  0  0  0
 17 18  1  0  0  0  0
 17 19  2  0  0  0  0
 19 20  1  0  0  0  0
 20 21  1  0  0  0  0
 22 23  2  0  0  0  0
 22 24  1  0  0  0  0
 24 25  1  0  0  0  0
 24 26  1  0  0  0  0
 26 27  1  0  0  0  0
 26 28  1  0  0  0  0
 26 29  1  0  0  0  0
M  END
$$$$

  -OEChem-04042215593D

 29 29  0     1  0  0  0  0  0999 V2000
   -3.5362   -3.6299    1.4878 H   0  0  0  0  0  0  0  0  0  0  0  0
   -3.4885   -2.7089    0.9003 C   0  0  0  0  0  0  0  0  0  0  0  0
   -4.1012   -1.9474    1.3888 H   0  0  0  0  0  0  0  0  0  0  0  0
   -3.8895   -2.9052   -0.0969 H   0  0  0  0  0  0  0  0  0  0  0  0
   -2.0531   -2.2299    0.7954 C   0  0  0  0  0  0  0  0  0  0  0  0
   -1.1492   -2.8945    1.2773 O   0  0  0  0  0  0  0  0  0  0  0  0
   -1.7698   -1.0447    0.1504 N   0  0  0  0  0  0  0  0  0  0  0  0
   -2.5608   -0.4677   -0.1348 H   0  0  0  0  0  0  0  0  0  0  0  0
   -0.4496   -0.3958    0.1435 C   0  0  1  0  0  0  0  0  0  0  0  0
    0.1316   -0.7808    0.9876 H   0  0  0  0  0  0  0  0  0  0  0  0
    0.3230   -0.7739   -1.1447 C   0  0  0  0  0  0  0  0  0  0  0  0
    1.2278   -1.3165   -0.8540 H   0  0  0  0  0  0  0  0  0  0  0  0
   -0.2798   -1.4705   -1.7369 H   0  0  0  0  0  0  0  0  0  0  0  0
    0.7179    0.3753   -2.0422 C   0  0  0  0  0  0  0  0  0  0  0  0
    1.9985    0.7293   -2.4077 N   0  0  0  0  0  0  0  0  0  0  0  0
    2.8591    0.2764   -2.1083 H   0  0  0  0  0  0  0  0  0  0  0  0
    1.9250    1.7885   -3.2925 C   0  0  0  0  0  0  0  0  0  0  0  0
    2.7781    2.2830   -3.7480 H   0  0  0  0  0  0  0  0  0  0  0  0
    0.6737    2.1095   -3.5089 N   0  0  0  0  0  0  0  0  0  0  0  0
   -0.0920    1.2339   -2.7443 C   0  0  0  0  0  0  0  0  0  0  0  0
   -1.1779    1.2244   -2.7174 H   0  0  0  0  0  0  0  0  0  0  0  0
   -0.6036    1.1178    0.4090 C   0  0  0  0  0  0  0  0  0  0  0  0
   -1.5933    1.7083   -0.0124 O   0  0  0  0  0  0  0  0  0  0  0  0
    0.2351    1.7658    1.2981 N   0  0  0  0  0  0  0  0  0  0  0  0
    1.0232    1.2441    1.6697 H   0  0  0  0  0  0  0  0  0  0  0  0
    0.0925    3.1745    1.6464 C   0  0  0  0  0  0  0  0  0  0  0  0
   -0.8950    3.3650    2.0800 H   0  0  0  0  0  0  0  0  0  0  0  0
    0.8517    3.4621    2.3799 H   0  0  0  0  0  0  0  0  0  0  0  0
    0.2140    3.8019    0.7570 H   0  0  0  0  0  0  0  0  0  0  0  0
  1  2  1  0  0  0  0
  2  3  1  0  0  0  0
  2  4  1  0  0  0  0
  2  5  1  0  0  0  0
  5  6  2  0  0  0  0
  5  7  1  0  0  0  0
  7  8  1  0  0  0  0
  7  9  1  0  0  0  0
  9 10  1  0  0  0  0
  9 11  1  0  0  0  0
  9 22  1  0  0  0  0
 11 12  1  0  0  0  0
 11 13  1  0  0  0  0
 11 14  1  0  0  0  0
 14 15  1  0  0  0  0
 14 20  2  0  0  0  0
 15 16  1  0  0  0  0
 15 17  1  0  0  0  0
 17 18  1  0  0  0  0
 17 19  2  0  0  0  0
 19 20  1  0  0  0  0
 20 21  1  0  0  0  0
 22 23  2  0  0  0  0
 22 24  1  0  0  0  0
 24 25  1  0  0  0  0
 24 26  1  0  0  0  0
 26 27  1  0  0  0  0
 26 28  1  0  0  0  0
 26 29  1  0  0  0  0
M  END
$$$$

  -OEChem-04042215593D

 29 29  0     1  0  0  0  0  0999 V2000
   -3.4997   -3.6634    1.4520 H   0  0  0  0  0  0  0  0  0  0  0  0
   -3.4717   -2.7171    0.9047 C   0  0  0  0  0  0  0  0  0  0  0  0
   -4.0717   -1.9805    1.4444 H   0  0  0  0  0  0  0  0  0  0  0  0
   -3.9017   -2.8708   -0.0879 H   0  0  0  0  0  0  0  0  0  0  0  0
   -2.0418   -2.2271    0.7787 C   0  0  0  0  0  0  0  0  0  0  0  0
   -1.1226   -2.8962    1.2241 O   0  0  0  0  0  0  0  0  0  0  0  0
   -1.7821   -1.0248    0.1557 N   0  0  0  0  0  0  0  0  0  0  0  0
   -2.5845   -0.4496   -0.0988 H   0  0  0  0  0  0  0  0  0  0  0  0
   -0.4707   -0.3589    0.1420 C   0  0  1  0  0  0  0  0  0  0  0  0
    0.1134   -0.7501    0.9814 H   0  0  0  0  0  0  0  0  0  0  0  0
    0.3105   -0.7334   -1.1435 C   0  0  0  0  0  0  0  0  0  0  0  0
    1.2235   -1.2513   -0.8334 H   0  0  0  0  0  0  0  0  0  0  0  0
   -0.2727   -1.4556   -1.7244 H   0  0  0  0  0  0  0  0  0  0  0  0
    0.7048    0.3941   -2.0720 C   0  0  0  0  0  0  0  0  0  0  0  0
    1.9419    0.5541   -2.6590 N   0  0  0  0  0  0  0  0  0  0  0  0
    2.7585   -0.0360   -2.5149 H   0  0  0  0  0  0  0  0  0  0  0  0
    1.8915    1.6429   -3.5084 C   0  0  0  0  0  0  0  0  0  0  0  0
    2.7239    2.0141   -4.0993 H   0  0  0  0  0  0  0  0  0  0  0  0
    0.6899    2.1629   -3.5018 N   0  0  0  0  0  0  0  0  0  0  0  0
   -0.0656    1.3883   -2.6267 C   0  0  0  0  0  0  0  0  0  0  0  0
   -1.1236    1.5379   -2.4352 H   0  0  0  0  0  0  0  0  0  0  0  0
   -0.6231    1.1476    0.4409 C   0  0  0  0  0  0  0  0  0  0  0  0
   -1.6324    1.7384    0.0704 O   0  0  0  0  0  0  0  0  0  0  0  0
    0.2316    1.7767    1.3283 N   0  0  0  0  0  0  0  0  0  0  0  0
    1.0345    1.2522    1.6627 H   0  0  0  0  0  0  0  0  0  0  0  0
    0.0804    3.1689    1.7340 C   0  0  0  0  0  0  0  0  0  0  0  0
   -0.8851    3.3218    2.2278 H   0  0  0  0  0  0  0  0  0  0  0  0
    0.8739    3.4472    2.4344 H   0  0  0  0  0  0  0  0  0  0  0  0
    0.1401    3.8297    0.8626 H   0  0  0  0  0  0  0  0  0  0  0  0
  1  2  1  0  0  0  0
  2  3  1  0  0  0  0
  2  4  1  0  0  0  0
  2  5  1  0  0  0  0
  5  6  2  0  0  0  0
  5  7  1  0  0  0  0
  7  8  1  0  0  0  0
  7  9  1  0  0  0  0
  9 10  1  0  0  0  0
  9 11  1  0  0  0  0
  9 22  1  0  0  0  0
 11 12  1  0  0  0  0
 11 13  1  0  0  0  0
 11 14  1  0  0  0  0
 14 15  1  0  0  0  0
 14 20  2  0  0  0  0
 15 16  1  0  0  0  0
 15 17  1  0  0  0  0
 17 18  1  0  0  0  0
 17 19  2  0  0  0  0
 19 20  1  0  0  0  0
 20 21  1  0  0  0  0
 22 23  2  0  0  0  0
 22 24  1  0  0  0  0
 24 25  1  0  0  0  0
 24 26  1  0  0  0  0
 26 27  1  0  0  0  0
 26 28  1  0  0  0  0
 26 29  1  0  0  0  0
M  END
$$$$

  -OEChem-04042215593D

 29 29  0     1  0  0  0  0  0999 V2000
   -3.4465   -3.7069    1.4166 H   0  0  0  0  0  0  0  0  0  0  0  0
   -3.4456   -2.7455    0.8955 C   0  0  0  0  0  0  0  0  0  0  0  0
   -4.0464   -2.0344    1.4678 H   0  0  0  0  0  0  0  0  0  0  0  0
   -3.8935   -2.8788   -0.0922 H   0  0  0  0  0  0  0  0  0  0  0  0
   -2.0267   -2.2285    0.7544 C   0  0  0  0  0  0  0  0  0  0  0  0
   -1.0884   -2.8962    1.1608 O   0  0  0  0  0  0  0  0  0  0  0  0
   -1.7977   -1.0059    0.1592 N   0  0  0  0  0  0  0  0  0  0  0  0
   -2.6138   -0.4373   -0.0652 H   0  0  0  0  0  0  0  0  0  0  0  0
   -0.4971   -0.3186    0.1409 C   0  0  1  0  0  0  0  0  0  0  0  0
    0.0918   -0.7171    0.9737 H   0  0  0  0  0  0  0  0  0  0  0  0
    0.2935   -0.6804   -1.1434 C   0  0  0  0  0  0  0  0  0  0  0  0
    1.2149   -1.1728   -0.8170 H   0  0  0  0  0  0  0  0  0  0  0  0
   -0.2695   -1.4271   -1.7129 H   0  0  0  0  0  0  0  0  0  0  0  0
    0.6899    0.4231   -2.1038 C   0  0  0  0  0  0  0  0  0  0  0  0
    1.8196    0.3829   -2.8942 N   0  0  0  0  0  0  0  0  0  0  0  0
    2.5243   -0.3514   -2.8975 H   0  0  0  0  0  0  0  0  0  0  0  0
    1.8416    1.5016   -3.7038 C   0  0  0  0  0  0  0  0  0  0  0  0
    2.6217    1.7409   -4.4208 H   0  0  0  0  0  0  0  0  0  0  0  0
    0.7797    2.2337   -3.4825 N   0  0  0  0  0  0  0  0  0  0  0  0
    0.0420    1.5679   -2.5083 C   0  0  0  0  0  0  0  0  0  0  0  0
   -0.9274    1.9031   -2.1563 H   0  0  0  0  0  0  0  0  0  0  0  0
   -0.6557    1.1775    0.4810 C   0  0  0  0  0  0  0  0  0  0  0  0
   -1.6881    1.7621    0.1692 O   0  0  0  0  0  0  0  0  0  0  0  0
    0.2120    1.7891    1.3678 N   0  0  0  0  0  0  0  0  0  0  0  0
    1.0384    1.2713    1.6520 H   0  0  0  0  0  0  0  0  0  0  0  0
    0.0512    3.1640    1.8256 C   0  0  0  0  0  0  0  0  0  0  0  0
   -0.9011    3.2840    2.3526 H   0  0  0  0  0  0  0  0  0  0  0  0
    0.8607    3.4317    2.5114 H   0  0  0  0  0  0  0  0  0  0  0  0
    0.0740    3.8551    0.9764 H   0  0  0  0  0  0  0  0  0  0  0  0
  1  2  1  0  0  0  0
  2  3  1  0  0  0  0
  2  4  1  0  0  0  0
  2  5  1  0  0  0  0
  5  6  2  0  0  0  0
  5  7  1  0  0  0  0
  7  8  1  0  0  0  0
  7  9  1  0  0  0  0
  9 10  1  0  0  0  0
  9 11  1  0  0  0  0
  9 22  1  0  0  0  0
 11 12  1  0  0  0  0
 11 13  1  0  0  0  0
 11 14  1  0  0  0  0
 14 15  1  0  0  0  0
 14 20  2  0  0  0  0
 15 16  1  0  0  0  0
 15 17  1  0  0  0  0
 17 18  1  0  0  0  0
 17 19  2  0  0  0  0
 19 20  1  0  0  0  0
 20 21  1  0  0  0  0
 22 23  2  0  0  0  0
 22 24  1  0  0  0  0
 24 25  1  0  0  0  0
 24 26  1  0  0  0  0
 26 27  1  0  0  0  0
 26 28  1  0  0  0  0
 26 29  1  0  0  0  0
M  END
$$$$

  -OEChem-04042215593D

 29 29  0     1  0  0  0  0  0999 V2000
   -3.4415   -3.7019    1.4007 H   0  0  0  0  0  0  0  0  0  0  0  0
   -3.4426   -2.7372    0.8858 C   0  0  0  0  0  0  0  0  0  0  0  0
   -4.0439   -2.0307    1.4629 H   0  0  0  0  0  0  0  0  0  0  0  0
   -3.8913   -2.8648   -0.1023 H   0  0  0  0  0  0  0  0  0  0  0  0
   -2.0246   -2.2171    0.7468 C   0  0  0  0  0  0  0  0  0  0  0  0
   -1.0834   -2.8902    1.1372 O   0  0  0  0  0  0  0  0  0  0  0  0
   -1.7995   -0.9852    0.1702 N   0  0  0  0  0  0  0  0  0  0  0  0
   -2.6169   -0.4129   -0.0403 H   0  0  0  0  0  0  0  0  0  0  0  0
   -0.4992   -0.2970    0.1527 C   0  0  1  0  0  0  0  0  0  0  0  0
    0.1010   -0.7059    0.9723 H   0  0  0  0  0  0  0  0  0  0  0  0
    0.2719   -0.6418   -1.1504 C   0  0  0  0  0  0  0  0  0  0  0  0
    1.1919   -1.1463   -0.8381 H   0  0  0  0  0  0  0  0  0  0  0  0
   -0.3074   -1.3812   -1.7133 H   0  0  0  0  0  0  0  0  0  0  0  0
    0.6811    0.4425   -2.1323 C   0  0  0  0  0  0  0  0  0  0  0  0
    1.6143    0.2120   -3.1224 N   0  0  0  0  0  0  0  0  0  0  0  0
    2.1117   -0.6612   -3.2841 H   0  0  0  0  0  0  0  0  0  0  0  0
    1.7640    1.3551   -3.8815 C   0  0  0  0  0  0  0  0  0  0  0  0
    2.4391    1.4634   -4.7257 H   0  0  0  0  0  0  0  0  0  0  0  0
    0.9701    2.2932   -3.4337 N   0  0  0  0  0  0  0  0  0  0  0  0
    0.2784    1.7404   -2.3604 C   0  0  0  0  0  0  0  0  0  0  0  0
   -0.4828    2.2822   -1.8133 H   0  0  0  0  0  0  0  0  0  0  0  0
   -0.6756    1.1890    0.5202 C   0  0  0  0  0  0  0  0  0  0  0  0
   -1.7134    1.7672    0.2137 O   0  0  0  0  0  0  0  0  0  0  0  0
    0.1868    1.7985    1.4134 N   0  0  0  0  0  0  0  0  0  0  0  0
    1.0141    1.2820    1.6983 H   0  0  0  0  0  0  0  0  0  0  0  0
    0.0077    3.1629    1.8956 C   0  0  0  0  0  0  0  0  0  0  0  0
   -0.9514    3.2641    2.4145 H   0  0  0  0  0  0  0  0  0  0  0  0
    0.8071    3.4249    2.5953 H   0  0  0  0  0  0  0  0  0  0  0  0
    0.0331    3.8706    1.0602 H   0  0  0  0  0  0  0  0  0  0  0  0
  1  2  1  0  0  0  0
  2  3  1  0  0  0  0
  2  4  1  0  0  0  0
  2  5  1  0  0  0  0
  5  6  2  0  0  0  0
  5  7  1  0  0  0  0
  7  8  1  0  0  0  0
  7  9  1  0  0  0  0
  9 10  1  0  0  0  0
  9 11  1  0  0  0  0
  9 22  1  0  0  0  0
 11 12  1  0  0  0  0
 11 13  1  0  0  0  0
 11 14  1  0  0  0  0
 14 15  1  0  0  0  0
 14 20  2  0  0  0  0
 15 16  1  0  0  0  0
 15 17  1  0  0  0  0
 17 18  1  0  0  0  0
 17 19  2  0  0  0  0
 19 20  1  0  0  0  0
 20 21  1  0  0  0  0
 22 23  2  0  0  0  0
 22 24  1  0  0  0  0
 24 25  1  0  0  0  0
 24 26  1  0  0  0  0
 26 27  1  0  0  0  0
 26 28  1  0  0  0  0
 26 29  1  0  0  0  0
M  END
$$$$

  -OEChem-04042215593D

 29 29  0     1  0  0  0  0  0999 V2000
   -3.4435   -3.6976    1.3638 H   0  0  0  0  0  0  0  0  0  0  0  0
   -3.4190   -2.7422    0.8323 C   0  0  0  0  0  0  0  0  0  0  0  0
   -4.0469   -2.0256    1.3672 H   0  0  0  0  0  0  0  0  0  0  0  0
   -3.8195   -2.8877   -0.1737 H   0  0  0  0  0  0  0  0  0  0  0  0
   -1.9951   -2.2254    0.7526 C   0  0  0  0  0  0  0  0  0  0  0  0
   -1.0752   -2.8920    1.1995 O   0  0  0  0  0  0  0  0  0  0  0  0
   -1.7390   -1.0014    0.1721 N   0  0  0  0  0  0  0  0  0  0  0  0
   -2.5409   -0.4312   -0.0961 H   0  0  0  0  0  0  0  0  0  0  0  0
   -0.4312   -0.3264    0.1989 C   0  0  1  0  0  0  0  0  0  0  0  0
    0.1843   -0.7313    1.0092 H   0  0  0  0  0  0  0  0  0  0  0  0
    0.2994   -0.6265   -1.1406 C   0  0  0  0  0  0  0  0  0  0  0  0
    1.0244   -1.4211   -0.9367 H   0  0  0  0  0  0  0  0  0  0  0  0
   -0.4364   -1.0476   -1.8340 H   0  0  0  0  0  0  0  0  0  0  0  0
    1.0166    0.4618   -1.9251 C   0  0  0  0  0  0  0  0  0  0  0  0
    1.6608    0.1807   -3.1127 N   0  0  0  0  0  0  0  0  0  0  0  0
    1.7069   -0.7290   -3.5668 H   0  0  0  0  0  0  0  0  0  0  0  0
    2.2389    1.3341   -3.6030 C   0  0  0  0  0  0  0  0  0  0  0  0
    2.8101    1.4060   -4.5240 H   0  0  0  0  0  0  0  0  0  0  0  0
    2.0008    2.3311   -2.7906 N   0  0  0  0  0  0  0  0  0  0  0  0
    1.2388    1.8109   -1.7501 C   0  0  0  0  0  0  0  0  0  0  0  0
    0.8945    2.4189   -0.9234 H   0  0  0  0  0  0  0  0  0  0  0  0
   -0.6775    1.1529    0.5495 C   0  0  0  0  0  0  0  0  0  0  0  0
   -1.6432    1.7429    0.0764 O   0  0  0  0  0  0  0  0  0  0  0  0
    0.1169    1.7938    1.4836 N   0  0  0  0  0  0  0  0  0  0  0  0
    0.8908    1.2710    1.8846 H   0  0  0  0  0  0  0  0  0  0  0  0
   -0.0930    3.1748    1.9020 C   0  0  0  0  0  0  0  0  0  0  0  0
   -1.0893    3.2961    2.3404 H   0  0  0  0  0  0  0  0  0  0  0  0
    0.6511    3.4600    2.6519 H   0  0  0  0  0  0  0  0  0  0  0  0
    0.0009    3.8528    1.0472 H   0  0  0  0  0  0  0  0  0  0  0  0
  1  2  1  0  0  0  0
  2  3  1  0  0  0  0
  2  4  1  0  0  0  0
  2  5  1  0  0  0  0
  5  6  2  0  0  0  0
  5  7  1  0  0  0  0
  7  8  1  0  0  0  0
  7  9  1  0  0  0  0
  9 10  1  0  0  0  0
  9 11  1  0  0  0  0
  9 22  1  0  0  0  0
 11 12  1  0  0  0  0
 11 13  1  0  0  0  0
 11 14  1  0  0  0  0
 14 15  1  0  0  0  0
 14 20  2  0  0  0  0
 15 16  1  0  0  0  0
 15 17  1  0  0  0  0
 17 18  1  0  0  0  0
 17 19  2  0  0  0  0
 19 20  1  0  0  0  0
 20 21  1  0  0  0  0
 22 23  2  0  0  0  0
 22 24  1  0  0  0  0
 24 25  1  0  0  0  0
 24 26  1  0  0  0  0
 26 27  1  0  0  0  0
 26 28  1  0  0  0  0
 26 29  1  0  0  0  0
M  END
$$$$

  -OEChem-04042215593D

 29 29  0     1  0  0  0  0  0999 V2000
   -3.4823   -3.6680    1.3742 H   0  0  0  0  0  0  0  0  0  0  0  0
   -3.4380   -2.7248    0.8226 C   0  0  0  0  0  0  0  0  0  0  0  0
   -4.0731   -1.9924    1.3267 H   0  0  0  0  0  0  0  0  0  0  0  0
   -3.8157   -2.8893   -0.1893 H   0  0  0  0  0  0  0  0  0  0  0  0
   -2.0088   -2.2198    0.7649 C   0  0  0  0  0  0  0  0  0  0  0  0
   -1.1023   -2.8888    1.2349 O   0  0  0  0  0  0  0  0  0  0  0  0
   -1.7326   -1.0054    0.1742 N   0  0  0  0  0  0  0  0  0  0  0  0
   -2.5252   -0.4297   -0.1100 H   0  0  0  0  0  0  0  0  0  0  0  0
   -0.4179   -0.3436    0.2096 C   0  0  1  0  0  0  0  0  0  0  0  0
    0.1957   -0.7481    1.0210 H   0  0  0  0  0  0  0  0  0  0  0  0
    0.2998   -0.6467   -1.1363 C   0  0  0  0  0  0  0  0  0  0  0  0
    1.0113   -1.4590   -0.9558 H   0  0  0  0  0  0  0  0  0  0  0  0
   -0.4516   -1.0405   -1.8289 H   0  0  0  0  0  0  0  0  0  0  0  0
    1.0218    0.4484   -1.9038 C   0  0  0  0  0  0  0  0  0  0  0  0
    1.4010    0.2977   -3.2218 N   0  0  0  0  0  0  0  0  0  0  0  0
    1.2152   -0.5125   -3.8089 H   0  0  0  0  0  0  0  0  0  0  0  0
    2.0711    1.4320   -3.6346 C   0  0  0  0  0  0  0  0  0  0  0  0
    2.4754    1.5933   -4.6297 H   0  0  0  0  0  0  0  0  0  0  0  0
    2.1534    2.2858   -2.6466 N   0  0  0  0  0  0  0  0  0  0  0  0
    1.5105    1.6906   -1.5673 C   0  0  0  0  0  0  0  0  0  0  0  0
    1.4485    2.1577   -0.5930 H   0  0  0  0  0  0  0  0  0  0  0  0
   -0.6680    1.1414    0.5418 C   0  0  0  0  0  0  0  0  0  0  0  0
   -1.6228    1.7295    0.0446 O   0  0  0  0  0  0  0  0  0  0  0  0
    0.1127    1.7916    1.4815 N   0  0  0  0  0  0  0  0  0  0  0  0
    0.8755    1.2706    1.9054 H   0  0  0  0  0  0  0  0  0  0  0  0
   -0.0904    3.1830    1.8666 C   0  0  0  0  0  0  0  0  0  0  0  0
   -1.0904    3.3215    2.2906 H   0  0  0  0  0  0  0  0  0  0  0  0
    0.6476    3.4791    2.6182 H   0  0  0  0  0  0  0  0  0  0  0  0
    0.0187    3.8404    0.9974 H   0  0  0  0  0  0  0  0  0  0  0  0
  1  2  1  0  0  0  0
  2  3  1  0  0  0  0
  2  4  1  0  0  0  0
  2  5  1  0  0  0  0
  5  6  2  0  0  0  0
  5  7  1  0  0  0  0
  7  8  1  0  0  0  0
  7  9  1  0  0  0  0
  9 10  1  0  0  0  0
  9 11  1  0  0  0  0
  9 22  1  0  0  0  0
 11 12  1  0  0  0  0
 11 13  1  0  0  0  0
 11 14  1  0  0  0  0
 14 15  1  0  0  0  0
 14 20  2  0  0  0  0
 15 16  1  0  0  0  0
 15 17  1  0  0  0  0
 17 18  1  0  0  0  0
 17 19  2  0  0  0  0
 19 20  1  0  0  0  0
 20 21  1  0  0  0  0
 22 23  2  0  0  0  0
 22 24  1  0  0  0  0
 24 25  1  0  0  0  0
 24 26  1  0  0  0  0
 26 27  1  0  0  0  0
 26 28  1  0  0  0  0
 26 29  1  0  0  0  0
M  END
$$$$

  -OEChem-04042215593D

 29 29  0     1  0  0  0  0  0999 V2000
   -3.5158   -3.6486    1.4281 H   0  0  0  0  0  0  0  0  0  0  0  0
   -3.4621   -2.7135    0.8639 C   0  0  0  0  0  0  0  0  0  0  0  0
   -4.0848   -1.9659    1.3612 H   0  0  0  0  0  0  0  0  0  0  0  0
   -3.8466   -2.8870   -0.1440 H   0  0  0  0  0  0  0  0  0  0  0  0
   -2.0268   -2.2279    0.7932 C   0  0  0  0  0  0  0  0  0  0  0  0
   -1.1291   -2.8959    1.2809 O   0  0  0  0  0  0  0  0  0  0  0  0
   -1.7359   -1.0308    0.1746 N   0  0  0  0  0  0  0  0  0  0  0  0
   -2.5217   -0.4507   -0.1196 H   0  0  0  0  0  0  0  0  0  0  0  0
   -0.4145   -0.3827    0.2002 C   0  0  1  0  0  0  0  0  0  0  0  0
    0.1999   -0.7776    1.0157 H   0  0  0  0  0  0  0  0  0  0  0  0
    0.2939   -0.6887   -1.1483 C   0  0  0  0  0  0  0  0  0  0  0  0
    1.0059   -1.5038   -0.9840 H   0  0  0  0  0  0  0  0  0  0  0  0
   -0.4602   -1.0690   -1.8454 H   0  0  0  0  0  0  0  0  0  0  0  0
    1.0078    0.4348   -1.8747 C   0  0  0  0  0  0  0  0  0  0  0  0
    1.1515    0.5145   -3.2438 N   0  0  0  0  0  0  0  0  0  0  0  0
    0.7441   -0.1193   -3.9278 H   0  0  0  0  0  0  0  0  0  0  0  0
    1.9237    1.6184   -3.5502 C   0  0  0  0  0  0  0  0  0  0  0  0
    2.1858    1.9394   -4.5543 H   0  0  0  0  0  0  0  0  0  0  0  0
    2.3010    2.2213   -2.4506 N   0  0  0  0  0  0  0  0  0  0  0  0
    1.7505    1.4912   -1.4041 C   0  0  0  0  0  0  0  0  0  0  0  0
    1.9276    1.7156   -0.3584 H   0  0  0  0  0  0  0  0  0  0  0  0
   -0.6595    1.1130    0.4967 C   0  0  0  0  0  0  0  0  0  0  0  0
   -1.6122    1.6910   -0.0172 O   0  0  0  0  0  0  0  0  0  0  0  0
    0.1174    1.7845    1.4243 N   0  0  0  0  0  0  0  0  0  0  0  0
    0.8792    1.2739    1.8623 H   0  0  0  0  0  0  0  0  0  0  0  0
   -0.0643    3.1942    1.7490 C   0  0  0  0  0  0  0  0  0  0  0  0
   -1.0768    3.3747    2.1251 H   0  0  0  0  0  0  0  0  0  0  0  0
    0.6492    3.4997    2.5203 H   0  0  0  0  0  0  0  0  0  0  0  0
    0.0983    3.8147    0.8612 H   0  0  0  0  0  0  0  0  0  0  0  0
  1  2  1  0  0  0  0
  2  3  1  0  0  0  0
  2  4  1  0  0  0  0
  2  5  1  0  0  0  0
  5  6  2  0  0  0  0
  5  7  1  0  0  0  0
  7  8  1  0  0  0  0
  7  9  1  0  0  0  0
  9 10  1  0  0  0  0
  9 11  1  0  0  0  0
  9 22  1  0  0  0  0
 11 12  1  0  0  0  0
 11 13  1  0  0  0  0
 11 14  1  0  0  0  0
 14 15  1  0  0  0  0
 14 20  2  0  0  0  0
 15 16  1  0  0  0  0
 15 17  1  0  0  0  0
 17 18  1  0  0  0  0
 17 19  2  0  0  0  0
 19 20  1  0  0  0  0
 20 21  1  0  0  0  0
 22 23  2  0  0  0  0
 22 24  1  0  0  0  0
 24 25  1  0  0  0  0
 24 26  1  0  0  0  0
 26 27  1  0  0  0  0
 26 28  1  0  0  0  0
 26 29  1  0  0  0  0
M  END
$$$$

  -OEChem-04042215593D

 29 29  0     1  0  0  0  0  0999 V2000
   -3.5330   -3.6404    1.4749 H   0  0  0  0  0  0  0  0  0  0  0  0
   -3.4769   -2.7149    0.8951 C   0  0  0  0  0  0  0  0  0  0  0  0
   -4.0935   -1.9564    1.3835 H   0  0  0  0  0  0  0  0  0  0  0  0
   -3.8675   -2.9024   -0.1079 H   0  0  0  0  0  0  0  0  0  0  0  0
   -2.0394   -2.2383    0.8094 C   0  0  0  0  0  0  0  0  0  0  0  0
   -1.1436   -2.9030    1.3051 O   0  0  0  0  0  0  0  0  0  0  0  0
   -1.7442   -1.0542    0.1687 N   0  0  0  0  0  0  0  0  0  0  0  0
   -2.5281   -0.4722   -0.1263 H   0  0  0  0  0  0  0  0  0  0  0  0
   -0.4208   -0.4115    0.1853 C   0  0  1  0  0  0  0  0  0  0  0  0
    0.1896   -0.7975    1.0083 H   0  0  0  0  0  0  0  0  0  0  0  0
    0.2960   -0.7282   -1.1530 C   0  0  0  0  0  0  0  0  0  0  0  0
    1.0199   -1.5307   -0.9783 H   0  0  0  0  0  0  0  0  0  0  0  0
   -0.4422   -1.1201   -1.8603 H   0  0  0  0  0  0  0  0  0  0  0  0
    0.9974    0.4235   -1.8393 C   0  0  0  0  0  0  0  0  0  0  0  0
    0.9378    0.7332   -3.1801 N   0  0  0  0  0  0  0  0  0  0  0  0
    0.3521    0.2784   -3.8771 H   0  0  0  0  0  0  0  0  0  0  0  0
    1.7737    1.8070   -3.4233 C   0  0  0  0  0  0  0  0  0  0  0  0
    1.9122    2.2848   -4.3891 H   0  0  0  0  0  0  0  0  0  0  0  0
    2.3804    2.1660   -2.3182 N   0  0  0  0  0  0  0  0  0  0  0  0
    1.9166    1.3067   -1.3298 C   0  0  0  0  0  0  0  0  0  0  0  0
    2.2549    1.3230   -0.2987 H   0  0  0  0  0  0  0  0  0  0  0  0
   -0.6476    1.0937    0.4529 C   0  0  0  0  0  0  0  0  0  0  0  0
   -1.5987    1.6698   -0.0670 O   0  0  0  0  0  0  0  0  0  0  0  0
    0.1370    1.7740    1.3671 N   0  0  0  0  0  0  0  0  0  0  0  0
    0.9042    1.2686    1.8011 H   0  0  0  0  0  0  0  0  0  0  0  0
   -0.0144    3.1971    1.6449 C   0  0  0  0  0  0  0  0  0  0  0  0
   -1.0266    3.4134    2.0029 H   0  0  0  0  0  0  0  0  0  0  0  0
    0.6973    3.5103    2.4148 H   0  0  0  0  0  0  0  0  0  0  0  0
    0.1733    3.7844    0.7397 H   0  0  0  0  0  0  0  0  0  0  0  0
  1  2  1  0  0  0  0
  2  3  1  0  0  0  0
  2  4  1  0  0  0  0
  2  5  1  0  0  0  0
  5  6  2  0  0  0  0
  5  7  1  0  0  0  0
  7  8  1  0  0  0  0
  7  9  1  0  0  0  0
  9 10  1  0  0  0  0
  9 11  1  0  0  0  0
  9 22  1  0  0  0  0
 11 12  1  0  0  0  0
 11 13  1  0  0  0  0
 11 14  1  0  0  0  0
 14 15  1  0  0  0  0
 14 20  2  0  0  0  0
 15 16  1  0  0  0  0
 15 17  1  0  0  0  0
 17 18  1  0  0  0  0
 17 19  2  0  0  0  0
 19 20  1  0  0  0  0
 20 21  1  0  0  0  0
 22 23  2  0  0  0  0
 22 24  1  0  0  0  0
 24 25  1  0  0  0  0
 24 26  1  0  0  0  0
 26 27  1  0  0  0  0
 26 28  1  0  0  0  0
 26 29  1  0  0  0  0
M  END
$$$$

  -OEChem-04042215593D

 29 29  0     1  0  0  0  0  0999 V2000
   -3.5429   -3.6417    1.4967 H   0  0  0  0  0  0  0  0  0  0  0  0
   -3.4850   -2.7215    0.9087 C   0  0  0  0  0  0  0  0  0  0  0  0
   -4.1011   -1.9574    1.3887 H   0  0  0  0  0  0  0  0  0  0  0  0
   -3.8743   -2.9180   -0.0931 H   0  0  0  0  0  0  0  0  0  0  0  0
   -2.0467   -2.2477    0.8212 C   0  0  0  0  0  0  0  0  0  0  0  0
   -1.1534   -2.9066    1.3288 O   0  0  0  0  0  0  0  0  0  0  0  0
   -1.7490   -1.0722    0.1655 N   0  0  0  0  0  0  0  0  0  0  0  0
   -2.5319   -0.4935   -0.1377 H   0  0  0  0  0  0  0  0  0  0  0  0
   -0.4249   -0.4311    0.1766 C   0  0  1  0  0  0  0  0  0  0  0  0
    0.1815   -0.8097    1.0056 H   0  0  0  0  0  0  0  0  0  0  0  0
    0.3020   -0.7539   -1.1527 C   0  0  0  0  0  0  0  0  0  0  0  0
    1.0384   -1.5418   -0.9640 H   0  0  0  0  0  0  0  0  0  0  0  0
   -0.4174   -1.1603   -1.8709 H   0  0  0  0  0  0  0  0  0  0  0  0
    0.9913    0.4202   -1.8070 C   0  0  0  0  0  0  0  0  0  0  0  0
    0.7445    0.9433   -3.0564 N   0  0  0  0  0  0  0  0  0  0  0  0
   -0.0018    0.6640   -3.6896 H   0  0  0  0  0  0  0  0  0  0  0  0
    1.6363    1.9750   -3.2825 C   0  0  0  0  0  0  0  0  0  0  0  0
    1.6641    2.5913   -4.1766 H   0  0  0  0  0  0  0  0  0  0  0  0
    2.4481    2.1037   -2.2604 N   0  0  0  0  0  0  0  0  0  0  0  0
    2.0661    1.1339   -1.3416 C   0  0  0  0  0  0  0  0  0  0  0  0
    2.5567    0.9627   -0.3882 H   0  0  0  0  0  0  0  0  0  0  0  0
   -0.6381    1.0799    0.4236 C   0  0  0  0  0  0  0  0  0  0  0  0
   -1.5855    1.6559   -0.1042 O   0  0  0  0  0  0  0  0  0  0  0  0
    0.1528    1.7646    1.3289 N   0  0  0  0  0  0  0  0  0  0  0  0
    0.9279    1.2630    1.7527 H   0  0  0  0  0  0  0  0  0  0  0  0
    0.0279    3.1963    1.5711 C   0  0  0  0  0  0  0  0  0  0  0  0
   -0.9819    3.4417    1.9166 H   0  0  0  0  0  0  0  0  0  0  0  0
    0.7407    3.5132    2.3383 H   0  0  0  0  0  0  0  0  0  0  0  0
    0.2336    3.7576    0.6534 H   0  0  0  0  0  0  0  0  0  0  0  0
  1  2  1  0  0  0  0
  2  3  1  0  0  0  0
  2  4  1  0  0  0  0
  2  5  1  0  0  0  0
  5  6  2  0  0  0  0
  5  7  1  0  0  0  0
  7  8  1  0  0  0  0
  7  9  1  0  0  0  0
  9 10  1  0  0  0  0
  9 11  1  0  0  0  0
  9 22  1  0  0  0  0
 11 12  1  0  0  0  0
 11 13  1  0  0  0  0
 11 14  1  0  0  0  0
 14 15  1  0  0  0  0
 14 20  2  0  0  0  0
 15 16  1  0  0  0  0
 15 17  1  0  0  0  0
 17 18  1  0  0  0  0
 17 19  2  0  0  0  0
 19 20  1  0  0  0  0
 20 21  1  0  0  0  0
 22 23  2  0  0  0  0
 22 24  1  0  0  0  0
 24 25  1  0  0  0  0
 24 26  1  0  0  0  0
 26 27  1  0  0  0  0
 26 28  1  0  0  0  0
 26 29  1  0  0  0  0
M  END
$$$$

  -OEChem-04042215593D

 29 29  0     1  0  0  0  0  0999 V2000
   -3.5528   -3.6406    1.4980 H   0  0  0  0  0  0  0  0  0  0  0  0
   -3.4901   -2.7225    0.9072 C   0  0  0  0  0  0  0  0  0  0  0  0
   -4.1058   -1.9552    1.3828 H   0  0  0  0  0  0  0  0  0  0  0  0
   -3.8766   -2.9210   -0.0952 H   0  0  0  0  0  0  0  0  0  0  0  0
   -2.0502   -2.2532    0.8228 C   0  0  0  0  0  0  0  0  0  0  0  0
   -1.1606   -2.9109    1.3387 O   0  0  0  0  0  0  0  0  0  0  0  0
   -1.7476   -1.0825    0.1609 N   0  0  0  0  0  0  0  0  0  0  0  0
   -2.5288   -0.5046   -0.1477 H   0  0  0  0  0  0  0  0  0  0  0  0
   -0.4230   -0.4427    0.1741 C   0  0  1  0  0  0  0  0  0  0  0  0
    0.1779   -0.8176    1.0090 H   0  0  0  0  0  0  0  0  0  0  0  0
    0.3136   -0.7678   -1.1478 C   0  0  0  0  0  0  0  0  0  0  0  0
    1.0549   -1.5482   -0.9473 H   0  0  0  0  0  0  0  0  0  0  0  0
   -0.3926   -1.1800   -1.8757 H   0  0  0  0  0  0  0  0  0  0  0  0
    0.9976    0.4195   -1.7799 C   0  0  0  0  0  0  0  0  0  0  0  0
    0.5881    1.1333   -2.8830 N   0  0  0  0  0  0  0  0  0  0  0  0
   -0.2957    1.0237   -3.3766 H   0  0  0  0  0  0  0  0  0  0  0  0
    1.5293    2.1117   -3.1421 C   0  0  0  0  0  0  0  0  0  0  0  0
    1.4608    2.8474   -3.9383 H   0  0  0  0  0  0  0  0  0  0  0  0
    2.5195    2.0256   -2.2855 N   0  0  0  0  0  0  0  0  0  0  0  0
    2.2078    0.9667   -1.4410 C   0  0  0  0  0  0  0  0  0  0  0  0
    2.8363    0.6227   -0.6252 H   0  0  0  0  0  0  0  0  0  0  0  0
   -0.6298    1.0714    0.4098 C   0  0  0  0  0  0  0  0  0  0  0  0
   -1.5721    1.6478   -0.1281 O   0  0  0  0  0  0  0  0  0  0  0  0
    0.1608    1.7582    1.3133 N   0  0  0  0  0  0  0  0  0  0  0  0
    0.9454    1.2603    1.7239 H   0  0  0  0  0  0  0  0  0  0  0  0
    0.0477    3.1938    1.5369 C   0  0  0  0  0  0  0  0  0  0  0  0
   -0.9626    3.4524    1.8707 H   0  0  0  0  0  0  0  0  0  0  0  0
    0.7569    3.5135    2.3062 H   0  0  0  0  0  0  0  0  0  0  0  0
    0.2662    3.7416    0.6141 H   0  0  0  0  0  0  0  0  0  0  0  0
  1  2  1  0  0  0  0
  2  3  1  0  0  0  0
  2  4  1  0  0  0  0
  2  5  1  0  0  0  0
  5  6  2  0  0  0  0
  5  7  1  0  0  0  0
  7  8  1  0  0  0  0
  7  9  1  0  0  0  0
  9 10  1  0  0  0  0
  9 11  1  0  0  0  0
  9 22  1  0  0  0  0
 11 12  1  0  0  0  0
 11 13  1  0  0  0  0
 11 14  1  0  0  0  0
 14 15  1  0  0  0  0
 14 20  2  0  0  0  0
 15 16  1  0  0  0  0
 15 17  1  0  0  0  0
 17 18  1  0  0  0  0
 17 19  2  0  0  0  0
 19 20  1  0  0  0  0
 20 21  1  0  0  0  0
 22 23  2  0  0  0  0
 22 24  1  0  0  0  0
 24 25  1  0  0  0  0
 24 26  1  0  0  0  0
 26 27  1  0  0  0  0
 26 28  1  0  0  0  0
 26 29  1  0  0  0  0
M  END
$$$$

  -OEChem-04042215593D

 29 29  0     1  0  0  0  0  0999 V2000
   -3.5585   -3.6442    1.4807 H   0  0  0  0  0  0  0  0  0  0  0  0
   -3.4923   -2.7248    0.8924 C   0  0  0  0  0  0  0  0  0  0  0  0
   -4.1131   -1.9596    1.3646 H   0  0  0  0  0  0  0  0  0  0  0  0
   -3.8705   -2.9222   -0.1135 H   0  0  0  0  0  0  0  0  0  0  0  0
   -2.0525   -2.2530    0.8207 C   0  0  0  0  0  0  0  0  0  0  0  0
   -1.1669   -2.9079    1.3469 O   0  0  0  0  0  0  0  0  0  0  0  0
   -1.7454   -1.0831    0.1591 N   0  0  0  0  0  0  0  0  0  0  0  0
   -2.5245   -0.5079   -0.1591 H   0  0  0  0  0  0  0  0  0  0  0  0
   -0.4205   -0.4439    0.1791 C   0  0  1  0  0  0  0  0  0  0  0  0
    0.1752   -0.8186    1.0178 H   0  0  0  0  0  0  0  0  0  0  0  0
    0.3248   -0.7725   -1.1369 C   0  0  0  0  0  0  0  0  0  0  0  0
    1.0641   -1.5527   -0.9283 H   0  0  0  0  0  0  0  0  0  0  0  0
   -0.3749   -1.1853   -1.8707 H   0  0  0  0  0  0  0  0  0  0  0  0
    1.0114    0.4160   -1.7632 C   0  0  0  0  0  0  0  0  0  0  0  0
    0.4832    1.2995   -2.6773 N   0  0  0  0  0  0  0  0  0  0  0  0
   -0.4922    1.3501   -2.9670 H   0  0  0  0  0  0  0  0  0  0  0  0
    1.4617    2.2154   -3.0128 C   0  0  0  0  0  0  0  0  0  0  0  0
    1.3265    3.0527   -3.6916 H   0  0  0  0  0  0  0  0  0  0  0  0
    2.5796    1.9314   -2.3873 N   0  0  0  0  0  0  0  0  0  0  0  0
    2.3171    0.8043   -1.6167 C   0  0  0  0  0  0  0  0  0  0  0  0
    3.0454    0.3054   -0.9843 H   0  0  0  0  0  0  0  0  0  0  0  0
   -0.6238    1.0713    0.4116 C   0  0  0  0  0  0  0  0  0  0  0  0
   -1.5553    1.6517   -0.1420 O   0  0  0  0  0  0  0  0  0  0  0  0
    0.1635    1.7577    1.3180 N   0  0  0  0  0  0  0  0  0  0  0  0
    0.9450    1.2575    1.7317 H   0  0  0  0  0  0  0  0  0  0  0  0
    0.0580    3.1947    1.5366 C   0  0  0  0  0  0  0  0  0  0  0  0
   -0.9528    3.4613    1.8626 H   0  0  0  0  0  0  0  0  0  0  0  0
    0.7638    3.5119    2.3101 H   0  0  0  0  0  0  0  0  0  0  0  0
    0.2867    3.7388    0.6142 H   0  0  0  0  0  0  0  0  0  0  0  0
  1  2  1  0  0  0  0
  2  3  1  0  0  0  0
  2  4  1  0  0  0  0
  2  5  1  0  0  0  0
  5  6  2  0  0  0  0
  5  7  1  0  0  0  0
  7  8  1  0  0  0  0
  7  9  1  0  0  0  0
  9 10  1  0  0  0  0
  9 11  1  0  0  0  0
  9 22  1  0  0  0  0
 11 12  1  0  0  0  0
 11 13  1  0  0  0  0
 11 14  1  0  0  0  0
 14 15  1  0  0  0  0
 14 20  2  0  0  0  0
 15 16  1  0  0  0  0
 15 17  1  0  0  0  0
 17 18  1  0  0  0  0
 17 19  2  0  0  0  0
 19 20  1  0  0  0  0
 20 21  1  0  0  0  0
 22 23  2  0  0  0  0
 22 24  1  0  0  0  0
 24 25  1  0  0  0  0
 24 26  1  0  0  0  0
 26 27  1  0  0  0  0
 26 28  1  0  0  0  0
 26 29  1  0  0  0  0
M  END
$$$$

  -OEChem-04042215593D

 29 29  0     1  0  0  0  0  0999 V2000
   -3.5567   -3.6503    1.4576 H   0  0  0  0  0  0  0  0  0  0  0  0
   -3.4897   -2.7280    0.8739 C   0  0  0  0  0  0  0  0  0  0  0  0
   -4.1205   -1.9686    1.3423 H   0  0  0  0  0  0  0  0  0  0  0  0
   -3.8552   -2.9232   -0.1371 H   0  0  0  0  0  0  0  0  0  0  0  0
   -2.0521   -2.2472    0.8202 C   0  0  0  0  0  0  0  0  0  0  0  0
   -1.1690   -2.8974    1.3559 O   0  0  0  0  0  0  0  0  0  0  0  0
   -1.7442   -1.0746    0.1635 N   0  0  0  0  0  0  0  0  0  0  0  0
   -2.5222   -0.5062   -0.1686 H   0  0  0  0  0  0  0  0  0  0  0  0
   -0.4196   -0.4343    0.1886 C   0  0  1  0  0  0  0  0  0  0  0  0
    0.1726   -0.8106    1.0291 H   0  0  0  0  0  0  0  0  0  0  0  0
    0.3312   -0.7695   -1.1238 C   0  0  0  0  0  0  0  0  0  0  0  0
    1.0627   -1.5565   -0.9118 H   0  0  0  0  0  0  0  0  0  0  0  0
   -0.3717   -1.1788   -1.8567 H   0  0  0  0  0  0  0  0  0  0  0  0
    1.0258    0.4075   -1.7651 C   0  0  0  0  0  0  0  0  0  0  0  0
    0.4443    1.4419   -2.4644 N   0  0  0  0  0  0  0  0  0  0  0  0
   -0.5560    1.6361   -2.5190 H   0  0  0  0  0  0  0  0  0  0  0  0
    1.4436    2.2896   -2.9005 C   0  0  0  0  0  0  0  0  0  0  0  0
    1.2831    3.2115   -3.4523 H   0  0  0  0  0  0  0  0  0  0  0  0
    2.6173    1.8245   -2.5425 N   0  0  0  0  0  0  0  0  0  0  0  0
    2.3723    0.6457   -1.8464 C   0  0  0  0  0  0  0  0  0  0  0  0
    3.1418    0.0072   -1.4228 H   0  0  0  0  0  0  0  0  0  0  0  0
   -0.6201    1.0797    0.4260 C   0  0  0  0  0  0  0  0  0  0  0  0
   -1.5388    1.6685   -0.1414 O   0  0  0  0  0  0  0  0  0  0  0  0
    0.1664    1.7622    1.3358 N   0  0  0  0  0  0  0  0  0  0  0  0
    0.9419    1.2570    1.7555 H   0  0  0  0  0  0  0  0  0  0  0  0
    0.0585    3.1973    1.5664 C   0  0  0  0  0  0  0  0  0  0  0  0
   -0.9543    3.4597    1.8896 H   0  0  0  0  0  0  0  0  0  0  0  0
    0.7600    3.5078    2.3467 H   0  0  0  0  0  0  0  0  0  0  0  0
    0.2917    3.7504    0.6505 H   0  0  0  0  0  0  0  0  0  0  0  0
  1  2  1  0  0  0  0
  2  3  1  0  0  0  0
  2  4  1  0  0  0  0
  2  5  1  0  0  0  0
  5  6  2  0  0  0  0
  5  7  1  0  0  0  0
  7  8  1  0  0  0  0
  7  9  1  0  0  0  0
  9 10  1  0  0  0  0
  9 11  1  0  0  0  0
  9 22  1  0  0  0  0
 11 12  1  0  0  0  0
 11 13  1  0  0  0  0
 11 14  1  0  0  0  0
 14 15  1  0  0  0  0
 14 20  2  0  0  0  0
 15 16  1  0  0  0  0
 15 17  1  0  0  0  0
 17 18  1  0  0  0  0
 17 19  2  0  0  0  0
 19 20  1  0  0  0  0
 20 21  1  0  0  0  0
 22 23  2  0  0  0  0
 22 24  1  0  0  0  0
 24 25  1  0  0  0  0
 24 26  1  0  0  0  0
 26 27  1  0  0  0  0
 26 28  1  0  0  0  0
 26 29  1  0  0  0  0
M  END
$$$$

  -OEChem-04042215593D

 29 29  0     1  0  0  0  0  0999 V2000
   -3.5416   -3.6698    1.4291 H   0  0  0  0  0  0  0  0  0  0  0  0
   -3.4802   -2.7419    0.8536 C   0  0  0  0  0  0  0  0  0  0  0  0
   -4.1264   -1.9948    1.3207 H   0  0  0  0  0  0  0  0  0  0  0  0
   -3.8314   -2.9339   -0.1631 H   0  0  0  0  0  0  0  0  0  0  0  0
   -2.0485   -2.2418    0.8205 C   0  0  0  0  0  0  0  0  0  0  0  0
   -1.1626   -2.8859    1.3588 O   0  0  0  0  0  0  0  0  0  0  0  0
   -1.7488   -1.0597    0.1771 N   0  0  0  0  0  0  0  0  0  0  0  0
   -2.5291   -0.5039   -0.1699 H   0  0  0  0  0  0  0  0  0  0  0  0
   -0.4281   -0.4115    0.2009 C   0  0  1  0  0  0  0  0  0  0  0  0
    0.1640   -0.7922    1.0398 H   0  0  0  0  0  0  0  0  0  0  0  0
    0.3272   -0.7550   -1.1093 C   0  0  0  0  0  0  0  0  0  0  0  0
    1.0526   -1.5462   -0.8931 H   0  0  0  0  0  0  0  0  0  0  0  0
   -0.3824   -1.1674   -1.8341 H   0  0  0  0  0  0  0  0  0  0  0  0
    1.0283    0.4002   -1.7878 C   0  0  0  0  0  0  0  0  0  0  0  0
    0.4732    1.5645   -2.2739 N   0  0  0  0  0  0  0  0  0  0  0  0
   -0.4934    1.8666   -2.1327 H   0  0  0  0  0  0  0  0  0  0  0  0
    1.4785    2.3377   -2.8194 C   0  0  0  0  0  0  0  0  0  0  0  0
    1.3418    3.3223   -3.2573 H   0  0  0  0  0  0  0  0  0  0  0  0
    2.6279    1.7131   -2.7220 N   0  0  0  0  0  0  0  0  0  0  0  0
    2.3607    0.5028   -2.0906 C   0  0  0  0  0  0  0  0  0  0  0  0
    3.1075   -0.2520   -1.8636 H   0  0  0  0  0  0  0  0  0  0  0  0
   -0.6239    1.0988    0.4570 C   0  0  0  0  0  0  0  0  0  0  0  0
   -1.5305    1.7025   -0.1145 O   0  0  0  0  0  0  0  0  0  0  0  0
    0.1702    1.7704    1.3683 N   0  0  0  0  0  0  0  0  0  0  0  0
    0.9354    1.2536    1.7933 H   0  0  0  0  0  0  0  0  0  0  0  0
    0.0622    3.2012    1.6243 C   0  0  0  0  0  0  0  0  0  0  0  0
   -0.9506    3.4573    1.9527 H   0  0  0  0  0  0  0  0  0  0  0  0
    0.7639    3.4985    2.4095 H   0  0  0  0  0  0  0  0  0  0  0  0
    0.2946    3.7702    0.7181 H   0  0  0  0  0  0  0  0  0  0  0  0
  1  2  1  0  0  0  0
  2  3  1  0  0  0  0
  2  4  1  0  0  0  0
  2  5  1  0  0  0  0
  5  6  2  0  0  0  0
  5  7  1  0  0  0  0
  7  8  1  0  0  0  0
  7  9  1  0  0  0  0
  9 10  1  0  0  0  0
  9 11  1  0  0  0  0
  9 22  1  0  0  0  0
 11 12  1  0  0  0  0
 11 13  1  0  0  0  0
 11 14  1  0  0  0  0
 14 15  1  0  0  0  0
 14 20  2  0  0  0  0
 15 16  1  0  0  0  0
 15 17  1  0  0  0  0
 17 18  1  0  0  0  0
 17 19  2  0  0  0  0
 19 20  1  0  0  0  0
 20 21  1  0  0  0  0
 22 23  2  0  0  0  0
 22 24  1  0  0  0  0
 24 25  1  0  0  0  0
 24 26  1  0  0  0  0
 26 27  1  0  0  0  0
 26 28  1  0  0  0  0
 26 29  1  0  0  0  0
M  END
$$$$

  -OEChem-04042215593D

 29 29  0     1  0  0  0  0  0999 V2000
   -3.5145   -3.6989    1.3988 H   0  0  0  0  0  0  0  0  0  0  0  0
   -3.4645   -2.7642    0.8333 C   0  0  0  0  0  0  0  0  0  0  0  0
   -4.1272   -2.0331    1.3026 H   0  0  0  0  0  0  0  0  0  0  0  0
   -3.8040   -2.9515   -0.1882 H   0  0  0  0  0  0  0  0  0  0  0  0
   -2.0414   -2.2393    0.8166 C   0  0  0  0  0  0  0  0  0  0  0  0
   -1.1477   -2.8769    1.3497 O   0  0  0  0  0  0  0  0  0  0  0  0
   -1.7578   -1.0435    0.1910 N   0  0  0  0  0  0  0  0  0  0  0  0
   -2.5436   -0.5015   -0.1650 H   0  0  0  0  0  0  0  0  0  0  0  0
   -0.4435   -0.3823    0.2133 C   0  0  1  0  0  0  0  0  0  0  0  0
    0.1498   -0.7685    1.0487 H   0  0  0  0  0  0  0  0  0  0  0  0
    0.3172   -0.7312   -1.0948 C   0  0  0  0  0  0  0  0  0  0  0  0
    1.0401   -1.5228   -0.8717 H   0  0  0  0  0  0  0  0  0  0  0  0
   -0.3973   -1.1525   -1.8097 H   0  0  0  0  0  0  0  0  0  0  0  0
    1.0214    0.4013   -1.8138 C   0  0  0  0  0  0  0  0  0  0  0  0
    0.5660    1.6715   -2.0996 N   0  0  0  0  0  0  0  0  0  0  0  0
   -0.3386    2.0582   -1.8155 H   0  0  0  0  0  0  0  0  0  0  0  0
    1.5617    2.3653   -2.7570 C   0  0  0  0  0  0  0  0  0  0  0  0
    1.4873    3.3944   -3.0965 H   0  0  0  0  0  0  0  0  0  0  0  0
    2.6158    1.5994   -2.9058 N   0  0  0  0  0  0  0  0  0  0  0  0
    2.2919    0.3760   -2.3281 C   0  0  0  0  0  0  0  0  0  0  0  0
    2.9588   -0.4799   -2.2854 H   0  0  0  0  0  0  0  0  0  0  0  0
   -0.6347    1.1225    0.4955 C   0  0  0  0  0  0  0  0  0  0  0  0
   -1.5273    1.7463   -0.0752 O   0  0  0  0  0  0  0  0  0  0  0  0
    0.1707    1.7779    1.4087 N   0  0  0  0  0  0  0  0  0  0  0  0
    0.9247    1.2459    1.8354 H   0  0  0  0  0  0  0  0  0  0  0  0
    0.0665    3.2033    1.6957 C   0  0  0  0  0  0  0  0  0  0  0  0
   -0.9453    3.4546    2.0311 H   0  0  0  0  0  0  0  0  0  0  0  0
    0.7697    3.4822    2.4864 H   0  0  0  0  0  0  0  0  0  0  0  0
    0.2991    3.7917    0.8020 H   0  0  0  0  0  0  0  0  0  0  0  0
  1  2  1  0  0  0  0
  2  3  1  0  0  0  0
  2  4  1  0  0  0  0
  2  5  1  0  0  0  0
  5  6  2  0  0  0  0
  5  7  1  0  0  0  0
  7  8  1  0  0  0  0
  7  9  1  0  0  0  0
  9 10  1  0  0  0  0
  9 11  1  0  0  0  0
  9 22  1  0  0  0  0
 11 12  1  0  0  0  0
 11 13  1  0  0  0  0
 11 14  1  0  0  0  0
 14 15  1  0  0  0  0
 14 20  2  0  0  0  0
 15 16  1  0  0  0  0
 15 17  1  0  0  0  0
 17 18  1  0  0  0  0
 17 19  2  0  0  0  0
 19 20  1  0  0  0  0
 20 21  1  0  0  0  0
 22 23  2  0  0  0  0
 22 24  1  0  0  0  0
 24 25  1  0  0  0  0
 24 26  1  0  0  0  0
 26 27  1  0  0  0  0
 26 28  1  0  0  0  0
 26 29  1  0  0  0  0
M  END
$$$$

  -OEChem-04042215593D

 29 29  0     1  0  0  0  0  0999 V2000
   -3.4919   -3.7261    1.3666 H   0  0  0  0  0  0  0  0  0  0  0  0
   -3.4509   -2.7868    0.8082 C   0  0  0  0  0  0  0  0  0  0  0  0
   -4.1301   -2.0699    1.2757 H   0  0  0  0  0  0  0  0  0  0  0  0
   -3.7771   -2.9724   -0.2180 H   0  0  0  0  0  0  0  0  0  0  0  0
   -2.0361   -2.2391    0.8108 C   0  0  0  0  0  0  0  0  0  0  0  0
   -1.1373   -2.8685    1.3451 O   0  0  0  0  0  0  0  0  0  0  0  0
   -1.7663   -1.0308    0.2031 N   0  0  0  0  0  0  0  0  0  0  0  0
   -2.5562   -0.5012   -0.1623 H   0  0  0  0  0  0  0  0  0  0  0  0
   -0.4586   -0.3562    0.2251 C   0  0  1  0  0  0  0  0  0  0  0  0
    0.1365   -0.7474    1.0568 H   0  0  0  0  0  0  0  0  0  0  0  0
    0.3082   -0.7045   -1.0817 C   0  0  0  0  0  0  0  0  0  0  0  0
    1.0330   -1.4927   -0.8522 H   0  0  0  0  0  0  0  0  0  0  0  0
   -0.4068   -1.1358   -1.7900 H   0  0  0  0  0  0  0  0  0  0  0  0
    1.0128    0.4104   -1.8317 C   0  0  0  0  0  0  0  0  0  0  0  0
    0.7129    1.7535   -1.9328 N   0  0  0  0  0  0  0  0  0  0  0  0
   -0.1119    2.2118   -1.5348 H   0  0  0  0  0  0  0  0  0  0  0  0
    1.6762    2.3729   -2.7027 C   0  0  0  0  0  0  0  0  0  0  0  0
    1.6887    3.4284   -2.9586 H   0  0  0  0  0  0  0  0  0  0  0  0
    2.5759    1.4976   -3.0804 N   0  0  0  0  0  0  0  0  0  0  0  0
    2.1763    0.2772   -2.5456 C   0  0  0  0  0  0  0  0  0  0  0  0
    2.7187   -0.6552   -2.6720 H   0  0  0  0  0  0  0  0  0  0  0  0
   -0.6471    1.1424    0.5315 C   0  0  0  0  0  0  0  0  0  0  0  0
   -1.5210    1.7872   -0.0422 O   0  0  0  0  0  0  0  0  0  0  0  0
    0.1695    1.7803    1.4473 N   0  0  0  0  0  0  0  0  0  0  0  0
    0.9058    1.2300    1.8819 H   0  0  0  0  0  0  0  0  0  0  0  0
    0.0748    3.2002    1.7636 C   0  0  0  0  0  0  0  0  0  0  0  0
   -0.9358    3.4531    2.1016 H   0  0  0  0  0  0  0  0  0  0  0  0
    0.7782    3.4565    2.5619 H   0  0  0  0  0  0  0  0  0  0  0  0
    0.3146    3.8053    0.8833 H   0  0  0  0  0  0  0  0  0  0  0  0
  1  2  1  0  0  0  0
  2  3  1  0  0  0  0
  2  4  1  0  0  0  0
  2  5  1  0  0  0  0
  5  6  2  0  0  0  0
  5  7  1  0  0  0  0
  7  8  1  0  0  0  0
  7  9  1  0  0  0  0
  9 10  1  0  0  0  0
  9 11  1  0  0  0  0
  9 22  1  0  0  0  0
 11 12  1  0  0  0  0
 11 13  1  0  0  0  0
 11 14  1  0  0  0  0
 14 15  1  0  0  0  0
 14 20  2  0  0  0  0
 15 16  1  0  0  0  0
 15 17  1  0  0  0  0
 17 18  1  0  0  0  0
 17 19  2  0  0  0  0
 19 20  1  0  0  0  0
 20 21  1  0  0  0  0
 22 23  2  0  0  0  0
 22 24  1  0  0  0  0
 24 25  1  0  0  0  0
 24 26  1  0  0  0  0
 26 27  1  0  0  0  0
 26 28  1  0  0  0  0
 26 29  1  0  0  0  0
M  END
$$$$

  -OEChem-04042215593D

 29 29  0     1  0  0  0  0  0999 V2000
   -3.4810   -3.7377    1.3305 H   0  0  0  0  0  0  0  0  0  0  0  0
   -3.4435   -2.7891    0.7875 C   0  0  0  0  0  0  0  0  0  0  0  0
   -4.1300   -2.0844    1.2627 H   0  0  0  0  0  0  0  0  0  0  0  0
   -3.7634   -2.9604   -0.2431 H   0  0  0  0  0  0  0  0  0  0  0  0
   -2.0325   -2.2321    0.8055 C   0  0  0  0  0  0  0  0  0  0  0  0
   -1.1342   -2.8584    1.3444 O   0  0  0  0  0  0  0  0  0  0  0  0
   -1.7646   -1.0184    0.2073 N   0  0  0  0  0  0  0  0  0  0  0  0
   -2.5521   -0.4959   -0.1733 H   0  0  0  0  0  0  0  0  0  0  0  0
   -0.4574   -0.3427    0.2328 C   0  0  1  0  0  0  0  0  0  0  0  0
    0.1388   -0.7394    1.0611 H   0  0  0  0  0  0  0  0  0  0  0  0
    0.3079   -0.6878   -1.0766 C   0  0  0  0  0  0  0  0  0  0  0  0
    1.0317   -1.4770   -0.8469 H   0  0  0  0  0  0  0  0  0  0  0  0
   -0.4095   -1.1205   -1.7817 H   0  0  0  0  0  0  0  0  0  0  0  0
    1.0186    0.4163   -1.8397 C   0  0  0  0  0  0  0  0  0  0  0  0
    0.9256    1.7918   -1.7663 N   0  0  0  0  0  0  0  0  0  0  0  0
    0.2203    2.3126   -1.2394 H   0  0  0  0  0  0  0  0  0  0  0  0
    1.8281    2.3523   -2.6475 C   0  0  0  0  0  0  0  0  0  0  0  0
    1.9570    3.4174   -2.8176 H   0  0  0  0  0  0  0  0  0  0  0  0
    2.5054    1.4089   -3.2539 N   0  0  0  0  0  0  0  0  0  0  0  0
    2.0143    0.2052   -2.7598 C   0  0  0  0  0  0  0  0  0  0  0  0
    2.3778   -0.7733   -3.0597 H   0  0  0  0  0  0  0  0  0  0  0  0
   -0.6453    1.1525    0.5515 C   0  0  0  0  0  0  0  0  0  0  0  0
   -1.5017    1.8111   -0.0297 O   0  0  0  0  0  0  0  0  0  0  0  0
    0.1724    1.7835    1.4716 N   0  0  0  0  0  0  0  0  0  0  0  0
    0.8790    1.2189    1.9366 H   0  0  0  0  0  0  0  0  0  0  0  0
    0.0550    3.1935    1.8246 C   0  0  0  0  0  0  0  0  0  0  0  0
   -0.9556    3.4168    2.1826 H   0  0  0  0  0  0  0  0  0  0  0  0
    0.7643    3.4440    2.6194 H   0  0  0  0  0  0  0  0  0  0  0  0
    0.2704    3.8257    0.9569 H   0  0  0  0  0  0  0  0  0  0  0  0
  1  2  1  0  0  0  0
  2  3  1  0  0  0  0
  2  4  1  0  0  0  0
  2  5  1  0  0  0  0
  5  6  2  0  0  0  0
  5  7  1  0  0  0  0
  7  8  1  0  0  0  0
  7  9  1  0  0  0  0
  9 10  1  0  0  0  0
  9 11  1  0  0  0  0
  9 22  1  0  0  0  0
 11 12  1  0  0  0  0
 11 13  1  0  0  0  0
 11 14  1  0  0  0  0
 14 15  1  0  0  0  0
 14 20  2  0  0  0  0
 15 16  1  0  0  0  0
 15 17  1  0  0  0  0
 17 18  1  0  0  0  0
 17 19  2  0  0  0  0
 19 20  1  0  0  0  0
 20 21  1  0  0  0  0
 22 23  2  0  0  0  0
 22 24  1  0  0  0  0
 24 25  1  0  0  0  0
 24 26  1  0  0  0  0
 26 27  1  0  0  0  0
 26 28  1  0  0  0  0
 26 29  1  0  0  0  0
M  END
$$$$

  -OEChem-04042215593D

 29 29  0     1  0  0  0  0  0999 V2000
   -3.5045   -3.7009    1.3140 H   0  0  0  0  0  0  0  0  0  0  0  0
   -3.4546   -2.7461    0.7829 C   0  0  0  0  0  0  0  0  0  0  0  0
   -4.1247   -2.0352    1.2724 H   0  0  0  0  0  0  0  0  0  0  0  0
   -3.7853   -2.8983   -0.2475 H   0  0  0  0  0  0  0  0  0  0  0  0
   -2.0343   -2.2138    0.7977 C   0  0  0  0  0  0  0  0  0  0  0  0
   -1.1474   -2.8488    1.3452 O   0  0  0  0  0  0  0  0  0  0  0  0
   -1.7466   -1.0083    0.1933 N   0  0  0  0  0  0  0  0  0  0  0  0
   -2.5261   -0.4729   -0.1866 H   0  0  0  0  0  0  0  0  0  0  0  0
   -0.4330   -0.3465    0.2261 C   0  0  1  0  0  0  0  0  0  0  0  0
    0.1558   -0.7429    1.0598 H   0  0  0  0  0  0  0  0  0  0  0  0
    0.3363   -0.6917   -1.0793 C   0  0  0  0  0  0  0  0  0  0  0  0
    1.0588   -1.4790   -0.8402 H   0  0  0  0  0  0  0  0  0  0  0  0
   -0.3745   -1.1282   -1.7892 H   0  0  0  0  0  0  0  0  0  0  0  0
    1.0643    0.4062   -1.8358 C   0  0  0  0  0  0  0  0  0  0  0  0
    1.2086    1.7611   -1.6076 N   0  0  0  0  0  0  0  0  0  0  0  0
    0.7048    2.3066   -0.9074 H   0  0  0  0  0  0  0  0  0  0  0  0
    2.0026    2.3012   -2.5997 C   0  0  0  0  0  0  0  0  0  0  0  0
    2.2640    3.3518   -2.6883 H   0  0  0  0  0  0  0  0  0  0  0  0
    2.3909    1.3613   -3.4251 N   0  0  0  0  0  0  0  0  0  0  0  0
    1.8157    0.1835   -2.9620 C   0  0  0  0  0  0  0  0  0  0  0  0
    1.9487   -0.7874   -3.4303 H   0  0  0  0  0  0  0  0  0  0  0  0
   -0.6264    1.1497    0.5323 C   0  0  0  0  0  0  0  0  0  0  0  0
   -1.4995    1.7966   -0.0343 O   0  0  0  0  0  0  0  0  0  0  0  0
    0.1814    1.7863    1.4577 N   0  0  0  0  0  0  0  0  0  0  0  0
    0.8523    1.2121    1.9628 H   0  0  0  0  0  0  0  0  0  0  0  0
   -0.0084    3.1714    1.8733 C   0  0  0  0  0  0  0  0  0  0  0  0
   -0.9964    3.3031    2.3270 H   0  0  0  0  0  0  0  0  0  0  0  0
    0.7505    3.4517    2.6103 H   0  0  0  0  0  0  0  0  0  0  0  0
    0.0781    3.8467    1.0158 H   0  0  0  0  0  0  0  0  0  0  0  0
  1  2  1  0  0  0  0
  2  3  1  0  0  0  0
  2  4  1  0  0  0  0
  2  5  1  0  0  0  0
  5  6  2  0  0  0  0
  5  7  1  0  0  0  0
  7  8  1  0  0  0  0
  7  9  1  0  0  0  0
  9 10  1  0  0  0  0
  9 11  1  0  0  0  0
  9 22  1  0  0  0  0
 11 12  1  0  0  0  0
 11 13  1  0  0  0  0
 11 14  1  0  0  0  0
 14 15  1  0  0  0  0
 14 20  2  0  0  0  0
 15 16  1  0  0  0  0
 15 17  1  0  0  0  0
 17 18  1  0  0  0  0
 17 19  2  0  0  0  0
 19 20  1  0  0  0  0
 20 21  1  0  0  0  0
 22 23  2  0  0  0  0
 22 24  1  0  0  0  0
 24 25  1  0  0  0  0
 24 26  1  0  0  0  0
 26 27  1  0  0  0  0
 26 28  1  0  0  0  0
 26 29  1  0  0  0  0
M  END
$$$$

  -OEChem-04042215593D

 29 29  0     1  0  0  0  0  0999 V2000
   -3.5457   -3.6399    1.3397 H   0  0  0  0  0  0  0  0  0  0  0  0
   -3.4731   -2.7007    0.7840 C   0  0  0  0  0  0  0  0  0  0  0  0
   -4.1354   -1.9654    1.2472 H   0  0  0  0  0  0  0  0  0  0  0  0
   -3.7954   -2.8744   -0.2455 H   0  0  0  0  0  0  0  0  0  0  0  0
   -2.0436   -2.1938    0.7999 C   0  0  0  0  0  0  0  0  0  0  0  0
   -1.1725   -2.8341    1.3666 O   0  0  0  0  0  0  0  0  0  0  0  0
   -1.7288   -1.0047    0.1769 N   0  0  0  0  0  0  0  0  0  0  0  0
   -2.4963   -0.4556   -0.2089 H   0  0  0  0  0  0  0  0  0  0  0  0
   -0.4051   -0.3642    0.2174 C   0  0  1  0  0  0  0  0  0  0  0  0
    0.1724   -0.7559    1.0613 H   0  0  0  0  0  0  0  0  0  0  0  0
    0.3659   -0.7213   -1.0824 C   0  0  0  0  0  0  0  0  0  0  0  0
    1.0845   -1.5078   -0.8300 H   0  0  0  0  0  0  0  0  0  0  0  0
   -0.3382   -1.1611   -1.7969 H   0  0  0  0  0  0  0  0  0  0  0  0
    1.1135    0.3727   -1.8238 C   0  0  0  0  0  0  0  0  0  0  0  0
    1.4975    1.6480   -1.4558 N   0  0  0  0  0  0  0  0  0  0  0  0
    1.2551    2.1226   -0.5869 H   0  0  0  0  0  0  0  0  0  0  0  0
    2.1503    2.2421   -2.5181 C   0  0  0  0  0  0  0  0  0  0  0  0
    2.5490    3.2526   -2.5203 H   0  0  0  0  0  0  0  0  0  0  0  0
    2.2169    1.4100   -3.5273 N   0  0  0  0  0  0  0  0  0  0  0  0
    1.5719    0.2509   -3.1114 C   0  0  0  0  0  0  0  0  0  0  0  0
    1.4480   -0.6345   -3.7277 H   0  0  0  0  0  0  0  0  0  0  0  0
   -0.5988    1.1390    0.4936 C   0  0  0  0  0  0  0  0  0  0  0  0
   -1.4941    1.7657   -0.0607 O   0  0  0  0  0  0  0  0  0  0  0  0
    0.1984    1.7854    1.4230 N   0  0  0  0  0  0  0  0  0  0  0  0
    0.8270    1.2051    1.9737 H   0  0  0  0  0  0  0  0  0  0  0  0
   -0.0369    3.1594    1.8534 C   0  0  0  0  0  0  0  0  0  0  0  0
   -1.0185    3.2486    2.3310 H   0  0  0  0  0  0  0  0  0  0  0  0
    0.7280    3.4665    2.5733 H   0  0  0  0  0  0  0  0  0  0  0  0
    0.0014    3.8427    0.9984 H   0  0  0  0  0  0  0  0  0  0  0  0
  1  2  1  0  0  0  0
  2  3  1  0  0  0  0
  2  4  1  0  0  0  0
  2  5  1  0  0  0  0
  5  6  2  0  0  0  0
  5  7  1  0  0  0  0
  7  8  1  0  0  0  0
  7  9  1  0  0  0  0
  9 10  1  0  0  0  0
  9 11  1  0  0  0  0
  9 22  1  0  0  0  0
 11 12  1  0  0  0  0
 11 13  1  0  0  0  0
 11 14  1  0  0  0  0
 14 15  1  0  0  0  0
 14 20  2  0  0  0  0
 15 16  1  0  0  0  0
 15 17  1  0  0  0  0
 17 18  1  0  0  0  0
 17 19  2  0  0  0  0
 19 20  1  0  0  0  0
 20 21  1  0  0  0  0
 22 23  2  0  0  0  0
 22 24  1  0  0  0  0
 24 25  1  0  0  0  0
 24 26  1  0  0  0  0
 26 27  1  0  0  0  0
 26 28  1  0  0  0  0
 26 29  1  0  0  0  0
M  END
$$$$

  -OEChem-04042215593D

 29 29  0     1  0  0  0  0  0999 V2000
   -3.5707   -3.6094    1.3657 H   0  0  0  0  0  0  0  0  0  0  0  0
   -3.4884   -2.6800    0.7951 C   0  0  0  0  0  0  0  0  0  0  0  0
   -4.1430   -1.9304    1.2464 H   0  0  0  0  0  0  0  0  0  0  0  0
   -3.8128   -2.8669   -0.2315 H   0  0  0  0  0  0  0  0  0  0  0  0
   -2.0537   -2.1875    0.8031 C   0  0  0  0  0  0  0  0  0  0  0  0
   -1.1889   -2.8290    1.3781 O   0  0  0  0  0  0  0  0  0  0  0  0
   -1.7263   -1.0109    0.1632 N   0  0  0  0  0  0  0  0  0  0  0  0
   -2.4893   -0.4553   -0.2226 H   0  0  0  0  0  0  0  0  0  0  0  0
   -0.3980   -0.3798    0.2029 C   0  0  1  0  0  0  0  0  0  0  0  0
    0.1734   -0.7655    1.0534 H   0  0  0  0  0  0  0  0  0  0  0  0
    0.3732   -0.7550   -1.0898 C   0  0  0  0  0  0  0  0  0  0  0  0
    1.0933   -1.5364   -0.8264 H   0  0  0  0  0  0  0  0  0  0  0  0
   -0.3263   -1.2031   -1.8039 H   0  0  0  0  0  0  0  0  0  0  0  0
    1.1224    0.3431   -1.8199 C   0  0  0  0  0  0  0  0  0  0  0  0
    1.7270    1.4949   -1.3553 N   0  0  0  0  0  0  0  0  0  0  0  0
    1.7033    1.8446   -0.3990 H   0  0  0  0  0  0  0  0  0  0  0  0
    2.2661    2.1767   -2.4293 C   0  0  0  0  0  0  0  0  0  0  0  0
    2.7909    3.1257   -2.3675 H   0  0  0  0  0  0  0  0  0  0  0  0
    2.0511    1.5139   -3.5384 N   0  0  0  0  0  0  0  0  0  0  0  0
    1.3352    0.3790   -3.1747 C   0  0  0  0  0  0  0  0  0  0  0  0
    0.9920   -0.3784   -3.8732 H   0  0  0  0  0  0  0  0  0  0  0  0
   -0.5780    1.1306    0.4536 C   0  0  0  0  0  0  0  0  0  0  0  0
   -1.4819    1.7497   -0.0958 O   0  0  0  0  0  0  0  0  0  0  0  0
    0.2225    1.7794    1.3797 N   0  0  0  0  0  0  0  0  0  0  0  0
    0.8188    1.1942    1.9600 H   0  0  0  0  0  0  0  0  0  0  0  0
   -0.0067    3.1605    1.7898 C   0  0  0  0  0  0  0  0  0  0  0  0
   -0.9874    3.2612    2.2666 H   0  0  0  0  0  0  0  0  0  0  0  0
    0.7601    3.4763    2.5037 H   0  0  0  0  0  0  0  0  0  0  0  0
    0.0331    3.8300    0.9240 H   0  0  0  0  0  0  0  0  0  0  0  0
  1  2  1  0  0  0  0
  2  3  1  0  0  0  0
  2  4  1  0  0  0  0
  2  5  1  0  0  0  0
  5  6  2  0  0  0  0
  5  7  1  0  0  0  0
  7  8  1  0  0  0  0
  7  9  1  0  0  0  0
  9 10  1  0  0  0  0
  9 11  1  0  0  0  0
  9 22  1  0  0  0  0
 11 12  1  0  0  0  0
 11 13  1  0  0  0  0
 11 14  1  0  0  0  0
 14 15  1  0  0  0  0
 14 20  2  0  0  0  0
 15 16  1  0  0  0  0
 15 17  1  0  0  0  0
 17 18  1  0  0  0  0
 17 19  2  0  0  0  0
 19 20  1  0  0  0  0
 20 21  1  0  0  0  0
 22 23  2  0  0  0  0
 22 24  1  0  0  0  0
 24 25  1  0  0  0  0
 24 26  1  0  0  0  0
 26 27  1  0  0  0  0
 26 28  1  0  0  0  0
 26 29  1  0  0  0  0
M  END
$$$$

  -OEChem-04042215593D

 29 29  0     1  0  0  0  0  0999 V2000
   -3.5826   -3.5920    1.3995 H   0  0  0  0  0  0  0  0  0  0  0  0
   -3.4951   -2.6706    0.8170 C   0  0  0  0  0  0  0  0  0  0  0  0
   -4.1416   -1.9100    1.2611 H   0  0  0  0  0  0  0  0  0  0  0  0
   -3.8247   -2.8671   -0.2060 H   0  0  0  0  0  0  0  0  0  0  0  0
   -2.0566   -2.1898    0.8129 C   0  0  0  0  0  0  0  0  0  0  0  0
   -1.1947   -2.8302    1.3939 O   0  0  0  0  0  0  0  0  0  0  0  0
   -1.7228   -1.0251    0.1553 N   0  0  0  0  0  0  0  0  0  0  0  0
   -2.4835   -0.4659   -0.2302 H   0  0  0  0  0  0  0  0  0  0  0  0
   -0.3914   -0.4004    0.1889 C   0  0  1  0  0  0  0  0  0  0  0  0
    0.1807   -0.7797    1.0417 H   0  0  0  0  0  0  0  0  0  0  0  0
    0.3691   -0.7869   -1.1053 C   0  0  0  0  0  0  0  0  0  0  0  0
    1.0875   -1.5727   -0.8506 H   0  0  0  0  0  0  0  0  0  0  0  0
   -0.3368   -1.2263   -1.8183 H   0  0  0  0  0  0  0  0  0  0  0  0
    1.1098    0.3229   -1.8204 C   0  0  0  0  0  0  0  0  0  0  0  0
    1.9301    1.3099   -1.3126 N   0  0  0  0  0  0  0  0  0  0  0  0
    2.1338    1.4812   -0.3308 H   0  0  0  0  0  0  0  0  0  0  0  0
    2.3679    2.0997   -2.3589 C   0  0  0  0  0  0  0  0  0  0  0  0
    3.0192    2.9633   -2.2595 H   0  0  0  0  0  0  0  0  0  0  0  0
    1.8836    1.6567   -3.4926 N   0  0  0  0  0  0  0  0  0  0  0  0
    1.0935    0.5584   -3.1714 C   0  0  0  0  0  0  0  0  0  0  0  0
    0.5405   -0.0330   -3.8950 H   0  0  0  0  0  0  0  0  0  0  0  0
   -0.5620    1.1162    0.4159 C   0  0  0  0  0  0  0  0  0  0  0  0
   -1.4716    1.7259   -0.1358 O   0  0  0  0  0  0  0  0  0  0  0  0
    0.2397    1.7750    1.3339 N   0  0  0  0  0  0  0  0  0  0  0  0
    0.8314    1.1985    1.9263 H   0  0  0  0  0  0  0  0  0  0  0  0
    0.0269    3.1686    1.7079 C   0  0  0  0  0  0  0  0  0  0  0  0
   -0.9603    3.2972    2.1643 H   0  0  0  0  0  0  0  0  0  0  0  0
    0.7861    3.4879    2.4284 H   0  0  0  0  0  0  0  0  0  0  0  0
    0.0941    3.8161    0.8270 H   0  0  0  0  0  0  0  0  0  0  0  0
  1  2  1  0  0  0  0
  2  3  1  0  0  0  0
  2  4  1  0  0  0  0
  2  5  1  0  0  0  0
  5  6  2  0  0  0  0
  5  7  1  0  0  0  0
  7  8  1  0  0  0  0
  7  9  1  0  0  0  0
  9 10  1  0  0  0  0
  9 11  1  0  0  0  0
  9 22  1  0  0  0  0
 11 12  1  0  0  0  0
 11 13  1  0  0  0  0
 11 14  1  0  0  0  0
 14 15  1  0  0  0  0
 14 20  2  0  0  0  0
 15 16  1  0  0  0  0
 15 17  1  0  0  0  0
 17 18  1  0  0  0  0
 17 19  2  0  0  0  0
 19 20  1  0  0  0  0
 20 21  1  0  0  0  0
 22 23  2  0  0  0  0
 22 24  1  0  0  0  0
 24 25  1  0  0  0  0
 24 26  1  0  0  0  0
 26 27  1  0  0  0  0
 26 28  1  0  0  0  0
 26 29  1  0  0  0  0
M  END
$$$$

  -OEChem-04042215593D

 29 29  0     1  0  0  0  0  0999 V2000
   -3.5879   -3.5816    1.4452 H   0  0  0  0  0  0  0  0  0  0  0  0
   -3.4990   -2.6665    0.8529 C   0  0  0  0  0  0  0  0  0  0  0  0
   -4.1282   -1.8938    1.3012 H   0  0  0  0  0  0  0  0  0  0  0  0
   -3.8491   -2.8678   -0.1623 H   0  0  0  0  0  0  0  0  0  0  0  0
   -2.0548   -2.2037    0.8195 C   0  0  0  0  0  0  0  0  0  0  0  0
   -1.1900   -2.8502    1.3893 O   0  0  0  0  0  0  0  0  0  0  0  0
   -1.7196   -1.0474    0.1483 N   0  0  0  0  0  0  0  0  0  0  0  0
   -2.4817   -0.4791   -0.2207 H   0  0  0  0  0  0  0  0  0  0  0  0
   -0.3860   -0.4275    0.1716 C   0  0  1  0  0  0  0  0  0  0  0  0
    0.1939   -0.8008    1.0218 H   0  0  0  0  0  0  0  0  0  0  0  0
    0.3620   -0.8106   -1.1294 C   0  0  0  0  0  0  0  0  0  0  0  0
    1.0785   -1.6053   -0.8982 H   0  0  0  0  0  0  0  0  0  0  0  0
   -0.3543   -1.2299   -1.8441 H   0  0  0  0  0  0  0  0  0  0  0  0
    1.0888    0.3198   -1.8198 C   0  0  0  0  0  0  0  0  0  0  0  0
    2.1062    1.1134   -1.3328 N   0  0  0  0  0  0  0  0  0  0  0  0
    2.5314    1.0564   -0.4109 H   0  0  0  0  0  0  0  0  0  0  0  0
    2.4638    2.0166   -2.3162 C   0  0  0  0  0  0  0  0  0  0  0  0
    3.2390    2.7713   -2.2191 H   0  0  0  0  0  0  0  0  0  0  0  0
    1.7358    1.8288   -3.3893 N   0  0  0  0  0  0  0  0  0  0  0  0
    0.8710    0.7805   -3.0926 C   0  0  0  0  0  0  0  0  0  0  0  0
    0.1286    0.3811   -3.7773 H   0  0  0  0  0  0  0  0  0  0  0  0
   -0.5593    1.0927    0.3832 C   0  0  0  0  0  0  0  0  0  0  0  0
   -1.4826    1.6867   -0.1641 O   0  0  0  0  0  0  0  0  0  0  0  0
    0.2387    1.7694    1.2902 N   0  0  0  0  0  0  0  0  0  0  0  0
    0.8735    1.2162    1.8580 H   0  0  0  0  0  0  0  0  0  0  0  0
    0.0461    3.1769    1.6190 C   0  0  0  0  0  0  0  0  0  0  0  0
   -0.9447    3.3366    2.0575 H   0  0  0  0  0  0  0  0  0  0  0  0
    0.8014    3.5041    2.3400 H   0  0  0  0  0  0  0  0  0  0  0  0
    0.1369    3.7953    0.7195 H   0  0  0  0  0  0  0  0  0  0  0  0
  1  2  1  0  0  0  0
  2  3  1  0  0  0  0
  2  4  1  0  0  0  0
  2  5  1  0  0  0  0
  5  6  2  0  0  0  0
  5  7  1  0  0  0  0
  7  8  1  0  0  0  0
  7  9  1  0  0  0  0
  9 10  1  0  0  0  0
  9 11  1  0  0  0  0
  9 22  1  0  0  0  0
 11 12  1  0  0  0  0
 11 13  1  0  0  0  0
 11 14  1  0  0  0  0
 14 15  1  0  0  0  0
 14 20  2  0  0  0  0
 15 16  1  0  0  0  0
 15 17  1  0  0  0  0
 17 18  1  0  0  0  0
 17 19  2  0  0  0  0
 19 20  1  0  0  0  0
 20 21  1  0  0  0  0
 22 23  2  0  0  0  0
 22 24  1  0  0  0  0
 24 25  1  0  0  0  0
 24 26  1  0  0  0  0
 26 27  1  0  0  0  0
 26 28  1  0  0  0  0
 26 29  1  0  0  0  0
M  END
$$$$

  -OEChem-04042215593D

 29 29  0     1  0  0  0  0  0999 V2000
   -3.5827   -3.5842    1.4832 H   0  0  0  0  0  0  0  0  0  0  0  0
   -3.5007   -2.6719    0.8858 C   0  0  0  0  0  0  0  0  0  0  0  0
   -4.1138   -1.8931    1.3457 H   0  0  0  0  0  0  0  0  0  0  0  0
   -3.8754   -2.8744   -0.1205 H   0  0  0  0  0  0  0  0  0  0  0  0
   -2.0544   -2.2202    0.8186 C   0  0  0  0  0  0  0  0  0  0  0  0
   -1.1816   -2.8738    1.3680 O   0  0  0  0  0  0  0  0  0  0  0  0
   -1.7263   -1.0656    0.1411 N   0  0  0  0  0  0  0  0  0  0  0  0
   -2.4935   -0.4889   -0.2035 H   0  0  0  0  0  0  0  0  0  0  0  0
   -0.3926   -0.4459    0.1545 C   0  0  1  0  0  0  0  0  0  0  0  0
    0.1921   -0.8160    1.0026 H   0  0  0  0  0  0  0  0  0  0  0  0
    0.3530   -0.8203   -1.1492 C   0  0  0  0  0  0  0  0  0  0  0  0
    1.0682   -1.6211   -0.9367 H   0  0  0  0  0  0  0  0  0  0  0  0
   -0.3689   -1.2233   -1.8678 H   0  0  0  0  0  0  0  0  0  0  0  0
    1.0669    0.3294   -1.8173 C   0  0  0  0  0  0  0  0  0  0  0  0
    2.2450    0.9299   -1.4286 N   0  0  0  0  0  0  0  0  0  0  0  0
    2.8242    0.6700   -0.6339 H   0  0  0  0  0  0  0  0  0  0  0  0
    2.5416    1.9311   -2.3345 C   0  0  0  0  0  0  0  0  0  0  0  0
    3.4130    2.5780   -2.2875 H   0  0  0  0  0  0  0  0  0  0  0  0
    1.6219    1.9852   -3.2663 N   0  0  0  0  0  0  0  0  0  0  0  0
    0.6943    0.9955   -2.9564 C   0  0  0  0  0  0  0  0  0  0  0  0
   -0.1977    0.7806   -3.5374 H   0  0  0  0  0  0  0  0  0  0  0  0
   -0.5685    1.0752    0.3633 C   0  0  0  0  0  0  0  0  0  0  0  0
   -1.5069    1.6593   -0.1697 O   0  0  0  0  0  0  0  0  0  0  0  0
    0.2310    1.7596    1.2619 N   0  0  0  0  0  0  0  0  0  0  0  0
    0.9350    1.2301    1.7666 H   0  0  0  0  0  0  0  0  0  0  0  0
    0.0656    3.1778    1.5555 C   0  0  0  0  0  0  0  0  0  0  0  0
   -0.9297    3.3703    1.9697 H   0  0  0  0  0  0  0  0  0  0  0  0
    0.8129    3.5031    2.2854 H   0  0  0  0  0  0  0  0  0  0  0  0
    0.1895    3.7731    0.6445 H   0  0  0  0  0  0  0  0  0  0  0  0
  1  2  1  0  0  0  0
  2  3  1  0  0  0  0
  2  4  1  0  0  0  0
  2  5  1  0  0  0  0
  5  6  2  0  0  0  0
  5  7  1  0  0  0  0
  7  8  1  0  0  0  0
  7  9  1  0  0  0  0
  9 10  1  0  0  0  0
  9 11  1  0  0  0  0
  9 22  1  0  0  0  0
 11 12  1  0  0  0  0
 11 13  1  0  0  0  0
 11 14  1  0  0  0  0
 14 15  1  0  0  0  0
 14 20  2  0  0  0  0
 15 16  1  0  0  0  0
 15 17  1  0  0  0  0
 17 18  1  0  0  0  0
 17 19  2  0  0  0  0
 19 20  1  0  0  0  0
 20 21  1  0  0  0  0
 22 23  2  0  0  0  0
 22 24  1  0  0  0  0
 24 25  1  0  0  0  0
 24 26  1  0  0  0  0
 26 27  1  0  0  0  0
 26 28  1  0  0  0  0
 26 29  1  0  0  0  0
M  END
$$$$

  -OEChem-04042215593D

 29 29  0     1  0  0  0  0  0999 V2000
   -3.5758   -3.6058    1.4854 H   0  0  0  0  0  0  0  0  0  0  0  0
   -3.5000   -2.6926    0.8887 C   0  0  0  0  0  0  0  0  0  0  0  0
   -4.1162   -1.9177    1.3510 H   0  0  0  0  0  0  0  0  0  0  0  0
   -3.8760   -2.8961   -0.1168 H   0  0  0  0  0  0  0  0  0  0  0  0
   -2.0563   -2.2329    0.8181 C   0  0  0  0  0  0  0  0  0  0  0  0
   -1.1769   -2.8894    1.3534 O   0  0  0  0  0  0  0  0  0  0  0  0
   -1.7377   -1.0720    0.1466 N   0  0  0  0  0  0  0  0  0  0  0  0
   -2.5101   -0.4931   -0.1830 H   0  0  0  0  0  0  0  0  0  0  0  0
   -0.4061   -0.4475    0.1553 C   0  0  1  0  0  0  0  0  0  0  0  0
    0.1827   -0.8205    0.9994 H   0  0  0  0  0  0  0  0  0  0  0  0
    0.3391   -0.8116   -1.1512 C   0  0  0  0  0  0  0  0  0  0  0  0
    1.0546   -1.6147   -0.9493 H   0  0  0  0  0  0  0  0  0  0  0  0
   -0.3852   -1.2069   -1.8717 H   0  0  0  0  0  0  0  0  0  0  0  0
    1.0448    0.3465   -1.8126 C   0  0  0  0  0  0  0  0  0  0  0  0
    2.3399    0.7657   -1.6001 N   0  0  0  0  0  0  0  0  0  0  0  0
    3.0163    0.3450   -0.9671 H   0  0  0  0  0  0  0  0  0  0  0  0
    2.5934    1.8345   -2.4395 C   0  0  0  0  0  0  0  0  0  0  0  0
    3.5341    2.3745   -2.4969 H   0  0  0  0  0  0  0  0  0  0  0  0
    1.5349    2.1014   -3.1642 N   0  0  0  0  0  0  0  0  0  0  0  0
    0.5613    1.1810   -2.7877 C   0  0  0  0  0  0  0  0  0  0  0  0
   -0.4384    1.1289   -3.2089 H   0  0  0  0  0  0  0  0  0  0  0  0
   -0.5829    1.0718    0.3763 C   0  0  0  0  0  0  0  0  0  0  0  0
   -1.5291    1.6548   -0.1446 O   0  0  0  0  0  0  0  0  0  0  0  0
    0.2205    1.7537    1.2726 N   0  0  0  0  0  0  0  0  0  0  0  0
    0.9766    1.2404    1.7146 H   0  0  0  0  0  0  0  0  0  0  0  0
    0.0907    3.1823    1.5307 C   0  0  0  0  0  0  0  0  0  0  0  0
   -0.9072    3.4131    1.9183 H   0  0  0  0  0  0  0  0  0  0  0  0
    0.8306    3.5026    2.2704 H   0  0  0  0  0  0  0  0  0  0  0  0
    0.2521    3.7526    0.6097 H   0  0  0  0  0  0  0  0  0  0  0  0
  1  2  1  0  0  0  0
  2  3  1  0  0  0  0
  2  4  1  0  0  0  0
  2  5  1  0  0  0  0
  5  6  2  0  0  0  0
  5  7  1  0  0  0  0
  7  8  1  0  0  0  0
  7  9  1  0  0  0  0
  9 10  1  0  0  0  0
  9 11  1  0  0  0  0
  9 22  1  0  0  0  0
 11 12  1  0  0  0  0
 11 13  1  0  0  0  0
 11 14  1  0  0  0  0
 14 15  1  0  0  0  0
 14 20  2  0  0  0  0
 15 16  1  0  0  0  0
 15 17  1  0  0  0  0
 17 18  1  0  0  0  0
 17 19  2  0  0  0  0
 19 20  1  0  0  0  0
 20 21  1  0  0  0  0
 22 23  2  0  0  0  0
 22 24  1  0  0  0  0
 24 25  1  0  0  0  0
 24 26  1  0  0  0  0
 26 27  1  0  0  0  0
 26 28  1  0  0  0  0
 26 29  1  0  0  0  0
M  END
$$$$

  -OEChem-04042215593D

 29 29  0     1  0  0  0  0  0999 V2000
   -3.5640   -3.6194    1.4853 H   0  0  0  0  0  0  0  0  0  0  0  0
   -3.4967   -2.7022    0.8935 C   0  0  0  0  0  0  0  0  0  0  0  0
   -4.1096   -1.9317    1.3677 H   0  0  0  0  0  0  0  0  0  0  0  0
   -3.8835   -2.9002   -0.1091 H   0  0  0  0  0  0  0  0  0  0  0  0
   -2.0547   -2.2386    0.8094 C   0  0  0  0  0  0  0  0  0  0  0  0
   -1.1668   -2.9012    1.3228 O   0  0  0  0  0  0  0  0  0  0  0  0
   -1.7471   -1.0679    0.1497 N   0  0  0  0  0  0  0  0  0  0  0  0
   -2.5254   -0.4874   -0.1624 H   0  0  0  0  0  0  0  0  0  0  0  0
   -0.4186   -0.4363    0.1563 C   0  0  1  0  0  0  0  0  0  0  0  0
    0.1722   -0.8138    0.9971 H   0  0  0  0  0  0  0  0  0  0  0  0
    0.3309   -0.7937   -1.1501 C   0  0  0  0  0  0  0  0  0  0  0  0
    1.0479   -1.5951   -0.9460 H   0  0  0  0  0  0  0  0  0  0  0  0
   -0.3906   -1.1924   -1.8711 H   0  0  0  0  0  0  0  0  0  0  0  0
    1.0342    0.3619   -1.8202 C   0  0  0  0  0  0  0  0  0  0  0  0
    2.3892    0.6106   -1.8303 N   0  0  0  0  0  0  0  0  0  0  0  0
    3.1095    0.0551   -1.3739 H   0  0  0  0  0  0  0  0  0  0  0  0
    2.6217    1.7276   -2.6107 C   0  0  0  0  0  0  0  0  0  0  0  0
    3.5976    2.1650   -2.8011 H   0  0  0  0  0  0  0  0  0  0  0  0
    1.4927    2.1835   -3.0946 N   0  0  0  0  0  0  0  0  0  0  0  0
    0.4943    1.3375   -2.6208 C   0  0  0  0  0  0  0  0  0  0  0  0
   -0.5617    1.4323   -2.8566 H   0  0  0  0  0  0  0  0  0  0  0  0
   -0.5969    1.0794    0.3965 C   0  0  0  0  0  0  0  0  0  0  0  0
   -1.5537    1.6630   -0.1040 O   0  0  0  0  0  0  0  0  0  0  0  0
    0.2113    1.7538    1.2939 N   0  0  0  0  0  0  0  0  0  0  0  0
    0.9965    1.2477    1.6917 H   0  0  0  0  0  0  0  0  0  0  0  0
    0.0888    3.1829    1.5551 C   0  0  0  0  0  0  0  0  0  0  0  0
   -0.9105    3.4196    1.9352 H   0  0  0  0  0  0  0  0  0  0  0  0
    0.8244    3.4957    2.3022 H   0  0  0  0  0  0  0  0  0  0  0  0
    0.2616    3.7549    0.6372 H   0  0  0  0  0  0  0  0  0  0  0  0
  1  2  1  0  0  0  0
  2  3  1  0  0  0  0
  2  4  1  0  0  0  0
  2  5  1  0  0  0  0
  5  6  2  0  0  0  0
  5  7  1  0  0  0  0
  7  8  1  0  0  0  0
  7  9  1  0  0  0  0
  9 10  1  0  0  0  0
  9 11  1  0  0  0  0
  9 22  1  0  0  0  0
 11 12  1  0  0  0  0
 11 13  1  0  0  0  0
 11 14  1  0  0  0  0
 14 15  1  0  0  0  0
 14 20  2  0  0  0  0
 15 16  1  0  0  0  0
 15 17  1  0  0  0  0
 17 18  1  0  0  0  0
 17 19  2  0  0  0  0
 19 20  1  0  0  0  0
 20 21  1  0  0  0  0
 22 23  2  0  0  0  0
 22 24  1  0  0  0  0
 24 25  1  0  0  0  0
 24 26  1  0  0  0  0
 26 27  1  0  0  0  0
 26 28  1  0  0  0  0
 26 29  1  0  0  0  0
M  END
$$$$

  -OEChem-04042215593D

 29 29  0     1  0  0  0  0  0999 V2000
   -3.5383   -3.6393    1.4707 H   0  0  0  0  0  0  0  0  0  0  0  0
   -3.4846   -2.7142    0.8901 C   0  0  0  0  0  0  0  0  0  0  0  0
   -4.0998   -1.9552    1.3795 H   0  0  0  0  0  0  0  0  0  0  0  0
   -3.8786   -2.9026   -0.1115 H   0  0  0  0  0  0  0  0  0  0  0  0
   -2.0476   -2.2373    0.7985 C   0  0  0  0  0  0  0  0  0  0  0  0
   -1.1481   -2.9037    1.2860 O   0  0  0  0  0  0  0  0  0  0  0  0
   -1.7570   -1.0531    0.1555 N   0  0  0  0  0  0  0  0  0  0  0  0
   -2.5440   -0.4739   -0.1364 H   0  0  0  0  0  0  0  0  0  0  0  0
   -0.4347   -0.4090    0.1614 C   0  0  1  0  0  0  0  0  0  0  0  0
    0.1569   -0.7901    1.0002 H   0  0  0  0  0  0  0  0  0  0  0  0
    0.3233   -0.7649   -1.1417 C   0  0  0  0  0  0  0  0  0  0  0  0
    1.0447   -1.5578   -0.9200 H   0  0  0  0  0  0  0  0  0  0  0  0
   -0.3902   -1.1829   -1.8598 H   0  0  0  0  0  0  0  0  0  0  0  0
    1.0276    0.3775   -1.8387 C   0  0  0  0  0  0  0  0  0  0  0  0
    2.3792    0.4638   -2.0943 N   0  0  0  0  0  0  0  0  0  0  0  0
    3.0898   -0.2108   -1.8187 H   0  0  0  0  0  0  0  0  0  0  0  0
    2.6167    1.6119   -2.8260 C   0  0  0  0  0  0  0  0  0  0  0  0
    3.5928    1.9472   -3.1646 H   0  0  0  0  0  0  0  0  0  0  0  0
    1.4906    2.2393   -3.0574 N   0  0  0  0  0  0  0  0  0  0  0  0
    0.4890    1.4744   -2.4673 C   0  0  0  0  0  0  0  0  0  0  0  0
   -0.5708    1.7072   -2.5130 H   0  0  0  0  0  0  0  0  0  0  0  0
   -0.6153    1.1010    0.4269 C   0  0  0  0  0  0  0  0  0  0  0  0
   -1.5878    1.6857   -0.0409 O   0  0  0  0  0  0  0  0  0  0  0  0
    0.2005    1.7618    1.3271 N   0  0  0  0  0  0  0  0  0  0  0  0
    1.0024    1.2563    1.6919 H   0  0  0  0  0  0  0  0  0  0  0  0
    0.0754    3.1850    1.6173 C   0  0  0  0  0  0  0  0  0  0  0  0
   -0.9232    3.4118    2.0055 H   0  0  0  0  0  0  0  0  0  0  0  0
    0.8126    3.4841    2.3685 H   0  0  0  0  0  0  0  0  0  0  0  0
    0.2441    3.7761    0.7108 H   0  0  0  0  0  0  0  0  0  0  0  0
  1  2  1  0  0  0  0
  2  3  1  0  0  0  0
  2  4  1  0  0  0  0
  2  5  1  0  0  0  0
  5  6  2  0  0  0  0
  5  7  1  0  0  0  0
  7  8  1  0  0  0  0
  7  9  1  0  0  0  0
  9 10  1  0  0  0  0
  9 11  1  0  0  0  0
  9 22  1  0  0  0  0
 11 12  1  0  0  0  0
 11 13  1  0  0  0  0
 11 14  1  0  0  0  0
 14 15  1  0  0  0  0
 14 20  2  0  0  0  0
 15 16  1  0  0  0  0
 15 17  1  0  0  0  0
 17 18  1  0  0  0  0
 17 19  2  0  0  0  0
 19 20  1  0  0  0  0
 20 21  1  0  0  0  0
 22 23  2  0  0  0  0
 22 24  1  0  0  0  0
 24 25  1  0  0  0  0
 24 26  1  0  0  0  0
 26 27  1  0  0  0  0
 26 28  1  0  0  0  0
 26 29  1  0  0  0  0
M  END
$$$$

  -OEChem-04042215593D

 29 29  0     1  0  0  0  0  0999 V2000
   -3.4975   -3.6628    1.4505 H   0  0  0  0  0  0  0  0  0  0  0  0
   -3.4622   -2.7272    0.8855 C   0  0  0  0  0  0  0  0  0  0  0  0
   -4.0769   -1.9831    1.3978 H   0  0  0  0  0  0  0  0  0  0  0  0
   -3.8694   -2.9019   -0.1132 H   0  0  0  0  0  0  0  0  0  0  0  0
   -2.0317   -2.2343    0.7800 C   0  0  0  0  0  0  0  0  0  0  0  0
   -1.1176   -2.9036    1.2352 O   0  0  0  0  0  0  0  0  0  0  0  0
   -1.7633   -1.0329    0.1597 N   0  0  0  0  0  0  0  0  0  0  0  0
   -2.5609   -0.4542   -0.1031 H   0  0  0  0  0  0  0  0  0  0  0  0
   -0.4488   -0.3726    0.1645 C   0  0  1  0  0  0  0  0  0  0  0  0
    0.1456   -0.7597    0.9986 H   0  0  0  0  0  0  0  0  0  0  0  0
    0.3168   -0.7241   -1.1372 C   0  0  0  0  0  0  0  0  0  0  0  0
    1.0468   -1.5024   -0.8937 H   0  0  0  0  0  0  0  0  0  0  0  0
   -0.3865   -1.1690   -1.8489 H   0  0  0  0  0  0  0  0  0  0  0  0
    1.0233    0.3971   -1.8709 C   0  0  0  0  0  0  0  0  0  0  0  0
    2.3037    0.3206   -2.3768 N   0  0  0  0  0  0  0  0  0  0  0  0
    2.9403   -0.4684   -2.2852 H   0  0  0  0  0  0  0  0  0  0  0  0
    2.5835    1.4873   -3.0615 C   0  0  0  0  0  0  0  0  0  0  0  0
    3.5242    1.7131   -3.5556 H   0  0  0  0  0  0  0  0  0  0  0  0
    1.5452    2.2841   -3.0323 N   0  0  0  0  0  0  0  0  0  0  0  0
    0.5578    1.6114   -2.3192 C   0  0  0  0  0  0  0  0  0  0  0  0
   -0.4475    1.9916   -2.1695 H   0  0  0  0  0  0  0  0  0  0  0  0
   -0.6386    1.1288    0.4643 C   0  0  0  0  0  0  0  0  0  0  0  0
   -1.6330    1.7100    0.0406 O   0  0  0  0  0  0  0  0  0  0  0  0
    0.1836    1.7758    1.3685 N   0  0  0  0  0  0  0  0  0  0  0  0
    1.0025    1.2743    1.7002 H   0  0  0  0  0  0  0  0  0  0  0  0
    0.0380    3.1858    1.7096 C   0  0  0  0  0  0  0  0  0  0  0  0
   -0.9589    3.3818    2.1184 H   0  0  0  0  0  0  0  0  0  0  0  0
    0.7802    3.4714    2.4612 H   0  0  0  0  0  0  0  0  0  0  0  0
    0.1842    3.8105    0.8220 H   0  0  0  0  0  0  0  0  0  0  0  0
  1  2  1  0  0  0  0
  2  3  1  0  0  0  0
  2  4  1  0  0  0  0
  2  5  1  0  0  0  0
  5  6  2  0  0  0  0
  5  7  1  0  0  0  0
  7  8  1  0  0  0  0
  7  9  1  0  0  0  0
  9 10  1  0  0  0  0
  9 11  1  0  0  0  0
  9 22  1  0  0  0  0
 11 12  1  0  0  0  0
 11 13  1  0  0  0  0
 11 14  1  0  0  0  0
 14 15  1  0  0  0  0
 14 20  2  0  0  0  0
 15 16  1  0  0  0  0
 15 17  1  0  0  0  0
 17 18  1  0  0  0  0
 17 19  2  0  0  0  0
 19 20  1  0  0  0  0
 20 21  1  0  0  0  0
 22 23  2  0  0  0  0
 22 24  1  0  0  0  0
 24 25  1  0  0  0  0
 24 26  1  0  0  0  0
 26 27  1  0  0  0  0
 26 28  1  0  0  0  0
 26 29  1  0  0  0  0
M  END
$$$$

  -OEChem-04042215593D

 29 29  0     1  0  0  0  0  0999 V2000
   -3.4568   -3.6979    1.4041 H   0  0  0  0  0  0  0  0  0  0  0  0
   -3.4392   -2.7401    0.8769 C   0  0  0  0  0  0  0  0  0  0  0  0
   -4.0468   -2.0214    1.4320 H   0  0  0  0  0  0  0  0  0  0  0  0
   -3.8677   -2.8773   -0.1188 H   0  0  0  0  0  0  0  0  0  0  0  0
   -2.0145   -2.2331    0.7616 C   0  0  0  0  0  0  0  0  0  0  0  0
   -1.0889   -2.9008    1.1956 O   0  0  0  0  0  0  0  0  0  0  0  0
   -1.7650   -1.0171    0.1619 N   0  0  0  0  0  0  0  0  0  0  0  0
   -2.5715   -0.4431   -0.0839 H   0  0  0  0  0  0  0  0  0  0  0  0
   -0.4581   -0.3414    0.1671 C   0  0  1  0  0  0  0  0  0  0  0  0
    0.1435   -0.7333    0.9937 H   0  0  0  0  0  0  0  0  0  0  0  0
    0.3075   -0.6775   -1.1405 C   0  0  0  0  0  0  0  0  0  0  0  0
    1.0470   -1.4432   -0.8850 H   0  0  0  0  0  0  0  0  0  0  0  0
   -0.3908   -1.1435   -1.8435 H   0  0  0  0  0  0  0  0  0  0  0  0
    1.0171    0.4228   -1.9102 C   0  0  0  0  0  0  0  0  0  0  0  0
    2.1508    0.1951   -2.6627 N   0  0  0  0  0  0  0  0  0  0  0  0
    2.6373   -0.6939   -2.7592 H   0  0  0  0  0  0  0  0  0  0  0  0
    2.5286    1.3714   -3.2792 C   0  0  0  0  0  0  0  0  0  0  0  0
    3.3950    1.4913   -3.9235 H   0  0  0  0  0  0  0  0  0  0  0  0
    1.6872    2.3254   -2.9730 N   0  0  0  0  0  0  0  0  0  0  0  0
    0.7304    1.7498   -2.1433 C   0  0  0  0  0  0  0  0  0  0  0  0
   -0.1295    2.2916   -1.7669 H   0  0  0  0  0  0  0  0  0  0  0  0
   -0.6674    1.1494    0.4972 C   0  0  0  0  0  0  0  0  0  0  0  0
   -1.6751    1.7232    0.0953 O   0  0  0  0  0  0  0  0  0  0  0  0
    0.1534    1.7912    1.4068 N   0  0  0  0  0  0  0  0  0  0  0  0
    0.9761    1.2917    1.7325 H   0  0  0  0  0  0  0  0  0  0  0  0
   -0.0225    3.1848    1.7971 C   0  0  0  0  0  0  0  0  0  0  0  0
   -1.0089    3.3357    2.2485 H   0  0  0  0  0  0  0  0  0  0  0  0
    0.7388    3.4708    2.5292 H   0  0  0  0  0  0  0  0  0  0  0  0
    0.0712    3.8409    0.9251 H   0  0  0  0  0  0  0  0  0  0  0  0
  1  2  1  0  0  0  0
  2  3  1  0  0  0  0
  2  4  1  0  0  0  0
  2  5  1  0  0  0  0
  5  6  2  0  0  0  0
  5  7  1  0  0  0  0
  7  8  1  0  0  0  0
  7  9  1  0  0  0  0
  9 10  1  0  0  0  0
  9 11  1  0  0  0  0
  9 22  1  0  0  0  0
 11 12  1  0  0  0  0
 11 13  1  0  0  0  0
 11 14  1  0  0  0  0
 14 15  1  0  0  0  0
 14 20  2  0  0  0  0
 15 16  1  0  0  0  0
 15 17  1  0  0  0  0
 17 18  1  0  0  0  0
 17 19  2  0  0  0  0
 19 20  1  0  0  0  0
 20 21  1  0  0  0  0
 22 23  2  0  0  0  0
 22 24  1  0  0  0  0
 24 25  1  0  0  0  0
 24 26  1  0  0  0  0
 26 27  1  0  0  0  0
 26 28  1  0  0  0  0
 26 29  1  0  0  0  0
M  END
$$$$

  -OEChem-04042215593D

 29 29  0     1  0  0  0  0  0999 V2000
   -3.4355   -3.7093    1.3786 H   0  0  0  0  0  0  0  0  0  0  0  0
   -3.4211   -2.7483    0.8570 C   0  0  0  0  0  0  0  0  0  0  0  0
   -4.0387   -2.0377    1.4116 H   0  0  0  0  0  0  0  0  0  0  0  0
   -3.8411   -2.8831   -0.1426 H   0  0  0  0  0  0  0  0  0  0  0  0
   -1.9990   -2.2304    0.7550 C   0  0  0  0  0  0  0  0  0  0  0  0
   -1.0714   -2.8977    1.1851 O   0  0  0  0  0  0  0  0  0  0  0  0
   -1.7529   -1.0067    0.1696 N   0  0  0  0  0  0  0  0  0  0  0  0
   -2.5602   -0.4350   -0.0786 H   0  0  0  0  0  0  0  0  0  0  0  0
   -0.4475   -0.3275    0.1832 C   0  0  1  0  0  0  0  0  0  0  0  0
    0.1652   -0.7268    0.9981 H   0  0  0  0  0  0  0  0  0  0  0  0
    0.2973   -0.6378   -1.1447 C   0  0  0  0  0  0  0  0  0  0  0  0
    1.0335   -1.4145   -0.9138 H   0  0  0  0  0  0  0  0  0  0  0  0
   -0.4194   -1.0870   -1.8404 H   0  0  0  0  0  0  0  0  0  0  0  0
    1.0104    0.4524   -1.9307 C   0  0  0  0  0  0  0  0  0  0  0  0
    1.9163    0.1442   -2.9252 N   0  0  0  0  0  0  0  0  0  0  0  0
    2.1837   -0.7923   -3.2208 H   0  0  0  0  0  0  0  0  0  0  0  0
    2.4075    1.3116   -3.4736 C   0  0  0  0  0  0  0  0  0  0  0  0
    3.1408    1.3686   -4.2732 H   0  0  0  0  0  0  0  0  0  0  0  0
    1.8599    2.3436   -2.8855 N   0  0  0  0  0  0  0  0  0  0  0  0
    0.9816    1.8309   -1.9364 C   0  0  0  0  0  0  0  0  0  0  0  0
    0.3676    2.4654   -1.3090 H   0  0  0  0  0  0  0  0  0  0  0  0
   -0.6811    1.1539    0.5318 C   0  0  0  0  0  0  0  0  0  0  0  0
   -1.6697    1.7342    0.0944 O   0  0  0  0  0  0  0  0  0  0  0  0
    0.1262    1.7959    1.4533 N   0  0  0  0  0  0  0  0  0  0  0  0
    0.9243    1.2842    1.8191 H   0  0  0  0  0  0  0  0  0  0  0  0
   -0.0717    3.1804    1.8653 C   0  0  0  0  0  0  0  0  0  0  0  0
   -1.0682    3.3131    2.2997 H   0  0  0  0  0  0  0  0  0  0  0  0
    0.6720    3.4604    2.6174 H   0  0  0  0  0  0  0  0  0  0  0  0
    0.0320    3.8540    1.0081 H   0  0  0  0  0  0  0  0  0  0  0  0
  1  2  1  0  0  0  0
  2  3  1  0  0  0  0
  2  4  1  0  0  0  0
  2  5  1  0  0  0  0
  5  6  2  0  0  0  0
  5  7  1  0  0  0  0
  7  8  1  0  0  0  0
  7  9  1  0  0  0  0
  9 10  1  0  0  0  0
  9 11  1  0  0  0  0
  9 22  1  0  0  0  0
 11 12  1  0  0  0  0
 11 13  1  0  0  0  0
 11 14  1  0  0  0  0
 14 15  1  0  0  0  0
 14 20  2  0  0  0  0
 15 16  1  0  0  0  0
 15 17  1  0  0  0  0
 17 18  1  0  0  0  0
 17 19  2  0  0  0  0
 19 20  1  0  0  0  0
 20 21  1  0  0  0  0
 22 23  2  0  0  0  0
 22 24  1  0  0  0  0
 24 25  1  0  0  0  0
 24 26  1  0  0  0  0
 26 27  1  0  0  0  0
 26 28  1  0  0  0  0
 26 29  1  0  0  0  0
M  END
$$$$

  -OEChem-04042215593D

 29 29  0     1  0  0  0  0  0999 V2000
   -3.4729   -3.6648    1.3391 H   0  0  0  0  0  0  0  0  0  0  0  0
   -3.4156   -2.7218    0.7882 C   0  0  0  0  0  0  0  0  0  0  0  0
   -4.0673   -1.9908    1.2729 H   0  0  0  0  0  0  0  0  0  0  0  0
   -3.7633   -2.8885   -0.2341 H   0  0  0  0  0  0  0  0  0  0  0  0
   -1.9870   -2.2123    0.7712 C   0  0  0  0  0  0  0  0  0  0  0  0
   -1.0953   -2.8690    1.2843 O   0  0  0  0  0  0  0  0  0  0  0  0
   -1.6946   -1.0078    0.1683 N   0  0  0  0  0  0  0  0  0  0  0  0
   -2.4790   -0.4400   -0.1522 H   0  0  0  0  0  0  0  0  0  0  0  0
   -0.3840   -0.3415    0.2375 C   0  0  1  0  0  0  0  0  0  0  0  0
    0.2235   -0.7318    1.0606 H   0  0  0  0  0  0  0  0  0  0  0  0
    0.3338   -0.6458   -1.1037 C   0  0  0  0  0  0  0  0  0  0  0  0
    0.8285   -1.6164   -0.9950 H   0  0  0  0  0  0  0  0  0  0  0  0
   -0.4385   -0.7665   -1.8710 H   0  0  0  0  0  0  0  0  0  0  0  0
    1.3341    0.3321   -1.6947 C   0  0  0  0  0  0  0  0  0  0  0  0
    1.9813    0.0790   -2.8865 N   0  0  0  0  0  0  0  0  0  0  0  0
    1.8434   -0.7359   -3.4804 H   0  0  0  0  0  0  0  0  0  0  0  0
    2.8526    1.1142   -3.1602 C   0  0  0  0  0  0  0  0  0  0  0  0
    3.4895    1.1817   -4.0376 H   0  0  0  0  0  0  0  0  0  0  0  0
    2.8020    2.0036   -2.2018 N   0  0  0  0  0  0  0  0  0  0  0  0
    1.8664    1.5339   -1.2868 C   0  0  0  0  0  0  0  0  0  0  0  0
    1.6285    2.0621   -0.3740 H   0  0  0  0  0  0  0  0  0  0  0  0
   -0.6646    1.1461    0.5342 C   0  0  0  0  0  0  0  0  0  0  0  0
   -1.5932    1.7175   -0.0280 O   0  0  0  0  0  0  0  0  0  0  0  0
    0.0690    1.8266    1.4901 N   0  0  0  0  0  0  0  0  0  0  0  0
    0.8069    1.3188    1.9707 H   0  0  0  0  0  0  0  0  0  0  0  0
   -0.1667    3.2233    1.8356 C   0  0  0  0  0  0  0  0  0  0  0  0
   -1.1827    3.3566    2.2216 H   0  0  0  0  0  0  0  0  0  0  0  0
    0.5408    3.5474    2.6049 H   0  0  0  0  0  0  0  0  0  0  0  0
   -0.0368    3.8621    0.9557 H   0  0  0  0  0  0  0  0  0  0  0  0
  1  2  1  0  0  0  0
  2  3  1  0  0  0  0
  2  4  1  0  0  0  0
  2  5  1  0  0  0  0
  5  6  2  0  0  0  0
  5  7  1  0  0  0  0
  7  8  1  0  0  0  0
  7  9  1  0  0  0  0
  9 10  1  0  0  0  0
  9 11  1  0  0  0  0
  9 22  1  0  0  0  0
 11 12  1  0  0  0  0
 11 13  1  0  0  0  0
 11 14  1  0  0  0  0
 14 15  1  0  0  0  0
 14 20  2  0  0  0  0
 15 16  1  0  0  0  0
 15 17  1  0  0  0  0
 17 18  1  0  0  0  0
 17 19  2  0  0  0  0
 19 20  1  0  0  0  0
 20 21  1  0  0  0  0
 22 23  2  0  0  0  0
 22 24  1  0  0  0  0
 24 25  1  0  0  0  0
 24 26  1  0  0  0  0
 26 27  1  0  0  0  0
 26 28  1  0  0  0  0
 26 29  1  0  0  0  0
M  END
$$$$

  -OEChem-04042215593D

 29 29  0     1  0  0  0  0  0999 V2000
   -3.5152   -3.6431    1.3818 H   0  0  0  0  0  0  0  0  0  0  0  0
   -3.4463   -2.7097    0.8164 C   0  0  0  0  0  0  0  0  0  0  0  0
   -4.0874   -1.9628    1.2908 H   0  0  0  0  0  0  0  0  0  0  0  0
   -3.7976   -2.8877   -0.2027 H   0  0  0  0  0  0  0  0  0  0  0  0
   -2.0113   -2.2191    0.7900 C   0  0  0  0  0  0  0  0  0  0  0  0
   -1.1280   -2.8792    1.3134 O   0  0  0  0  0  0  0  0  0  0  0  0
   -1.7035   -1.0279    0.1686 N   0  0  0  0  0  0  0  0  0  0  0  0
   -2.4808   -0.4518   -0.1549 H   0  0  0  0  0  0  0  0  0  0  0  0
   -0.3839   -0.3788    0.2304 C   0  0  1  0  0  0  0  0  0  0  0  0
    0.2265   -0.7687    1.0514 H   0  0  0  0  0  0  0  0  0  0  0  0
    0.3185   -0.6733   -1.1197 C   0  0  0  0  0  0  0  0  0  0  0  0
    0.8040   -1.6519   -1.0464 H   0  0  0  0  0  0  0  0  0  0  0  0
   -0.4617   -0.7598   -1.8835 H   0  0  0  0  0  0  0  0  0  0  0  0
    1.3179    0.3264   -1.6684 C   0  0  0  0  0  0  0  0  0  0  0  0
    1.7675    0.3213   -2.9720 N   0  0  0  0  0  0  0  0  0  0  0  0
    1.4440   -0.2945   -3.7149 H   0  0  0  0  0  0  0  0  0  0  0  0
    2.7234    1.3069   -3.1226 C   0  0  0  0  0  0  0  0  0  0  0  0
    3.2376    1.5440   -4.0496 H   0  0  0  0  0  0  0  0  0  0  0  0
    2.9244    1.9134   -1.9798 N   0  0  0  0  0  0  0  0  0  0  0  0
    2.0705    1.3063   -1.0668 C   0  0  0  0  0  0  0  0  0  0  0  0
    2.0511    1.5583   -0.0139 H   0  0  0  0  0  0  0  0  0  0  0  0
   -0.6558    1.1177    0.5044 C   0  0  0  0  0  0  0  0  0  0  0  0
   -1.5791    1.6845   -0.0722 O   0  0  0  0  0  0  0  0  0  0  0  0
    0.0750    1.8145    1.4504 N   0  0  0  0  0  0  0  0  0  0  0  0
    0.8132    1.3163    1.9399 H   0  0  0  0  0  0  0  0  0  0  0  0
   -0.1269    3.2304    1.7337 C   0  0  0  0  0  0  0  0  0  0  0  0
   -1.1564    3.4144    2.0586 H   0  0  0  0  0  0  0  0  0  0  0  0
    0.5494    3.5581    2.5290 H   0  0  0  0  0  0  0  0  0  0  0  0
    0.0739    3.8308    0.8399 H   0  0  0  0  0  0  0  0  0  0  0  0
  1  2  1  0  0  0  0
  2  3  1  0  0  0  0
  2  4  1  0  0  0  0
  2  5  1  0  0  0  0
  5  6  2  0  0  0  0
  5  7  1  0  0  0  0
  7  8  1  0  0  0  0
  7  9  1  0  0  0  0
  9 10  1  0  0  0  0
  9 11  1  0  0  0  0
  9 22  1  0  0  0  0
 11 12  1  0  0  0  0
 11 13  1  0  0  0  0
 11 14  1  0  0  0  0
 14 15  1  0  0  0  0
 14 20  2  0  0  0  0
 15 16  1  0  0  0  0
 15 17  1  0  0  0  0
 17 18  1  0  0  0  0
 17 19  2  0  0  0  0
 19 20  1  0  0  0  0
 20 21  1  0  0  0  0
 22 23  2  0  0  0  0
 22 24  1  0  0  0  0
 24 25  1  0  0  0  0
 24 26  1  0  0  0  0
 26 27  1  0  0  0  0
 26 28  1  0  0  0  0
 26 29  1  0  0  0  0
M  END
$$$$

  -OEChem-04042215593D

 29 29  0     1  0  0  0  0  0999 V2000
   -3.5436   -3.6328    1.4348 H   0  0  0  0  0  0  0  0  0  0  0  0
   -3.4710   -2.7089    0.8544 C   0  0  0  0  0  0  0  0  0  0  0  0
   -4.1044   -1.9498    1.3197 H   0  0  0  0  0  0  0  0  0  0  0  0
   -3.8284   -2.9006   -0.1600 H   0  0  0  0  0  0  0  0  0  0  0  0
   -2.0327   -2.2295    0.8141 C   0  0  0  0  0  0  0  0  0  0  0  0
   -1.1528   -2.8853    1.3485 O   0  0  0  0  0  0  0  0  0  0  0  0
   -1.7189   -1.0522    0.1698 N   0  0  0  0  0  0  0  0  0  0  0  0
   -2.4934   -0.4759   -0.1594 H   0  0  0  0  0  0  0  0  0  0  0  0
   -0.3945   -0.4128    0.2128 C   0  0  1  0  0  0  0  0  0  0  0  0
    0.2161   -0.7974    1.0361 H   0  0  0  0  0  0  0  0  0  0  0  0
    0.3083   -0.7120   -1.1331 C   0  0  0  0  0  0  0  0  0  0  0  0
    0.8028   -1.6863   -1.0647 H   0  0  0  0  0  0  0  0  0  0  0  0
   -0.4655   -0.7983   -1.9033 H   0  0  0  0  0  0  0  0  0  0  0  0
    1.2992    0.3160   -1.6357 C   0  0  0  0  0  0  0  0  0  0  0  0
    1.5796    0.5773   -2.9592 N   0  0  0  0  0  0  0  0  0  0  0  0
    1.1137    0.1650   -3.7648 H   0  0  0  0  0  0  0  0  0  0  0  0
    2.5817    1.5269   -3.0219 C   0  0  0  0  0  0  0  0  0  0  0  0
    2.9934    1.9419   -3.9375 H   0  0  0  0  0  0  0  0  0  0  0  0
    2.9680    1.8538   -1.8131 N   0  0  0  0  0  0  0  0  0  0  0  0
    2.1902    1.0989   -0.9440 C   0  0  0  0  0  0  0  0  0  0  0  0
    2.3001    1.1121    0.1353 H   0  0  0  0  0  0  0  0  0  0  0  0
   -0.6401    1.0929    0.4614 C   0  0  0  0  0  0  0  0  0  0  0  0
   -1.5601    1.6621   -0.1186 O   0  0  0  0  0  0  0  0  0  0  0  0
    0.1098    1.7943    1.3887 N   0  0  0  0  0  0  0  0  0  0  0  0
    0.8523    1.2961    1.8713 H   0  0  0  0  0  0  0  0  0  0  0  0
   -0.0481    3.2238    1.6269 C   0  0  0  0  0  0  0  0  0  0  0  0
   -1.0722    3.4497    1.9421 H   0  0  0  0  0  0  0  0  0  0  0  0
    0.6361    3.5544    2.4143 H   0  0  0  0  0  0  0  0  0  0  0  0
    0.1739    3.7896    0.7158 H   0  0  0  0  0  0  0  0  0  0  0  0
  1  2  1  0  0  0  0
  2  3  1  0  0  0  0
  2  4  1  0  0  0  0
  2  5  1  0  0  0  0
  5  6  2  0  0  0  0
  5  7  1  0  0  0  0
  7  8  1  0  0  0  0
  7  9  1  0  0  0  0
  9 10  1  0  0  0  0
  9 11  1  0  0  0  0
  9 22  1  0  0  0  0
 11 12  1  0  0  0  0
 11 13  1  0  0  0  0
 11 14  1  0  0  0  0
 14 15  1  0  0  0  0
 14 20  2  0  0  0  0
 15 16  1  0  0  0  0
 15 17  1  0  0  0  0
 17 18  1  0  0  0  0
 17 19  2  0  0  0  0
 19 20  1  0  0  0  0
 20 21  1  0  0  0  0
 22 23  2  0  0  0  0
 22 24  1  0  0  0  0
 24 25  1  0  0  0  0
 24 26  1  0  0  0  0
 26 27  1  0  0  0  0
 26 28  1  0  0  0  0
 26 29  1  0  0  0  0
M  END
$$$$

  -OEChem-04042215593D

 29 29  0     1  0  0  0  0  0999 V2000
   -3.5559   -3.6304    1.4765 H   0  0  0  0  0  0  0  0  0  0  0  0
   -3.4846   -2.7128    0.8857 C   0  0  0  0  0  0  0  0  0  0  0  0
   -4.1100   -1.9461    1.3493 H   0  0  0  0  0  0  0  0  0  0  0  0
   -3.8534   -2.9136   -0.1230 H   0  0  0  0  0  0  0  0  0  0  0  0
   -2.0439   -2.2403    0.8263 C   0  0  0  0  0  0  0  0  0  0  0  0
   -1.1624   -2.8955    1.3587 O   0  0  0  0  0  0  0  0  0  0  0  0
   -1.7298   -1.0714    0.1664 N   0  0  0  0  0  0  0  0  0  0  0  0
   -2.5049   -0.4948   -0.1601 H   0  0  0  0  0  0  0  0  0  0  0  0
   -0.4035   -0.4355    0.1942 C   0  0  1  0  0  0  0  0  0  0  0  0
    0.2062   -0.8149    1.0206 H   0  0  0  0  0  0  0  0  0  0  0  0
    0.3051   -0.7423   -1.1447 C   0  0  0  0  0  0  0  0  0  0  0  0
    0.8152   -1.7077   -1.0662 H   0  0  0  0  0  0  0  0  0  0  0  0
   -0.4569   -0.8421   -1.9248 H   0  0  0  0  0  0  0  0  0  0  0  0
    1.2849    0.3093   -1.6113 C   0  0  0  0  0  0  0  0  0  0  0  0
    1.4032    0.8210   -2.8845 N   0  0  0  0  0  0  0  0  0  0  0  0
    0.8016    0.6082   -3.6776 H   0  0  0  0  0  0  0  0  0  0  0  0
    2.4477    1.7263   -2.8985 C   0  0  0  0  0  0  0  0  0  0  0  0
    2.7619    2.3038   -3.7632 H   0  0  0  0  0  0  0  0  0  0  0  0
    3.0077    1.7887   -1.7145 N   0  0  0  0  0  0  0  0  0  0  0  0
    2.3025    0.9034   -0.9088 C   0  0  0  0  0  0  0  0  0  0  0  0
    2.5336    0.7052    0.1333 H   0  0  0  0  0  0  0  0  0  0  0  0
   -0.6269    1.0767    0.4257 C   0  0  0  0  0  0  0  0  0  0  0  0
   -1.5487    1.6488   -0.1491 O   0  0  0  0  0  0  0  0  0  0  0  0
    0.1409    1.7776    1.3387 N   0  0  0  0  0  0  0  0  0  0  0  0
    0.9004    1.2819    1.7964 H   0  0  0  0  0  0  0  0  0  0  0  0
    0.0126    3.2140    1.5509 C   0  0  0  0  0  0  0  0  0  0  0  0
   -1.0052    3.4667    1.8666 H   0  0  0  0  0  0  0  0  0  0  0  0
    0.7069    3.5452    2.3291 H   0  0  0  0  0  0  0  0  0  0  0  0
    0.2418    3.7575    0.6280 H   0  0  0  0  0  0  0  0  0  0  0  0
  1  2  1  0  0  0  0
  2  3  1  0  0  0  0
  2  4  1  0  0  0  0
  2  5  1  0  0  0  0
  5  6  2  0  0  0  0
  5  7  1  0  0  0  0
  7  8  1  0  0  0  0
  7  9  1  0  0  0  0
  9 10  1  0  0  0  0
  9 11  1  0  0  0  0
  9 22  1  0  0  0  0
 11 12  1  0  0  0  0
 11 13  1  0  0  0  0
 11 14  1  0  0  0  0
 14 15  1  0  0  0  0
 14 20  2  0  0  0  0
 15 16  1  0  0  0  0
 15 17  1  0  0  0  0
 17 18  1  0  0  0  0
 17 19  2  0  0  0  0
 19 20  1  0  0  0  0
 20 21  1  0  0  0  0
 22 23  2  0  0  0  0
 22 24  1  0  0  0  0
 24 25  1  0  0  0  0
 24 26  1  0  0  0  0
 26 27  1  0  0  0  0
 26 28  1  0  0  0  0
 26 29  1  0  0  0  0
M  END
$$$$

  -OEChem-04042215593D

 29 29  0     1  0  0  0  0  0999 V2000
   -3.5605   -3.6324    1.4952 H   0  0  0  0  0  0  0  0  0  0  0  0
   -3.4901   -2.7180    0.8996 C   0  0  0  0  0  0  0  0  0  0  0  0
   -4.1123   -1.9479    1.3617 H   0  0  0  0  0  0  0  0  0  0  0  0
   -3.8627   -2.9231   -0.1067 H   0  0  0  0  0  0  0  0  0  0  0  0
   -2.0493   -2.2483    0.8322 C   0  0  0  0  0  0  0  0  0  0  0  0
   -1.1673   -2.8996    1.3685 O   0  0  0  0  0  0  0  0  0  0  0  0
   -1.7368   -1.0852    0.1614 N   0  0  0  0  0  0  0  0  0  0  0  0
   -2.5125   -0.5126   -0.1702 H   0  0  0  0  0  0  0  0  0  0  0  0
   -0.4106   -0.4496    0.1814 C   0  0  1  0  0  0  0  0  0  0  0  0
    0.1962   -0.8241    1.0120 H   0  0  0  0  0  0  0  0  0  0  0  0
    0.3065   -0.7622   -1.1494 C   0  0  0  0  0  0  0  0  0  0  0  0
    0.8312   -1.7186   -1.0555 H   0  0  0  0  0  0  0  0  0  0  0  0
   -0.4406   -0.8784   -1.9411 H   0  0  0  0  0  0  0  0  0  0  0  0
    1.2756    0.3094   -1.5849 C   0  0  0  0  0  0  0  0  0  0  0  0
    1.2397    1.0468   -2.7466 N   0  0  0  0  0  0  0  0  0  0  0  0
    0.5085    1.0207   -3.4546 H   0  0  0  0  0  0  0  0  0  0  0  0
    2.3293    1.8972   -2.7570 C   0  0  0  0  0  0  0  0  0  0  0  0
    2.5520    2.6163   -3.5400 H   0  0  0  0  0  0  0  0  0  0  0  0
    3.0574    1.7122   -1.6815 N   0  0  0  0  0  0  0  0  0  0  0  0
    2.4203    0.7170   -0.9503 C   0  0  0  0  0  0  0  0  0  0  0  0
    2.7795    0.3203   -0.0055 H   0  0  0  0  0  0  0  0  0  0  0  0
   -0.6192    1.0665    0.4000 C   0  0  0  0  0  0  0  0  0  0  0  0
   -1.5392    1.6418   -0.1751 O   0  0  0  0  0  0  0  0  0  0  0  0
    0.1600    1.7653    1.3044 N   0  0  0  0  0  0  0  0  0  0  0  0
    0.9349    1.2708    1.7369 H   0  0  0  0  0  0  0  0  0  0  0  0
    0.0555    3.2058    1.4986 C   0  0  0  0  0  0  0  0  0  0  0  0
   -0.9569    3.4787    1.8143 H   0  0  0  0  0  0  0  0  0  0  0  0
    0.7575    3.5350    2.2708 H   0  0  0  0  0  0  0  0  0  0  0  0
    0.2906    3.7342    0.5686 H   0  0  0  0  0  0  0  0  0  0  0  0
  1  2  1  0  0  0  0
  2  3  1  0  0  0  0
  2  4  1  0  0  0  0
  2  5  1  0  0  0  0
  5  6  2  0  0  0  0
  5  7  1  0  0  0  0
  7  8  1  0  0  0  0
  7  9  1  0  0  0  0
  9 10  1  0  0  0  0
  9 11  1  0  0  0  0
  9 22  1  0  0  0  0
 11 12  1  0  0  0  0
 11 13  1  0  0  0  0
 11 14  1  0  0  0  0
 14 15  1  0  0  0  0
 14 20  2  0  0  0  0
 15 16  1  0  0  0  0
 15 17  1  0  0  0  0
 17 18  1  0  0  0  0
 17 19  2  0  0  0  0
 19 20  1  0  0  0  0
 20 21  1  0  0  0  0
 22 23  2  0  0  0  0
 22 24  1  0  0  0  0
 24 25  1  0  0  0  0
 24 26  1  0  0  0  0
 26 27  1  0  0  0  0
 26 28  1  0  0  0  0
 26 29  1  0  0  0  0
M  END
$$$$

  -OEChem-04042215593D

 29 29  0     1  0  0  0  0  0999 V2000
   -3.5647   -3.6367    1.4920 H   0  0  0  0  0  0  0  0  0  0  0  0
   -3.4936   -2.7226    0.8959 C   0  0  0  0  0  0  0  0  0  0  0  0
   -4.1182   -1.9529    1.3558 H   0  0  0  0  0  0  0  0  0  0  0  0
   -3.8633   -2.9290   -0.1113 H   0  0  0  0  0  0  0  0  0  0  0  0
   -2.0530   -2.2516    0.8325 C   0  0  0  0  0  0  0  0  0  0  0  0
   -1.1730   -2.8999    1.3759 O   0  0  0  0  0  0  0  0  0  0  0  0
   -1.7383   -1.0907    0.1587 N   0  0  0  0  0  0  0  0  0  0  0  0
   -2.5130   -0.5205   -0.1789 H   0  0  0  0  0  0  0  0  0  0  0  0
   -0.4121   -0.4553    0.1799 C   0  0  1  0  0  0  0  0  0  0  0  0
    0.1913   -0.8268    1.0147 H   0  0  0  0  0  0  0  0  0  0  0  0
    0.3130   -0.7711   -1.1449 C   0  0  0  0  0  0  0  0  0  0  0  0
    0.8455   -1.7218   -1.0369 H   0  0  0  0  0  0  0  0  0  0  0  0
   -0.4214   -0.8991   -1.9468 H   0  0  0  0  0  0  0  0  0  0  0  0
    1.2774    0.3112   -1.5606 C   0  0  0  0  0  0  0  0  0  0  0  0
    1.1073    1.2453   -2.5570 N   0  0  0  0  0  0  0  0  0  0  0  0
    0.2602    1.3960   -3.1023 H   0  0  0  0  0  0  0  0  0  0  0  0
    2.2452    2.0273   -2.6182 C   0  0  0  0  0  0  0  0  0  0  0  0
    2.3911    2.8649   -3.2943 H   0  0  0  0  0  0  0  0  0  0  0  0
    3.1249    1.6148   -1.7363 N   0  0  0  0  0  0  0  0  0  0  0  0
    2.5413    0.5361   -1.0822 C   0  0  0  0  0  0  0  0  0  0  0  0
    3.0191   -0.0429   -0.2978 H   0  0  0  0  0  0  0  0  0  0  0  0
   -0.6140    1.0623    0.3924 C   0  0  0  0  0  0  0  0  0  0  0  0
   -1.5229    1.6420   -0.1966 O   0  0  0  0  0  0  0  0  0  0  0  0
    0.1668    1.7605    1.2956 N   0  0  0  0  0  0  0  0  0  0  0  0
    0.9460    1.2657    1.7205 H   0  0  0  0  0  0  0  0  0  0  0  0
    0.0723    3.2032    1.4786 C   0  0  0  0  0  0  0  0  0  0  0  0
   -0.9402    3.4862    1.7851 H   0  0  0  0  0  0  0  0  0  0  0  0
    0.7712    3.5321    2.2536 H   0  0  0  0  0  0  0  0  0  0  0  0
    0.3179    3.7228    0.5464 H   0  0  0  0  0  0  0  0  0  0  0  0
  1  2  1  0  0  0  0
  2  3  1  0  0  0  0
  2  4  1  0  0  0  0
  2  5  1  0  0  0  0
  5  6  2  0  0  0  0
  5  7  1  0  0  0  0
  7  8  1  0  0  0  0
  7  9  1  0  0  0  0
  9 10  1  0  0  0  0
  9 11  1  0  0  0  0
  9 22  1  0  0  0  0
 11 12  1  0  0  0  0
 11 13  1  0  0  0  0
 11 14  1  0  0  0  0
 14 15  1  0  0  0  0
 14 20  2  0  0  0  0
 15 16  1  0  0  0  0
 15 17  1  0  0  0  0
 17 18  1  0  0  0  0
 17 19  2  0  0  0  0
 19 20  1  0  0  0  0
 20 21  1  0  0  0  0
 22 23  2  0  0  0  0
 22 24  1  0  0  0  0
 24 25  1  0  0  0  0
 24 26  1  0  0  0  0
 26 27  1  0  0  0  0
 26 28  1  0  0  0  0
 26 29  1  0  0  0  0
M  END
$$$$

  -OEChem-04042215593D

 29 29  0     1  0  0  0  0  0999 V2000
   -3.5747   -3.6442    1.4629 H   0  0  0  0  0  0  0  0  0  0  0  0
   -3.4963   -2.7286    0.8698 C   0  0  0  0  0  0  0  0  0  0  0  0
   -4.1347   -1.9632    1.3177 H   0  0  0  0  0  0  0  0  0  0  0  0
   -3.8436   -2.9353   -0.1453 H   0  0  0  0  0  0  0  0  0  0  0  0
   -2.0576   -2.2488    0.8358 C   0  0  0  0  0  0  0  0  0  0  0  0
   -1.1848   -2.8903    1.3979 O   0  0  0  0  0  0  0  0  0  0  0  0
   -1.7374   -1.0883    0.1641 N   0  0  0  0  0  0  0  0  0  0  0  0
   -2.5086   -0.5279   -0.1960 H   0  0  0  0  0  0  0  0  0  0  0  0
   -0.4117   -0.4523    0.1926 C   0  0  1  0  0  0  0  0  0  0  0  0
    0.1866   -0.8245    1.0306 H   0  0  0  0  0  0  0  0  0  0  0  0
    0.3213   -0.7755   -1.1263 C   0  0  0  0  0  0  0  0  0  0  0  0
    0.8523   -1.7258   -1.0076 H   0  0  0  0  0  0  0  0  0  0  0  0
   -0.4064   -0.9088   -1.9336 H   0  0  0  0  0  0  0  0  0  0  0  0
    1.2881    0.3048   -1.5417 C   0  0  0  0  0  0  0  0  0  0  0  0
    1.0190    1.3977   -2.3345 N   0  0  0  0  0  0  0  0  0  0  0  0
    0.0982    1.6881   -2.6621 H   0  0  0  0  0  0  0  0  0  0  0  0
    2.1868    2.1192   -2.4910 C   0  0  0  0  0  0  0  0  0  0  0  0
    2.2768    3.0490   -3.0454 H   0  0  0  0  0  0  0  0  0  0  0  0
    3.1730    1.5215   -1.8649 N   0  0  0  0  0  0  0  0  0  0  0  0
    2.6309    0.3807   -1.2829 C   0  0  0  0  0  0  0  0  0  0  0  0
    3.1927   -0.3435   -0.7005 H   0  0  0  0  0  0  0  0  0  0  0  0
   -0.6083    1.0659    0.4030 C   0  0  0  0  0  0  0  0  0  0  0  0
   -1.4938    1.6547   -0.2128 O   0  0  0  0  0  0  0  0  0  0  0  0
    0.1703    1.7621    1.3096 N   0  0  0  0  0  0  0  0  0  0  0  0
    0.9417    1.2615    1.7426 H   0  0  0  0  0  0  0  0  0  0  0  0
    0.0870    3.2063    1.4871 C   0  0  0  0  0  0  0  0  0  0  0  0
   -0.9244    3.4985    1.7888 H   0  0  0  0  0  0  0  0  0  0  0  0
    0.7855    3.5329    2.2637 H   0  0  0  0  0  0  0  0  0  0  0  0
    0.3404    3.7212    0.5544 H   0  0  0  0  0  0  0  0  0  0  0  0
  1  2  1  0  0  0  0
  2  3  1  0  0  0  0
  2  4  1  0  0  0  0
  2  5  1  0  0  0  0
  5  6  2  0  0  0  0
  5  7  1  0  0  0  0
  7  8  1  0  0  0  0
  7  9  1  0  0  0  0
  9 10  1  0  0  0  0
  9 11  1  0  0  0  0
  9 22  1  0  0  0  0
 11 12  1  0  0  0  0
 11 13  1  0  0  0  0
 11 14  1  0  0  0  0
 14 15  1  0  0  0  0
 14 20  2  0  0  0  0
 15 16  1  0  0  0  0
 15 17  1  0  0  0  0
 17 18  1  0  0  0  0
 17 19  2  0  0  0  0
 19 20  1  0  0  0  0
 20 21  1  0  0  0  0
 22 23  2  0  0  0  0
 22 24  1  0  0  0  0
 24 25  1  0  0  0  0
 24 26  1  0  0  0  0
 26 27  1  0  0  0  0
 26 28  1  0  0  0  0
 26 29  1  0  0  0  0
M  END
$$$$

  -OEChem-04042215593D

 29 29  0     1  0  0  0  0  0999 V2000
   -3.5676   -3.6577    1.4331 H   0  0  0  0  0  0  0  0  0  0  0  0
   -3.4919   -2.7370    0.8477 C   0  0  0  0  0  0  0  0  0  0  0  0
   -4.1431   -1.9814    1.2938 H   0  0  0  0  0  0  0  0  0  0  0  0
   -3.8256   -2.9401   -0.1727 H   0  0  0  0  0  0  0  0  0  0  0  0
   -2.0580   -2.2428    0.8345 C   0  0  0  0  0  0  0  0  0  0  0  0
   -1.1867   -2.8776    1.4067 O   0  0  0  0  0  0  0  0  0  0  0  0
   -1.7397   -1.0774    0.1699 N   0  0  0  0  0  0  0  0  0  0  0  0
   -2.5095   -0.5277   -0.2089 H   0  0  0  0  0  0  0  0  0  0  0  0
   -0.4166   -0.4364    0.2066 C   0  0  1  0  0  0  0  0  0  0  0  0
    0.1757   -0.8088    1.0488 H   0  0  0  0  0  0  0  0  0  0  0  0
    0.3267   -0.7717   -1.1058 C   0  0  0  0  0  0  0  0  0  0  0  0
    0.8501   -1.7250   -0.9774 H   0  0  0  0  0  0  0  0  0  0  0  0
   -0.4005   -0.9074   -1.9130 H   0  0  0  0  0  0  0  0  0  0  0  0
    1.3005    0.2940   -1.5461 C   0  0  0  0  0  0  0  0  0  0  0  0
    0.9988    1.5110   -2.1171 N   0  0  0  0  0  0  0  0  0  0  0  0
    0.0630    1.9061   -2.2221 H   0  0  0  0  0  0  0  0  0  0  0  0
    2.1811    2.1717   -2.3868 C   0  0  0  0  0  0  0  0  0  0  0  0
    2.2565    3.1663   -2.8172 H   0  0  0  0  0  0  0  0  0  0  0  0
    3.2027    1.4255   -2.0385 N   0  0  0  0  0  0  0  0  0  0  0  0
    2.6693    0.2469   -1.5269 C   0  0  0  0  0  0  0  0  0  0  0  0
    3.2568   -0.5889   -1.1584 H   0  0  0  0  0  0  0  0  0  0  0  0
   -0.6108    1.0798    0.4237 C   0  0  0  0  0  0  0  0  0  0  0  0
   -1.4676    1.6836   -0.2180 O   0  0  0  0  0  0  0  0  0  0  0  0
    0.1669    1.7679    1.3366 N   0  0  0  0  0  0  0  0  0  0  0  0
    0.9155    1.2538    1.7933 H   0  0  0  0  0  0  0  0  0  0  0  0
    0.0905    3.2104    1.5273 C   0  0  0  0  0  0  0  0  0  0  0  0
   -0.9223    3.5056    1.8212 H   0  0  0  0  0  0  0  0  0  0  0  0
    0.7827    3.5245    2.3145 H   0  0  0  0  0  0  0  0  0  0  0  0
    0.3569    3.7327    0.6025 H   0  0  0  0  0  0  0  0  0  0  0  0
  1  2  1  0  0  0  0
  2  3  1  0  0  0  0
  2  4  1  0  0  0  0
  2  5  1  0  0  0  0
  5  6  2  0  0  0  0
  5  7  1  0  0  0  0
  7  8  1  0  0  0  0
  7  9  1  0  0  0  0
  9 10  1  0  0  0  0
  9 11  1  0  0  0  0
  9 22  1  0  0  0  0
 11 12  1  0  0  0  0
 11 13  1  0  0  0  0
 11 14  1  0  0  0  0
 14 15  1  0  0  0  0
 14 20  2  0  0  0  0
 15 16  1  0  0  0  0
 15 17  1  0  0  0  0
 17 18  1  0  0  0  0
 17 19  2  0  0  0  0
 19 20  1  0  0  0  0
 20 21  1  0  0  0  0
 22 23  2  0  0  0  0
 22 24  1  0  0  0  0
 24 25  1  0  0  0  0
 24 26  1  0  0  0  0
 26 27  1  0  0  0  0
 26 28  1  0  0  0  0
 26 29  1  0  0  0  0
M  END
$$$$

  -OEChem-04042215593D

 29 29  0     1  0  0  0  0  0999 V2000
   -3.5465   -3.6810    1.4026 H   0  0  0  0  0  0  0  0  0  0  0  0
   -3.4797   -2.7539    0.8262 C   0  0  0  0  0  0  0  0  0  0  0  0
   -4.1464   -2.0124    1.2731 H   0  0  0  0  0  0  0  0  0  0  0  0
   -3.8007   -2.9526   -0.1991 H   0  0  0  0  0  0  0  0  0  0  0  0
   -2.0532   -2.2384    0.8311 C   0  0  0  0  0  0  0  0  0  0  0  0
   -1.1787   -2.8653    1.4067 O   0  0  0  0  0  0  0  0  0  0  0  0
   -1.7450   -1.0624    0.1802 N   0  0  0  0  0  0  0  0  0  0  0  0
   -2.5168   -0.5256   -0.2124 H   0  0  0  0  0  0  0  0  0  0  0  0
   -0.4270   -0.4106    0.2205 C   0  0  1  0  0  0  0  0  0  0  0  0
    0.1635   -0.7856    1.0629 H   0  0  0  0  0  0  0  0  0  0  0  0
    0.3240   -0.7582   -1.0871 C   0  0  0  0  0  0  0  0  0  0  0  0
    0.8398   -1.7143   -0.9492 H   0  0  0  0  0  0  0  0  0  0  0  0
   -0.4084   -0.9007   -1.8885 H   0  0  0  0  0  0  0  0  0  0  0  0
    1.3036    0.2869   -1.5707 C   0  0  0  0  0  0  0  0  0  0  0  0
    1.0459    1.5958   -1.9193 N   0  0  0  0  0  0  0  0  0  0  0  0
    0.1405    2.0658   -1.8472 H   0  0  0  0  0  0  0  0  0  0  0  0
    2.2303    2.1907   -2.3059 C   0  0  0  0  0  0  0  0  0  0  0  0
    2.3358    3.2237   -2.6245 H   0  0  0  0  0  0  0  0  0  0  0  0
    3.2131    1.3255   -2.2255 N   0  0  0  0  0  0  0  0  0  0  0  0
    2.6494    0.1346   -1.7779 C   0  0  0  0  0  0  0  0  0  0  0  0
    3.2018   -0.7853   -1.6101 H   0  0  0  0  0  0  0  0  0  0  0  0
   -0.6204    1.1014    0.4560 C   0  0  0  0  0  0  0  0  0  0  0  0
   -1.4548    1.7226   -0.1977 O   0  0  0  0  0  0  0  0  0  0  0  0
    0.1619    1.7774    1.3744 N   0  0  0  0  0  0  0  0  0  0  0  0
    0.8874    1.2477    1.8507 H   0  0  0  0  0  0  0  0  0  0  0  0
    0.0865    3.2165    1.5914 C   0  0  0  0  0  0  0  0  0  0  0  0
   -0.9261    3.5074    1.8904 H   0  0  0  0  0  0  0  0  0  0  0  0
    0.7786    3.5147    2.3847 H   0  0  0  0  0  0  0  0  0  0  0  0
    0.3543    3.7564    0.6773 H   0  0  0  0  0  0  0  0  0  0  0  0
  1  2  1  0  0  0  0
  2  3  1  0  0  0  0
  2  4  1  0  0  0  0
  2  5  1  0  0  0  0
  5  6  2  0  0  0  0
  5  7  1  0  0  0  0
  7  8  1  0  0  0  0
  7  9  1  0  0  0  0
  9 10  1  0  0  0  0
  9 11  1  0  0  0  0
  9 22  1  0  0  0  0
 11 12  1  0  0  0  0
 11 13  1  0  0  0  0
 11 14  1  0  0  0  0
 14 15  1  0  0  0  0
 14 20  2  0  0  0  0
 15 16  1  0  0  0  0
 15 17  1  0  0  0  0
 17 18  1  0  0  0  0
 17 19  2  0  0  0  0
 19 20  1  0  0  0  0
 20 21  1  0  0  0  0
 22 23  2  0  0  0  0
 22 24  1  0  0  0  0
 24 25  1  0  0  0  0
 24 26  1  0  0  0  0
 26 27  1  0  0  0  0
 26 28  1  0  0  0  0
 26 29  1  0  0  0  0
M  END
$$$$

  -OEChem-04042215593D

 29 29  0     1  0  0  0  0  0999 V2000
   -3.5225   -3.7043    1.3718 H   0  0  0  0  0  0  0  0  0  0  0  0
   -3.4637   -2.7704    0.8057 C   0  0  0  0  0  0  0  0  0  0  0  0
   -4.1462   -2.0438    1.2530 H   0  0  0  0  0  0  0  0  0  0  0  0
   -3.7714   -2.9637   -0.2248 H   0  0  0  0  0  0  0  0  0  0  0  0
   -2.0450   -2.2336    0.8304 C   0  0  0  0  0  0  0  0  0  0  0  0
   -1.1663   -2.8544    1.4064 O   0  0  0  0  0  0  0  0  0  0  0  0
   -1.7473   -1.0471    0.1935 N   0  0  0  0  0  0  0  0  0  0  0  0
   -2.5213   -0.5225   -0.2111 H   0  0  0  0  0  0  0  0  0  0  0  0
   -0.4340   -0.3852    0.2337 C   0  0  1  0  0  0  0  0  0  0  0  0
    0.1583   -0.7631    1.0735 H   0  0  0  0  0  0  0  0  0  0  0  0
    0.3194   -0.7391   -1.0734 C   0  0  0  0  0  0  0  0  0  0  0  0
    0.8278   -1.6988   -0.9324 H   0  0  0  0  0  0  0  0  0  0  0  0
   -0.4218   -0.8834   -1.8663 H   0  0  0  0  0  0  0  0  0  0  0  0
    1.3030    0.2859   -1.5988 C   0  0  0  0  0  0  0  0  0  0  0  0
    1.1574    1.6515   -1.7286 N   0  0  0  0  0  0  0  0  0  0  0  0
    0.3144    2.1856   -1.5041 H   0  0  0  0  0  0  0  0  0  0  0  0
    2.3284    2.1789   -2.2341 C   0  0  0  0  0  0  0  0  0  0  0  0
    2.5010    3.2303   -2.4453 H   0  0  0  0  0  0  0  0  0  0  0  0
    3.2053    1.2221   -2.4201 N   0  0  0  0  0  0  0  0  0  0  0  0
    2.5805    0.0410   -2.0319 C   0  0  0  0  0  0  0  0  0  0  0  0
    3.0460   -0.9398   -2.0616 H   0  0  0  0  0  0  0  0  0  0  0  0
   -0.6304    1.1219    0.4890 C   0  0  0  0  0  0  0  0  0  0  0  0
   -1.4514    1.7571   -0.1663 O   0  0  0  0  0  0  0  0  0  0  0  0
    0.1563    1.7886    1.4106 N   0  0  0  0  0  0  0  0  0  0  0  0
    0.8630    1.2471    1.9021 H   0  0  0  0  0  0  0  0  0  0  0  0
    0.0651    3.2212    1.6647 C   0  0  0  0  0  0  0  0  0  0  0  0
   -0.9500    3.4926    1.9735 H   0  0  0  0  0  0  0  0  0  0  0  0
    0.7559    3.5075    2.4637 H   0  0  0  0  0  0  0  0  0  0  0  0
    0.3237    3.7877    0.7641 H   0  0  0  0  0  0  0  0  0  0  0  0
  1  2  1  0  0  0  0
  2  3  1  0  0  0  0
  2  4  1  0  0  0  0
  2  5  1  0  0  0  0
  5  6  2  0  0  0  0
  5  7  1  0  0  0  0
  7  8  1  0  0  0  0
  7  9  1  0  0  0  0
  9 10  1  0  0  0  0
  9 11  1  0  0  0  0
  9 22  1  0  0  0  0
 11 12  1  0  0  0  0
 11 13  1  0  0  0  0
 11 14  1  0  0  0  0
 14 15  1  0  0  0  0
 14 20  2  0  0  0  0
 15 16  1  0  0  0  0
 15 17  1  0  0  0  0
 17 18  1  0  0  0  0
 17 19  2  0  0  0  0
 19 20  1  0  0  0  0
 20 21  1  0  0  0  0
 22 23  2  0  0  0  0
 22 24  1  0  0  0  0
 24 25  1  0  0  0  0
 24 26  1  0  0  0  0
 26 27  1  0  0  0  0
 26 28  1  0  0  0  0
 26 29  1  0  0  0  0
M  END
$$$$

  -OEChem-04042215593D

 29 29  0     1  0  0  0  0  0999 V2000
   -3.5053   -3.7153    1.3428 H   0  0  0  0  0  0  0  0  0  0  0  0
   -3.4490   -2.7763    0.7848 C   0  0  0  0  0  0  0  0  0  0  0  0
   -4.1436   -2.0599    1.2299 H   0  0  0  0  0  0  0  0  0  0  0  0
   -3.7429   -2.9642   -0.2507 H   0  0  0  0  0  0  0  0  0  0  0  0
   -2.0362   -2.2256    0.8295 C   0  0  0  0  0  0  0  0  0  0  0  0
   -1.1579   -2.8401    1.4128 O   0  0  0  0  0  0  0  0  0  0  0  0
   -1.7434   -1.0332    0.2016 N   0  0  0  0  0  0  0  0  0  0  0  0
   -2.5175   -0.5153   -0.2115 H   0  0  0  0  0  0  0  0  0  0  0  0
   -0.4327   -0.3659    0.2434 C   0  0  1  0  0  0  0  0  0  0  0  0
    0.1614   -0.7463    1.0809 H   0  0  0  0  0  0  0  0  0  0  0  0
    0.3207   -0.7198   -1.0647 C   0  0  0  0  0  0  0  0  0  0  0  0
    0.8239   -1.6823   -0.9239 H   0  0  0  0  0  0  0  0  0  0  0  0
   -0.4269   -0.8643   -1.8518 H   0  0  0  0  0  0  0  0  0  0  0  0
    1.3088    0.2894   -1.6178 C   0  0  0  0  0  0  0  0  0  0  0  0
    1.3298    1.6674   -1.5409 N   0  0  0  0  0  0  0  0  0  0  0  0
    0.5852    2.2549   -1.1605 H   0  0  0  0  0  0  0  0  0  0  0  0
    2.4656    2.1343   -2.1719 C   0  0  0  0  0  0  0  0  0  0  0  0
    2.7341    3.1810   -2.2836 H   0  0  0  0  0  0  0  0  0  0  0  0
    3.1737    1.1271   -2.6206 N   0  0  0  0  0  0  0  0  0  0  0  0
    2.4678   -0.0224   -2.2815 C   0  0  0  0  0  0  0  0  0  0  0  0
    2.7959   -1.0326   -2.5073 H   0  0  0  0  0  0  0  0  0  0  0  0
   -0.6352    1.1374    0.5106 C   0  0  0  0  0  0  0  0  0  0  0  0
   -1.4557    1.7782   -0.1372 O   0  0  0  0  0  0  0  0  0  0  0  0
    0.1516    1.7996    1.4360 N   0  0  0  0  0  0  0  0  0  0  0  0
    0.8348    1.2482    1.9496 H   0  0  0  0  0  0  0  0  0  0  0  0
    0.0229    3.2201    1.7391 C   0  0  0  0  0  0  0  0  0  0  0  0
   -0.9959    3.4520    2.0674 H   0  0  0  0  0  0  0  0  0  0  0  0
    0.7145    3.4993    2.5399 H   0  0  0  0  0  0  0  0  0  0  0  0
    0.2551    3.8241    0.8559 H   0  0  0  0  0  0  0  0  0  0  0  0
  1  2  1  0  0  0  0
  2  3  1  0  0  0  0
  2  4  1  0  0  0  0
  2  5  1  0  0  0  0
  5  6  2  0  0  0  0
  5  7  1  0  0  0  0
  7  8  1  0  0  0  0
  7  9  1  0  0  0  0
  9 10  1  0  0  0  0
  9 11  1  0  0  0  0
  9 22  1  0  0  0  0
 11 12  1  0  0  0  0
 11 13  1  0  0  0  0
 11 14  1  0  0  0  0
 14 15  1  0  0  0  0
 14 20  2  0  0  0  0
 15 16  1  0  0  0  0
 15 17  1  0  0  0  0
 17 18  1  0  0  0  0
 17 19  2  0  0  0  0
 19 20  1  0  0  0  0
 20 21  1  0  0  0  0
 22 23  2  0  0  0  0
 22 24  1  0  0  0  0
 24 25  1  0  0  0  0
 24 26  1  0  0  0  0
 26 27  1  0  0  0  0
 26 28  1  0  0  0  0
 26 29  1  0  0  0  0
M  END
$$$$

  -OEChem-04042215593D

 29 29  0     1  0  0  0  0  0999 V2000
   -3.5170   -3.6788    1.3457 H   0  0  0  0  0  0  0  0  0  0  0  0
   -3.4517   -2.7406    0.7876 C   0  0  0  0  0  0  0  0  0  0  0  0
   -4.1316   -2.0141    1.2389 H   0  0  0  0  0  0  0  0  0  0  0  0
   -3.7572   -2.9231   -0.2455 H   0  0  0  0  0  0  0  0  0  0  0  0
   -2.0308   -2.2107    0.8208 C   0  0  0  0  0  0  0  0  0  0  0  0
   -1.1588   -2.8321    1.4064 O   0  0  0  0  0  0  0  0  0  0  0  0
   -1.7249   -1.0234    0.1899 N   0  0  0  0  0  0  0  0  0  0  0  0
   -2.4943   -0.4927   -0.2165 H   0  0  0  0  0  0  0  0  0  0  0  0
   -0.4090   -0.3671    0.2380 C   0  0  1  0  0  0  0  0  0  0  0  0
    0.1821   -0.7480    1.0773 H   0  0  0  0  0  0  0  0  0  0  0  0
    0.3451   -0.7135   -1.0707 C   0  0  0  0  0  0  0  0  0  0  0  0
    0.8392   -1.6816   -0.9366 H   0  0  0  0  0  0  0  0  0  0  0  0
   -0.4035   -0.8453   -1.8592 H   0  0  0  0  0  0  0  0  0  0  0  0
    1.3467    0.2851   -1.6220 C   0  0  0  0  0  0  0  0  0  0  0  0
    1.5718    1.6194   -1.3450 N   0  0  0  0  0  0  0  0  0  0  0  0
    0.9915    2.2155   -0.7540 H   0  0  0  0  0  0  0  0  0  0  0  0
    2.6389    2.0605   -2.1025 C   0  0  0  0  0  0  0  0  0  0  0  0
    3.0261    3.0754   -2.1063 H   0  0  0  0  0  0  0  0  0  0  0  0
    3.1168    1.0748   -2.8205 N   0  0  0  0  0  0  0  0  0  0  0  0
    2.3258   -0.0309   -2.5294 C   0  0  0  0  0  0  0  0  0  0  0  0
    2.4684   -1.0166   -2.9621 H   0  0  0  0  0  0  0  0  0  0  0  0
   -0.6245    1.1352    0.4987 C   0  0  0  0  0  0  0  0  0  0  0  0
   -1.4752    1.7592   -0.1244 O   0  0  0  0  0  0  0  0  0  0  0  0
    0.1495    1.8062    1.4292 N   0  0  0  0  0  0  0  0  0  0  0  0
    0.7954    1.2494    1.9843 H   0  0  0  0  0  0  0  0  0  0  0  0
   -0.0637    3.2024    1.7930 C   0  0  0  0  0  0  0  0  0  0  0  0
   -1.0723    3.3438    2.1961 H   0  0  0  0  0  0  0  0  0  0  0  0
    0.6594    3.5092    2.5551 H   0  0  0  0  0  0  0  0  0  0  0  0
    0.0604    3.8509    0.9195 H   0  0  0  0  0  0  0  0  0  0  0  0
  1  2  1  0  0  0  0
  2  3  1  0  0  0  0
  2  4  1  0  0  0  0
  2  5  1  0  0  0  0
  5  6  2  0  0  0  0
  5  7  1  0  0  0  0
  7  8  1  0  0  0  0
  7  9  1  0  0  0  0
  9 10  1  0  0  0  0
  9 11  1  0  0  0  0
  9 22  1  0  0  0  0
 11 12  1  0  0  0  0
 11 13  1  0  0  0  0
 11 14  1  0  0  0  0
 14 15  1  0  0  0  0
 14 20  2  0  0  0  0
 15 16  1  0  0  0  0
 15 17  1  0  0  0  0
 17 18  1  0  0  0  0
 17 19  2  0  0  0  0
 19 20  1  0  0  0  0
 20 21  1  0  0  0  0
 22 23  2  0  0  0  0
 22 24  1  0  0  0  0
 24 25  1  0  0  0  0
 24 26  1  0  0  0  0
 26 27  1  0  0  0  0
 26 28  1  0  0  0  0
 26 29  1  0  0  0  0
M  END
$$$$

  -OEChem-04042215593D

 29 29  0     1  0  0  0  0  0999 V2000
   -3.5464   -3.6387    1.3463 H   0  0  0  0  0  0  0  0  0  0  0  0
   -3.4660   -2.7068    0.7798 C   0  0  0  0  0  0  0  0  0  0  0  0
   -4.1387   -1.9673    1.2205 H   0  0  0  0  0  0  0  0  0  0  0  0
   -3.7682   -2.8948   -0.2532 H   0  0  0  0  0  0  0  0  0  0  0  0
   -2.0386   -2.1953    0.8160 C   0  0  0  0  0  0  0  0  0  0  0  0
   -1.1781   -2.8206    1.4145 O   0  0  0  0  0  0  0  0  0  0  0  0
   -1.7143   -1.0177    0.1766 N   0  0  0  0  0  0  0  0  0  0  0  0
   -2.4758   -0.4774   -0.2326 H   0  0  0  0  0  0  0  0  0  0  0  0
   -0.3929   -0.3740    0.2336 C   0  0  1  0  0  0  0  0  0  0  0  0
    0.1879   -0.7532    1.0806 H   0  0  0  0  0  0  0  0  0  0  0  0
    0.3685   -0.7270   -1.0678 C   0  0  0  0  0  0  0  0  0  0  0  0
    0.8629   -1.6929   -0.9198 H   0  0  0  0  0  0  0  0  0  0  0  0
   -0.3706   -0.8670   -1.8639 H   0  0  0  0  0  0  0  0  0  0  0  0
    1.3829    0.2640   -1.6075 C   0  0  0  0  0  0  0  0  0  0  0  0
    1.8037    1.5008   -1.1583 N   0  0  0  0  0  0  0  0  0  0  0  0
    1.4085    2.0245   -0.3777 H   0  0  0  0  0  0  0  0  0  0  0  0
    2.7715    1.9825   -2.0181 C   0  0  0  0  0  0  0  0  0  0  0  0
    3.2695    2.9433   -1.9238 H   0  0  0  0  0  0  0  0  0  0  0  0
    3.0020    1.1117   -2.9687 N   0  0  0  0  0  0  0  0  0  0  0  0
    2.1470    0.0428   -2.7252 C   0  0  0  0  0  0  0  0  0  0  0  0
    2.0938   -0.8514   -3.3392 H   0  0  0  0  0  0  0  0  0  0  0  0
   -0.6058    1.1322    0.4767 C   0  0  0  0  0  0  0  0  0  0  0  0
   -1.4781    1.7434   -0.1290 O   0  0  0  0  0  0  0  0  0  0  0  0
    0.1633    1.8036    1.4125 N   0  0  0  0  0  0  0  0  0  0  0  0
    0.7637    1.2352    2.0061 H   0  0  0  0  0  0  0  0  0  0  0  0
   -0.0876    3.1877    1.7987 C   0  0  0  0  0  0  0  0  0  0  0  0
   -1.0860    3.2875    2.2377 H   0  0  0  0  0  0  0  0  0  0  0  0
    0.6504    3.5142    2.5379 H   0  0  0  0  0  0  0  0  0  0  0  0
   -0.0184    3.8489    0.9284 H   0  0  0  0  0  0  0  0  0  0  0  0
  1  2  1  0  0  0  0
  2  3  1  0  0  0  0
  2  4  1  0  0  0  0
  2  5  1  0  0  0  0
  5  6  2  0  0  0  0
  5  7  1  0  0  0  0
  7  8  1  0  0  0  0
  7  9  1  0  0  0  0
  9 10  1  0  0  0  0
  9 11  1  0  0  0  0
  9 22  1  0  0  0  0
 11 12  1  0  0  0  0
 11 13  1  0  0  0  0
 11 14  1  0  0  0  0
 14 15  1  0  0  0  0
 14 20  2  0  0  0  0
 15 16  1  0  0  0  0
 15 17  1  0  0  0  0
 17 18  1  0  0  0  0
 17 19  2  0  0  0  0
 19 20  1  0  0  0  0
 20 21  1  0  0  0  0
 22 23  2  0  0  0  0
 22 24  1  0  0  0  0
 24 25  1  0  0  0  0
 24 26  1  0  0  0  0
 26 27  1  0  0  0  0
 26 28  1  0  0  0  0
 26 29  1  0  0  0  0
M  END
$$$$

  -OEChem-04042215593D

 29 29  0     1  0  0  0  0  0999 V2000
   -3.5741   -3.6175    1.3477 H   0  0  0  0  0  0  0  0  0  0  0  0
   -3.4827   -2.6912    0.7736 C   0  0  0  0  0  0  0  0  0  0  0  0
   -4.1533   -1.9429    1.2029 H   0  0  0  0  0  0  0  0  0  0  0  0
   -3.7789   -2.8863   -0.2600 H   0  0  0  0  0  0  0  0  0  0  0  0
   -2.0518   -2.1901    0.8160 C   0  0  0  0  0  0  0  0  0  0  0  0
   -1.2011   -2.8163    1.4275 O   0  0  0  0  0  0  0  0  0  0  0  0
   -1.7130   -1.0216    0.1676 N   0  0  0  0  0  0  0  0  0  0  0  0
   -2.4670   -0.4775   -0.2505 H   0  0  0  0  0  0  0  0  0  0  0  0
   -0.3874   -0.3873    0.2306 C   0  0  1  0  0  0  0  0  0  0  0  0
    0.1849   -0.7657    1.0836 H   0  0  0  0  0  0  0  0  0  0  0  0
    0.3762   -0.7536   -1.0650 C   0  0  0  0  0  0  0  0  0  0  0  0
    0.8757   -1.7136   -0.8978 H   0  0  0  0  0  0  0  0  0  0  0  0
   -0.3545   -0.9094   -1.8663 H   0  0  0  0  0  0  0  0  0  0  0  0
    1.3973    0.2356   -1.5930 C   0  0  0  0  0  0  0  0  0  0  0  0
    2.0051    1.3284   -1.0066 N   0  0  0  0  0  0  0  0  0  0  0  0
    1.7839    1.7222   -0.0935 H   0  0  0  0  0  0  0  0  0  0  0  0
    2.8661    1.9026   -1.9219 C   0  0  0  0  0  0  0  0  0  0  0  0
    3.4681    2.7889   -1.7438 H   0  0  0  0  0  0  0  0  0  0  0  0
    2.8497    1.2246   -3.0421 N   0  0  0  0  0  0  0  0  0  0  0  0
    1.9388    0.1917   -2.8526 C   0  0  0  0  0  0  0  0  0  0  0  0
    1.6920   -0.5528   -3.6037 H   0  0  0  0  0  0  0  0  0  0  0  0
   -0.5843    1.1244    0.4566 C   0  0  0  0  0  0  0  0  0  0  0  0
   -1.4549    1.7355   -0.1521 O   0  0  0  0  0  0  0  0  0  0  0  0
    0.1874    1.7918    1.3944 N   0  0  0  0  0  0  0  0  0  0  0  0
    0.7391    1.2147    2.0253 H   0  0  0  0  0  0  0  0  0  0  0  0
   -0.0448    3.1862    1.7542 C   0  0  0  0  0  0  0  0  0  0  0  0
   -1.0441    3.3095    2.1850 H   0  0  0  0  0  0  0  0  0  0  0  0
    0.6943    3.5159    2.4907 H   0  0  0  0  0  0  0  0  0  0  0  0
    0.0392    3.8294    0.8717 H   0  0  0  0  0  0  0  0  0  0  0  0
  1  2  1  0  0  0  0
  2  3  1  0  0  0  0
  2  4  1  0  0  0  0
  2  5  1  0  0  0  0
  5  6  2  0  0  0  0
  5  7  1  0  0  0  0
  7  8  1  0  0  0  0
  7  9  1  0  0  0  0
  9 10  1  0  0  0  0
  9 11  1  0  0  0  0
  9 22  1  0  0  0  0
 11 12  1  0  0  0  0
 11 13  1  0  0  0  0
 11 14  1  0  0  0  0
 14 15  1  0  0  0  0
 14 20  2  0  0  0  0
 15 16  1  0  0  0  0
 15 17  1  0  0  0  0
 17 18  1  0  0  0  0
 17 19  2  0  0  0  0
 19 20  1  0  0  0  0
 20 21  1  0  0  0  0
 22 23  2  0  0  0  0
 22 24  1  0  0  0  0
 24 25  1  0  0  0  0
 24 26  1  0  0  0  0
 26 27  1  0  0  0  0
 26 28  1  0  0  0  0
 26 29  1  0  0  0  0
M  END
$$$$

  -OEChem-04042215593D

 29 29  0     1  0  0  0  0  0999 V2000
   -3.5926   -3.5982    1.3679 H   0  0  0  0  0  0  0  0  0  0  0  0
   -3.4929   -2.6775    0.7863 C   0  0  0  0  0  0  0  0  0  0  0  0
   -4.1580   -1.9203    1.2084 H   0  0  0  0  0  0  0  0  0  0  0  0
   -3.7894   -2.8791   -0.2458 H   0  0  0  0  0  0  0  0  0  0  0  0
   -2.0579   -2.1879    0.8263 C   0  0  0  0  0  0  0  0  0  0  0  0
   -1.2138   -2.8139    1.4473 O   0  0  0  0  0  0  0  0  0  0  0  0
   -1.7062   -1.0316    0.1631 N   0  0  0  0  0  0  0  0  0  0  0  0
   -2.4542   -0.4828   -0.2598 H   0  0  0  0  0  0  0  0  0  0  0  0
   -0.3750   -0.4090    0.2227 C   0  0  1  0  0  0  0  0  0  0  0  0
    0.1971   -0.7847    1.0769 H   0  0  0  0  0  0  0  0  0  0  0  0
    0.3741   -0.7853   -1.0772 C   0  0  0  0  0  0  0  0  0  0  0  0
    0.8724   -1.7460   -0.9119 H   0  0  0  0  0  0  0  0  0  0  0  0
   -0.3592   -0.9383   -1.8765 H   0  0  0  0  0  0  0  0  0  0  0  0
    1.3952    0.2071   -1.5918 C   0  0  0  0  0  0  0  0  0  0  0  0
    2.1918    1.1084   -0.9151 N   0  0  0  0  0  0  0  0  0  0  0  0
    2.1791    1.2938    0.0848 H   0  0  0  0  0  0  0  0  0  0  0  0
    2.9460    1.8095   -1.8366 C   0  0  0  0  0  0  0  0  0  0  0  0
    3.6560    2.5949   -1.5943 H   0  0  0  0  0  0  0  0  0  0  0  0
    2.6800    1.3919   -3.0491 N   0  0  0  0  0  0  0  0  0  0  0  0
    1.7123    0.4031   -2.9117 C   0  0  0  0  0  0  0  0  0  0  0  0
    1.2681   -0.1403   -3.7404 H   0  0  0  0  0  0  0  0  0  0  0  0
   -0.5591    1.1089    0.4274 C   0  0  0  0  0  0  0  0  0  0  0  0
   -1.4313    1.7130   -0.1869 O   0  0  0  0  0  0  0  0  0  0  0  0
    0.2131    1.7844    1.3589 N   0  0  0  0  0  0  0  0  0  0  0  0
    0.7462    1.2139    2.0097 H   0  0  0  0  0  0  0  0  0  0  0  0
   -0.0024    3.1898    1.6847 C   0  0  0  0  0  0  0  0  0  0  0  0
   -1.0073    3.3395    2.0936 H   0  0  0  0  0  0  0  0  0  0  0  0
    0.7281    3.5229    2.4280 H   0  0  0  0  0  0  0  0  0  0  0  0
    0.1096    3.8119    0.7903 H   0  0  0  0  0  0  0  0  0  0  0  0
  1  2  1  0  0  0  0
  2  3  1  0  0  0  0
  2  4  1  0  0  0  0
  2  5  1  0  0  0  0
  5  6  2  0  0  0  0
  5  7  1  0  0  0  0
  7  8  1  0  0  0  0
  7  9  1  0  0  0  0
  9 10  1  0  0  0  0
  9 11  1  0  0  0  0
  9 22  1  0  0  0  0
 11 12  1  0  0  0  0
 11 13  1  0  0  0  0
 11 14  1  0  0  0  0
 14 15  1  0  0  0  0
 14 20  2  0  0  0  0
 15 16  1  0  0  0  0
 15 17  1  0  0  0  0
 17 18  1  0  0  0  0
 17 19  2  0  0  0  0
 19 20  1  0  0  0  0
 20 21  1  0  0  0  0
 22 23  2  0  0  0  0
 22 24  1  0  0  0  0
 24 25  1  0  0  0  0
 24 26  1  0  0  0  0
 26 27  1  0  0  0  0
 26 28  1  0  0  0  0
 26 29  1  0  0  0  0
M  END
$$$$

  -OEChem-04042215593D

 29 29  0     1  0  0  0  0  0999 V2000
   -3.6050   -3.5780    1.4240 H   0  0  0  0  0  0  0  0  0  0  0  0
   -3.5013   -2.6661    0.8297 C   0  0  0  0  0  0  0  0  0  0  0  0
   -4.1427   -1.8921    1.2578 H   0  0  0  0  0  0  0  0  0  0  0  0
   -3.8243   -2.8736   -0.1932 H   0  0  0  0  0  0  0  0  0  0  0  0
   -2.0573   -2.2017    0.8321 C   0  0  0  0  0  0  0  0  0  0  0  0
   -1.2094   -2.8368    1.4389 O   0  0  0  0  0  0  0  0  0  0  0  0
   -1.7029   -1.0552    0.1538 N   0  0  0  0  0  0  0  0  0  0  0  0
   -2.4528   -0.4947   -0.2505 H   0  0  0  0  0  0  0  0  0  0  0  0
   -0.3671   -0.4419    0.2006 C   0  0  1  0  0  0  0  0  0  0  0  0
    0.2126   -0.8144    1.0509 H   0  0  0  0  0  0  0  0  0  0  0  0
    0.3653   -0.8118   -1.1089 C   0  0  0  0  0  0  0  0  0  0  0  0
    0.8634   -1.7760   -0.9651 H   0  0  0  0  0  0  0  0  0  0  0  0
   -0.3751   -0.9474   -1.9049 H   0  0  0  0  0  0  0  0  0  0  0  0
    1.3786    0.1981   -1.5966 C   0  0  0  0  0  0  0  0  0  0  0  0
    2.3488    0.8731   -0.8853 N   0  0  0  0  0  0  0  0  0  0  0  0
    2.5567    0.7695    0.1042 H   0  0  0  0  0  0  0  0  0  0  0  0
    3.0198    1.7164   -1.7507 C   0  0  0  0  0  0  0  0  0  0  0  0
    3.8395    2.3729   -1.4731 H   0  0  0  0  0  0  0  0  0  0  0  0
    2.5272    1.6075   -2.9597 N   0  0  0  0  0  0  0  0  0  0  0  0
    1.4999    0.6738   -2.8768 C   0  0  0  0  0  0  0  0  0  0  0  0
    0.8786    0.3662   -3.7126 H   0  0  0  0  0  0  0  0  0  0  0  0
   -0.5502    1.0798    0.3900 C   0  0  0  0  0  0  0  0  0  0  0  0
   -1.4370    1.6695   -0.2187 O   0  0  0  0  0  0  0  0  0  0  0  0
    0.2203    1.7736    1.3078 N   0  0  0  0  0  0  0  0  0  0  0  0
    0.8089    1.2276    1.9293 H   0  0  0  0  0  0  0  0  0  0  0  0
    0.0324    3.1925    1.5866 C   0  0  0  0  0  0  0  0  0  0  0  0
   -0.9719    3.3762    1.9828 H   0  0  0  0  0  0  0  0  0  0  0  0
    0.7646    3.5346    2.3242 H   0  0  0  0  0  0  0  0  0  0  0  0
    0.1636    3.7821    0.6729 H   0  0  0  0  0  0  0  0  0  0  0  0
  1  2  1  0  0  0  0
  2  3  1  0  0  0  0
  2  4  1  0  0  0  0
  2  5  1  0  0  0  0
  5  6  2  0  0  0  0
  5  7  1  0  0  0  0
  7  8  1  0  0  0  0
  7  9  1  0  0  0  0
  9 10  1  0  0  0  0
  9 11  1  0  0  0  0
  9 22  1  0  0  0  0
 11 12  1  0  0  0  0
 11 13  1  0  0  0  0
 11 14  1  0  0  0  0
 14 15  1  0  0  0  0
 14 20  2  0  0  0  0
 15 16  1  0  0  0  0
 15 17  1  0  0  0  0
 17 18  1  0  0  0  0
 17 19  2  0  0  0  0
 19 20  1  0  0  0  0
 20 21  1  0  0  0  0
 22 23  2  0  0  0  0
 22 24  1  0  0  0  0
 24 25  1  0  0  0  0
 24 26  1  0  0  0  0
 26 27  1  0  0  0  0
 26 28  1  0  0  0  0
 26 29  1  0  0  0  0
M  END
$$$$

  -OEChem-04042215593D

 29 29  0     1  0  0  0  0  0999 V2000
   -3.5993   -3.5849    1.4675 H   0  0  0  0  0  0  0  0  0  0  0  0
   -3.5032   -2.6765    0.8664 C   0  0  0  0  0  0  0  0  0  0  0  0
   -4.1304   -1.8963    1.3043 H   0  0  0  0  0  0  0  0  0  0  0  0
   -3.8496   -2.8867   -0.1483 H   0  0  0  0  0  0  0  0  0  0  0  0
   -2.0566   -2.2215    0.8347 C   0  0  0  0  0  0  0  0  0  0  0  0
   -1.1980   -2.8651    1.4173 O   0  0  0  0  0  0  0  0  0  0  0  0
   -1.7118   -1.0764    0.1491 N   0  0  0  0  0  0  0  0  0  0  0  0
   -2.4691   -0.5059   -0.2264 H   0  0  0  0  0  0  0  0  0  0  0  0
   -0.3752   -0.4643    0.1775 C   0  0  1  0  0  0  0  0  0  0  0  0
    0.2144   -0.8350    1.0219 H   0  0  0  0  0  0  0  0  0  0  0  0
    0.3477   -0.8221   -1.1390 C   0  0  0  0  0  0  0  0  0  0  0  0
    0.8486   -1.7881   -1.0202 H   0  0  0  0  0  0  0  0  0  0  0  0
   -0.3983   -0.9399   -1.9325 H   0  0  0  0  0  0  0  0  0  0  0  0
    1.3458    0.2131   -1.5980 C   0  0  0  0  0  0  0  0  0  0  0  0
    2.4663    0.6631   -0.9325 N   0  0  0  0  0  0  0  0  0  0  0  0
    2.8244    0.3156   -0.0462 H   0  0  0  0  0  0  0  0  0  0  0  0
    3.0801    1.6234   -1.7148 C   0  0  0  0  0  0  0  0  0  0  0  0
    3.9918    2.1528   -1.4533 H   0  0  0  0  0  0  0  0  0  0  0  0
    2.4065    1.8007   -2.8247 N   0  0  0  0  0  0  0  0  0  0  0  0
    1.3206    0.9330   -2.7645 C   0  0  0  0  0  0  0  0  0  0  0  0
    0.5593    0.8415   -3.5336 H   0  0  0  0  0  0  0  0  0  0  0  0
   -0.5573    1.0588    0.3664 C   0  0  0  0  0  0  0  0  0  0  0  0
   -1.4639    1.6400   -0.2219 O   0  0  0  0  0  0  0  0  0  0  0  0
    0.2216    1.7602    1.2701 N   0  0  0  0  0  0  0  0  0  0  0  0
    0.9090    1.2400    1.8055 H   0  0  0  0  0  0  0  0  0  0  0  0
    0.0788    3.1922    1.5031 C   0  0  0  0  0  0  0  0  0  0  0  0
   -0.9250    3.4223    1.8756 H   0  0  0  0  0  0  0  0  0  0  0  0
    0.8088    3.5306    2.2445 H   0  0  0  0  0  0  0  0  0  0  0  0
    0.2465    3.7484    0.5746 H   0  0  0  0  0  0  0  0  0  0  0  0
  1  2  1  0  0  0  0
  2  3  1  0  0  0  0
  2  4  1  0  0  0  0
  2  5  1  0  0  0  0
  5  6  2  0  0  0  0
  5  7  1  0  0  0  0
  7  8  1  0  0  0  0
  7  9  1  0  0  0  0
  9 10  1  0  0  0  0
  9 11  1  0  0  0  0
  9 22  1  0  0  0  0
 11 12  1  0  0  0  0
 11 13  1  0  0  0  0
 11 14  1  0  0  0  0
 14 15  1  0  0  0  0
 14 20  2  0  0  0  0
 15 16  1  0  0  0  0
 15 17  1  0  0  0  0
 17 18  1  0  0  0  0
 17 19  2  0  0  0  0
 19 20  1  0  0  0  0
 20 21  1  0  0  0  0
 22 23  2  0  0  0  0
 22 24  1  0  0  0  0
 24 25  1  0  0  0  0
 24 26  1  0  0  0  0
 26 27  1  0  0  0  0
 26 28  1  0  0  0  0
 26 29  1  0  0  0  0
M  END
$$$$

  -OEChem-04042215593D

 29 29  0     1  0  0  0  0  0999 V2000
   -3.5890   -3.6023    1.4833 H   0  0  0  0  0  0  0  0  0  0  0  0
   -3.5021   -2.6935    0.8813 C   0  0  0  0  0  0  0  0  0  0  0  0
   -4.1257   -1.9149    1.3271 H   0  0  0  0  0  0  0  0  0  0  0  0
   -3.8601   -2.9040   -0.1293 H   0  0  0  0  0  0  0  0  0  0  0  0
   -2.0571   -2.2351    0.8319 C   0  0  0  0  0  0  0  0  0  0  0  0
   -1.1883   -2.8836    1.3935 O   0  0  0  0  0  0  0  0  0  0  0  0
   -1.7244   -1.0850    0.1488 N   0  0  0  0  0  0  0  0  0  0  0  0
   -2.4892   -0.5116   -0.2066 H   0  0  0  0  0  0  0  0  0  0  0  0
   -0.3895   -0.4686    0.1656 C   0  0  1  0  0  0  0  0  0  0  0  0
    0.2062   -0.8406    1.0050 H   0  0  0  0  0  0  0  0  0  0  0  0
    0.3326   -0.8172   -1.1528 C   0  0  0  0  0  0  0  0  0  0  0  0
    0.8363   -1.7834   -1.0489 H   0  0  0  0  0  0  0  0  0  0  0  0
   -0.4156   -0.9262   -1.9456 H   0  0  0  0  0  0  0  0  0  0  0  0
    1.3183    0.2350   -1.5963 C   0  0  0  0  0  0  0  0  0  0  0  0
    2.5652    0.4866   -1.0662 N   0  0  0  0  0  0  0  0  0  0  0  0
    3.0233   -0.0352   -0.3222 H   0  0  0  0  0  0  0  0  0  0  0  0
    3.1361    1.5260   -1.7770 C   0  0  0  0  0  0  0  0  0  0  0  0
    4.1221    1.9421   -1.5916 H   0  0  0  0  0  0  0  0  0  0  0  0
    2.3172    1.9366   -2.7141 N   0  0  0  0  0  0  0  0  0  0  0  0
    1.1797    1.1411   -2.6158 C   0  0  0  0  0  0  0  0  0  0  0  0
    0.3061    1.2270   -3.2552 H   0  0  0  0  0  0  0  0  0  0  0  0
   -0.5693    1.0535    0.3649 C   0  0  0  0  0  0  0  0  0  0  0  0
   -1.4869    1.6353   -0.2059 O   0  0  0  0  0  0  0  0  0  0  0  0
    0.2203    1.7499    1.2623 N   0  0  0  0  0  0  0  0  0  0  0  0
    0.9696    1.2426    1.7219 H   0  0  0  0  0  0  0  0  0  0  0  0
    0.1124    3.1892    1.4681 C   0  0  0  0  0  0  0  0  0  0  0  0
   -0.8903    3.4524    1.8212 H   0  0  0  0  0  0  0  0  0  0  0  0
    0.8393    3.5205    2.2159 H   0  0  0  0  0  0  0  0  0  0  0  0
    0.3091    3.7245    0.5330 H   0  0  0  0  0  0  0  0  0  0  0  0
  1  2  1  0  0  0  0
  2  3  1  0  0  0  0
  2  4  1  0  0  0  0
  2  5  1  0  0  0  0
  5  6  2  0  0  0  0
  5  7  1  0  0  0  0
  7  8  1  0  0  0  0
  7  9  1  0  0  0  0
  9 10  1  0  0  0  0
  9 11  1  0  0  0  0
  9 22  1  0  0  0  0
 11 12  1  0  0  0  0
 11 13  1  0  0  0  0
 11 14  1  0  0  0  0
 14 15  1  0  0  0  0
 14 20  2  0  0  0  0
 15 16  1  0  0  0  0
 15 17  1  0  0  0  0
 17 18  1  0  0  0  0
 17 19  2  0  0  0  0
 19 20  1  0  0  0  0
 20 21  1  0  0  0  0
 22 23  2  0  0  0  0
 22 24  1  0  0  0  0
 24 25  1  0  0  0  0
 24 26  1  0  0  0  0
 26 27  1  0  0  0  0
 26 28  1  0  0  0  0
 26 29  1  0  0  0  0
M  END
$$$$

  -OEChem-04042215593D

 29 29  0     1  0  0  0  0  0999 V2000
   -3.5801   -3.6119    1.4895 H   0  0  0  0  0  0  0  0  0  0  0  0
   -3.5005   -2.7021    0.8881 C   0  0  0  0  0  0  0  0  0  0  0  0
   -4.1194   -1.9244    1.3422 H   0  0  0  0  0  0  0  0  0  0  0  0
   -3.8699   -2.9114   -0.1187 H   0  0  0  0  0  0  0  0  0  0  0  0
   -2.0561   -2.2433    0.8239 C   0  0  0  0  0  0  0  0  0  0  0  0
   -1.1797   -2.8999    1.3639 O   0  0  0  0  0  0  0  0  0  0  0  0
   -1.7323   -1.0860    0.1488 N   0  0  0  0  0  0  0  0  0  0  0  0
   -2.5018   -0.5092   -0.1903 H   0  0  0  0  0  0  0  0  0  0  0  0
   -0.3997   -0.4646    0.1626 C   0  0  1  0  0  0  0  0  0  0  0  0
    0.1991   -0.8396    0.9986 H   0  0  0  0  0  0  0  0  0  0  0  0
    0.3245   -0.8058   -1.1568 C   0  0  0  0  0  0  0  0  0  0  0  0
    0.8282   -1.7732   -1.0611 H   0  0  0  0  0  0  0  0  0  0  0  0
   -0.4250   -0.9091   -1.9490 H   0  0  0  0  0  0  0  0  0  0  0  0
    1.3051    0.2521   -1.5987 C   0  0  0  0  0  0  0  0  0  0  0  0
    2.6410    0.3301   -1.2726 N   0  0  0  0  0  0  0  0  0  0  0  0
    3.1628   -0.3302   -0.7000 H   0  0  0  0  0  0  0  0  0  0  0  0
    3.1813    1.4286   -1.9148 C   0  0  0  0  0  0  0  0  0  0  0  0
    4.2187    1.7436   -1.8483 H   0  0  0  0  0  0  0  0  0  0  0  0
    2.2604    2.0366   -2.6216 N   0  0  0  0  0  0  0  0  0  0  0  0
    1.0865    1.3108   -2.4432 C   0  0  0  0  0  0  0  0  0  0  0  0
    0.1330    1.5494   -2.9051 H   0  0  0  0  0  0  0  0  0  0  0  0
   -0.5813    1.0548    0.3760 C   0  0  0  0  0  0  0  0  0  0  0  0
   -1.5040    1.6381   -0.1852 O   0  0  0  0  0  0  0  0  0  0  0  0
    0.2124    1.7457    1.2736 N   0  0  0  0  0  0  0  0  0  0  0  0
    0.9898    1.2445    1.6923 H   0  0  0  0  0  0  0  0  0  0  0  0
    0.1189    3.1872    1.4701 C   0  0  0  0  0  0  0  0  0  0  0  0
   -0.8848    3.4644    1.8094 H   0  0  0  0  0  0  0  0  0  0  0  0
    0.8401    3.5137    2.2256 H   0  0  0  0  0  0  0  0  0  0  0  0
    0.3336    3.7150    0.5346 H   0  0  0  0  0  0  0  0  0  0  0  0
  1  2  1  0  0  0  0
  2  3  1  0  0  0  0
  2  4  1  0  0  0  0
  2  5  1  0  0  0  0
  5  6  2  0  0  0  0
  5  7  1  0  0  0  0
  7  8  1  0  0  0  0
  7  9  1  0  0  0  0
  9 10  1  0  0  0  0
  9 11  1  0  0  0  0
  9 22  1  0  0  0  0
 11 12  1  0  0  0  0
 11 13  1  0  0  0  0
 11 14  1  0  0  0  0
 14 15  1  0  0  0  0
 14 20  2  0  0  0  0
 15 16  1  0  0  0  0
 15 17  1  0  0  0  0
 17 18  1  0  0  0  0
 17 19  2  0  0  0  0
 19 20  1  0  0  0  0
 20 21  1  0  0  0  0
 22 23  2  0  0  0  0
 22 24  1  0  0  0  0
 24 25  1  0  0  0  0
 24 26  1  0  0  0  0
 26 27  1  0  0  0  0
 26 28  1  0  0  0  0
 26 29  1  0  0  0  0
M  END
$$$$

  -OEChem-04042215593D

 29 29  0     1  0  0  0  0  0999 V2000
   -3.5702   -3.6262    1.4761 H   0  0  0  0  0  0  0  0  0  0  0  0
   -3.4962   -2.7115    0.8813 C   0  0  0  0  0  0  0  0  0  0  0  0
   -4.1180   -1.9403    1.3423 H   0  0  0  0  0  0  0  0  0  0  0  0
   -3.8671   -2.9146   -0.1262 H   0  0  0  0  0  0  0  0  0  0  0  0
   -2.0542   -2.2451    0.8170 C   0  0  0  0  0  0  0  0  0  0  0  0
   -1.1721   -2.9050    1.3436 O   0  0  0  0  0  0  0  0  0  0  0  0
   -1.7397   -1.0780    0.1544 N   0  0  0  0  0  0  0  0  0  0  0  0
   -2.5143   -0.5017   -0.1737 H   0  0  0  0  0  0  0  0  0  0  0  0
   -0.4111   -0.4479    0.1695 C   0  0  1  0  0  0  0  0  0  0  0  0
    0.1870   -0.8258    1.0049 H   0  0  0  0  0  0  0  0  0  0  0  0
    0.3211   -0.7868   -1.1472 C   0  0  0  0  0  0  0  0  0  0  0  0
    0.8258   -1.7528   -1.0449 H   0  0  0  0  0  0  0  0  0  0  0  0
   -0.4265   -0.8969   -1.9401 H   0  0  0  0  0  0  0  0  0  0  0  0
    1.3009    0.2672   -1.6048 C   0  0  0  0  0  0  0  0  0  0  0  0
    2.6746    0.2008   -1.5253 N   0  0  0  0  0  0  0  0  0  0  0  0
    3.2207   -0.5631   -1.1318 H   0  0  0  0  0  0  0  0  0  0  0  0
    3.2017    1.3348   -2.1142 C   0  0  0  0  0  0  0  0  0  0  0  0
    4.2608    1.5635   -2.1937 H   0  0  0  0  0  0  0  0  0  0  0  0
    2.2371    2.0976   -2.5667 N   0  0  0  0  0  0  0  0  0  0  0  0
    1.0469    1.4385   -2.2747 C   0  0  0  0  0  0  0  0  0  0  0  0
    0.0576    1.7990   -2.5416 H   0  0  0  0  0  0  0  0  0  0  0  0
   -0.5966    1.0674    0.4011 C   0  0  0  0  0  0  0  0  0  0  0  0
   -1.5261    1.6535   -0.1458 O   0  0  0  0  0  0  0  0  0  0  0  0
    0.2004    1.7489    1.3026 N   0  0  0  0  0  0  0  0  0  0  0  0
    0.9920    1.2484    1.6955 H   0  0  0  0  0  0  0  0  0  0  0  0
    0.1112    3.1892    1.5084 C   0  0  0  0  0  0  0  0  0  0  0  0
   -0.8937    3.4681    1.8423 H   0  0  0  0  0  0  0  0  0  0  0  0
    0.8279    3.5068    2.2718 H   0  0  0  0  0  0  0  0  0  0  0  0
    0.3354    3.7228    0.5784 H   0  0  0  0  0  0  0  0  0  0  0  0
  1  2  1  0  0  0  0
  2  3  1  0  0  0  0
  2  4  1  0  0  0  0
  2  5  1  0  0  0  0
  5  6  2  0  0  0  0
  5  7  1  0  0  0  0
  7  8  1  0  0  0  0
  7  9  1  0  0  0  0
  9 10  1  0  0  0  0
  9 11  1  0  0  0  0
  9 22  1  0  0  0  0
 11 12  1  0  0  0  0
 11 13  1  0  0  0  0
 11 14  1  0  0  0  0
 14 15  1  0  0  0  0
 14 20  2  0  0  0  0
 15 16  1  0  0  0  0
 15 17  1  0  0  0  0
 17 18  1  0  0  0  0
 17 19  2  0  0  0  0
 19 20  1  0  0  0  0
 20 21  1  0  0  0  0
 22 23  2  0  0  0  0
 22 24  1  0  0  0  0
 24 25  1  0  0  0  0
 24 26  1  0  0  0  0
 26 27  1  0  0  0  0
 26 28  1  0  0  0  0
 26 29  1  0  0  0  0
M  END
$$$$

  -OEChem-04042215593D

 29 29  0     1  0  0  0  0  0999 V2000
   -3.5454   -3.6399    1.4602 H   0  0  0  0  0  0  0  0  0  0  0  0
   -3.4830   -2.7161    0.8782 C   0  0  0  0  0  0  0  0  0  0  0  0
   -4.1022   -1.9548    1.3590 H   0  0  0  0  0  0  0  0  0  0  0  0
   -3.8664   -2.9061   -0.1272 H   0  0  0  0  0  0  0  0  0  0  0  0
   -2.0440   -2.2422    0.8021 C   0  0  0  0  0  0  0  0  0  0  0  0
   -1.1523   -2.9071    1.3056 O   0  0  0  0  0  0  0  0  0  0  0  0
   -1.7427   -1.0627    0.1555 N   0  0  0  0  0  0  0  0  0  0  0  0
   -2.5243   -0.4849   -0.1530 H   0  0  0  0  0  0  0  0  0  0  0  0
   -0.4191   -0.4218    0.1758 C   0  0  1  0  0  0  0  0  0  0  0  0
    0.1776   -0.8027    1.0110 H   0  0  0  0  0  0  0  0  0  0  0  0
    0.3239   -0.7609   -1.1369 C   0  0  0  0  0  0  0  0  0  0  0  0
    0.8300   -1.7241   -1.0177 H   0  0  0  0  0  0  0  0  0  0  0  0
   -0.4195   -0.8870   -1.9312 H   0  0  0  0  0  0  0  0  0  0  0  0
    1.3078    0.2800   -1.6235 C   0  0  0  0  0  0  0  0  0  0  0  0
    2.6589    0.0846   -1.8109 N   0  0  0  0  0  0  0  0  0  0  0  0
    3.1785   -0.7668   -1.6071 H   0  0  0  0  0  0  0  0  0  0  0  0
    3.2013    1.2355   -2.3499 C   0  0  0  0  0  0  0  0  0  0  0  0
    4.2506    1.3787   -2.5918 H   0  0  0  0  0  0  0  0  0  0  0  0
    2.2641    2.1328   -2.5295 N   0  0  0  0  0  0  0  0  0  0  0  0
    1.0756    1.5449   -2.1084 C   0  0  0  0  0  0  0  0  0  0  0  0
    0.1008    2.0197   -2.1695 H   0  0  0  0  0  0  0  0  0  0  0  0
   -0.6149    1.0874    0.4300 C   0  0  0  0  0  0  0  0  0  0  0  0
   -1.5557    1.6728   -0.0976 O   0  0  0  0  0  0  0  0  0  0  0  0
    0.1800    1.7615    1.3388 N   0  0  0  0  0  0  0  0  0  0  0  0
    0.9806    1.2636    1.7175 H   0  0  0  0  0  0  0  0  0  0  0  0
    0.0695    3.1950    1.5804 C   0  0  0  0  0  0  0  0  0  0  0  0
   -0.9411    3.4518    1.9155 H   0  0  0  0  0  0  0  0  0  0  0  0
    0.7773    3.5035    2.3557 H   0  0  0  0  0  0  0  0  0  0  0  0
    0.2910    3.7549    0.6655 H   0  0  0  0  0  0  0  0  0  0  0  0
  1  2  1  0  0  0  0
  2  3  1  0  0  0  0
  2  4  1  0  0  0  0
  2  5  1  0  0  0  0
  5  6  2  0  0  0  0
  5  7  1  0  0  0  0
  7  8  1  0  0  0  0
  7  9  1  0  0  0  0
  9 10  1  0  0  0  0
  9 11  1  0  0  0  0
  9 22  1  0  0  0  0
 11 12  1  0  0  0  0
 11 13  1  0  0  0  0
 11 14  1  0  0  0  0
 14 15  1  0  0  0  0
 14 20  2  0  0  0  0
 15 16  1  0  0  0  0
 15 17  1  0  0  0  0
 17 18  1  0  0  0  0
 17 19  2  0  0  0  0
 19 20  1  0  0  0  0
 20 21  1  0  0  0  0
 22 23  2  0  0  0  0
 22 24  1  0  0  0  0
 24 25  1  0  0  0  0
 24 26  1  0  0  0  0
 26 27  1  0  0  0  0
 26 28  1  0  0  0  0
 26 29  1  0  0  0  0
M  END
$$$$

  -OEChem-04042215593D

 29 29  0     1  0  0  0  0  0999 V2000
   -3.5075   -3.6632    1.4296 H   0  0  0  0  0  0  0  0  0  0  0  0
   -3.4587   -2.7295    0.8625 C   0  0  0  0  0  0  0  0  0  0  0  0
   -4.0862   -1.9842    1.3568 H   0  0  0  0  0  0  0  0  0  0  0  0
   -3.8416   -2.9079   -0.1450 H   0  0  0  0  0  0  0  0  0  0  0  0
   -2.0262   -2.2363    0.7910 C   0  0  0  0  0  0  0  0  0  0  0  0
   -1.1251   -2.8969    1.2834 O   0  0  0  0  0  0  0  0  0  0  0  0
   -1.7407   -1.0437    0.1614 N   0  0  0  0  0  0  0  0  0  0  0  0
   -2.5297   -0.4709   -0.1380 H   0  0  0  0  0  0  0  0  0  0  0  0
   -0.4243   -0.3879    0.1875 C   0  0  1  0  0  0  0  0  0  0  0  0
    0.1740   -0.7697    1.0211 H   0  0  0  0  0  0  0  0  0  0  0  0
    0.3257   -0.7245   -1.1243 C   0  0  0  0  0  0  0  0  0  0  0  0
    0.8376   -1.6818   -0.9825 H   0  0  0  0  0  0  0  0  0  0  0  0
   -0.4154   -0.8754   -1.9164 H   0  0  0  0  0  0  0  0  0  0  0  0
    1.3138    0.2965   -1.6534 C   0  0  0  0  0  0  0  0  0  0  0  0
    2.5744   -0.0121   -2.1191 N   0  0  0  0  0  0  0  0  0  0  0  0
    3.0042   -0.9348   -2.1228 H   0  0  0  0  0  0  0  0  0  0  0  0
    3.1691    1.1386   -2.5988 C   0  0  0  0  0  0  0  0  0  0  0  0
    4.1713    1.1992   -3.0135 H   0  0  0  0  0  0  0  0  0  0  0  0
    2.3461    2.1500   -2.4813 N   0  0  0  0  0  0  0  0  0  0  0  0
    1.1791    1.6392   -1.9229 C   0  0  0  0  0  0  0  0  0  0  0  0
    0.2843    2.2286   -1.7524 H   0  0  0  0  0  0  0  0  0  0  0  0
   -0.6405    1.1127    0.4654 C   0  0  0  0  0  0  0  0  0  0  0  0
   -1.5926    1.6938   -0.0464 O   0  0  0  0  0  0  0  0  0  0  0  0
    0.1489    1.7811    1.3831 N   0  0  0  0  0  0  0  0  0  0  0  0
    0.9501    1.2833    1.7612 H   0  0  0  0  0  0  0  0  0  0  0  0
    0.0116    3.2048    1.6649 C   0  0  0  0  0  0  0  0  0  0  0  0
   -1.0016    3.4325    2.0126 H   0  0  0  0  0  0  0  0  0  0  0  0
    0.7181    3.5055    2.4445 H   0  0  0  0  0  0  0  0  0  0  0  0
    0.2169    3.7939    0.7647 H   0  0  0  0  0  0  0  0  0  0  0  0
  1  2  1  0  0  0  0
  2  3  1  0  0  0  0
  2  4  1  0  0  0  0
  2  5  1  0  0  0  0
  5  6  2  0  0  0  0
  5  7  1  0  0  0  0
  7  8  1  0  0  0  0
  7  9  1  0  0  0  0
  9 10  1  0  0  0  0
  9 11  1  0  0  0  0
  9 22  1  0  0  0  0
 11 12  1  0  0  0  0
 11 13  1  0  0  0  0
 11 14  1  0  0  0  0
 14 15  1  0  0  0  0
 14 20  2  0  0  0  0
 15 16  1  0  0  0  0
 15 17  1  0  0  0  0
 17 18  1  0  0  0  0
 17 19  2  0  0  0  0
 19 20  1  0  0  0  0
 20 21  1  0  0  0  0
 22 23  2  0  0  0  0
 22 24  1  0  0  0  0
 24 25  1  0  0  0  0
 24 26  1  0  0  0  0
 26 27  1  0  0  0  0
 26 28  1  0  0  0  0
 26 29  1  0  0  0  0
M  END
$$$$

  -OEChem-04042215593D

 29 29  0     1  0  0  0  0  0999 V2000
   -3.4707   -3.6839    1.3954 H   0  0  0  0  0  0  0  0  0  0  0  0
   -3.4298   -2.7458    0.8351 C   0  0  0  0  0  0  0  0  0  0  0  0
   -4.0733   -2.0133    1.3283 H   0  0  0  0  0  0  0  0  0  0  0  0
   -3.8000   -2.9234   -0.1775 H   0  0  0  0  0  0  0  0  0  0  0  0
   -2.0039   -2.2307    0.7819 C   0  0  0  0  0  0  0  0  0  0  0  0
   -1.0975   -2.8859    1.2715 O   0  0  0  0  0  0  0  0  0  0  0  0
   -1.7295   -1.0267    0.1691 N   0  0  0  0  0  0  0  0  0  0  0  0
   -2.5230   -0.4633   -0.1360 H   0  0  0  0  0  0  0  0  0  0  0  0
   -0.4204   -0.3560    0.2054 C   0  0  1  0  0  0  0  0  0  0  0  0
    0.1835   -0.7397    1.0344 H   0  0  0  0  0  0  0  0  0  0  0  0
    0.3241   -0.6813   -1.1144 C   0  0  0  0  0  0  0  0  0  0  0  0
    0.8415   -1.6341   -0.9628 H   0  0  0  0  0  0  0  0  0  0  0  0
   -0.4227   -0.8476   -1.8980 H   0  0  0  0  0  0  0  0  0  0  0  0
    1.3143    0.3186   -1.6868 C   0  0  0  0  0  0  0  0  0  0  0  0
    2.4099   -0.0653   -2.4326 N   0  0  0  0  0  0  0  0  0  0  0  0
    2.6788   -1.0220   -2.6533 H   0  0  0  0  0  0  0  0  0  0  0  0
    3.0969    1.0606   -2.8409 C   0  0  0  0  0  0  0  0  0  0  0  0
    4.0069    1.0586   -3.4342 H   0  0  0  0  0  0  0  0  0  0  0  0
    2.4901    2.1354   -2.4064 N   0  0  0  0  0  0  0  0  0  0  0  0
    1.3711    1.6949   -1.7077 C   0  0  0  0  0  0  0  0  0  0  0  0
    0.6465    2.3710   -1.2684 H   0  0  0  0  0  0  0  0  0  0  0  0
   -0.6624    1.1359    0.5026 C   0  0  0  0  0  0  0  0  0  0  0  0
   -1.6080    1.7158   -0.0216 O   0  0  0  0  0  0  0  0  0  0  0  0
    0.1134    1.8052    1.4320 N   0  0  0  0  0  0  0  0  0  0  0  0
    0.8996    1.3045    1.8374 H   0  0  0  0  0  0  0  0  0  0  0  0
   -0.0597    3.2176    1.7502 C   0  0  0  0  0  0  0  0  0  0  0  0
   -1.0795    3.4109    2.0993 H   0  0  0  0  0  0  0  0  0  0  0  0
    0.6362    3.5157    2.5403 H   0  0  0  0  0  0  0  0  0  0  0  0
    0.1332    3.8353    0.8667 H   0  0  0  0  0  0  0  0  0  0  0  0
  1  2  1  0  0  0  0
  2  3  1  0  0  0  0
  2  4  1  0  0  0  0
  2  5  1  0  0  0  0
  5  6  2  0  0  0  0
  5  7  1  0  0  0  0
  7  8  1  0  0  0  0
  7  9  1  0  0  0  0
  9 10  1  0  0  0  0
  9 11  1  0  0  0  0
  9 22  1  0  0  0  0
 11 12  1  0  0  0  0
 11 13  1  0  0  0  0
 11 14  1  0  0  0  0
 14 15  1  0  0  0  0
 14 20  2  0  0  0  0
 15 16  1  0  0  0  0
 15 17  1  0  0  0  0
 17 18  1  0  0  0  0
 17 19  2  0  0  0  0
 19 20  1  0  0  0  0
 20 21  1  0  0  0  0
 22 23  2  0  0  0  0
 22 24  1  0  0  0  0
 24 25  1  0  0  0  0
 24 26  1  0  0  0  0
 26 27  1  0  0  0  0
 26 28  1  0  0  0  0
 26 29  1  0  0  0  0
M  END
$$$$

  -OEChem-04042215593D

 29 29  0     1  0  0  0  0  0999 V2000
   -3.4556   -3.6851    1.3571 H   0  0  0  0  0  0  0  0  0  0  0  0
   -3.4128   -2.7404    0.8078 C   0  0  0  0  0  0  0  0  0  0  0  0
   -4.0628   -2.0152    1.3036 H   0  0  0  0  0  0  0  0  0  0  0  0
   -3.7737   -2.9075   -0.2098 H   0  0  0  0  0  0  0  0  0  0  0  0
   -1.9882   -2.2206    0.7723 C   0  0  0  0  0  0  0  0  0  0  0  0
   -1.0854   -2.8725    1.2723 O   0  0  0  0  0  0  0  0  0  0  0  0
   -1.7121   -1.0124    0.1687 N   0  0  0  0  0  0  0  0  0  0  0  0
   -2.5046   -0.4514   -0.1434 H   0  0  0  0  0  0  0  0  0  0  0  0
   -0.4058   -0.3367    0.2210 C   0  0  1  0  0  0  0  0  0  0  0  0
    0.2003   -0.7229    1.0472 H   0  0  0  0  0  0  0  0  0  0  0  0
    0.3308   -0.6516   -1.1071 C   0  0  0  0  0  0  0  0  0  0  0  0
    0.8441   -1.6080   -0.9645 H   0  0  0  0  0  0  0  0  0  0  0  0
   -0.4258   -0.8095   -1.8832 H   0  0  0  0  0  0  0  0  0  0  0  0
    1.3251    0.3331   -1.7012 C   0  0  0  0  0  0  0  0  0  0  0  0
    2.2076   -0.0396   -2.6945 N   0  0  0  0  0  0  0  0  0  0  0  0
    2.2840   -0.9657   -3.1100 H   0  0  0  0  0  0  0  0  0  0  0  0
    2.9864    1.0457   -3.0431 C   0  0  0  0  0  0  0  0  0  0  0  0
    3.7702    1.0392   -3.7954 H   0  0  0  0  0  0  0  0  0  0  0  0
    2.6432    2.0871   -2.3296 N   0  0  0  0  0  0  0  0  0  0  0  0
    1.6074    1.6668   -1.5024 C   0  0  0  0  0  0  0  0  0  0  0  0
    1.1076    2.3336   -0.8118 H   0  0  0  0  0  0  0  0  0  0  0  0
   -0.6711    1.1500    0.5245 C   0  0  0  0  0  0  0  0  0  0  0  0
   -1.6079    1.7282   -0.0164 O   0  0  0  0  0  0  0  0  0  0  0  0
    0.0869    1.8197    1.4687 N   0  0  0  0  0  0  0  0  0  0  0  0
    0.8463    1.3104    1.9126 H   0  0  0  0  0  0  0  0  0  0  0  0
   -0.1265    3.2176    1.8240 C   0  0  0  0  0  0  0  0  0  0  0  0
   -1.1396    3.3643    2.2130 H   0  0  0  0  0  0  0  0  0  0  0  0
    0.5871    3.5248    2.5945 H   0  0  0  0  0  0  0  0  0  0  0  0
    0.0118    3.8611    0.9488 H   0  0  0  0  0  0  0  0  0  0  0  0
  1  2  1  0  0  0  0
  2  3  1  0  0  0  0
  2  4  1  0  0  0  0
  2  5  1  0  0  0  0
  5  6  2  0  0  0  0
  5  7  1  0  0  0  0
  7  8  1  0  0  0  0
  7  9  1  0  0  0  0
  9 10  1  0  0  0  0
  9 11  1  0  0  0  0
  9 22  1  0  0  0  0
 11 12  1  0  0  0  0
 11 13  1  0  0  0  0
 11 14  1  0  0  0  0
 14 15  1  0  0  0  0
 14 20  2  0  0  0  0
 15 16  1  0  0  0  0
 15 17  1  0  0  0  0
 17 18  1  0  0  0  0
 17 19  2  0  0  0  0
 19 20  1  0  0  0  0
 20 21  1  0  0  0  0
 22 23  2  0  0  0  0
 22 24  1  0  0  0  0
 24 25  1  0  0  0  0
 24 26  1  0  0  0  0
 26 27  1  0  0  0  0
 26 28  1  0  0  0  0
 26 29  1  0  0  0  0
M  END
$$$$

  -OEChem-04042215593D

 29 29  0     1  0  0  0  0  0999 V2000
   -3.5138   -3.6425    1.3523 H   0  0  0  0  0  0  0  0  0  0  0  0
   -3.4345   -2.7104    0.7857 C   0  0  0  0  0  0  0  0  0  0  0  0
   -4.0936   -1.9655    1.2381 H   0  0  0  0  0  0  0  0  0  0  0  0
   -3.7550   -2.8944   -0.2427 H   0  0  0  0  0  0  0  0  0  0  0  0
   -2.0024   -2.2111    0.8001 C   0  0  0  0  0  0  0  0  0  0  0  0
   -1.1352   -2.8549    1.3684 O   0  0  0  0  0  0  0  0  0  0  0  0
   -1.6801   -1.0305    0.1660 N   0  0  0  0  0  0  0  0  0  0  0  0
   -2.4491   -0.4675   -0.1974 H   0  0  0  0  0  0  0  0  0  0  0  0
   -0.3659   -0.3746    0.2519 C   0  0  1  0  0  0  0  0  0  0  0  0
    0.2335   -0.7580    1.0841 H   0  0  0  0  0  0  0  0  0  0  0  0
    0.3439   -0.6726   -1.0881 C   0  0  0  0  0  0  0  0  0  0  0  0
    0.6140   -1.7337   -1.0958 H   0  0  0  0  0  0  0  0  0  0  0  0
   -0.3834   -0.5157   -1.8923 H   0  0  0  0  0  0  0  0  0  0  0  0
    1.5734    0.1328   -1.4585 C   0  0  0  0  0  0  0  0  0  0  0  0
    2.2728   -0.0573   -2.6317 N   0  0  0  0  0  0  0  0  0  0  0  0
    2.0228   -0.6990   -3.3811 H   0  0  0  0  0  0  0  0  0  0  0  0
    3.3749    0.7749   -2.6403 C   0  0  0  0  0  0  0  0  0  0  0  0
    4.0982    0.8484   -3.4474 H   0  0  0  0  0  0  0  0  0  0  0  0
    3.4240    1.4623   -1.5273 N   0  0  0  0  0  0  0  0  0  0  0  0
    2.3218    1.0648   -0.7800 C   0  0  0  0  0  0  0  0  0  0  0  0
    2.1256    1.4299    0.2194 H   0  0  0  0  0  0  0  0  0  0  0  0
   -0.6437    1.1263    0.4904 C   0  0  0  0  0  0  0  0  0  0  0  0
   -1.5384    1.6836   -0.1378 O   0  0  0  0  0  0  0  0  0  0  0  0
    0.0583    1.8454    1.4410 N   0  0  0  0  0  0  0  0  0  0  0  0
    0.7725    1.3553    1.9728 H   0  0  0  0  0  0  0  0  0  0  0  0
   -0.1524    3.2666    1.6884 C   0  0  0  0  0  0  0  0  0  0  0  0
   -1.1880    3.4544    1.9908 H   0  0  0  0  0  0  0  0  0  0  0  0
    0.5093    3.6134    2.4880 H   0  0  0  0  0  0  0  0  0  0  0  0
    0.0630    3.8479    0.7855 H   0  0  0  0  0  0  0  0  0  0  0  0
  1  2  1  0  0  0  0
  2  3  1  0  0  0  0
  2  4  1  0  0  0  0
  2  5  1  0  0  0  0
  5  6  2  0  0  0  0
  5  7  1  0  0  0  0
  7  8  1  0  0  0  0
  7  9  1  0  0  0  0
  9 10  1  0  0  0  0
  9 11  1  0  0  0  0
  9 22  1  0  0  0  0
 11 12  1  0  0  0  0
 11 13  1  0  0  0  0
 11 14  1  0  0  0  0
 14 15  1  0  0  0  0
 14 20  2  0  0  0  0
 15 16  1  0  0  0  0
 15 17  1  0  0  0  0
 17 18  1  0  0  0  0
 17 19  2  0  0  0  0
 19 20  1  0  0  0  0
 20 21  1  0  0  0  0
 22 23  2  0  0  0  0
 22 24  1  0  0  0  0
 24 25  1  0  0  0  0
 24 26  1  0  0  0  0
 26 27  1  0  0  0  0
 26 28  1  0  0  0  0
 26 29  1  0  0  0  0
M  END
$$$$

  -OEChem-04042215593D

 29 29  0     1  0  0  0  0  0999 V2000
   -3.5484   -3.6262    1.4038 H   0  0  0  0  0  0  0  0  0  0  0  0
   -3.4649   -2.7026    0.8242 C   0  0  0  0  0  0  0  0  0  0  0  0
   -4.1108   -1.9447    1.2740 H   0  0  0  0  0  0  0  0  0  0  0  0
   -3.7991   -2.8966   -0.1979 H   0  0  0  0  0  0  0  0  0  0  0  0
   -2.0269   -2.2194    0.8159 C   0  0  0  0  0  0  0  0  0  0  0  0
   -1.1603   -2.8667    1.3811 O   0  0  0  0  0  0  0  0  0  0  0  0
   -1.6991   -1.0495    0.1648 N   0  0  0  0  0  0  0  0  0  0  0  0
   -2.4667   -0.4815   -0.1935 H   0  0  0  0  0  0  0  0  0  0  0  0
   -0.3778   -0.4061    0.2300 C   0  0  1  0  0  0  0  0  0  0  0  0
    0.2237   -0.7907    1.0601 H   0  0  0  0  0  0  0  0  0  0  0  0
    0.3278   -0.7013   -1.1105 C   0  0  0  0  0  0  0  0  0  0  0  0
    0.6001   -1.7614   -1.1374 H   0  0  0  0  0  0  0  0  0  0  0  0
   -0.3960   -0.5292   -1.9143 H   0  0  0  0  0  0  0  0  0  0  0  0
    1.5530    0.1262   -1.4347 C   0  0  0  0  0  0  0  0  0  0  0  0
    2.1312    0.2202   -2.6822 N   0  0  0  0  0  0  0  0  0  0  0  0
    1.7801   -0.2002   -3.5401 H   0  0  0  0  0  0  0  0  0  0  0  0
    3.2655    1.0038   -2.5901 C   0  0  0  0  0  0  0  0  0  0  0  0
    3.9142    1.2654   -3.4213 H   0  0  0  0  0  0  0  0  0  0  0  0
    3.4485    1.3847   -1.3499 N   0  0  0  0  0  0  0  0  0  0  0  0
    2.4025    0.8336   -0.6203 C   0  0  0  0  0  0  0  0  0  0  0  0
    2.3025    0.9286    0.4551 H   0  0  0  0  0  0  0  0  0  0  0  0
   -0.6248    1.1033    0.4536 C   0  0  0  0  0  0  0  0  0  0  0  0
   -1.5208    1.6664   -0.1679 O   0  0  0  0  0  0  0  0  0  0  0  0
    0.1011    1.8221    1.3866 N   0  0  0  0  0  0  0  0  0  0  0  0
    0.8167    1.3285    1.9129 H   0  0  0  0  0  0  0  0  0  0  0  0
   -0.0749    3.2520    1.6106 C   0  0  0  0  0  0  0  0  0  0  0  0
   -1.1055    3.4709    1.9091 H   0  0  0  0  0  0  0  0  0  0  0  0
    0.5945    3.5956    2.4051 H   0  0  0  0  0  0  0  0  0  0  0  0
    0.1551    3.8127    0.6984 H   0  0  0  0  0  0  0  0  0  0  0  0
  1  2  1  0  0  0  0
  2  3  1  0  0  0  0
  2  4  1  0  0  0  0
  2  5  1  0  0  0  0
  5  6  2  0  0  0  0
  5  7  1  0  0  0  0
  7  8  1  0  0  0  0
  7  9  1  0  0  0  0
  9 10  1  0  0  0  0
  9 11  1  0  0  0  0
  9 22  1  0  0  0  0
 11 12  1  0  0  0  0
 11 13  1  0  0  0  0
 11 14  1  0  0  0  0
 14 15  1  0  0  0  0
 14 20  2  0  0  0  0
 15 16  1  0  0  0  0
 15 17  1  0  0  0  0
 17 18  1  0  0  0  0
 17 19  2  0  0  0  0
 19 20  1  0  0  0  0
 20 21  1  0  0  0  0
 22 23  2  0  0  0  0
 22 24  1  0  0  0  0
 24 25  1  0  0  0  0
 24 26  1  0  0  0  0
 26 27  1  0  0  0  0
 26 28  1  0  0  0  0
 26 29  1  0  0  0  0
M  END
$$$$

  -OEChem-04042215593D

 29 29  0     1  0  0  0  0  0999 V2000
   -3.5683   -3.6195    1.4498 H   0  0  0  0  0  0  0  0  0  0  0  0
   -3.4851   -2.7027    0.8594 C   0  0  0  0  0  0  0  0  0  0  0  0
   -4.1173   -1.9346    1.3114 H   0  0  0  0  0  0  0  0  0  0  0  0
   -3.8366   -2.9036   -0.1555 H   0  0  0  0  0  0  0  0  0  0  0  0
   -2.0432   -2.2328    0.8240 C   0  0  0  0  0  0  0  0  0  0  0  0
   -1.1739   -2.8816    1.3833 O   0  0  0  0  0  0  0  0  0  0  0  0
   -1.7167   -1.0695    0.1603 N   0  0  0  0  0  0  0  0  0  0  0  0
   -2.4856   -0.5002   -0.1925 H   0  0  0  0  0  0  0  0  0  0  0  0
   -0.3926   -0.4310    0.2074 C   0  0  1  0  0  0  0  0  0  0  0  0
    0.2082   -0.8144    1.0385 H   0  0  0  0  0  0  0  0  0  0  0  0
    0.3182   -0.7320   -1.1272 C   0  0  0  0  0  0  0  0  0  0  0  0
    0.6019   -1.7893   -1.1534 H   0  0  0  0  0  0  0  0  0  0  0  0
   -0.3982   -0.5640   -1.9382 H   0  0  0  0  0  0  0  0  0  0  0  0
    1.5359    0.1170   -1.4135 C   0  0  0  0  0  0  0  0  0  0  0  0
    1.9921    0.4863   -2.6596 N   0  0  0  0  0  0  0  0  0  0  0  0
    1.5492    0.2715   -3.5506 H   0  0  0  0  0  0  0  0  0  0  0  0
    3.1447    1.2330   -2.5042 C   0  0  0  0  0  0  0  0  0  0  0  0
    3.7181    1.6725   -3.3153 H   0  0  0  0  0  0  0  0  0  0  0  0
    3.4482    1.3346   -1.2329 N   0  0  0  0  0  0  0  0  0  0  0  0
    2.4639    0.6352   -0.5459 C   0  0  0  0  0  0  0  0  0  0  0  0
    2.4439    0.5093    0.5319 H   0  0  0  0  0  0  0  0  0  0  0  0
   -0.6106    1.0838    0.4210 C   0  0  0  0  0  0  0  0  0  0  0  0
   -1.5102    1.6564   -0.1868 O   0  0  0  0  0  0  0  0  0  0  0  0
    0.1423    1.7924    1.3402 N   0  0  0  0  0  0  0  0  0  0  0  0
    0.8755    1.2938    1.8362 H   0  0  0  0  0  0  0  0  0  0  0  0
    0.0075    3.2288    1.5479 C   0  0  0  0  0  0  0  0  0  0  0  0
   -1.0124    3.4781    1.8584 H   0  0  0  0  0  0  0  0  0  0  0  0
    0.6975    3.5642    2.3281 H   0  0  0  0  0  0  0  0  0  0  0  0
    0.2388    3.7717    0.6253 H   0  0  0  0  0  0  0  0  0  0  0  0
  1  2  1  0  0  0  0
  2  3  1  0  0  0  0
  2  4  1  0  0  0  0
  2  5  1  0  0  0  0
  5  6  2  0  0  0  0
  5  7  1  0  0  0  0
  7  8  1  0  0  0  0
  7  9  1  0  0  0  0
  9 10  1  0  0  0  0
  9 11  1  0  0  0  0
  9 22  1  0  0  0  0
 11 12  1  0  0  0  0
 11 13  1  0  0  0  0
 11 14  1  0  0  0  0
 14 15  1  0  0  0  0
 14 20  2  0  0  0  0
 15 16  1  0  0  0  0
 15 17  1  0  0  0  0
 17 18  1  0  0  0  0
 17 19  2  0  0  0  0
 19 20  1  0  0  0  0
 20 21  1  0  0  0  0
 22 23  2  0  0  0  0
 22 24  1  0  0  0  0
 24 25  1  0  0  0  0
 24 26  1  0  0  0  0
 26 27  1  0  0  0  0
 26 28  1  0  0  0  0
 26 29  1  0  0  0  0
M  END
$$$$

  -OEChem-04042215593D

 29 29  0     1  0  0  0  0  0999 V2000
   -3.5700   -3.6266    1.4780 H   0  0  0  0  0  0  0  0  0  0  0  0
   -3.4919   -2.7139    0.8807 C   0  0  0  0  0  0  0  0  0  0  0  0
   -4.1239   -1.9439    1.3297 H   0  0  0  0  0  0  0  0  0  0  0  0
   -3.8470   -2.9233   -0.1311 H   0  0  0  0  0  0  0  0  0  0  0  0
   -2.0512   -2.2411    0.8363 C   0  0  0  0  0  0  0  0  0  0  0  0
   -1.1781   -2.8871    1.3931 O   0  0  0  0  0  0  0  0  0  0  0  0
   -1.7295   -1.0826    0.1617 N   0  0  0  0  0  0  0  0  0  0  0  0
   -2.5011   -0.5152   -0.1875 H   0  0  0  0  0  0  0  0  0  0  0  0
   -0.4038   -0.4471    0.1903 C   0  0  1  0  0  0  0  0  0  0  0  0
    0.1999   -0.8280    1.0205 H   0  0  0  0  0  0  0  0  0  0  0  0
    0.3058   -0.7521   -1.1419 C   0  0  0  0  0  0  0  0  0  0  0  0
    0.6028   -1.8057   -1.1632 H   0  0  0  0  0  0  0  0  0  0  0  0
   -0.4053   -0.5939   -1.9595 H   0  0  0  0  0  0  0  0  0  0  0  0
    1.5136    0.1175   -1.3955 C   0  0  0  0  0  0  0  0  0  0  0  0
    1.8451    0.7546   -2.5703 N   0  0  0  0  0  0  0  0  0  0  0  0
    1.2981    0.7587   -3.4289 H   0  0  0  0  0  0  0  0  0  0  0  0
    3.0322    1.4365   -2.3786 C   0  0  0  0  0  0  0  0  0  0  0  0
    3.5318    2.0433   -3.1285 H   0  0  0  0  0  0  0  0  0  0  0  0
    3.4698    1.2466   -1.1567 N   0  0  0  0  0  0  0  0  0  0  0  0
    2.5414    0.4179   -0.5389 C   0  0  0  0  0  0  0  0  0  0  0  0
    2.6205    0.0595    0.4830 H   0  0  0  0  0  0  0  0  0  0  0  0
   -0.5999    1.0714    0.3961 C   0  0  0  0  0  0  0  0  0  0  0  0
   -1.5045    1.6496   -0.1991 O   0  0  0  0  0  0  0  0  0  0  0  0
    0.1749    1.7746    1.3010 N   0  0  0  0  0  0  0  0  0  0  0  0
    0.9387    1.2789    1.7517 H   0  0  0  0  0  0  0  0  0  0  0  0
    0.0696    3.2159    1.4909 C   0  0  0  0  0  0  0  0  0  0  0  0
   -0.9414    3.4892    1.8109 H   0  0  0  0  0  0  0  0  0  0  0  0
    0.7753    3.5483    2.2585 H   0  0  0  0  0  0  0  0  0  0  0  0
    0.2995    3.7418    0.5582 H   0  0  0  0  0  0  0  0  0  0  0  0
  1  2  1  0  0  0  0
  2  3  1  0  0  0  0
  2  4  1  0  0  0  0
  2  5  1  0  0  0  0
  5  6  2  0  0  0  0
  5  7  1  0  0  0  0
  7  8  1  0  0  0  0
  7  9  1  0  0  0  0
  9 10  1  0  0  0  0
  9 11  1  0  0  0  0
  9 22  1  0  0  0  0
 11 12  1  0  0  0  0
 11 13  1  0  0  0  0
 11 14  1  0  0  0  0
 14 15  1  0  0  0  0
 14 20  2  0  0  0  0
 15 16  1  0  0  0  0
 15 17  1  0  0  0  0
 17 18  1  0  0  0  0
 17 19  2  0  0  0  0
 19 20  1  0  0  0  0
 20 21  1  0  0  0  0
 22 23  2  0  0  0  0
 22 24  1  0  0  0  0
 24 25  1  0  0  0  0
 24 26  1  0  0  0  0
 26 27  1  0  0  0  0
 26 28  1  0  0  0  0
 26 29  1  0  0  0  0
M  END
$$$$

  -OEChem-04042215593D

 29 29  0     1  0  0  0  0  0999 V2000
   -3.5707   -3.6301    1.4937 H   0  0  0  0  0  0  0  0  0  0  0  0
   -3.4947   -2.7195    0.8928 C   0  0  0  0  0  0  0  0  0  0  0  0
   -4.1231   -1.9471    1.3428 H   0  0  0  0  0  0  0  0  0  0  0  0
   -3.8562   -2.9318   -0.1161 H   0  0  0  0  0  0  0  0  0  0  0  0
   -2.0538   -2.2483    0.8378 C   0  0  0  0  0  0  0  0  0  0  0  0
   -1.1775   -2.8928    1.3914 O   0  0  0  0  0  0  0  0  0  0  0  0
   -1.7358   -1.0924    0.1571 N   0  0  0  0  0  0  0  0  0  0  0  0
   -2.5094   -0.5277   -0.1920 H   0  0  0  0  0  0  0  0  0  0  0  0
   -0.4103   -0.4561    0.1769 C   0  0  1  0  0  0  0  0  0  0  0  0
    0.1941   -0.8338    1.0084 H   0  0  0  0  0  0  0  0  0  0  0  0
    0.3032   -0.7654   -1.1501 C   0  0  0  0  0  0  0  0  0  0  0  0
    0.6142   -1.8153   -1.1572 H   0  0  0  0  0  0  0  0  0  0  0  0
   -0.3983   -0.6235   -1.9787 H   0  0  0  0  0  0  0  0  0  0  0  0
    1.5017    0.1214   -1.3758 C   0  0  0  0  0  0  0  0  0  0  0  0
    1.7115    0.9948   -2.4187 N   0  0  0  0  0  0  0  0  0  0  0  0
    1.0595    1.2002   -3.1735 H   0  0  0  0  0  0  0  0  0  0  0  0
    2.9394    1.6029   -2.2365 C   0  0  0  0  0  0  0  0  0  0  0  0
    3.3684    2.3533   -2.8945 H   0  0  0  0  0  0  0  0  0  0  0  0
    3.5131    1.1453   -1.1489 N   0  0  0  0  0  0  0  0  0  0  0  0
    2.6355    0.2112   -0.6114 C   0  0  0  0  0  0  0  0  0  0  0  0
    2.8202   -0.3611    0.2929 H   0  0  0  0  0  0  0  0  0  0  0  0
   -0.5935    1.0646    0.3770 C   0  0  0  0  0  0  0  0  0  0  0  0
   -1.4949    1.6482   -0.2181 O   0  0  0  0  0  0  0  0  0  0  0  0
    0.1935    1.7636    1.2745 N   0  0  0  0  0  0  0  0  0  0  0  0
    0.9711    1.2668    1.7003 H   0  0  0  0  0  0  0  0  0  0  0  0
    0.1042    3.2069    1.4569 C   0  0  0  0  0  0  0  0  0  0  0  0
   -0.9028    3.4921    1.7793 H   0  0  0  0  0  0  0  0  0  0  0  0
    0.8160    3.5362    2.2200 H   0  0  0  0  0  0  0  0  0  0  0  0
    0.3357    3.7255    0.5206 H   0  0  0  0  0  0  0  0  0  0  0  0
  1  2  1  0  0  0  0
  2  3  1  0  0  0  0
  2  4  1  0  0  0  0
  2  5  1  0  0  0  0
  5  6  2  0  0  0  0
  5  7  1  0  0  0  0
  7  8  1  0  0  0  0
  7  9  1  0  0  0  0
  9 10  1  0  0  0  0
  9 11  1  0  0  0  0
  9 22  1  0  0  0  0
 11 12  1  0  0  0  0
 11 13  1  0  0  0  0
 11 14  1  0  0  0  0
 14 15  1  0  0  0  0
 14 20  2  0  0  0  0
 15 16  1  0  0  0  0
 15 17  1  0  0  0  0
 17 18  1  0  0  0  0
 17 19  2  0  0  0  0
 19 20  1  0  0  0  0
 20 21  1  0  0  0  0
 22 23  2  0  0  0  0
 22 24  1  0  0  0  0
 24 25  1  0  0  0  0
 24 26  1  0  0  0  0
 26 27  1  0  0  0  0
 26 28  1  0  0  0  0
 26 29  1  0  0  0  0
M  END
$$$$

  -OEChem-04042215593D

 29 29  0     1  0  0  0  0  0999 V2000
   -3.5757   -3.6352    1.4841 H   0  0  0  0  0  0  0  0  0  0  0  0
   -3.4984   -2.7242    0.8840 C   0  0  0  0  0  0  0  0  0  0  0  0
   -4.1319   -1.9539    1.3304 H   0  0  0  0  0  0  0  0  0  0  0  0
   -3.8528   -2.9372   -0.1273 H   0  0  0  0  0  0  0  0  0  0  0  0
   -2.0583   -2.2492    0.8381 C   0  0  0  0  0  0  0  0  0  0  0  0
   -1.1847   -2.8898    1.4003 O   0  0  0  0  0  0  0  0  0  0  0  0
   -1.7380   -1.0950    0.1553 N   0  0  0  0  0  0  0  0  0  0  0  0
   -2.5101   -0.5362   -0.2058 H   0  0  0  0  0  0  0  0  0  0  0  0
   -0.4133   -0.4575    0.1784 C   0  0  1  0  0  0  0  0  0  0  0  0
    0.1869   -0.8327    1.0138 H   0  0  0  0  0  0  0  0  0  0  0  0
    0.3091   -0.7728   -1.1416 C   0  0  0  0  0  0  0  0  0  0  0  0
    0.6288   -1.8202   -1.1315 H   0  0  0  0  0  0  0  0  0  0  0  0
   -0.3805   -0.6460   -1.9826 H   0  0  0  0  0  0  0  0  0  0  0  0
    1.5031    0.1220   -1.3500 C   0  0  0  0  0  0  0  0  0  0  0  0
    1.6007    1.1892   -2.2137 N   0  0  0  0  0  0  0  0  0  0  0  0
    0.8521    1.5646   -2.7939 H   0  0  0  0  0  0  0  0  0  0  0  0
    2.8695    1.7249   -2.1001 C   0  0  0  0  0  0  0  0  0  0  0  0
    3.2332    2.5906   -2.6466 H   0  0  0  0  0  0  0  0  0  0  0  0
    3.5722    1.0388   -1.2298 N   0  0  0  0  0  0  0  0  0  0  0  0
    2.7391    0.0261   -0.7674 C   0  0  0  0  0  0  0  0  0  0  0  0
    3.0254   -0.7280   -0.0403 H   0  0  0  0  0  0  0  0  0  0  0  0
   -0.5897    1.0641    0.3729 C   0  0  0  0  0  0  0  0  0  0  0  0
   -1.4717    1.6554   -0.2434 O   0  0  0  0  0  0  0  0  0  0  0  0
    0.1984    1.7607    1.2712 N   0  0  0  0  0  0  0  0  0  0  0  0
    0.9703    1.2582    1.7014 H   0  0  0  0  0  0  0  0  0  0  0  0
    0.1200    3.2051    1.4490 C   0  0  0  0  0  0  0  0  0  0  0  0
   -0.8863    3.4991    1.7656 H   0  0  0  0  0  0  0  0  0  0  0  0
    0.8304    3.5305    2.2151 H   0  0  0  0  0  0  0  0  0  0  0  0
    0.3603    3.7195    0.5127 H   0  0  0  0  0  0  0  0  0  0  0  0
  1  2  1  0  0  0  0
  2  3  1  0  0  0  0
  2  4  1  0  0  0  0
  2  5  1  0  0  0  0
  5  6  2  0  0  0  0
  5  7  1  0  0  0  0
  7  8  1  0  0  0  0
  7  9  1  0  0  0  0
  9 10  1  0  0  0  0
  9 11  1  0  0  0  0
  9 22  1  0  0  0  0
 11 12  1  0  0  0  0
 11 13  1  0  0  0  0
 11 14  1  0  0  0  0
 14 15  1  0  0  0  0
 14 20  2  0  0  0  0
 15 16  1  0  0  0  0
 15 17  1  0  0  0  0
 17 18  1  0  0  0  0
 17 19  2  0  0  0  0
 19 20  1  0  0  0  0
 20 21  1  0  0  0  0
 22 23  2  0  0  0  0
 22 24  1  0  0  0  0
 24 25  1  0  0  0  0
 24 26  1  0  0  0  0
 26 27  1  0  0  0  0
 26 28  1  0  0  0  0
 26 29  1  0  0  0  0
M  END
$$$$

  -OEChem-04042215593D

 29 29  0     1  0  0  0  0  0999 V2000
   -3.5819   -3.6430    1.4585 H   0  0  0  0  0  0  0  0  0  0  0  0
   -3.5015   -2.7295    0.8625 C   0  0  0  0  0  0  0  0  0  0  0  0
   -4.1461   -1.9644    1.3020 H   0  0  0  0  0  0  0  0  0  0  0  0
   -3.8398   -2.9416   -0.1546 H   0  0  0  0  0  0  0  0  0  0  0  0
   -2.0638   -2.2460    0.8397 C   0  0  0  0  0  0  0  0  0  0  0  0
   -1.1969   -2.8786    1.4206 O   0  0  0  0  0  0  0  0  0  0  0  0
   -1.7383   -1.0917    0.1592 N   0  0  0  0  0  0  0  0  0  0  0  0
   -2.5057   -0.5433   -0.2264 H   0  0  0  0  0  0  0  0  0  0  0  0
   -0.4145   -0.4525    0.1925 C   0  0  1  0  0  0  0  0  0  0  0  0
    0.1795   -0.8269    1.0326 H   0  0  0  0  0  0  0  0  0  0  0  0
    0.3170   -0.7768   -1.1211 C   0  0  0  0  0  0  0  0  0  0  0  0
    0.6342   -1.8248   -1.0991 H   0  0  0  0  0  0  0  0  0  0  0  0
   -0.3654   -0.6564   -1.9688 H   0  0  0  0  0  0  0  0  0  0  0  0
    1.5138    0.1143   -1.3322 C   0  0  0  0  0  0  0  0  0  0  0  0
    1.5333    1.3297   -1.9791 N   0  0  0  0  0  0  0  0  0  0  0  0
    0.7224    1.8303   -2.3424 H   0  0  0  0  0  0  0  0  0  0  0  0
    2.8310    1.8034   -1.9747 C   0  0  0  0  0  0  0  0  0  0  0  0
    3.1513    2.7516   -2.3968 H   0  0  0  0  0  0  0  0  0  0  0  0
    3.6222    0.9426   -1.3791 N   0  0  0  0  0  0  0  0  0  0  0  0
    2.8182   -0.1236   -0.9892 C   0  0  0  0  0  0  0  0  0  0  0  0
    3.1742   -1.0143   -0.4798 H   0  0  0  0  0  0  0  0  0  0  0  0
   -0.5878    1.0691    0.3847 C   0  0  0  0  0  0  0  0  0  0  0  0
   -1.4362    1.6712   -0.2673 O   0  0  0  0  0  0  0  0  0  0  0  0
    0.1956    1.7631    1.2888 N   0  0  0  0  0  0  0  0  0  0  0  0
    0.9438    1.2497    1.7475 H   0  0  0  0  0  0  0  0  0  0  0  0
    0.1273    3.2084    1.4640 C   0  0  0  0  0  0  0  0  0  0  0  0
   -0.8802    3.5107    1.7686 H   0  0  0  0  0  0  0  0  0  0  0  0
    0.8315    3.5284    2.2380 H   0  0  0  0  0  0  0  0  0  0  0  0
    0.3827    3.7200    0.5302 H   0  0  0  0  0  0  0  0  0  0  0  0
  1  2  1  0  0  0  0
  2  3  1  0  0  0  0
  2  4  1  0  0  0  0
  2  5  1  0  0  0  0
  5  6  2  0  0  0  0
  5  7  1  0  0  0  0
  7  8  1  0  0  0  0
  7  9  1  0  0  0  0
  9 10  1  0  0  0  0
  9 11  1  0  0  0  0
  9 22  1  0  0  0  0
 11 12  1  0  0  0  0
 11 13  1  0  0  0  0
 11 14  1  0  0  0  0
 14 15  1  0  0  0  0
 14 20  2  0  0  0  0
 15 16  1  0  0  0  0
 15 17  1  0  0  0  0
 17 18  1  0  0  0  0
 17 19  2  0  0  0  0
 19 20  1  0  0  0  0
 20 21  1  0  0  0  0
 22 23  2  0  0  0  0
 22 24  1  0  0  0  0
 24 25  1  0  0  0  0
 24 26  1  0  0  0  0
 26 27  1  0  0  0  0
 26 28  1  0  0  0  0
 26 29  1  0  0  0  0
M  END
$$$$

  -OEChem-04042215593D

 29 29  0     1  0  0  0  0  0999 V2000
   -3.5785   -3.6573    1.4229 H   0  0  0  0  0  0  0  0  0  0  0  0
   -3.4975   -2.7388    0.8350 C   0  0  0  0  0  0  0  0  0  0  0  0
   -4.1588   -1.9844    1.2680 H   0  0  0  0  0  0  0  0  0  0  0  0
   -3.8145   -2.9475   -0.1896 H   0  0  0  0  0  0  0  0  0  0  0  0
   -2.0653   -2.2386    0.8421 C   0  0  0  0  0  0  0  0  0  0  0  0
   -1.2026   -2.8622    1.4388 O   0  0  0  0  0  0  0  0  0  0  0  0
   -1.7396   -1.0799    0.1689 N   0  0  0  0  0  0  0  0  0  0  0  0
   -2.5041   -0.5441   -0.2393 H   0  0  0  0  0  0  0  0  0  0  0  0
   -0.4183   -0.4354    0.2099 C   0  0  1  0  0  0  0  0  0  0  0  0
    0.1703   -0.8089    1.0540 H   0  0  0  0  0  0  0  0  0  0  0  0
    0.3215   -0.7776   -1.0967 C   0  0  0  0  0  0  0  0  0  0  0  0
    0.6301   -1.8277   -1.0608 H   0  0  0  0  0  0  0  0  0  0  0  0
   -0.3615   -0.6642   -1.9451 H   0  0  0  0  0  0  0  0  0  0  0  0
    1.5248    0.0991   -1.3389 C   0  0  0  0  0  0  0  0  0  0  0  0
    1.5247    1.4126   -1.7561 N   0  0  0  0  0  0  0  0  0  0  0  0
    0.6989    1.9916   -1.9145 H   0  0  0  0  0  0  0  0  0  0  0  0
    2.8348    1.8348   -1.8712 C   0  0  0  0  0  0  0  0  0  0  0  0
    3.1466    2.8311   -2.1717 H   0  0  0  0  0  0  0  0  0  0  0  0
    3.6505    0.8559   -1.5587 N   0  0  0  0  0  0  0  0  0  0  0  0
    2.8490   -0.2357   -1.2386 C   0  0  0  0  0  0  0  0  0  0  0  0
    3.2217   -1.2127   -0.9456 H   0  0  0  0  0  0  0  0  0  0  0  0
   -0.5900    1.0844    0.4081 C   0  0  0  0  0  0  0  0  0  0  0  0
   -1.4077    1.7002   -0.2692 O   0  0  0  0  0  0  0  0  0  0  0  0
    0.1921    1.7717    1.3184 N   0  0  0  0  0  0  0  0  0  0  0  0
    0.9135    1.2456    1.8051 H   0  0  0  0  0  0  0  0  0  0  0  0
    0.1253    3.2152    1.5086 C   0  0  0  0  0  0  0  0  0  0  0  0
   -0.8839    3.5159    1.8091 H   0  0  0  0  0  0  0  0  0  0  0  0
    0.8242    3.5256    2.2912 H   0  0  0  0  0  0  0  0  0  0  0  0
    0.3887    3.7368    0.5826 H   0  0  0  0  0  0  0  0  0  0  0  0
  1  2  1  0  0  0  0
  2  3  1  0  0  0  0
  2  4  1  0  0  0  0
  2  5  1  0  0  0  0
  5  6  2  0  0  0  0
  5  7  1  0  0  0  0
  7  8  1  0  0  0  0
  7  9  1  0  0  0  0
  9 10  1  0  0  0  0
  9 11  1  0  0  0  0
  9 22  1  0  0  0  0
 11 12  1  0  0  0  0
 11 13  1  0  0  0  0
 11 14  1  0  0  0  0
 14 15  1  0  0  0  0
 14 20  2  0  0  0  0
 15 16  1  0  0  0  0
 15 17  1  0  0  0  0
 17 18  1  0  0  0  0
 17 19  2  0  0  0  0
 19 20  1  0  0  0  0
 20 21  1  0  0  0  0
 22 23  2  0  0  0  0
 22 24  1  0  0  0  0
 24 25  1  0  0  0  0
 24 26  1  0  0  0  0
 26 27  1  0  0  0  0
 26 28  1  0  0  0  0
 26 29  1  0  0  0  0
M  END
$$$$

  -OEChem-04042215593D

 29 29  0     1  0  0  0  0  0999 V2000
   -3.5605   -3.6730    1.3922 H   0  0  0  0  0  0  0  0  0  0  0  0
   -3.4834   -2.7484    0.8131 C   0  0  0  0  0  0  0  0  0  0  0  0
   -4.1604   -2.0061    1.2429 H   0  0  0  0  0  0  0  0  0  0  0  0
   -3.7836   -2.9523   -0.2174 H   0  0  0  0  0  0  0  0  0  0  0  0
   -2.0582   -2.2298    0.8433 C   0  0  0  0  0  0  0  0  0  0  0  0
   -1.1961   -2.8448    1.4497 O   0  0  0  0  0  0  0  0  0  0  0  0
   -1.7378   -1.0642    0.1796 N   0  0  0  0  0  0  0  0  0  0  0  0
   -2.5014   -0.5401   -0.2447 H   0  0  0  0  0  0  0  0  0  0  0  0
   -0.4203   -0.4122    0.2260 C   0  0  1  0  0  0  0  0  0  0  0  0
    0.1671   -0.7856    1.0714 H   0  0  0  0  0  0  0  0  0  0  0  0
    0.3235   -0.7690   -1.0775 C   0  0  0  0  0  0  0  0  0  0  0  0
    0.6198   -1.8225   -1.0348 H   0  0  0  0  0  0  0  0  0  0  0  0
   -0.3663   -0.6574   -1.9205 H   0  0  0  0  0  0  0  0  0  0  0  0
    1.5345    0.0880   -1.3637 C   0  0  0  0  0  0  0  0  0  0  0  0
    1.5859    1.4541   -1.5442 N   0  0  0  0  0  0  0  0  0  0  0  0
    0.7895    2.0929   -1.5140 H   0  0  0  0  0  0  0  0  0  0  0  0
    2.8965    1.8178   -1.7834 C   0  0  0  0  0  0  0  0  0  0  0  0
    3.2416    2.8321   -1.9631 H   0  0  0  0  0  0  0  0  0  0  0  0
    3.6672    0.7569   -1.7593 N   0  0  0  0  0  0  0  0  0  0  0  0
    2.8324   -0.3274   -1.5068 C   0  0  0  0  0  0  0  0  0  0  0  0
    3.1652   -1.3583   -1.4289 H   0  0  0  0  0  0  0  0  0  0  0  0
   -0.5996    1.1040    0.4354 C   0  0  0  0  0  0  0  0  0  0  0  0
   -1.3997    1.7288   -0.2532 O   0  0  0  0  0  0  0  0  0  0  0  0
    0.1797    1.7865    1.3520 N   0  0  0  0  0  0  0  0  0  0  0  0
    0.8715    1.2494    1.8691 H   0  0  0  0  0  0  0  0  0  0  0  0
    0.0948    3.2249    1.5727 C   0  0  0  0  0  0  0  0  0  0  0  0
   -0.9171    3.5064    1.8826 H   0  0  0  0  0  0  0  0  0  0  0  0
    0.7927    3.5278    2.3592 H   0  0  0  0  0  0  0  0  0  0  0  0
    0.3481    3.7695    0.6573 H   0  0  0  0  0  0  0  0  0  0  0  0
  1  2  1  0  0  0  0
  2  3  1  0  0  0  0
  2  4  1  0  0  0  0
  2  5  1  0  0  0  0
  5  6  2  0  0  0  0
  5  7  1  0  0  0  0
  7  8  1  0  0  0  0
  7  9  1  0  0  0  0
  9 10  1  0  0  0  0
  9 11  1  0  0  0  0
  9 22  1  0  0  0  0
 11 12  1  0  0  0  0
 11 13  1  0  0  0  0
 11 14  1  0  0  0  0
 14 15  1  0  0  0  0
 14 20  2  0  0  0  0
 15 16  1  0  0  0  0
 15 17  1  0  0  0  0
 17 18  1  0  0  0  0
 17 19  2  0  0  0  0
 19 20  1  0  0  0  0
 20 21  1  0  0  0  0
 22 23  2  0  0  0  0
 22 24  1  0  0  0  0
 24 25  1  0  0  0  0
 24 26  1  0  0  0  0
 26 27  1  0  0  0  0
 26 28  1  0  0  0  0
 26 29  1  0  0  0  0
M  END
$$$$

  -OEChem-04042215593D

 29 29  0     1  0  0  0  0  0999 V2000
   -3.5407   -3.6768    1.3723 H   0  0  0  0  0  0  0  0  0  0  0  0
   -3.4678   -2.7479    0.7997 C   0  0  0  0  0  0  0  0  0  0  0  0
   -4.1540   -2.0145    1.2298 H   0  0  0  0  0  0  0  0  0  0  0  0
   -3.7597   -2.9480   -0.2341 H   0  0  0  0  0  0  0  0  0  0  0  0
   -2.0471   -2.2176    0.8431 C   0  0  0  0  0  0  0  0  0  0  0  0
   -1.1855   -2.8272    1.4555 O   0  0  0  0  0  0  0  0  0  0  0  0
   -1.7298   -1.0480    0.1850 N   0  0  0  0  0  0  0  0  0  0  0  0
   -2.4926   -0.5297   -0.2476 H   0  0  0  0  0  0  0  0  0  0  0  0
   -0.4143   -0.3918    0.2345 C   0  0  1  0  0  0  0  0  0  0  0  0
    0.1727   -0.7641    1.0805 H   0  0  0  0  0  0  0  0  0  0  0  0
    0.3305   -0.7563   -1.0682 C   0  0  0  0  0  0  0  0  0  0  0  0
    0.6149   -1.8132   -1.0242 H   0  0  0  0  0  0  0  0  0  0  0  0
   -0.3669   -0.6415   -1.9046 H   0  0  0  0  0  0  0  0  0  0  0  0
    1.5488    0.0814   -1.3918 C   0  0  0  0  0  0  0  0  0  0  0  0
    1.7120    1.4502   -1.3372 N   0  0  0  0  0  0  0  0  0  0  0  0
    0.9843    2.1320   -1.1178 H   0  0  0  0  0  0  0  0  0  0  0  0
    3.0082    1.7574   -1.7006 C   0  0  0  0  0  0  0  0  0  0  0  0
    3.4206    2.7608   -1.7586 H   0  0  0  0  0  0  0  0  0  0  0  0
    3.6710    0.6583   -1.9663 N   0  0  0  0  0  0  0  0  0  0  0  0
    2.7761   -0.3903   -1.7803 C   0  0  0  0  0  0  0  0  0  0  0  0
    3.0201   -1.4395   -1.9186 H   0  0  0  0  0  0  0  0  0  0  0  0
   -0.6051    1.1214    0.4507 C   0  0  0  0  0  0  0  0  0  0  0  0
   -1.4091    1.7459   -0.2319 O   0  0  0  0  0  0  0  0  0  0  0  0
    0.1686    1.8052    1.3716 N   0  0  0  0  0  0  0  0  0  0  0  0
    0.8306    1.2618    1.9206 H   0  0  0  0  0  0  0  0  0  0  0  0
    0.0307    3.2310    1.6440 C   0  0  0  0  0  0  0  0  0  0  0  0
   -0.9854    3.4600    1.9824 H   0  0  0  0  0  0  0  0  0  0  0  0
    0.7318    3.5351    2.4274 H   0  0  0  0  0  0  0  0  0  0  0  0
    0.2432    3.8172    0.7441 H   0  0  0  0  0  0  0  0  0  0  0  0
  1  2  1  0  0  0  0
  2  3  1  0  0  0  0
  2  4  1  0  0  0  0
  2  5  1  0  0  0  0
  5  6  2  0  0  0  0
  5  7  1  0  0  0  0
  7  8  1  0  0  0  0
  7  9  1  0  0  0  0
  9 10  1  0  0  0  0
  9 11  1  0  0  0  0
  9 22  1  0  0  0  0
 11 12  1  0  0  0  0
 11 13  1  0  0  0  0
 11 14  1  0  0  0  0
 14 15  1  0  0  0  0
 14 20  2  0  0  0  0
 15 16  1  0  0  0  0
 15 17  1  0  0  0  0
 17 18  1  0  0  0  0
 17 19  2  0  0  0  0
 19 20  1  0  0  0  0
 20 21  1  0  0  0  0
 22 23  2  0  0  0  0
 22 24  1  0  0  0  0
 24 25  1  0  0  0  0
 24 26  1  0  0  0  0
 26 27  1  0  0  0  0
 26 28  1  0  0  0  0
 26 29  1  0  0  0  0
M  END
$$$$

  -OEChem-04042215593D

 29 29  0     1  0  0  0  0  0999 V2000
   -3.5401   -3.6554    1.3702 H   0  0  0  0  0  0  0  0  0  0  0  0
   -3.4627   -2.7277    0.7962 C   0  0  0  0  0  0  0  0  0  0  0  0
   -4.1444   -1.9897    1.2258 H   0  0  0  0  0  0  0  0  0  0  0  0
   -3.7561   -2.9274   -0.2372 H   0  0  0  0  0  0  0  0  0  0  0  0
   -2.0394   -2.2047    0.8379 C   0  0  0  0  0  0  0  0  0  0  0  0
   -1.1811   -2.8146    1.4549 O   0  0  0  0  0  0  0  0  0  0  0  0
   -1.7171   -1.0367    0.1797 N   0  0  0  0  0  0  0  0  0  0  0  0
   -2.4781   -0.5133   -0.2511 H   0  0  0  0  0  0  0  0  0  0  0  0
   -0.4001   -0.3839    0.2330 C   0  0  1  0  0  0  0  0  0  0  0  0
    0.1850   -0.7553    1.0806 H   0  0  0  0  0  0  0  0  0  0  0  0
    0.3481   -0.7460   -1.0687 C   0  0  0  0  0  0  0  0  0  0  0  0
    0.6219   -1.8059   -1.0318 H   0  0  0  0  0  0  0  0  0  0  0  0
   -0.3512   -0.6209   -1.9023 H   0  0  0  0  0  0  0  0  0  0  0  0
    1.5746    0.0785   -1.4050 C   0  0  0  0  0  0  0  0  0  0  0  0
    1.8857    1.3932   -1.1212 N   0  0  0  0  0  0  0  0  0  0  0  0
    1.2657    2.0763   -0.6854 H   0  0  0  0  0  0  0  0  0  0  0  0
    3.1466    1.6695   -1.6125 C   0  0  0  0  0  0  0  0  0  0  0  0
    3.6450    2.6327   -1.5510 H   0  0  0  0  0  0  0  0  0  0  0  0
    3.6560    0.5977   -2.1671 N   0  0  0  0  0  0  0  0  0  0  0  0
    2.6922   -0.3971   -2.0425 C   0  0  0  0  0  0  0  0  0  0  0  0
    2.8130   -1.4162   -2.3981 H   0  0  0  0  0  0  0  0  0  0  0  0
   -0.6041    1.1276    0.4476 C   0  0  0  0  0  0  0  0  0  0  0  0
   -1.4358    1.7398   -0.2115 O   0  0  0  0  0  0  0  0  0  0  0  0
    0.1611    1.8169    1.3724 N   0  0  0  0  0  0  0  0  0  0  0  0
    0.7839    1.2669    1.9600 H   0  0  0  0  0  0  0  0  0  0  0  0
   -0.0470    3.2236    1.6961 C   0  0  0  0  0  0  0  0  0  0  0  0
   -1.0573    3.3809    2.0885 H   0  0  0  0  0  0  0  0  0  0  0  0
    0.6725    3.5476    2.4544 H   0  0  0  0  0  0  0  0  0  0  0  0
    0.0860    3.8474    0.8061 H   0  0  0  0  0  0  0  0  0  0  0  0
  1  2  1  0  0  0  0
  2  3  1  0  0  0  0
  2  4  1  0  0  0  0
  2  5  1  0  0  0  0
  5  6  2  0  0  0  0
  5  7  1  0  0  0  0
  7  8  1  0  0  0  0
  7  9  1  0  0  0  0
  9 10  1  0  0  0  0
  9 11  1  0  0  0  0
  9 22  1  0  0  0  0
 11 12  1  0  0  0  0
 11 13  1  0  0  0  0
 11 14  1  0  0  0  0
 14 15  1  0  0  0  0
 14 20  2  0  0  0  0
 15 16  1  0  0  0  0
 15 17  1  0  0  0  0
 17 18  1  0  0  0  0
 17 19  2  0  0  0  0
 19 20  1  0  0  0  0
 20 21  1  0  0  0  0
 22 23  2  0  0  0  0
 22 24  1  0  0  0  0
 24 25  1  0  0  0  0
 24 26  1  0  0  0  0
 26 27  1  0  0  0  0
 26 28  1  0  0  0  0
 26 29  1  0  0  0  0
M  END
$$$$

  -OEChem-04042215593D

 29 29  0     1  0  0  0  0  0999 V2000
   -3.5516   -3.6406    1.3560 H   0  0  0  0  0  0  0  0  0  0  0  0
   -3.4663   -2.7143    0.7809 C   0  0  0  0  0  0  0  0  0  0  0  0
   -4.1499   -1.9737    1.2026 H   0  0  0  0  0  0  0  0  0  0  0  0
   -3.7509   -2.9153   -0.2546 H   0  0  0  0  0  0  0  0  0  0  0  0
   -2.0420   -2.1954    0.8348 C   0  0  0  0  0  0  0  0  0  0  0  0
   -1.1922   -2.8037    1.4649 O   0  0  0  0  0  0  0  0  0  0  0  0
   -1.7095   -1.0310    0.1753 N   0  0  0  0  0  0  0  0  0  0  0  0
   -2.4645   -0.5053   -0.2635 H   0  0  0  0  0  0  0  0  0  0  0  0
   -0.3906   -0.3831    0.2382 C   0  0  1  0  0  0  0  0  0  0  0  0
    0.1890   -0.7547    1.0894 H   0  0  0  0  0  0  0  0  0  0  0  0
    0.3621   -0.7450   -1.0607 C   0  0  0  0  0  0  0  0  0  0  0  0
    0.6332   -1.8055   -1.0222 H   0  0  0  0  0  0  0  0  0  0  0  0
   -0.3344   -0.6183   -1.8968 H   0  0  0  0  0  0  0  0  0  0  0  0
    1.5953    0.0697   -1.3974 C   0  0  0  0  0  0  0  0  0  0  0  0
    2.0576    1.2751   -0.9079 N   0  0  0  0  0  0  0  0  0  0  0  0
    1.5618    1.8942   -0.2669 H   0  0  0  0  0  0  0  0  0  0  0  0
    3.2604    1.5726   -1.5186 C   0  0  0  0  0  0  0  0  0  0  0  0
    3.8452    2.4713   -1.3438 H   0  0  0  0  0  0  0  0  0  0  0  0
    3.5943    0.6122   -2.3441 N   0  0  0  0  0  0  0  0  0  0  0  0
    2.5716   -0.3275   -2.2753 C   0  0  0  0  0  0  0  0  0  0  0  0
    2.5527   -1.2553   -2.8393 H   0  0  0  0  0  0  0  0  0  0  0  0
   -0.5974    1.1293    0.4458 C   0  0  0  0  0  0  0  0  0  0  0  0
   -1.4426    1.7337   -0.2033 O   0  0  0  0  0  0  0  0  0  0  0  0
    0.1616    1.8181    1.3776 N   0  0  0  0  0  0  0  0  0  0  0  0
    0.7348    1.2580    2.0052 H   0  0  0  0  0  0  0  0  0  0  0  0
   -0.0724    3.2185    1.7121 C   0  0  0  0  0  0  0  0  0  0  0  0
   -1.0794    3.3521    2.1214 H   0  0  0  0  0  0  0  0  0  0  0  0
    0.6527    3.5553    2.4594 H   0  0  0  0  0  0  0  0  0  0  0  0
    0.0322    3.8488    0.8227 H   0  0  0  0  0  0  0  0  0  0  0  0
  1  2  1  0  0  0  0
  2  3  1  0  0  0  0
  2  4  1  0  0  0  0
  2  5  1  0  0  0  0
  5  6  2  0  0  0  0
  5  7  1  0  0  0  0
  7  8  1  0  0  0  0
  7  9  1  0  0  0  0
  9 10  1  0  0  0  0
  9 11  1  0  0  0  0
  9 22  1  0  0  0  0
 11 12  1  0  0  0  0
 11 13  1  0  0  0  0
 11 14  1  0  0  0  0
 14 15  1  0  0  0  0
 14 20  2  0  0  0  0
 15 16  1  0  0  0  0
 15 17  1  0  0  0  0
 17 18  1  0  0  0  0
 17 19  2  0  0  0  0
 19 20  1  0  0  0  0
 20 21  1  0  0  0  0
 22 23  2  0  0  0  0
 22 24  1  0  0  0  0
 24 25  1  0  0  0  0
 24 26  1  0  0  0  0
 26 27  1  0  0  0  0
 26 28  1  0  0  0  0
 26 29  1  0  0  0  0
M  END
$$$$

  -OEChem-04042215593D

 29 29  0     1  0  0  0  0  0999 V2000
   -3.5715   -3.6303    1.3408 H   0  0  0  0  0  0  0  0  0  0  0  0
   -3.4772   -2.7059    0.7642 C   0  0  0  0  0  0  0  0  0  0  0  0
   -4.1636   -1.9622    1.1759 H   0  0  0  0  0  0  0  0  0  0  0  0
   -3.7506   -2.9090   -0.2740 H   0  0  0  0  0  0  0  0  0  0  0  0
   -2.0523   -2.1909    0.8330 C   0  0  0  0  0  0  0  0  0  0  0  0
   -1.2124   -2.7981    1.4774 O   0  0  0  0  0  0  0  0  0  0  0  0
   -1.7081   -1.0313    0.1712 N   0  0  0  0  0  0  0  0  0  0  0  0
   -2.4562   -0.5044   -0.2779 H   0  0  0  0  0  0  0  0  0  0  0  0
   -0.3869   -0.3892    0.2443 C   0  0  1  0  0  0  0  0  0  0  0  0
    0.1848   -0.7627    1.0999 H   0  0  0  0  0  0  0  0  0  0  0  0
    0.3689   -0.7570   -1.0502 C   0  0  0  0  0  0  0  0  0  0  0  0
    0.6432   -1.8160   -0.9985 H   0  0  0  0  0  0  0  0  0  0  0  0
   -0.3214   -0.6408   -1.8927 H   0  0  0  0  0  0  0  0  0  0  0  0
    1.6071    0.0511   -1.3800 C   0  0  0  0  0  0  0  0  0  0  0  0
    2.2183    1.0991   -0.7214 N   0  0  0  0  0  0  0  0  0  0  0  0
    1.8501    1.5986    0.0866 H   0  0  0  0  0  0  0  0  0  0  0  0
    3.3453    1.4710   -1.4288 C   0  0  0  0  0  0  0  0  0  0  0  0
    4.0134    2.2838   -1.1585 H   0  0  0  0  0  0  0  0  0  0  0  0
    3.4906    0.7034   -2.4799 N   0  0  0  0  0  0  0  0  0  0  0  0
    2.4190   -0.1822   -2.4603 C   0  0  0  0  0  0  0  0  0  0  0  0
    2.2509   -0.9580   -3.2013 H   0  0  0  0  0  0  0  0  0  0  0  0
   -0.5819    1.1261    0.4424 C   0  0  0  0  0  0  0  0  0  0  0  0
   -1.4230    1.7317   -0.2112 O   0  0  0  0  0  0  0  0  0  0  0  0
    0.1768    1.8084    1.3801 N   0  0  0  0  0  0  0  0  0  0  0  0
    0.6937    1.2390    2.0467 H   0  0  0  0  0  0  0  0  0  0  0  0
   -0.0461    3.2146    1.6976 C   0  0  0  0  0  0  0  0  0  0  0  0
   -1.0551    3.3625    2.0967 H   0  0  0  0  0  0  0  0  0  0  0  0
    0.6764    3.5530    2.4466 H   0  0  0  0  0  0  0  0  0  0  0  0
    0.0721    3.8339    0.8019 H   0  0  0  0  0  0  0  0  0  0  0  0
  1  2  1  0  0  0  0
  2  3  1  0  0  0  0
  2  4  1  0  0  0  0
  2  5  1  0  0  0  0
  5  6  2  0  0  0  0
  5  7  1  0  0  0  0
  7  8  1  0  0  0  0
  7  9  1  0  0  0  0
  9 10  1  0  0  0  0
  9 11  1  0  0  0  0
  9 22  1  0  0  0  0
 11 12  1  0  0  0  0
 11 13  1  0  0  0  0
 11 14  1  0  0  0  0
 14 15  1  0  0  0  0
 14 20  2  0  0  0  0
 15 16  1  0  0  0  0
 15 17  1  0  0  0  0
 17 18  1  0  0  0  0
 17 19  2  0  0  0  0
 19 20  1  0  0  0  0
 20 21  1  0  0  0  0
 22 23  2  0  0  0  0
 22 24  1  0  0  0  0
 24 25  1  0  0  0  0
 24 26  1  0  0  0  0
 26 27  1  0  0  0  0
 26 28  1  0  0  0  0
 26 29  1  0  0  0  0
M  END
$$$$

  -OEChem-04042215593D

 29 29  0     1  0  0  0  0  0999 V2000
   -3.5975   -3.6114    1.3464 H   0  0  0  0  0  0  0  0  0  0  0  0
   -3.4917   -2.6910    0.7654 C   0  0  0  0  0  0  0  0  0  0  0  0
   -4.1737   -1.9390    1.1693 H   0  0  0  0  0  0  0  0  0  0  0  0
   -3.7608   -2.8976   -0.2732 H   0  0  0  0  0  0  0  0  0  0  0  0
   -2.0627   -2.1879    0.8393 C   0  0  0  0  0  0  0  0  0  0  0  0
   -1.2326   -2.7956    1.4962 O   0  0  0  0  0  0  0  0  0  0  0  0
   -1.7028   -1.0383    0.1687 N   0  0  0  0  0  0  0  0  0  0  0  0
   -2.4424   -0.5072   -0.2895 H   0  0  0  0  0  0  0  0  0  0  0  0
   -0.3760   -0.4088    0.2449 C   0  0  1  0  0  0  0  0  0  0  0  0
    0.1921   -0.7836    1.1022 H   0  0  0  0  0  0  0  0  0  0  0  0
    0.3713   -0.7822   -1.0517 C   0  0  0  0  0  0  0  0  0  0  0  0
    0.6467   -1.8405   -0.9916 H   0  0  0  0  0  0  0  0  0  0  0  0
   -0.3167   -0.6721   -1.8973 H   0  0  0  0  0  0  0  0  0  0  0  0
    1.6140    0.0205   -1.3694 C   0  0  0  0  0  0  0  0  0  0  0  0
    2.3739    0.8612   -0.5823 N   0  0  0  0  0  0  0  0  0  0  0  0
    2.1646    1.1489    0.3704 H   0  0  0  0  0  0  0  0  0  0  0  0
    3.4111    1.3625   -1.3454 C   0  0  0  0  0  0  0  0  0  0  0  0
    4.1639    2.0622   -0.9938 H   0  0  0  0  0  0  0  0  0  0  0  0
    3.3538    0.8757   -2.5600 N   0  0  0  0  0  0  0  0  0  0  0  0
    2.2396    0.0449   -2.5893 C   0  0  0  0  0  0  0  0  0  0  0  0
    1.9102   -0.5104   -3.4625 H   0  0  0  0  0  0  0  0  0  0  0  0
   -0.5562    1.1111    0.4275 C   0  0  0  0  0  0  0  0  0  0  0  0
   -1.3939    1.7144   -0.2334 O   0  0  0  0  0  0  0  0  0  0  0  0
    0.2018    1.7960    1.3639 N   0  0  0  0  0  0  0  0  0  0  0  0
    0.6820    1.2302    2.0589 H   0  0  0  0  0  0  0  0  0  0  0  0
   -0.0062    3.2110    1.6515 C   0  0  0  0  0  0  0  0  0  0  0  0
   -1.0185    3.3797    2.0337 H   0  0  0  0  0  0  0  0  0  0  0  0
    0.7110    3.5549    2.4032 H   0  0  0  0  0  0  0  0  0  0  0  0
    0.1320    3.8110    0.7456 H   0  0  0  0  0  0  0  0  0  0  0  0
  1  2  1  0  0  0  0
  2  3  1  0  0  0  0
  2  4  1  0  0  0  0
  2  5  1  0  0  0  0
  5  6  2  0  0  0  0
  5  7  1  0  0  0  0
  7  8  1  0  0  0  0
  7  9  1  0  0  0  0
  9 10  1  0  0  0  0
  9 11  1  0  0  0  0
  9 22  1  0  0  0  0
 11 12  1  0  0  0  0
 11 13  1  0  0  0  0
 11 14  1  0  0  0  0
 14 15  1  0  0  0  0
 14 20  2  0  0  0  0
 15 16  1  0  0  0  0
 15 17  1  0  0  0  0
 17 18  1  0  0  0  0
 17 19  2  0  0  0  0
 19 20  1  0  0  0  0
 20 21  1  0  0  0  0
 22 23  2  0  0  0  0
 22 24  1  0  0  0  0
 24 25  1  0  0  0  0
 24 26  1  0  0  0  0
 26 27  1  0  0  0  0
 26 28  1  0  0  0  0
 26 29  1  0  0  0  0
M  END
$$$$

  -OEChem-04042215593D

 29 29  0     1  0  0  0  0  0999 V2000
   -3.6235   -3.5827    1.3975 H   0  0  0  0  0  0  0  0  0  0  0  0
   -3.5082   -2.6710    0.8048 C   0  0  0  0  0  0  0  0  0  0  0  0
   -4.1660   -1.8999    1.2131 H   0  0  0  0  0  0  0  0  0  0  0  0
   -3.8010   -2.8820   -0.2265 H   0  0  0  0  0  0  0  0  0  0  0  0
   -2.0674   -2.1986    0.8474 C   0  0  0  0  0  0  0  0  0  0  0  0
   -1.2378   -2.8184    1.4939 O   0  0  0  0  0  0  0  0  0  0  0  0
   -1.6968   -1.0611    0.1624 N   0  0  0  0  0  0  0  0  0  0  0  0
   -2.4351   -0.5134   -0.2786 H   0  0  0  0  0  0  0  0  0  0  0  0
   -0.3618   -0.4486    0.2283 C   0  0  1  0  0  0  0  0  0  0  0  0
    0.2119   -0.8241    1.0814 H   0  0  0  0  0  0  0  0  0  0  0  0
    0.3662   -0.8108   -1.0808 C   0  0  0  0  0  0  0  0  0  0  0  0
    0.6395   -1.8701   -1.0375 H   0  0  0  0  0  0  0  0  0  0  0  0
   -0.3258   -0.6859   -1.9209 H   0  0  0  0  0  0  0  0  0  0  0  0
    1.6096   -0.0023   -1.3727 C   0  0  0  0  0  0  0  0  0  0  0  0
    2.5071    0.5819   -0.5032 N   0  0  0  0  0  0  0  0  0  0  0  0
    2.4987    0.5155    0.5106 H   0  0  0  0  0  0  0  0  0  0  0  0
    3.4592    1.2576   -1.2429 C   0  0  0  0  0  0  0  0  0  0  0  0
    4.2981    1.8083   -0.8272 H   0  0  0  0  0  0  0  0  0  0  0  0
    3.2068    1.1359   -2.5224 N   0  0  0  0  0  0  0  0  0  0  0  0
    2.0542    0.3636   -2.6171 C   0  0  0  0  0  0  0  0  0  0  0  0
    1.5708    0.0926   -3.5509 H   0  0  0  0  0  0  0  0  0  0  0  0
   -0.5383    1.0759    0.3949 C   0  0  0  0  0  0  0  0  0  0  0  0
   -1.3922    1.6640   -0.2603 O   0  0  0  0  0  0  0  0  0  0  0  0
    0.2155    1.7816    1.3176 N   0  0  0  0  0  0  0  0  0  0  0  0
    0.7614    1.2416    1.9814 H   0  0  0  0  0  0  0  0  0  0  0  0
    0.0331    3.2080    1.5602 C   0  0  0  0  0  0  0  0  0  0  0  0
   -0.9778    3.4083    1.9308 H   0  0  0  0  0  0  0  0  0  0  0  0
    0.7525    3.5609    2.3054 H   0  0  0  0  0  0  0  0  0  0  0  0
    0.1887    3.7761    0.6367 H   0  0  0  0  0  0  0  0  0  0  0  0
  1  2  1  0  0  0  0
  2  3  1  0  0  0  0
  2  4  1  0  0  0  0
  2  5  1  0  0  0  0
  5  6  2  0  0  0  0
  5  7  1  0  0  0  0
  7  8  1  0  0  0  0
  7  9  1  0  0  0  0
  9 10  1  0  0  0  0
  9 11  1  0  0  0  0
  9 22  1  0  0  0  0
 11 12  1  0  0  0  0
 11 13  1  0  0  0  0
 11 14  1  0  0  0  0
 14 15  1  0  0  0  0
 14 20  2  0  0  0  0
 15 16  1  0  0  0  0
 15 17  1  0  0  0  0
 17 18  1  0  0  0  0
 17 19  2  0  0  0  0
 19 20  1  0  0  0  0
 20 21  1  0  0  0  0
 22 23  2  0  0  0  0
 22 24  1  0  0  0  0
 24 25  1  0  0  0  0
 24 26  1  0  0  0  0
 26 27  1  0  0  0  0
 26 28  1  0  0  0  0
 26 29  1  0  0  0  0
M  END
$$$$

  -OEChem-04042215593D

 29 29  0     1  0  0  0  0  0999 V2000
   -3.6176   -3.5839    1.4544 H   0  0  0  0  0  0  0  0  0  0  0  0
   -3.5122   -2.6769    0.8526 C   0  0  0  0  0  0  0  0  0  0  0  0
   -4.1503   -1.8972    1.2754 H   0  0  0  0  0  0  0  0  0  0  0  0
   -3.8380   -2.8916   -0.1680 H   0  0  0  0  0  0  0  0  0  0  0  0
   -2.0666   -2.2177    0.8484 C   0  0  0  0  0  0  0  0  0  0  0  0
   -1.2207   -2.8503    1.4609 O   0  0  0  0  0  0  0  0  0  0  0  0
   -1.7082   -1.0818    0.1542 N   0  0  0  0  0  0  0  0  0  0  0  0
   -2.4572   -0.5190   -0.2482 H   0  0  0  0  0  0  0  0  0  0  0  0
   -0.3700   -0.4745    0.1935 C   0  0  1  0  0  0  0  0  0  0  0  0
    0.2153   -0.8497    1.0386 H   0  0  0  0  0  0  0  0  0  0  0  0
    0.3451   -0.8228   -1.1245 C   0  0  0  0  0  0  0  0  0  0  0  0
    0.6247   -1.8811   -1.1039 H   0  0  0  0  0  0  0  0  0  0  0  0
   -0.3506   -0.6825   -1.9593 H   0  0  0  0  0  0  0  0  0  0  0  0
    1.5767    0.0107   -1.3829 C   0  0  0  0  0  0  0  0  0  0  0  0
    2.5884    0.3372   -0.5044 N   0  0  0  0  0  0  0  0  0  0  0  0
    2.7113   -0.0268    0.4372 H   0  0  0  0  0  0  0  0  0  0  0  0
    3.4888    1.1549   -1.1615 C   0  0  0  0  0  0  0  0  0  0  0  0
    4.3989    1.5586   -0.7270 H   0  0  0  0  0  0  0  0  0  0  0  0
    3.0903    1.3691   -2.3911 N   0  0  0  0  0  0  0  0  0  0  0  0
    1.8976    0.6690   -2.5416 C   0  0  0  0  0  0  0  0  0  0  0  0
    1.3016    0.6526   -3.4493 H   0  0  0  0  0  0  0  0  0  0  0  0
   -0.5406    1.0519    0.3623 C   0  0  0  0  0  0  0  0  0  0  0  0
   -1.4260    1.6338   -0.2564 O   0  0  0  0  0  0  0  0  0  0  0  0
    0.2299    1.7618    1.2665 N   0  0  0  0  0  0  0  0  0  0  0  0
    0.9078    1.2463    1.8176 H   0  0  0  0  0  0  0  0  0  0  0  0
    0.0963    3.1986    1.4753 C   0  0  0  0  0  0  0  0  0  0  0  0
   -0.9102    3.4428    1.8309 H   0  0  0  0  0  0  0  0  0  0  0  0
    0.8193    3.5418    2.2215 H   0  0  0  0  0  0  0  0  0  0  0  0
    0.2814    3.7396    0.5411 H   0  0  0  0  0  0  0  0  0  0  0  0
  1  2  1  0  0  0  0
  2  3  1  0  0  0  0
  2  4  1  0  0  0  0
  2  5  1  0  0  0  0
  5  6  2  0  0  0  0
  5  7  1  0  0  0  0
  7  8  1  0  0  0  0
  7  9  1  0  0  0  0
  9 10  1  0  0  0  0
  9 11  1  0  0  0  0
  9 22  1  0  0  0  0
 11 12  1  0  0  0  0
 11 13  1  0  0  0  0
 11 14  1  0  0  0  0
 14 15  1  0  0  0  0
 14 20  2  0  0  0  0
 15 16  1  0  0  0  0
 15 17  1  0  0  0  0
 17 18  1  0  0  0  0
 17 19  2  0  0  0  0
 19 20  1  0  0  0  0
 20 21  1  0  0  0  0
 22 23  2  0  0  0  0
 22 24  1  0  0  0  0
 24 25  1  0  0  0  0
 24 26  1  0  0  0  0
 26 27  1  0  0  0  0
 26 28  1  0  0  0  0
 26 29  1  0  0  0  0
M  END
$$$$

  -OEChem-04042215593D

 29 29  0     1  0  0  0  0  0999 V2000
   -3.6006   -3.5930    1.4932 H   0  0  0  0  0  0  0  0  0  0  0  0
   -3.5082   -2.6890    0.8848 C   0  0  0  0  0  0  0  0  0  0  0  0
   -4.1310   -1.9048    1.3221 H   0  0  0  0  0  0  0  0  0  0  0  0
   -3.8637   -2.9062   -0.1254 H   0  0  0  0  0  0  0  0  0  0  0  0
   -2.0612   -2.2360    0.8384 C   0  0  0  0  0  0  0  0  0  0  0  0
   -1.1984   -2.8813    1.4132 O   0  0  0  0  0  0  0  0  0  0  0  0
   -1.7198   -1.0942    0.1454 N   0  0  0  0  0  0  0  0  0  0  0  0
   -2.4796   -0.5226   -0.2229 H   0  0  0  0  0  0  0  0  0  0  0  0
   -0.3832   -0.4827    0.1662 C   0  0  1  0  0  0  0  0  0  0  0  0
    0.2116   -0.8597    1.0040 H   0  0  0  0  0  0  0  0  0  0  0  0
    0.3265   -0.8191   -1.1560 C   0  0  0  0  0  0  0  0  0  0  0  0
    0.6149   -1.8752   -1.1528 H   0  0  0  0  0  0  0  0  0  0  0  0
   -0.3729   -0.6700   -1.9859 H   0  0  0  0  0  0  0  0  0  0  0  0
    1.5443    0.0383   -1.3913 C   0  0  0  0  0  0  0  0  0  0  0  0
    2.6668    0.1308   -0.5967 N   0  0  0  0  0  0  0  0  0  0  0  0
    2.8761   -0.4376    0.2215 H   0  0  0  0  0  0  0  0  0  0  0  0
    3.5298    1.0455   -1.1709 C   0  0  0  0  0  0  0  0  0  0  0  0
    4.5055    1.3165   -0.7776 H   0  0  0  0  0  0  0  0  0  0  0  0
    3.0031    1.5377   -2.2653 N   0  0  0  0  0  0  0  0  0  0  0  0
    1.7652    0.9208   -2.4165 C   0  0  0  0  0  0  0  0  0  0  0  0
    1.0714    1.1167   -3.2287 H   0  0  0  0  0  0  0  0  0  0  0  0
   -0.5487    1.0426    0.3478 C   0  0  0  0  0  0  0  0  0  0  0  0
   -1.4515    1.6266   -0.2435 O   0  0  0  0  0  0  0  0  0  0  0  0
    0.2393    1.7444    1.2424 N   0  0  0  0  0  0  0  0  0  0  0  0
    0.9920    1.2409    1.7003 H   0  0  0  0  0  0  0  0  0  0  0  0
    0.1404    3.1866    1.4307 C   0  0  0  0  0  0  0  0  0  0  0  0
   -0.8631    3.4607    1.7731 H   0  0  0  0  0  0  0  0  0  0  0  0
    0.8636    3.5208    2.1807 H   0  0  0  0  0  0  0  0  0  0  0  0
    0.3482    3.7104    0.4916 H   0  0  0  0  0  0  0  0  0  0  0  0
  1  2  1  0  0  0  0
  2  3  1  0  0  0  0
  2  4  1  0  0  0  0
  2  5  1  0  0  0  0
  5  6  2  0  0  0  0
  5  7  1  0  0  0  0
  7  8  1  0  0  0  0
  7  9  1  0  0  0  0
  9 10  1  0  0  0  0
  9 11  1  0  0  0  0
  9 22  1  0  0  0  0
 11 12  1  0  0  0  0
 11 13  1  0  0  0  0
 11 14  1  0  0  0  0
 14 15  1  0  0  0  0
 14 20  2  0  0  0  0
 15 16  1  0  0  0  0
 15 17  1  0  0  0  0
 17 18  1  0  0  0  0
 17 19  2  0  0  0  0
 19 20  1  0  0  0  0
 20 21  1  0  0  0  0
 22 23  2  0  0  0  0
 22 24  1  0  0  0  0
 24 25  1  0  0  0  0
 24 26  1  0  0  0  0
 26 27  1  0  0  0  0
 26 28  1  0  0  0  0
 26 29  1  0  0  0  0
M  END
$$$$

  -OEChem-04042215593D

 29 29  0     1  0  0  0  0  0999 V2000
   -3.5896   -3.6045    1.5000 H   0  0  0  0  0  0  0  0  0  0  0  0
   -3.5043   -2.6993    0.8925 C   0  0  0  0  0  0  0  0  0  0  0  0
   -4.1209   -1.9158    1.3397 H   0  0  0  0  0  0  0  0  0  0  0  0
   -3.8722   -2.9139   -0.1137 H   0  0  0  0  0  0  0  0  0  0  0  0
   -2.0577   -2.2474    0.8289 C   0  0  0  0  0  0  0  0  0  0  0  0
   -1.1862   -2.9007    1.3811 O   0  0  0  0  0  0  0  0  0  0  0  0
   -1.7274   -1.0980    0.1432 N   0  0  0  0  0  0  0  0  0  0  0  0
   -2.4937   -0.5242   -0.2075 H   0  0  0  0  0  0  0  0  0  0  0  0
   -0.3938   -0.4804    0.1568 C   0  0  1  0  0  0  0  0  0  0  0  0
    0.2069   -0.8606    0.9891 H   0  0  0  0  0  0  0  0  0  0  0  0
    0.3150   -0.8086   -1.1671 C   0  0  0  0  0  0  0  0  0  0  0  0
    0.6063   -1.8638   -1.1794 H   0  0  0  0  0  0  0  0  0  0  0  0
   -0.3868   -0.6502   -1.9933 H   0  0  0  0  0  0  0  0  0  0  0  0
    1.5238    0.0624   -1.3928 C   0  0  0  0  0  0  0  0  0  0  0  0
    2.7466   -0.0411   -0.7670 N   0  0  0  0  0  0  0  0  0  0  0  0
    3.0232   -0.7557   -0.0964 H   0  0  0  0  0  0  0  0  0  0  0  0
    3.5766    0.9415   -1.2734 C   0  0  0  0  0  0  0  0  0  0  0  0
    4.6091    1.1017   -0.9762 H   0  0  0  0  0  0  0  0  0  0  0  0
    2.9381    1.6537   -2.1695 N   0  0  0  0  0  0  0  0  0  0  0  0
    1.6586    1.1143   -2.2613 C   0  0  0  0  0  0  0  0  0  0  0  0
    0.8777    1.4777   -2.9230 H   0  0  0  0  0  0  0  0  0  0  0  0
   -0.5589    1.0425    0.3528 C   0  0  0  0  0  0  0  0  0  0  0  0
   -1.4661    1.6304   -0.2279 O   0  0  0  0  0  0  0  0  0  0  0  0
    0.2383    1.7356    1.2454 N   0  0  0  0  0  0  0  0  0  0  0  0
    1.0164    1.2340    1.6621 H   0  0  0  0  0  0  0  0  0  0  0  0
    0.1611    3.1805    1.4219 C   0  0  0  0  0  0  0  0  0  0  0  0
   -0.8403    3.4738    1.7542 H   0  0  0  0  0  0  0  0  0  0  0  0
    0.8836    3.5087    2.1754 H   0  0  0  0  0  0  0  0  0  0  0  0
    0.3849    3.6931    0.4802 H   0  0  0  0  0  0  0  0  0  0  0  0
  1  2  1  0  0  0  0
  2  3  1  0  0  0  0
  2  4  1  0  0  0  0
  2  5  1  0  0  0  0
  5  6  2  0  0  0  0
  5  7  1  0  0  0  0
  7  8  1  0  0  0  0
  7  9  1  0  0  0  0
  9 10  1  0  0  0  0
  9 11  1  0  0  0  0
  9 22  1  0  0  0  0
 11 12  1  0  0  0  0
 11 13  1  0  0  0  0
 11 14  1  0  0  0  0
 14 15  1  0  0  0  0
 14 20  2  0  0  0  0
 15 16  1  0  0  0  0
 15 17  1  0  0  0  0
 17 18  1  0  0  0  0
 17 19  2  0  0  0  0
 19 20  1  0  0  0  0
 20 21  1  0  0  0  0
 22 23  2  0  0  0  0
 22 24  1  0  0  0  0
 24 25  1  0  0  0  0
 24 26  1  0  0  0  0
 26 27  1  0  0  0  0
 26 28  1  0  0  0  0
 26 29  1  0  0  0  0
M  END
$$$$

  -OEChem-04042215593D

 29 29  0     1  0  0  0  0  0999 V2000
   -3.5821   -3.6200    1.4854 H   0  0  0  0  0  0  0  0  0  0  0  0
   -3.5018   -2.7108    0.8830 C   0  0  0  0  0  0  0  0  0  0  0  0
   -4.1245   -1.9339    1.3332 H   0  0  0  0  0  0  0  0  0  0  0  0
   -3.8663   -2.9222   -0.1252 H   0  0  0  0  0  0  0  0  0  0  0  0
   -2.0582   -2.2489    0.8243 C   0  0  0  0  0  0  0  0  0  0  0  0
   -1.1827   -2.9033    1.3685 O   0  0  0  0  0  0  0  0  0  0  0  0
   -1.7348   -1.0927    0.1468 N   0  0  0  0  0  0  0  0  0  0  0  0
   -2.5045   -0.5214   -0.2003 H   0  0  0  0  0  0  0  0  0  0  0  0
   -0.4041   -0.4686    0.1619 C   0  0  1  0  0  0  0  0  0  0  0  0
    0.1968   -0.8510    0.9933 H   0  0  0  0  0  0  0  0  0  0  0  0
    0.3096   -0.7966   -1.1604 C   0  0  0  0  0  0  0  0  0  0  0  0
    0.5999   -1.8520   -1.1744 H   0  0  0  0  0  0  0  0  0  0  0  0
   -0.3928   -0.6375   -1.9860 H   0  0  0  0  0  0  0  0  0  0  0  0
    1.5162    0.0766   -1.3931 C   0  0  0  0  0  0  0  0  0  0  0  0
    2.8094   -0.1800   -0.9957 N   0  0  0  0  0  0  0  0  0  0  0  0
    3.1352   -1.0048   -0.4949 H   0  0  0  0  0  0  0  0  0  0  0  0
    3.6140    0.8503   -1.4453 C   0  0  0  0  0  0  0  0  0  0  0  0
    4.6856    0.9229   -1.2827 H   0  0  0  0  0  0  0  0  0  0  0  0
    2.8964    1.7308   -2.0997 N   0  0  0  0  0  0  0  0  0  0  0  0
    1.5885    1.2560   -2.0895 C   0  0  0  0  0  0  0  0  0  0  0  0
    0.7451    1.7501   -2.5630 H   0  0  0  0  0  0  0  0  0  0  0  0
   -0.5698    1.0519    0.3698 C   0  0  0  0  0  0  0  0  0  0  0  0
   -1.4728    1.6454   -0.2115 O   0  0  0  0  0  0  0  0  0  0  0  0
    0.2303    1.7376    1.2655 N   0  0  0  0  0  0  0  0  0  0  0  0
    1.0130    1.2326    1.6704 H   0  0  0  0  0  0  0  0  0  0  0  0
    0.1643    3.1830    1.4423 C   0  0  0  0  0  0  0  0  0  0  0  0
   -0.8363    3.4845    1.7696 H   0  0  0  0  0  0  0  0  0  0  0  0
    0.8857    3.5044    2.1997 H   0  0  0  0  0  0  0  0  0  0  0  0
    0.3975    3.6945    0.5023 H   0  0  0  0  0  0  0  0  0  0  0  0
  1  2  1  0  0  0  0
  2  3  1  0  0  0  0
  2  4  1  0  0  0  0
  2  5  1  0  0  0  0
  5  6  2  0  0  0  0
  5  7  1  0  0  0  0
  7  8  1  0  0  0  0
  7  9  1  0  0  0  0
  9 10  1  0  0  0  0
  9 11  1  0  0  0  0
  9 22  1  0  0  0  0
 11 12  1  0  0  0  0
 11 13  1  0  0  0  0
 11 14  1  0  0  0  0
 14 15  1  0  0  0  0
 14 20  2  0  0  0  0
 15 16  1  0  0  0  0
 15 17  1  0  0  0  0
 17 18  1  0  0  0  0
 17 19  2  0  0  0  0
 19 20  1  0  0  0  0
 20 21  1  0  0  0  0
 22 23  2  0  0  0  0
 22 24  1  0  0  0  0
 24 25  1  0  0  0  0
 24 26  1  0  0  0  0
 26 27  1  0  0  0  0
 26 28  1  0  0  0  0
 26 29  1  0  0  0  0
M  END
$$$$

  -OEChem-04042215593D

 29 29  0     1  0  0  0  0  0999 V2000
   -3.5745   -3.6290    1.4708 H   0  0  0  0  0  0  0  0  0  0  0  0
   -3.4980   -2.7153    0.8748 C   0  0  0  0  0  0  0  0  0  0  0  0
   -4.1212   -1.9432    1.3324 H   0  0  0  0  0  0  0  0  0  0  0  0
   -3.8648   -2.9202   -0.1339 H   0  0  0  0  0  0  0  0  0  0  0  0
   -2.0557   -2.2492    0.8154 C   0  0  0  0  0  0  0  0  0  0  0  0
   -1.1763   -2.9074    1.3485 O   0  0  0  0  0  0  0  0  0  0  0  0
   -1.7382   -1.0845    0.1497 N   0  0  0  0  0  0  0  0  0  0  0  0
   -2.5115   -0.5129   -0.1888 H   0  0  0  0  0  0  0  0  0  0  0  0
   -0.4110   -0.4529    0.1708 C   0  0  1  0  0  0  0  0  0  0  0  0
    0.1876   -0.8367    1.0032 H   0  0  0  0  0  0  0  0  0  0  0  0
    0.3118   -0.7822   -1.1477 C   0  0  0  0  0  0  0  0  0  0  0  0
    0.6012   -1.8380   -1.1535 H   0  0  0  0  0  0  0  0  0  0  0  0
   -0.3888   -0.6305   -1.9760 H   0  0  0  0  0  0  0  0  0  0  0  0
    1.5203    0.0868   -1.3975 C   0  0  0  0  0  0  0  0  0  0  0  0
    2.8395   -0.2858   -1.2638 N   0  0  0  0  0  0  0  0  0  0  0  0
    3.1814   -1.1937   -0.9543 H   0  0  0  0  0  0  0  0  0  0  0  0
    3.6352    0.7747   -1.6543 C   0  0  0  0  0  0  0  0  0  0  0  0
    4.7215    0.7772   -1.6474 H   0  0  0  0  0  0  0  0  0  0  0  0
    2.8883    1.7818   -2.0360 N   0  0  0  0  0  0  0  0  0  0  0  0
    1.5685    1.3614   -1.9049 C   0  0  0  0  0  0  0  0  0  0  0  0
    0.7000    1.9583   -2.1688 H   0  0  0  0  0  0  0  0  0  0  0  0
   -0.5857    1.0635    0.3936 C   0  0  0  0  0  0  0  0  0  0  0  0
   -1.4887    1.6589   -0.1856 O   0  0  0  0  0  0  0  0  0  0  0  0
    0.2110    1.7439    1.2960 N   0  0  0  0  0  0  0  0  0  0  0  0
    0.9980    1.2387    1.6933 H   0  0  0  0  0  0  0  0  0  0  0  0
    0.1447    3.1884    1.4801 C   0  0  0  0  0  0  0  0  0  0  0  0
   -0.8592    3.4896    1.7972 H   0  0  0  0  0  0  0  0  0  0  0  0
    0.8575    3.5045    2.2477 H   0  0  0  0  0  0  0  0  0  0  0  0
    0.3897    3.7044    0.5456 H   0  0  0  0  0  0  0  0  0  0  0  0
  1  2  1  0  0  0  0
  2  3  1  0  0  0  0
  2  4  1  0  0  0  0
  2  5  1  0  0  0  0
  5  6  2  0  0  0  0
  5  7  1  0  0  0  0
  7  8  1  0  0  0  0
  7  9  1  0  0  0  0
  9 10  1  0  0  0  0
  9 11  1  0  0  0  0
  9 22  1  0  0  0  0
 11 12  1  0  0  0  0
 11 13  1  0  0  0  0
 11 14  1  0  0  0  0
 14 15  1  0  0  0  0
 14 20  2  0  0  0  0
 15 16  1  0  0  0  0
 15 17  1  0  0  0  0
 17 18  1  0  0  0  0
 17 19  2  0  0  0  0
 19 20  1  0  0  0  0
 20 21  1  0  0  0  0
 22 23  2  0  0  0  0
 22 24  1  0  0  0  0
 24 25  1  0  0  0  0
 24 26  1  0  0  0  0
 26 27  1  0  0  0  0
 26 28  1  0  0  0  0
 26 29  1  0  0  0  0
M  END
$$$$

  -OEChem-04042215593D

 29 29  0     1  0  0  0  0  0999 V2000
   -3.5569   -3.6372    1.4509 H   0  0  0  0  0  0  0  0  0  0  0  0
   -3.4853   -2.7171    0.8644 C   0  0  0  0  0  0  0  0  0  0  0  0
   -4.1125   -1.9531    1.3301 H   0  0  0  0  0  0  0  0  0  0  0  0
   -3.8514   -2.9134   -0.1461 H   0  0  0  0  0  0  0  0  0  0  0  0
   -2.0456   -2.2432    0.8099 C   0  0  0  0  0  0  0  0  0  0  0  0
   -1.1632   -2.9020    1.3372 O   0  0  0  0  0  0  0  0  0  0  0  0
   -1.7342   -1.0707    0.1550 N   0  0  0  0  0  0  0  0  0  0  0  0
   -2.5108   -0.5008   -0.1793 H   0  0  0  0  0  0  0  0  0  0  0  0
   -0.4111   -0.4299    0.1842 C   0  0  1  0  0  0  0  0  0  0  0  0
    0.1851   -0.8128    1.0186 H   0  0  0  0  0  0  0  0  0  0  0  0
    0.3209   -0.7626   -1.1314 C   0  0  0  0  0  0  0  0  0  0  0  0
    0.6084   -1.8189   -1.1206 H   0  0  0  0  0  0  0  0  0  0  0  0
   -0.3794   -0.6250   -1.9623 H   0  0  0  0  0  0  0  0  0  0  0  0
    1.5350    0.0935   -1.4145 C   0  0  0  0  0  0  0  0  0  0  0  0
    2.8247   -0.3668   -1.5677 N   0  0  0  0  0  0  0  0  0  0  0  0
    3.1356   -1.3311   -1.4670 H   0  0  0  0  0  0  0  0  0  0  0  0
    3.6392    0.6998   -1.8972 C   0  0  0  0  0  0  0  0  0  0  0  0
    4.7110    0.6406   -2.0632 H   0  0  0  0  0  0  0  0  0  0  0  0
    2.9295    1.7980   -1.9800 N   0  0  0  0  0  0  0  0  0  0  0  0
    1.6144    1.4329   -1.7117 C   0  0  0  0  0  0  0  0  0  0  0  0
    0.7704    2.1158   -1.7450 H   0  0  0  0  0  0  0  0  0  0  0  0
   -0.6042    1.0814    0.4198 C   0  0  0  0  0  0  0  0  0  0  0  0
   -1.5109    1.6729   -0.1573 O   0  0  0  0  0  0  0  0  0  0  0  0
    0.1824    1.7623    1.3306 N   0  0  0  0  0  0  0  0  0  0  0  0
    0.9675    1.2596    1.7353 H   0  0  0  0  0  0  0  0  0  0  0  0
    0.0898    3.2016    1.5430 C   0  0  0  0  0  0  0  0  0  0  0  0
   -0.9223    3.4800    1.8550 H   0  0  0  0  0  0  0  0  0  0  0  0
    0.7887    3.5135    2.3249 H   0  0  0  0  0  0  0  0  0  0  0  0
    0.3362    3.7409    0.6223 H   0  0  0  0  0  0  0  0  0  0  0  0
  1  2  1  0  0  0  0
  2  3  1  0  0  0  0
  2  4  1  0  0  0  0
  2  5  1  0  0  0  0
  5  6  2  0  0  0  0
  5  7  1  0  0  0  0
  7  8  1  0  0  0  0
  7  9  1  0  0  0  0
  9 10  1  0  0  0  0
  9 11  1  0  0  0  0
  9 22  1  0  0  0  0
 11 12  1  0  0  0  0
 11 13  1  0  0  0  0
 11 14  1  0  0  0  0
 14 15  1  0  0  0  0
 14 20  2  0  0  0  0
 15 16  1  0  0  0  0
 15 17  1  0  0  0  0
 17 18  1  0  0  0  0
 17 19  2  0  0  0  0
 19 20  1  0  0  0  0
 20 21  1  0  0  0  0
 22 23  2  0  0  0  0
 22 24  1  0  0  0  0
 24 25  1  0  0  0  0
 24 26  1  0  0  0  0
 26 27  1  0  0  0  0
 26 28  1  0  0  0  0
 26 29  1  0  0  0  0
M  END
$$$$

  -OEChem-04042215593D

 29 29  0     1  0  0  0  0  0999 V2000
   -3.5273   -3.6538    1.4127 H   0  0  0  0  0  0  0  0  0  0  0  0
   -3.4604   -2.7267    0.8367 C   0  0  0  0  0  0  0  0  0  0  0  0
   -4.1037   -1.9758    1.3019 H   0  0  0  0  0  0  0  0  0  0  0  0
   -3.8112   -2.9174   -0.1804 H   0  0  0  0  0  0  0  0  0  0  0  0
   -2.0266   -2.2326    0.8049 C   0  0  0  0  0  0  0  0  0  0  0  0
   -1.1412   -2.8854    1.3342 O   0  0  0  0  0  0  0  0  0  0  0  0
   -1.7229   -1.0510    0.1631 N   0  0  0  0  0  0  0  0  0  0  0  0
   -2.5030   -0.4888   -0.1761 H   0  0  0  0  0  0  0  0  0  0  0  0
   -0.4071   -0.3953    0.2056 C   0  0  1  0  0  0  0  0  0  0  0  0
    0.1876   -0.7742    1.0432 H   0  0  0  0  0  0  0  0  0  0  0  0
    0.3320   -0.7341   -1.1070 C   0  0  0  0  0  0  0  0  0  0  0  0
    0.6228   -1.7890   -1.0669 H   0  0  0  0  0  0  0  0  0  0  0  0
   -0.3705   -0.6240   -1.9400 H   0  0  0  0  0  0  0  0  0  0  0  0
    1.5513    0.1018   -1.4394 C   0  0  0  0  0  0  0  0  0  0  0  0
    2.7488   -0.4142   -1.8872 N   0  0  0  0  0  0  0  0  0  0  0  0
    2.9712   -1.4008   -2.0045 H   0  0  0  0  0  0  0  0  0  0  0  0
    3.6128    0.6293   -2.1570 C   0  0  0  0  0  0  0  0  0  0  0  0
    4.6349    0.5206   -2.5085 H   0  0  0  0  0  0  0  0  0  0  0  0
    3.0189    1.7733   -1.9260 N   0  0  0  0  0  0  0  0  0  0  0  0
    1.7296    1.4640   -1.5073 C   0  0  0  0  0  0  0  0  0  0  0  0
    0.9723    2.2100   -1.2899 H   0  0  0  0  0  0  0  0  0  0  0  0
   -0.6253    1.1096    0.4533 C   0  0  0  0  0  0  0  0  0  0  0  0
   -1.5334    1.6949   -0.1273 O   0  0  0  0  0  0  0  0  0  0  0  0
    0.1454    1.7932    1.3763 N   0  0  0  0  0  0  0  0  0  0  0  0
    0.9191    1.2920    1.8048 H   0  0  0  0  0  0  0  0  0  0  0  0
    0.0136    3.2241    1.6234 C   0  0  0  0  0  0  0  0  0  0  0  0
   -1.0048    3.4657    1.9455 H   0  0  0  0  0  0  0  0  0  0  0  0
    0.7068    3.5375    2.4099 H   0  0  0  0  0  0  0  0  0  0  0  0
    0.2406    3.7922    0.7151 H   0  0  0  0  0  0  0  0  0  0  0  0
  1  2  1  0  0  0  0
  2  3  1  0  0  0  0
  2  4  1  0  0  0  0
  2  5  1  0  0  0  0
  5  6  2  0  0  0  0
  5  7  1  0  0  0  0
  7  8  1  0  0  0  0
  7  9  1  0  0  0  0
  9 10  1  0  0  0  0
  9 11  1  0  0  0  0
  9 22  1  0  0  0  0
 11 12  1  0  0  0  0
 11 13  1  0  0  0  0
 11 14  1  0  0  0  0
 14 15  1  0  0  0  0
 14 20  2  0  0  0  0
 15 16  1  0  0  0  0
 15 17  1  0  0  0  0
 17 18  1  0  0  0  0
 17 19  2  0  0  0  0
 19 20  1  0  0  0  0
 20 21  1  0  0  0  0
 22 23  2  0  0  0  0
 22 24  1  0  0  0  0
 24 25  1  0  0  0  0
 24 26  1  0  0  0  0
 26 27  1  0  0  0  0
 26 28  1  0  0  0  0
 26 29  1  0  0  0  0
M  END
$$$$

  -OEChem-04042215593D

 29 29  0     1  0  0  0  0  0999 V2000
   -3.4907   -3.6664    1.3670 H   0  0  0  0  0  0  0  0  0  0  0  0
   -3.4273   -2.7341    0.7989 C   0  0  0  0  0  0  0  0  0  0  0  0
   -4.0909   -1.9966    1.2568 H   0  0  0  0  0  0  0  0  0  0  0  0
   -3.7554   -2.9233   -0.2259 H   0  0  0  0  0  0  0  0  0  0  0  0
   -2.0010   -2.2179    0.7981 C   0  0  0  0  0  0  0  0  0  0  0  0
   -1.1163   -2.8602    1.3410 O   0  0  0  0  0  0  0  0  0  0  0  0
   -1.7021   -1.0291    0.1673 N   0  0  0  0  0  0  0  0  0  0  0  0
   -2.4830   -0.4752   -0.1835 H   0  0  0  0  0  0  0  0  0  0  0  0
   -0.3940   -0.3590    0.2308 C   0  0  1  0  0  0  0  0  0  0  0  0
    0.2000   -0.7350    1.0701 H   0  0  0  0  0  0  0  0  0  0  0  0
    0.3440   -0.6980   -1.0845 C   0  0  0  0  0  0  0  0  0  0  0  0
    0.6357   -1.7519   -1.0262 H   0  0  0  0  0  0  0  0  0  0  0  0
   -0.3662   -0.6050   -1.9132 H   0  0  0  0  0  0  0  0  0  0  0  0
    1.5681    0.1135   -1.4662 C   0  0  0  0  0  0  0  0  0  0  0  0
    2.6117   -0.4075   -2.2025 N   0  0  0  0  0  0  0  0  0  0  0  0
    2.6879   -1.3651   -2.5391 H   0  0  0  0  0  0  0  0  0  0  0  0
    3.5554    0.5788   -2.4098 C   0  0  0  0  0  0  0  0  0  0  0  0
    4.4892    0.4480   -2.9493 H   0  0  0  0  0  0  0  0  0  0  0  0
    3.1593    1.6976   -1.8578 N   0  0  0  0  0  0  0  0  0  0  0  0
    1.9200    1.4315   -1.2865 C   0  0  0  0  0  0  0  0  0  0  0  0
    1.3235    2.1890   -0.7930 H   0  0  0  0  0  0  0  0  0  0  0  0
   -0.6440    1.1398    0.4847 C   0  0  0  0  0  0  0  0  0  0  0  0
   -1.5497    1.7158   -0.1085 O   0  0  0  0  0  0  0  0  0  0  0  0
    0.1009    1.8299    1.4246 N   0  0  0  0  0  0  0  0  0  0  0  0
    0.8479    1.3270    1.8966 H   0  0  0  0  0  0  0  0  0  0  0  0
   -0.0829    3.2480    1.7092 C   0  0  0  0  0  0  0  0  0  0  0  0
   -1.1027    3.4406    2.0586 H   0  0  0  0  0  0  0  0  0  0  0  0
    0.6154    3.5710    2.4872 H   0  0  0  0  0  0  0  0  0  0  0  0
    0.1012    3.8463    0.8106 H   0  0  0  0  0  0  0  0  0  0  0  0
  1  2  1  0  0  0  0
  2  3  1  0  0  0  0
  2  4  1  0  0  0  0
  2  5  1  0  0  0  0
  5  6  2  0  0  0  0
  5  7  1  0  0  0  0
  7  8  1  0  0  0  0
  7  9  1  0  0  0  0
  9 10  1  0  0  0  0
  9 11  1  0  0  0  0
  9 22  1  0  0  0  0
 11 12  1  0  0  0  0
 11 13  1  0  0  0  0
 11 14  1  0  0  0  0
 14 15  1  0  0  0  0
 14 20  2  0  0  0  0
 15 16  1  0  0  0  0
 15 17  1  0  0  0  0
 17 18  1  0  0  0  0
 17 19  2  0  0  0  0
 19 20  1  0  0  0  0
 20 21  1  0  0  0  0
 22 23  2  0  0  0  0
 22 24  1  0  0  0  0
 24 25  1  0  0  0  0
 24 26  1  0  0  0  0
 26 27  1  0  0  0  0
 26 28  1  0  0  0  0
 26 29  1  0  0  0  0
M  END
$$$$

  -OEChem-04042215593D

 29 29  0     1  0  0  0  0  0999 V2000
   -3.4781   -3.6603    1.3343 H   0  0  0  0  0  0  0  0  0  0  0  0
   -3.4105   -2.7233    0.7747 C   0  0  0  0  0  0  0  0  0  0  0  0
   -4.0765   -1.9895    1.2349 H   0  0  0  0  0  0  0  0  0  0  0  0
   -3.7320   -2.9028   -0.2540 H   0  0  0  0  0  0  0  0  0  0  0  0
   -1.9839   -2.2085    0.7882 C   0  0  0  0  0  0  0  0  0  0  0  0
   -1.1062   -2.8498    1.3432 O   0  0  0  0  0  0  0  0  0  0  0  0
   -1.6778   -1.0180    0.1646 N   0  0  0  0  0  0  0  0  0  0  0  0
   -2.4546   -0.4616   -0.1922 H   0  0  0  0  0  0  0  0  0  0  0  0
   -0.3715   -0.3467    0.2525 C   0  0  1  0  0  0  0  0  0  0  0  0
    0.2229   -0.7252    1.0907 H   0  0  0  0  0  0  0  0  0  0  0  0
    0.3553   -0.6702   -1.0739 C   0  0  0  0  0  0  0  0  0  0  0  0
    0.6354   -1.7281   -1.0356 H   0  0  0  0  0  0  0  0  0  0  0  0
   -0.3655   -0.5552   -1.8908 H   0  0  0  0  0  0  0  0  0  0  0  0
    1.5840    0.1240   -1.4759 C   0  0  0  0  0  0  0  0  0  0  0  0
    2.4404   -0.3025   -2.4698 N   0  0  0  0  0  0  0  0  0  0  0  0
    2.3402   -1.1519   -3.0218 H   0  0  0  0  0  0  0  0  0  0  0  0
    3.4717    0.6060   -2.6011 C   0  0  0  0  0  0  0  0  0  0  0  0
    4.2927    0.5249   -3.3079 H   0  0  0  0  0  0  0  0  0  0  0  0
    3.3165    1.5819   -1.7431 N   0  0  0  0  0  0  0  0  0  0  0  0
    2.1497    1.3000   -1.0421 C   0  0  0  0  0  0  0  0  0  0  0  0
    1.7676    1.9444   -0.2630 H   0  0  0  0  0  0  0  0  0  0  0  0
   -0.6517    1.1487    0.5057 C   0  0  0  0  0  0  0  0  0  0  0  0
   -1.5528    1.7116   -0.1074 O   0  0  0  0  0  0  0  0  0  0  0  0
    0.0586    1.8521    1.4623 N   0  0  0  0  0  0  0  0  0  0  0  0
    0.7793    1.3539    1.9782 H   0  0  0  0  0  0  0  0  0  0  0  0
   -0.1668    3.2634    1.7501 C   0  0  0  0  0  0  0  0  0  0  0  0
   -1.1901    3.4236    2.1055 H   0  0  0  0  0  0  0  0  0  0  0  0
    0.5261    3.6073    2.5240 H   0  0  0  0  0  0  0  0  0  0  0  0
   -0.0067    3.8677    0.8508 H   0  0  0  0  0  0  0  0  0  0  0  0
  1  2  1  0  0  0  0
  2  3  1  0  0  0  0
  2  4  1  0  0  0  0
  2  5  1  0  0  0  0
  5  6  2  0  0  0  0
  5  7  1  0  0  0  0
  7  8  1  0  0  0  0
  7  9  1  0  0  0  0
  9 10  1  0  0  0  0
  9 11  1  0  0  0  0
  9 22  1  0  0  0  0
 11 12  1  0  0  0  0
 11 13  1  0  0  0  0
 11 14  1  0  0  0  0
 14 15  1  0  0  0  0
 14 20  2  0  0  0  0
 15 16  1  0  0  0  0
 15 17  1  0  0  0  0
 17 18  1  0  0  0  0
 17 19  2  0  0  0  0
 19 20  1  0  0  0  0
 20 21  1  0  0  0  0
 22 23  2  0  0  0  0
 22 24  1  0  0  0  0
 24 25  1  0  0  0  0
 24 26  1  0  0  0  0
 26 27  1  0  0  0  0
 26 28  1  0  0  0  0
 26 29  1  0  0  0  0
M  END
$$$$
